REMARK SMILES C[C@H](C(=O)NCCCCCCNC(=O)c1ccc(-c2c3nc(c(-c4c(F)cc(S(=O)(=O)[O-])cc4F)c4ccc([nH]4)c(-c4c(F)cc(S(=O)(=O)[O-])cc4F)c4nc(c(-c5c(F)cc(S(=O)(=O)[O-])cc5F)c5ccc2[nH]5)C=C4)C=C3)cc1)[C@H](C)[NH+]1CCN(S(C)(=O)=O)CC1
REMARK SMILES IDX 8 1 7 2 6 3 5 4 3 5 4 6 2 8 1 9 81 10 82 11 83 12 84 13
REMARK SMILES IDX 92 14 85 16 91 17 86 18 87 19 88 20 89 21 90 22 9 23 10 24
REMARK SMILES IDX 11 25 12 26 13 27 14 29 15 30 16 31 80 32 17 33 79 34 18 35
REMARK SMILES IDX 19 36 20 37 73 38 21 39 78 40 72 41 74 42 22 43 77 44 71 45
REMARK SMILES IDX 70 46 23 48 57 49 36 50 56 51 37 52 40 53 55 54 75 55 38 56
REMARK SMILES IDX 39 57 54 59 76 60 41 61 24 62 25 63 34 64 26 65 27 66 33 67
REMARK SMILES IDX 35 68 28 69 29 70 30 71 31 72 32 73 58 74 59 75 68 76 60 77
REMARK SMILES IDX 61 78 67 79 69 80 62 81 63 82 64 83 65 84 66 85 42 86 43 87
REMARK SMILES IDX 52 88 44 89 45 90 51 91 53 92 46 93 47 94 48 95 49 96 50 97
REMARK H PARENT 5 7 83 15 12 28 74 47 40 58
REMARK Flexibility Score: inf
ROOT
ATOM      1  C   UNL     1      -0.882   1.232  -3.735  1.00  0.00     0.002 C 
ENDROOT
BRANCH   1   2
ATOM      2  C   UNL     1      -1.581   1.342  -2.374  1.00  0.00     0.021 C 
BRANCH   2   3
ATOM      3  C   UNL     1      -2.249   0.053  -1.899  1.00  0.00     0.116 C 
BRANCH   3   4
ATOM      4  N   UNL     1      -1.294  -1.032  -1.820  1.00  0.00    -0.356 N 
ATOM      5  C   UNL     1      -0.880  -1.755  -0.750  1.00  0.00     0.228 C 
ATOM      6  O   UNL     1      -0.030  -2.627  -0.941  1.00  0.00    -0.275 OA
ATOM      7  H   UNL     1      -0.881  -1.285  -2.678  1.00  0.00     0.163 HD
BRANCH   5   8
ATOM      8  C   UNL     1      -1.428  -1.443   0.639  1.00  0.00     0.133 C 
ATOM      9  C   UNL     1      -1.394  -2.745   1.443  1.00  0.00     0.024 C 
BRANCH   8  10
ATOM     10  C   UNL     1      -0.704  -0.192   1.254  1.00  0.00     0.193 C 
ATOM     11  C   UNL     1       0.806  -0.161   0.985  1.00  0.00     0.076 C 
BRANCH  10  12
ATOM     12  N   UNL     1      -1.091   0.064   2.661  1.00  0.00    -0.330 N 
ATOM     13  C   UNL     1      -0.413  -0.738   3.694  1.00  0.00     0.279 C 
ATOM     14  C   UNL     1      -1.138   1.493   3.043  1.00  0.00     0.279 C 
ATOM     15  H   UNL     1      -2.051  -0.281   2.648  1.00  0.00     0.348 HD
ATOM     16  C   UNL     1       0.879  -0.166   4.293  1.00  0.00     0.163 C 
ATOM     17  C   UNL     1       0.121   2.105   3.696  1.00  0.00     0.163 C 
ATOM     18  N   UNL     1       0.697   1.226   4.740  1.00  0.00    -0.191 NA
BRANCH  18  19
ATOM     19  S   UNL     1       0.449   1.551   6.365  1.00  0.00     0.211 S 
ATOM     20  C   UNL     1      -1.259   1.124   6.633  1.00  0.00     0.176 C 
ATOM     21  O   UNL     1       1.253   0.626   7.135  1.00  0.00    -0.212 OA
ATOM     22  O   UNL     1       0.576   2.981   6.557  1.00  0.00    -0.212 OA
ENDBRANCH  18  19
ENDBRANCH  10  12
ENDBRANCH   8  10
ENDBRANCH   5   8
ENDBRANCH   3   4
ENDBRANCH   2   3
ENDBRANCH   1   2
BRANCH   1  23
ATOM     23  C   UNL     1      -1.743   0.657  -4.864  1.00  0.00     0.002 C 
BRANCH  23  24
ATOM     24  C   UNL     1      -3.067   1.385  -5.103  1.00  0.00     0.021 C 
BRANCH  24  25
ATOM     25  C   UNL     1      -2.925   2.870  -5.418  1.00  0.00     0.116 C 
BRANCH  25  26
ATOM     26  N   UNL     1      -2.183   3.099  -6.647  1.00  0.00    -0.352 N 
ATOM     27  C   UNL     1      -2.559   3.784  -7.776  1.00  0.00     0.251 C 
ATOM     28  H   UNL     1      -1.280   2.706  -6.673  1.00  0.00     0.163 HD
ATOM     29  O   UNL     1      -1.882   3.700  -8.796  1.00  0.00    -0.269 OA
BRANCH  27  30
ATOM     30  C   UNL     1      -3.792   4.599  -7.764  1.00  0.00     0.039 A 
ATOM     31  C   UNL     1      -4.677   4.497  -8.840  1.00  0.00     0.014 A 
ATOM     32  C   UNL     1      -4.081   5.453  -6.695  1.00  0.00     0.014 A 
ATOM     33  C   UNL     1      -5.886   5.194  -8.807  1.00  0.00     0.010 A 
ATOM     34  C   UNL     1      -5.318   6.090  -6.631  1.00  0.00     0.010 A 
ATOM     35  C   UNL     1      -6.238   5.960  -7.683  1.00  0.00    -0.014 A 
BRANCH  35  36
ATOM     36  C   UNL     1      -7.581   6.588  -7.575  1.00  0.00     0.031 A 
ATOM     37  C   UNL     1      -7.723   8.085  -7.497  1.00  0.00     0.074 A 
ATOM     38  C   UNL     1      -8.671   5.798  -7.483  1.00  0.00     0.049 A 
ATOM     39  N   UNL     1      -8.807   8.800  -7.344  1.00  0.00    -0.248 NA
ATOM     40  C   UNL     1      -6.488   8.881  -7.582  1.00  0.00     0.031 C 
ATOM     41  C   UNL     1      -8.656   4.332  -7.493  1.00  0.00     0.029 A 
ATOM     42  N   UNL     1     -10.002   6.111  -7.350  1.00  0.00    -0.354 N 
ATOM     43  C   UNL     1      -8.388  10.125  -7.303  1.00  0.00     0.074 A 
ATOM     44  C   UNL     1      -6.945  10.114  -7.407  1.00  0.00     0.031 C 
ATOM     45  C   UNL     1      -9.915   3.877  -7.390  1.00  0.00     0.029 A 
ATOM     46  C   UNL     1     -10.823   5.011  -7.260  1.00  0.00     0.049 A 
ATOM     47  H   UNL     1     -10.337   7.036  -7.322  1.00  0.00     0.167 HD
ATOM     48  C   UNL     1      -9.140  11.246  -7.206  1.00  0.00     0.037 A 
ATOM     49  C   UNL     1     -12.155   4.922  -7.074  1.00  0.00     0.037 A 
ATOM     50  C   UNL     1     -10.579  11.250  -7.132  1.00  0.00     0.049 A 
ATOM     51  C   UNL     1     -12.963   6.188  -6.958  1.00  0.00     0.074 A 
ATOM     52  C   UNL     1     -11.433  12.339  -7.111  1.00  0.00     0.029 A 
ATOM     53  N   UNL     1     -11.376  10.118  -7.059  1.00  0.00    -0.354 N 
ATOM     54  N   UNL     1     -12.555   7.434  -7.013  1.00  0.00    -0.248 NA
ATOM     55  C   UNL     1     -14.411   6.039  -6.760  1.00  0.00     0.031 C 
ATOM     56  C   UNL     1     -12.741  11.868  -6.962  1.00  0.00     0.029 A 
ATOM     57  C   UNL     1     -12.709  10.484  -6.954  1.00  0.00     0.049 A 
ATOM     58  H   UNL     1     -11.045   9.191  -7.078  1.00  0.00     0.167 HD
ATOM     59  C   UNL     1     -13.699   8.214  -6.881  1.00  0.00     0.074 A 
ATOM     60  C   UNL     1     -14.816   7.301  -6.768  1.00  0.00     0.031 C 
ATOM     61  C   UNL     1     -13.813   9.564  -6.851  1.00  0.00     0.037 A 
BRANCH  48  62
ATOM     62  C   UNL     1      -8.440  12.577  -7.178  1.00  0.00     0.058 A 
ATOM     63  C   UNL     1      -7.838  13.119  -8.324  1.00  0.00     0.135 A 
ATOM     64  C   UNL     1      -8.464  13.367  -6.016  1.00  0.00     0.135 A 
ATOM     65  F   UNL     1      -7.771  12.402  -9.457  1.00  0.00    -0.206 F 
ATOM     66  C   UNL     1      -7.285  14.396  -8.319  1.00  0.00     0.059 A 
ATOM     67  C   UNL     1      -7.941  14.656  -5.996  1.00  0.00     0.059 A 
ATOM     68  F   UNL     1      -9.023  12.895  -4.890  1.00  0.00    -0.206 F 
ATOM     69  C   UNL     1      -7.351  15.161  -7.154  1.00  0.00     0.060 A 
BRANCH  69  70
ATOM     70  S   UNL     1      -6.682  16.837  -7.186  1.00  0.00     0.124 S 
ATOM     71  O   UNL     1      -5.248  16.577  -7.272  1.00  0.00    -0.237 OA
ATOM     72  O   UNL     1      -7.298  17.394  -8.386  1.00  0.00    -0.237 OA
ATOM     73  O   UNL     1      -7.139  17.412  -5.924  1.00  0.00    -0.744 OA
ENDBRANCH  69  70
ENDBRANCH  48  62
BRANCH  49  74
ATOM     74  C   UNL     1     -12.816   3.591  -6.968  1.00  0.00     0.058 A 
ATOM     75  C   UNL     1     -13.727   3.152  -7.940  1.00  0.00     0.135 A 
ATOM     76  C   UNL     1     -12.575   2.747  -5.872  1.00  0.00     0.135 A 
ATOM     77  F   UNL     1     -13.995   3.923  -9.005  1.00  0.00    -0.206 F 
ATOM     78  C   UNL     1     -14.407   1.945  -7.810  1.00  0.00     0.059 A 
ATOM     79  C   UNL     1     -13.217   1.520  -5.737  1.00  0.00     0.059 A 
ATOM     80  F   UNL     1     -11.698   3.108  -4.922  1.00  0.00    -0.206 F 
ATOM     81  C   UNL     1     -14.148   1.138  -6.701  1.00  0.00     0.060 A 
BRANCH  81  82
ATOM     82  S   UNL     1     -15.032  -0.428  -6.541  1.00  0.00     0.124 S 
ATOM     83  O   UNL     1     -16.370   0.028  -6.183  1.00  0.00    -0.237 OA
ATOM     84  O   UNL     1     -14.886  -1.001  -7.875  1.00  0.00    -0.237 OA
ATOM     85  O   UNL     1     -14.298  -1.121  -5.486  1.00  0.00    -0.744 OA
ENDBRANCH  81  82
ENDBRANCH  49  74
BRANCH  61  86
ATOM     86  C   UNL     1     -15.197  10.140  -6.720  1.00  0.00     0.058 A 
ATOM     87  C   UNL     1     -15.925  10.050  -5.523  1.00  0.00     0.135 A 
ATOM     88  C   UNL     1     -15.784  10.834  -7.791  1.00  0.00     0.135 A 
ATOM     89  F   UNL     1     -15.414   9.392  -4.470  1.00  0.00    -0.206 F 
ATOM     90  C   UNL     1     -17.195  10.603  -5.401  1.00  0.00     0.059 A 
ATOM     91  C   UNL     1     -17.039  11.424  -7.681  1.00  0.00     0.059 A 
ATOM     92  F   UNL     1     -15.128  10.960  -8.956  1.00  0.00    -0.206 F 
ATOM     93  C   UNL     1     -17.743  11.291  -6.485  1.00  0.00     0.060 A 
BRANCH  93  94
ATOM     94  S   UNL     1     -19.378  12.031  -6.300  1.00  0.00     0.124 S 
ATOM     95  O   UNL     1     -20.237  10.851  -6.303  1.00  0.00    -0.237 OA
ATOM     96  O   UNL     1     -19.262  12.728  -5.023  1.00  0.00    -0.237 OA
ATOM     97  O   UNL     1     -19.496  12.895  -7.471  1.00  0.00    -0.744 OA
ENDBRANCH  93  94
ENDBRANCH  61  86
ENDBRANCH  35  36
ENDBRANCH  27  30
ENDBRANCH  25  26
ENDBRANCH  24  25
ENDBRANCH  23  24
ENDBRANCH   1  23
TORSDOF 19
