REMARK SMILES COc1ccc(-c2cc(Cl)cc3c2O[C@@H](C(F)(F)F)C(C(=O)NCCCCCCNC(=O)c2ccc(-c4c5nc(c(-c6c(F)cc(S(=O)(=O)[O-])cc6F)c6ccc([nH]6)c(-c6c(F)cc(S(=O)(=O)[O-])cc6F)c6nc(c(-c7c(F)cc(S(=O)(=O)[O-])cc7F)c7ccc4[nH]7)C=C6)C=C5)cc2)=C3)cc1C
REMARK SMILES IDX 27 1 26 2 25 3 24 4 23 5 21 6 22 7 20 9 7 10 8 11 13 12 9 13
REMARK SMILES IDX 12 14 14 15 10 16 11 17 99 18 15 19 6 20 3 21 4 22 101 23
REMARK SMILES IDX 5 24 100 25 102 26 2 27 1 28 16 29 17 30 18 31 19 32 28 33
REMARK SMILES IDX 29 34 30 35 31 36 32 38 33 39 34 40 98 41 35 42 97 43 36 44
REMARK SMILES IDX 37 45 38 46 91 47 39 48 96 49 90 50 92 51 40 52 95 53 89 54
REMARK SMILES IDX 88 55 41 57 75 58 54 59 74 60 55 61 58 62 73 63 93 64 56 65
REMARK SMILES IDX 57 66 72 68 94 69 59 70 42 71 43 72 52 73 44 74 45 75 51 76
REMARK SMILES IDX 53 77 46 78 47 79 48 80 49 81 50 82 76 83 77 84 86 85 78 86
REMARK SMILES IDX 79 87 85 88 87 89 80 90 81 91 82 92 83 93 84 94 60 95 61 96
REMARK SMILES IDX 70 97 62 98 63 99 69 100 71 101 64 102 65 103 66 104 67 105
REMARK SMILES IDX 68 106
REMARK H PARENT 23 8 30 37 92 56 58 67
REMARK Flexibility Score: inf
ROOT
ATOM      1  C   UNL     1      -3.156  -4.900   5.539  1.00  0.00     0.002 C 
ENDROOT
BRANCH   1   2
ATOM      2  C   UNL     1      -3.532  -3.429   5.714  1.00  0.00     0.002 C 
BRANCH   2   3
ATOM      3  C   UNL     1      -3.133  -2.716   7.002  1.00  0.00     0.021 C 
BRANCH   3   4
ATOM      4  C   UNL     1      -1.792  -2.997   7.676  1.00  0.00     0.116 C 
BRANCH   4   5
ATOM      5  N   UNL     1      -0.563  -2.774   6.946  1.00  0.00    -0.352 N 
ATOM      6  C   UNL     1       0.728  -2.596   7.376  1.00  0.00     0.251 C 
ATOM      7  O   UNL     1       1.617  -2.837   6.551  1.00  0.00    -0.270 OA
ATOM      8  H   UNL     1      -0.673  -2.745   5.968  1.00  0.00     0.163 HD
BRANCH   6   9
ATOM      9  C   UNL     1       1.132  -2.062   8.763  1.00  0.00     0.067 C 
ATOM     10  C   UNL     1       0.874   1.526   7.023  1.00  0.00     0.026 A 
ATOM     11  C   UNL     1       1.833   2.528   7.275  1.00  0.00     0.033 A 
ATOM     12  C   UNL     1       0.941   0.419   7.865  1.00  0.00     0.135 A 
ATOM     13  C   UNL     1       2.978   2.238   8.026  1.00  0.00     0.042 A 
ATOM     14  C   UNL     1       2.207  -0.010   8.342  1.00  0.00     0.019 A 
ATOM     15  O   UNL     1      -0.236  -0.174   8.380  1.00  0.00    -0.475 OA
ATOM     16  Cl  UNL     1       4.175   3.453   8.247  1.00  0.00    -0.084 Cl
ATOM     17  C   UNL     1       3.217   0.937   8.473  1.00  0.00     0.032 A 
ATOM     18  C   UNL     1       2.352  -1.457   8.742  1.00  0.00     0.025 C 
ATOM     19  C   UNL     1       0.164  -1.108   9.437  1.00  0.00     0.314 C 
BRANCH  10  20
ATOM     20  C   UNL     1       0.593   1.316   5.570  1.00  0.00    -0.014 A 
ATOM     21  C   UNL     1       0.382   1.195   2.744  1.00  0.00     0.121 A 
ATOM     22  C   UNL     1      -0.726   1.506   3.550  1.00  0.00     0.047 A 
ATOM     23  C   UNL     1       1.616   0.924   3.335  1.00  0.00    -0.008 A 
ATOM     24  C   UNL     1      -0.627   1.567   4.953  1.00  0.00     0.013 A 
ATOM     25  C   UNL     1       1.685   0.946   4.739  1.00  0.00     0.016 A 
ATOM     26  C   UNL     1       2.878   0.664   2.564  1.00  0.00     0.048 C 
BRANCH  21  27
ATOM     27  O   UNL     1       0.185   1.316   1.393  1.00  0.00    -0.496 OA
ATOM     28  C   UNL     1       0.533   0.159   0.637  1.00  0.00     0.278 C 
ENDBRANCH  21  27
ENDBRANCH  10  20
BRANCH  19  29
ATOM     29  C   UNL     1      -0.804  -1.747  10.452  1.00  0.00     0.429 C 
ATOM     30  F   UNL     1      -0.302  -1.610  11.712  1.00  0.00    -0.167 F 
ATOM     31  F   UNL     1      -2.021  -1.169  10.453  1.00  0.00    -0.167 F 
ATOM     32  F   UNL     1      -0.962  -3.080  10.277  1.00  0.00    -0.167 F 
ENDBRANCH  19  29
ENDBRANCH   6   9
ENDBRANCH   4   5
ENDBRANCH   3   4
ENDBRANCH   2   3
ENDBRANCH   1   2
BRANCH   1  33
ATOM     33  C   UNL     1      -3.518  -5.852   6.674  1.00  0.00     0.021 C 
BRANCH  33  34
ATOM     34  C   UNL     1      -5.008  -6.091   6.884  1.00  0.00     0.116 C 
BRANCH  34  35
ATOM     35  N   UNL     1      -5.476  -7.316   6.260  1.00  0.00    -0.352 N 
ATOM     36  C   UNL     1      -6.658  -8.012   6.475  1.00  0.00     0.251 C 
ATOM     37  H   UNL     1      -4.870  -7.709   5.591  1.00  0.00     0.163 HD
ATOM     38  O   UNL     1      -6.784  -9.158   6.109  1.00  0.00    -0.269 OA
BRANCH  36  39
ATOM     39  C   UNL     1      -7.803  -7.267   7.053  1.00  0.00     0.039 A 
ATOM     40  C   UNL     1      -8.967  -7.179   6.279  1.00  0.00     0.014 A 
ATOM     41  C   UNL     1      -7.665  -6.509   8.209  1.00  0.00     0.014 A 
ATOM     42  C   UNL     1      -9.910  -6.189   6.555  1.00  0.00     0.010 A 
ATOM     43  C   UNL     1      -8.553  -5.476   8.432  1.00  0.00     0.010 A 
ATOM     44  C   UNL     1      -9.652  -5.285   7.579  1.00  0.00    -0.014 A 
BRANCH  44  45
ATOM     45  C   UNL     1     -10.408  -4.064   7.840  1.00  0.00     0.031 A 
ATOM     46  C   UNL     1     -11.180  -3.933   9.096  1.00  0.00     0.074 A 
ATOM     47  C   UNL     1     -10.184  -2.972   7.077  1.00  0.00     0.049 A 
ATOM     48  N   UNL     1     -11.845  -2.884   9.439  1.00  0.00    -0.248 NA
ATOM     49  C   UNL     1     -11.319  -5.030  10.050  1.00  0.00     0.031 C 
ATOM     50  C   UNL     1     -10.355  -1.575   7.466  1.00  0.00     0.029 A 
ATOM     51  N   UNL     1      -9.973  -2.923   5.699  1.00  0.00    -0.354 N 
ATOM     52  C   UNL     1     -12.251  -3.041  10.742  1.00  0.00     0.074 A 
ATOM     53  C   UNL     1     -12.011  -4.434  11.025  1.00  0.00     0.031 C 
ATOM     54  C   UNL     1     -10.477  -0.824   6.363  1.00  0.00     0.029 A 
ATOM     55  C   UNL     1     -10.579  -1.732   5.237  1.00  0.00     0.049 A 
ATOM     56  H   UNL     1      -9.494  -3.588   5.153  1.00  0.00     0.167 HD
ATOM     57  C   UNL     1     -12.635  -1.933  11.441  1.00  0.00     0.037 A 
ATOM     58  C   UNL     1     -11.647  -1.782   4.383  1.00  0.00     0.037 A 
ATOM     59  C   UNL     1     -12.896  -0.813  10.527  1.00  0.00     0.049 A 
ATOM     60  C   UNL     1     -12.944  -1.218   4.935  1.00  0.00     0.074 A 
ATOM     61  C   UNL     1     -12.274   0.380  10.201  1.00  0.00     0.029 A 
ATOM     62  N   UNL     1     -13.901  -0.978   9.589  1.00  0.00    -0.354 N 
ATOM     63  N   UNL     1     -13.084  -0.705   6.127  1.00  0.00    -0.248 NA
ATOM     64  C   UNL     1     -14.212  -1.259   4.202  1.00  0.00     0.031 C 
ATOM     65  C   UNL     1     -12.907   0.906   9.030  1.00  0.00     0.029 A 
ATOM     66  C   UNL     1     -13.921   0.041   8.661  1.00  0.00     0.049 A 
ATOM     67  H   UNL     1     -14.529  -1.736   9.586  1.00  0.00     0.167 HD
ATOM     68  C   UNL     1     -14.410  -0.448   6.361  1.00  0.00     0.074 A 
ATOM     69  C   UNL     1     -15.074  -0.778   5.114  1.00  0.00     0.031 C 
ATOM     70  C   UNL     1     -14.886  -0.043   7.575  1.00  0.00     0.037 A 
BRANCH  57  71
ATOM     71  C   UNL     1     -12.661  -1.794  12.958  1.00  0.00     0.058 A 
ATOM     72  C   UNL     1     -12.918  -0.535  13.552  1.00  0.00     0.135 A 
ATOM     73  C   UNL     1     -12.332  -2.806  13.888  1.00  0.00     0.135 A 
ATOM     74  F   UNL     1     -13.258   0.530  12.812  1.00  0.00    -0.206 F 
ATOM     75  C   UNL     1     -12.807  -0.295  14.928  1.00  0.00     0.059 A 
ATOM     76  C   UNL     1     -12.242  -2.597  15.266  1.00  0.00     0.059 A 
ATOM     77  F   UNL     1     -12.034  -4.054  13.526  1.00  0.00    -0.206 F 
ATOM     78  C   UNL     1     -12.453  -1.332  15.778  1.00  0.00     0.060 A 
BRANCH  78  79
ATOM     79  S   UNL     1     -12.234  -1.015  17.537  1.00  0.00     0.124 S 
ATOM     80  O   UNL     1     -11.075  -0.129  17.540  1.00  0.00    -0.237 OA
ATOM     81  O   UNL     1     -13.506  -0.404  17.904  1.00  0.00    -0.237 OA
ATOM     82  O   UNL     1     -11.999  -2.344  18.096  1.00  0.00    -0.744 OA
ENDBRANCH  78  79
ENDBRANCH  57  71
BRANCH  58  83
ATOM     83  C   UNL     1     -11.533  -2.910   3.416  1.00  0.00     0.058 A 
ATOM     84  C   UNL     1     -10.470  -2.859   2.494  1.00  0.00     0.135 A 
ATOM     85  C   UNL     1     -12.079  -4.166   3.717  1.00  0.00     0.135 A 
ATOM     86  F   UNL     1      -9.928  -1.676   2.158  1.00  0.00    -0.206 F 
ATOM     87  C   UNL     1      -9.838  -4.014   2.052  1.00  0.00     0.059 A 
ATOM     88  C   UNL     1     -11.472  -5.338   3.269  1.00  0.00     0.059 A 
ATOM     89  F   UNL     1     -13.101  -4.270   4.580  1.00  0.00    -0.206 F 
ATOM     90  C   UNL     1     -10.302  -5.245   2.512  1.00  0.00     0.060 A 
BRANCH  90  91
ATOM     91  S   UNL     1      -9.225  -6.681   2.295  1.00  0.00     0.124 S 
ATOM     92  O   UNL     1      -9.059  -6.722   0.846  1.00  0.00    -0.237 OA
ATOM     93  O   UNL     1      -8.046  -6.276   3.057  1.00  0.00    -0.237 OA
ATOM     94  O   UNL     1     -10.002  -7.772   2.873  1.00  0.00    -0.744 OA
ENDBRANCH  90  91
ENDBRANCH  58  83
BRANCH  70  95
ATOM     95  C   UNL     1     -16.337   0.252   7.839  1.00  0.00     0.058 A 
ATOM     96  C   UNL     1     -17.095   1.089   7.003  1.00  0.00     0.135 A 
ATOM     97  C   UNL     1     -16.980  -0.200   9.013  1.00  0.00     0.135 A 
ATOM     98  F   UNL     1     -16.560   1.603   5.884  1.00  0.00    -0.206 F 
ATOM     99  C   UNL     1     -18.416   1.433   7.298  1.00  0.00     0.059 A 
ATOM    100  C   UNL     1     -18.278   0.169   9.351  1.00  0.00     0.059 A 
ATOM    101  F   UNL     1     -16.372  -1.045   9.858  1.00  0.00    -0.206 F 
ATOM    102  C   UNL     1     -18.998   0.971   8.477  1.00  0.00     0.060 A 
BRANCH 102 103
ATOM    103  S   UNL     1     -20.692   1.441   8.880  1.00  0.00     0.124 S 
ATOM    104  O   UNL     1     -20.772   2.811   8.381  1.00  0.00    -0.237 OA
ATOM    105  O   UNL     1     -21.455   0.450   8.127  1.00  0.00    -0.237 OA
ATOM    106  O   UNL     1     -20.744   1.306  10.332  1.00  0.00    -0.744 OA
ENDBRANCH 102 103
ENDBRANCH  70  95
ENDBRANCH  44  45
ENDBRANCH  36  39
ENDBRANCH  34  35
ENDBRANCH  33  34
ENDBRANCH   1  33
TORSDOF 19
