REMARK SMILES CC(C)C[C@H](NC(=O)CNC(=O)[C@@H]([NH3+])C(C)C)C(=O)NCCCCCCNC(=O)c1ccc(-c2c3nc(c(-c4c(F)cc(S(=O)(=O)[O-])cc4F)c4ccc([nH]4)c(-c4c(F)cc(S(=O)(=O)[O-])cc4F)c4nc(c(-c5c(F)cc(S(=O)(=O)[O-])cc5F)c5ccc2[nH]5)C=C4)C=C3)cc1
REMARK SMILES IDX 22 1 21 2 20 3 18 4 19 5 5 7 4 8 2 9 1 10 3 11 6 12 7 13
REMARK SMILES IDX 8 15 9 16 10 17 11 18 12 20 13 21 14 22 15 26 16 27 17 28
REMARK SMILES IDX 23 29 24 30 25 31 26 32 27 33 28 34 29 36 30 37 31 38 95 39
REMARK SMILES IDX 32 40 94 41 33 42 34 43 35 44 88 45 36 46 93 47 87 48 89 49
REMARK SMILES IDX 37 50 92 51 86 52 85 53 38 55 72 56 51 57 71 58 52 59 55 60
REMARK SMILES IDX 70 61 90 62 53 63 54 64 69 66 91 67 56 68 39 69 40 70 49 71
REMARK SMILES IDX 41 72 42 73 48 74 50 75 43 76 44 77 45 78 46 79 47 80 73 81
REMARK SMILES IDX 74 82 83 83 75 84 76 85 82 86 84 87 77 88 78 89 79 90 80 91
REMARK SMILES IDX 81 92 57 93 58 94 67 95 59 96 60 97 66 98 68 99 61 100
REMARK SMILES IDX 62 101 63 102 64 103 65 104
REMARK H PARENT 20 6 6 14 10 19 14 23 14 24 14 25 27 35 89 54 55 65
REMARK Flexibility Score: inf
ROOT
ATOM      1  C   UNL     1      -4.122  -0.437  -4.168  1.00  0.00     0.021 C 
ENDROOT
BRANCH   1   2
ATOM      2  C   UNL     1      -3.507   0.636  -3.289  1.00  0.00     0.116 C 
BRANCH   2   3
ATOM      3  N   UNL     1      -4.015   0.549  -1.930  1.00  0.00    -0.354 N 
ATOM      4  C   UNL     1      -3.386   0.858  -0.758  1.00  0.00     0.242 C 
ATOM      5  O   UNL     1      -4.027   0.795   0.292  1.00  0.00    -0.273 OA
ATOM      6  H   UNL     1      -4.939   0.223  -1.842  1.00  0.00     0.163 HD
BRANCH   4   7
ATOM      7  C   UNL     1      -1.926   1.344  -0.792  1.00  0.00     0.171 C 
BRANCH   7   8
ATOM      8  C   UNL     1      -1.846   2.689  -1.527  1.00  0.00     0.038 C 
BRANCH   8   9
ATOM      9  C   UNL     1      -2.923   3.764  -1.283  1.00  0.00    -0.015 C 
ATOM     10  C   UNL     1      -3.086   4.130   0.192  1.00  0.00     0.007 C 
ATOM     11  C   UNL     1      -2.530   5.026  -2.067  1.00  0.00     0.007 C 
ENDBRANCH   8   9
ENDBRANCH   7   8
BRANCH   7  12
ATOM     12  N   UNL     1      -1.134   0.257  -1.405  1.00  0.00    -0.343 N 
ATOM     13  C   UNL     1       0.170   0.044  -1.700  1.00  0.00     0.240 C 
ATOM     14  H   UNL     1      -1.698  -0.507  -1.664  1.00  0.00     0.164 HD
ATOM     15  O   UNL     1       0.436  -1.056  -2.202  1.00  0.00    -0.273 OA
BRANCH  13  16
ATOM     16  C   UNL     1       1.300   1.021  -1.374  1.00  0.00     0.216 C 
BRANCH  16  17
ATOM     17  N   UNL     1       1.207   2.309  -2.032  1.00  0.00    -0.342 N 
ATOM     18  C   UNL     1       1.262   3.566  -1.508  1.00  0.00     0.278 C 
ATOM     19  H   UNL     1       1.086   2.270  -3.008  1.00  0.00     0.164 HD
ATOM     20  O   UNL     1       1.125   4.514  -2.288  1.00  0.00    -0.268 OA
BRANCH  18  21
ATOM     21  C   UNL     1       1.478   3.828   0.006  1.00  0.00     0.273 C 
BRANCH  21  22
ATOM     22  N   UNL     1       0.622   2.963   0.852  1.00  0.00    -0.347 N 
ATOM     23  H   UNL     1       0.864   1.985   0.691  1.00  0.00     0.345 HD
ATOM     24  H   UNL     1      -0.357   3.115   0.611  1.00  0.00     0.345 HD
ATOM     25  H   UNL     1       0.771   3.193   1.834  1.00  0.00     0.345 HD
ENDBRANCH  21  22
BRANCH  21  26
ATOM     26  C   UNL     1       2.978   3.735   0.347  1.00  0.00     0.051 C 
ATOM     27  C   UNL     1       3.736   4.865  -0.366  1.00  0.00     0.014 C 
ATOM     28  C   UNL     1       3.240   3.835   1.853  1.00  0.00     0.014 C 
ENDBRANCH  21  26
ENDBRANCH  18  21
ENDBRANCH  16  17
ENDBRANCH  13  16
ENDBRANCH   7  12
ENDBRANCH   4   7
ENDBRANCH   2   3
ENDBRANCH   1   2
BRANCH   1  29
ATOM     29  C   UNL     1      -5.597  -0.184  -4.476  1.00  0.00     0.002 C 
BRANCH  29  30
ATOM     30  C   UNL     1      -5.885   1.167  -5.139  1.00  0.00     0.002 C 
BRANCH  30  31
ATOM     31  C   UNL     1      -5.069   1.450  -6.403  1.00  0.00     0.021 C 
BRANCH  31  32
ATOM     32  C   UNL     1      -5.118   0.339  -7.445  1.00  0.00     0.116 C 
BRANCH  32  33
ATOM     33  N   UNL     1      -6.482   0.004  -7.819  1.00  0.00    -0.352 N 
ATOM     34  C   UNL     1      -7.004  -0.185  -9.071  1.00  0.00     0.251 C 
ATOM     35  H   UNL     1      -7.115  -0.102  -7.073  1.00  0.00     0.163 HD
ATOM     36  O   UNL     1      -8.217  -0.288  -9.226  1.00  0.00    -0.269 OA
BRANCH  34  37
ATOM     37  C   UNL     1      -6.090  -0.239 -10.227  1.00  0.00     0.039 A 
ATOM     38  C   UNL     1      -6.386   0.527 -11.354  1.00  0.00     0.014 A 
ATOM     39  C   UNL     1      -4.934  -1.025 -10.182  1.00  0.00     0.014 A 
ATOM     40  C   UNL     1      -5.494   0.540 -12.425  1.00  0.00     0.010 A 
ATOM     41  C   UNL     1      -4.011  -0.951 -11.218  1.00  0.00     0.010 A 
ATOM     42  C   UNL     1      -4.287  -0.176 -12.354  1.00  0.00    -0.014 A 
BRANCH  42  43
ATOM     43  C   UNL     1      -3.305  -0.130 -13.464  1.00  0.00     0.031 A 
ATOM     44  C   UNL     1      -2.978  -1.383 -14.229  1.00  0.00     0.074 A 
ATOM     45  C   UNL     1      -2.672   1.026 -13.744  1.00  0.00     0.049 A 
ATOM     46  N   UNL     1      -2.114  -1.558 -15.195  1.00  0.00    -0.248 NA
ATOM     47  C   UNL     1      -3.695  -2.609 -13.839  1.00  0.00     0.031 C 
ATOM     48  C   UNL     1      -2.872   2.293 -13.035  1.00  0.00     0.029 A 
ATOM     49  N   UNL     1      -1.726   1.324 -14.691  1.00  0.00    -0.354 N 
ATOM     50  C   UNL     1      -2.172  -2.908 -15.516  1.00  0.00     0.074 A 
ATOM     51  C   UNL     1      -3.117  -3.519 -14.608  1.00  0.00     0.031 C 
ATOM     52  C   UNL     1      -2.091   3.235 -13.587  1.00  0.00     0.029 A 
ATOM     53  C   UNL     1      -1.306   2.633 -14.661  1.00  0.00     0.049 A 
ATOM     54  H   UNL     1      -1.380   0.662 -15.333  1.00  0.00     0.167 HD
ATOM     55  C   UNL     1      -1.514  -3.573 -16.495  1.00  0.00     0.037 A 
ATOM     56  C   UNL     1      -0.387   3.273 -15.408  1.00  0.00     0.037 A 
ATOM     57  C   UNL     1      -0.597  -2.948 -17.412  1.00  0.00     0.049 A 
ATOM     58  C   UNL     1       0.330   2.511 -16.491  1.00  0.00     0.074 A 
ATOM     59  C   UNL     1       0.069  -3.517 -18.483  1.00  0.00     0.029 A 
ATOM     60  N   UNL     1      -0.211  -1.616 -17.363  1.00  0.00    -0.354 N 
ATOM     61  N   UNL     1       0.206   1.250 -16.833  1.00  0.00    -0.248 NA
ATOM     62  C   UNL     1       1.306   3.259 -17.295  1.00  0.00     0.031 C 
ATOM     63  C   UNL     1       0.897  -2.542 -19.049  1.00  0.00     0.029 A 
ATOM     64  C   UNL     1       0.704  -1.351 -18.368  1.00  0.00     0.049 A 
ATOM     65  H   UNL     1      -0.540  -0.956 -16.710  1.00  0.00     0.167 HD
ATOM     66  C   UNL     1       1.065   1.062 -17.909  1.00  0.00     0.074 A 
ATOM     67  C   UNL     1       1.693   2.341 -18.170  1.00  0.00     0.031 C 
ATOM     68  C   UNL     1       1.312  -0.068 -18.619  1.00  0.00     0.037 A 
BRANCH  55  69
ATOM     69  C   UNL     1      -1.762  -5.051 -16.629  1.00  0.00     0.058 A 
ATOM     70  C   UNL     1      -2.991  -5.558 -17.080  1.00  0.00     0.135 A 
ATOM     71  C   UNL     1      -0.741  -5.973 -16.341  1.00  0.00     0.135 A 
ATOM     72  F   UNL     1      -4.007  -4.725 -17.354  1.00  0.00    -0.206 F 
ATOM     73  C   UNL     1      -3.208  -6.925 -17.217  1.00  0.00     0.059 A 
ATOM     74  C   UNL     1      -0.927  -7.343 -16.500  1.00  0.00     0.059 A 
ATOM     75  F   UNL     1       0.453  -5.544 -15.904  1.00  0.00    -0.206 F 
ATOM     76  C   UNL     1      -2.169  -7.810 -16.927  1.00  0.00     0.060 A 
BRANCH  76  77
ATOM     77  S   UNL     1      -2.464  -9.580 -17.124  1.00  0.00     0.124 S 
ATOM     78  O   UNL     1      -3.350  -9.855 -15.997  1.00  0.00    -0.237 OA
ATOM     79  O   UNL     1      -3.081  -9.647 -18.445  1.00  0.00    -0.237 OA
ATOM     80  O   UNL     1      -1.129 -10.161 -17.029  1.00  0.00    -0.744 OA
ENDBRANCH  76  77
ENDBRANCH  55  69
BRANCH  56  81
ATOM     81  C   UNL     1      -0.104   4.714 -15.171  1.00  0.00     0.058 A 
ATOM     82  C   UNL     1      -0.472   5.688 -16.110  1.00  0.00     0.135 A 
ATOM     83  C   UNL     1       0.536   5.147 -13.999  1.00  0.00     0.135 A 
ATOM     84  F   UNL     1      -1.082   5.324 -17.249  1.00  0.00    -0.206 F 
ATOM     85  C   UNL     1      -0.197   7.036 -15.910  1.00  0.00     0.059 A 
ATOM     86  C   UNL     1       0.796   6.493 -13.762  1.00  0.00     0.059 A 
ATOM     87  F   UNL     1       0.892   4.258 -13.058  1.00  0.00    -0.206 F 
ATOM     88  C   UNL     1       0.437   7.430 -14.730  1.00  0.00     0.060 A 
BRANCH  88  89
ATOM     89  S   UNL     1       0.757   9.187 -14.464  1.00  0.00     0.124 S 
ATOM     90  O   UNL     1       1.844   9.433 -15.405  1.00  0.00    -0.237 OA
ATOM     91  O   UNL     1      -0.529   9.787 -14.802  1.00  0.00    -0.237 OA
ATOM     92  O   UNL     1       1.119   9.251 -13.051  1.00  0.00    -0.744 OA
ENDBRANCH  88  89
ENDBRANCH  56  81
BRANCH  68  93
ATOM     93  C   UNL     1       2.274   0.034 -19.771  1.00  0.00     0.058 A 
ATOM     94  C   UNL     1       3.654   0.190 -19.572  1.00  0.00     0.135 A 
ATOM     95  C   UNL     1       1.810  -0.081 -21.092  1.00  0.00     0.135 A 
ATOM     96  F   UNL     1       4.148   0.311 -18.330  1.00  0.00    -0.206 F 
ATOM     97  C   UNL     1       4.539   0.253 -20.643  1.00  0.00     0.059 A 
ATOM     98  C   UNL     1       2.681  -0.052 -22.177  1.00  0.00     0.059 A 
ATOM     99  F   UNL     1       0.501  -0.242 -21.338  1.00  0.00    -0.206 F 
ATOM    100  C   UNL     1       4.043   0.128 -21.942  1.00  0.00     0.060 A 
BRANCH 100 101
ATOM    101  S   UNL     1       5.207   0.175 -23.321  1.00  0.00     0.124 S 
ATOM    102  O   UNL     1       5.563   1.590 -23.357  1.00  0.00    -0.237 OA
ATOM    103  O   UNL     1       6.259  -0.732 -22.873  1.00  0.00    -0.237 OA
ATOM    104  O   UNL     1       4.416  -0.302 -24.451  1.00  0.00    -0.744 OA
ENDBRANCH 100 101
ENDBRANCH  68  93
ENDBRANCH  42  43
ENDBRANCH  34  37
ENDBRANCH  32  33
ENDBRANCH  31  32
ENDBRANCH  30  31
ENDBRANCH  29  30
ENDBRANCH   1  29
TORSDOF 24
