REMARK SMILES CC1=C([C@H](NC(=O)[C@@H]2[C@H](C)c3cc(F)ccc3N2C)C(=O)NCCCCCCNC(=O)c2ccc(-c3c4nc(c(-c5c(F)cc(S(=O)(=O)[O-])cc5F)c5ccc([nH]5)c(-c5c(F)cc(S(=O)(=O)[O-])cc5F)c5nc(c(-c6c(F)cc(S(=O)(=O)[O-])cc6F)c6ccc3[nH]6)C=C5)C=C4)cc2)[C@@H](C)N=N1
REMARK SMILES IDX 26 1 25 2 24 3 23 4 22 5 20 6 21 7 4 9 3 10 1 11 2 12 101 13
REMARK SMILES IDX 98 14 100 15 99 16 5 17 6 18 7 20 8 21 9 22 18 23 11 24
REMARK SMILES IDX 10 25 17 26 19 27 12 28 16 29 13 30 15 31 14 32 27 33 28 34
REMARK SMILES IDX 29 35 30 36 31 38 32 39 33 40 97 41 34 42 96 43 35 44 36 45
REMARK SMILES IDX 37 46 90 47 38 48 95 49 89 50 91 51 39 52 94 53 88 54 87 55
REMARK SMILES IDX 40 57 74 58 53 59 73 60 54 61 57 62 72 63 92 64 55 65 56 66
REMARK SMILES IDX 71 68 93 69 58 70 41 71 42 72 51 73 43 74 44 75 50 76 52 77
REMARK SMILES IDX 45 78 46 79 47 80 48 81 49 82 75 83 76 84 85 85 77 86 78 87
REMARK SMILES IDX 84 88 86 89 79 90 80 91 81 92 82 93 83 94 59 95 60 96 69 97
REMARK SMILES IDX 61 98 62 99 68 100 70 101 63 102 64 103 65 104 66 105 67 106
REMARK H PARENT 22 8 5 19 29 37 91 56 57 67
REMARK Flexibility Score: inf
ROOT
ATOM      1  C   UNL     1       2.675   9.090   1.377  1.00  0.00     0.002 C 
ENDROOT
BRANCH   1   2
ATOM      2  C   UNL     1       2.804   7.589   1.613  1.00  0.00     0.002 C 
BRANCH   2   3
ATOM      3  C   UNL     1       1.665   6.785   0.992  1.00  0.00     0.021 C 
BRANCH   3   4
ATOM      4  C   UNL     1       1.850   6.407  -0.461  1.00  0.00     0.116 C 
BRANCH   4   5
ATOM      5  N   UNL     1       2.983   5.580  -0.768  1.00  0.00    -0.354 N 
ATOM      6  C   UNL     1       2.987   4.321  -1.284  1.00  0.00     0.247 C 
ATOM      7  O   UNL     1       4.044   3.931  -1.795  1.00  0.00    -0.272 OA
ATOM      8  H   UNL     1       3.866   5.972  -0.582  1.00  0.00     0.163 HD
BRANCH   6   9
ATOM      9  C   UNL     1       1.724   3.384  -1.302  1.00  0.00     0.202 C 
BRANCH   9  10
ATOM     10  C   UNL     1       0.956   3.615  -2.578  1.00  0.00     0.011 C 
ATOM     11  C   UNL     1       2.590   2.578  -4.249  1.00  0.00     0.069 C 
ATOM     12  C   UNL     1       1.337   3.262  -3.817  1.00  0.00     0.064 C 
ATOM     13  N   UNL     1       0.390   3.537  -4.767  1.00  0.00    -0.160 NA
ATOM     14  C   UNL     1      -0.435   4.154  -2.762  1.00  0.00     0.156 C 
ATOM     15  N   UNL     1      -0.637   4.026  -4.232  1.00  0.00    -0.181 NA
ATOM     16  C   UNL     1      -0.725   5.606  -2.405  1.00  0.00     0.040 C 
ENDBRANCH   9  10
BRANCH   9  17
ATOM     17  N   UNL     1       0.812   3.273  -0.153  1.00  0.00    -0.339 N 
ATOM     18  C   UNL     1       1.140   2.895   1.141  1.00  0.00     0.244 C 
ATOM     19  H   UNL     1      -0.133   3.491  -0.320  1.00  0.00     0.164 HD
ATOM     20  O   UNL     1       0.295   2.274   1.787  1.00  0.00    -0.273 OA
BRANCH  18  21
ATOM     21  C   UNL     1       2.455   3.406   1.727  1.00  0.00     0.178 C 
ATOM     22  C   UNL     1       3.762   2.670   1.393  1.00  0.00     0.050 C 
ATOM     23  N   UNL     1       2.531   3.713   3.187  1.00  0.00    -0.362 N 
ATOM     24  C   UNL     1       4.647   3.550   2.241  1.00  0.00    -0.016 A 
ATOM     25  C   UNL     1       3.767   1.198   1.767  1.00  0.00     0.015 C 
ATOM     26  C   UNL     1       3.884   4.115   3.285  1.00  0.00     0.041 A 
ATOM     27  C   UNL     1       1.498   4.414   3.919  1.00  0.00     0.144 C 
ATOM     28  C   UNL     1       5.913   4.016   1.929  1.00  0.00     0.045 A 
ATOM     29  C   UNL     1       4.430   5.098   4.096  1.00  0.00     0.029 A 
ATOM     30  C   UNL     1       6.422   5.053   2.703  1.00  0.00     0.123 A 
ATOM     31  C   UNL     1       5.706   5.583   3.783  1.00  0.00     0.041 A 
ATOM     32  F   UNL     1       7.600   5.597   2.370  1.00  0.00    -0.207 F 
ENDBRANCH  18  21
ENDBRANCH   9  17
ENDBRANCH   6   9
ENDBRANCH   4   5
ENDBRANCH   3   4
ENDBRANCH   2   3
ENDBRANCH   1   2
BRANCH   1  33
ATOM     33  C   UNL     1       1.290   9.666   1.689  1.00  0.00     0.021 C 
BRANCH  33  34
ATOM     34  C   UNL     1       0.641   9.168   2.991  1.00  0.00     0.116 C 
BRANCH  34  35
ATOM     35  N   UNL     1       1.279   9.600   4.215  1.00  0.00    -0.352 N 
ATOM     36  C   UNL     1       1.335  10.809   4.855  1.00  0.00     0.251 C 
ATOM     37  H   UNL     1       1.769   8.883   4.680  1.00  0.00     0.163 HD
ATOM     38  O   UNL     1       1.861  10.841   5.968  1.00  0.00    -0.269 OA
BRANCH  36  39
ATOM     39  C   UNL     1       0.887  12.073   4.220  1.00  0.00     0.039 A 
ATOM     40  C   UNL     1      -0.066  12.144   3.209  1.00  0.00     0.014 A 
ATOM     41  C   UNL     1       1.529  13.250   4.633  1.00  0.00     0.014 A 
ATOM     42  C   UNL     1      -0.210  13.307   2.475  1.00  0.00     0.010 A 
ATOM     43  C   UNL     1       1.311  14.449   3.960  1.00  0.00     0.010 A 
ATOM     44  C   UNL     1       0.495  14.460   2.833  1.00  0.00    -0.014 A 
BRANCH  44  45
ATOM     45  C   UNL     1       0.233  15.655   2.032  1.00  0.00     0.031 A 
ATOM     46  C   UNL     1      -1.216  15.959   1.839  1.00  0.00     0.074 A 
ATOM     47  C   UNL     1       1.174  16.469   1.518  1.00  0.00     0.049 A 
ATOM     48  N   UNL     1      -1.907  15.895   0.748  1.00  0.00    -0.248 NA
ATOM     49  C   UNL     1      -2.020  16.209   3.045  1.00  0.00     0.031 C 
ATOM     50  C   UNL     1       2.614  16.488   1.785  1.00  0.00     0.029 A 
ATOM     51  N   UNL     1       1.002  17.527   0.676  1.00  0.00    -0.354 N 
ATOM     52  C   UNL     1      -3.202  16.280   1.089  1.00  0.00     0.074 A 
ATOM     53  C   UNL     1      -3.244  16.323   2.528  1.00  0.00     0.031 C 
ATOM     54  C   UNL     1       3.143  17.633   1.295  1.00  0.00     0.029 A 
ATOM     55  C   UNL     1       2.119  18.338   0.544  1.00  0.00     0.049 A 
ATOM     56  H   UNL     1       0.157  17.701   0.202  1.00  0.00     0.167 HD
ATOM     57  C   UNL     1      -4.094  16.720   0.160  1.00  0.00     0.037 A 
ATOM     58  C   UNL     1       2.181  19.522  -0.110  1.00  0.00     0.037 A 
ATOM     59  C   UNL     1      -3.685  16.372  -1.175  1.00  0.00     0.049 A 
ATOM     60  C   UNL     1       1.076  19.542  -1.097  1.00  0.00     0.074 A 
ATOM     61  C   UNL     1      -3.563  15.206  -1.902  1.00  0.00     0.029 A 
ATOM     62  N   UNL     1      -3.012  17.339  -1.875  1.00  0.00    -0.354 N 
ATOM     63  N   UNL     1       1.022  18.774  -2.148  1.00  0.00    -0.248 NA
ATOM     64  C   UNL     1      -0.171  20.207  -0.748  1.00  0.00     0.031 C 
ATOM     65  C   UNL     1      -2.492  15.437  -2.815  1.00  0.00     0.029 A 
ATOM     66  C   UNL     1      -2.028  16.737  -2.615  1.00  0.00     0.049 A 
ATOM     67  H   UNL     1      -3.204  18.304  -1.851  1.00  0.00     0.167 HD
ATOM     68  C   UNL     1      -0.327  18.532  -2.341  1.00  0.00     0.074 A 
ATOM     69  C   UNL     1      -1.009  19.553  -1.556  1.00  0.00     0.031 C 
ATOM     70  C   UNL     1      -0.752  17.361  -2.895  1.00  0.00     0.037 A 
BRANCH  57  71
ATOM     71  C   UNL     1      -5.138  17.785   0.418  1.00  0.00     0.058 A 
ATOM     72  C   UNL     1      -6.111  18.063  -0.566  1.00  0.00     0.135 A 
ATOM     73  C   UNL     1      -5.037  18.737   1.456  1.00  0.00     0.135 A 
ATOM     74  F   UNL     1      -6.292  17.230  -1.604  1.00  0.00    -0.206 F 
ATOM     75  C   UNL     1      -6.869  19.236  -0.559  1.00  0.00     0.059 A 
ATOM     76  C   UNL     1      -5.819  19.885   1.511  1.00  0.00     0.059 A 
ATOM     77  F   UNL     1      -4.104  18.653   2.412  1.00  0.00    -0.206 F 
ATOM     78  C   UNL     1      -6.700  20.150   0.476  1.00  0.00     0.060 A 
BRANCH  78  79
ATOM     79  S   UNL     1      -7.580  21.722   0.425  1.00  0.00     0.124 S 
ATOM     80  O   UNL     1      -6.935  22.378  -0.707  1.00  0.00    -0.237 OA
ATOM     81  O   UNL     1      -8.958  21.291   0.216  1.00  0.00    -0.237 OA
ATOM     82  O   UNL     1      -7.303  22.304   1.735  1.00  0.00    -0.744 OA
ENDBRANCH  78  79
ENDBRANCH  57  71
BRANCH  58  83
ATOM     83  C   UNL     1       2.928  20.751   0.250  1.00  0.00     0.058 A 
ATOM     84  C   UNL     1       3.063  21.801  -0.675  1.00  0.00     0.135 A 
ATOM     85  C   UNL     1       3.222  21.054   1.593  1.00  0.00     0.135 A 
ATOM     86  F   UNL     1       2.796  21.596  -1.974  1.00  0.00    -0.206 F 
ATOM     87  C   UNL     1       3.382  23.101  -0.280  1.00  0.00     0.059 A 
ATOM     88  C   UNL     1       3.553  22.342   2.010  1.00  0.00     0.059 A 
ATOM     89  F   UNL     1       3.092  20.127   2.555  1.00  0.00    -0.206 F 
ATOM     90  C   UNL     1       3.592  23.368   1.072  1.00  0.00     0.060 A 
BRANCH  90  91
ATOM     91  S   UNL     1       3.773  25.085   1.608  1.00  0.00     0.124 S 
ATOM     92  O   UNL     1       5.062  25.448   1.030  1.00  0.00    -0.237 OA
ATOM     93  O   UNL     1       2.603  25.717   1.007  1.00  0.00    -0.237 OA
ATOM     94  O   UNL     1       3.746  24.989   3.066  1.00  0.00    -0.744 OA
ENDBRANCH  90  91
ENDBRANCH  58  83
BRANCH  70  95
ATOM     95  C   UNL     1       0.256  16.566  -3.678  1.00  0.00     0.058 A 
ATOM     96  C   UNL     1       1.390  15.946  -3.124  1.00  0.00     0.135 A 
ATOM     97  C   UNL     1       0.011  16.359  -5.043  1.00  0.00     0.135 A 
ATOM     98  F   UNL     1       1.642  16.015  -1.809  1.00  0.00    -0.206 F 
ATOM     99  C   UNL     1       2.268  15.195  -3.908  1.00  0.00     0.059 A 
ATOM    100  C   UNL     1       0.856  15.588  -5.837  1.00  0.00     0.059 A 
ATOM    101  F   UNL     1      -1.088  16.878  -5.615  1.00  0.00    -0.206 F 
ATOM    102  C   UNL     1       1.993  15.023  -5.264  1.00  0.00     0.060 A 
BRANCH 102 103
ATOM    103  S   UNL     1       3.091  13.998  -6.267  1.00  0.00     0.124 S 
ATOM    104  O   UNL     1       4.287  14.836  -6.366  1.00  0.00    -0.237 OA
ATOM    105  O   UNL     1       3.234  12.794  -5.444  1.00  0.00    -0.237 OA
ATOM    106  O   UNL     1       2.355  13.811  -7.505  1.00  0.00    -0.744 OA
ENDBRANCH 102 103
ENDBRANCH  70  95
ENDBRANCH  44  45
ENDBRANCH  36  39
ENDBRANCH  34  35
ENDBRANCH  33  34
ENDBRANCH   1  33
TORSDOF 19
