REMARK SMILES O=C(NCCCCCCNC(=O)c1cccnc1Nc1cccc(C(F)(F)F)c1)c1ccc(-c2c3nc(c(-c4c(F)cc(S(=O)(=O)[O-])cc4F)c4ccc([nH]4)c(-c4c(F)cc(S(=O)(=O)[O-])cc4F)c4nc(c(-c5c(F)cc(S(=O)(=O)[O-])cc5F)c5ccc2[nH]5)C=C4)C=C3)cc1
REMARK SMILES IDX 6 1 5 2 4 3 3 4 1 5 2 6 30 8 31 9 95 10 32 11 94 12 33 13
REMARK SMILES IDX 34 14 35 15 88 16 36 17 93 18 87 19 89 20 37 21 92 22 86 23
REMARK SMILES IDX 85 24 38 26 72 27 51 28 71 29 52 30 55 31 70 32 90 33 53 34
REMARK SMILES IDX 54 35 69 37 91 38 56 39 39 40 40 41 49 42 41 43 42 44 48 45
REMARK SMILES IDX 50 46 43 47 44 48 45 49 46 50 47 51 73 52 74 53 83 54 75 55
REMARK SMILES IDX 76 56 82 57 84 58 77 59 78 60 79 61 80 62 81 63 57 64 58 65
REMARK SMILES IDX 67 66 59 67 60 68 66 69 68 70 61 71 62 72 63 73 64 74 65 75
REMARK SMILES IDX 7 76 8 77 9 78 10 79 11 80 12 82 13 83 14 84 18 85 15 86
REMARK SMILES IDX 17 87 16 88 19 89 20 91 21 92 29 93 22 94 24 95 23 96 25 97
REMARK SMILES IDX 26 98 27 99 28 100
REMARK H PARENT 3 7 89 25 55 36 10 81 19 90
REMARK Flexibility Score: inf
ROOT
ATOM      1  C   UNL     1       4.284  -2.274   2.945  1.00  0.00     0.002 C 
ENDROOT
BRANCH   1   2
ATOM      2  C   UNL     1       4.756  -0.997   2.248  1.00  0.00     0.021 C 
BRANCH   2   3
ATOM      3  C   UNL     1       4.495  -0.955   0.747  1.00  0.00     0.116 C 
BRANCH   3   4
ATOM      4  N   UNL     1       3.075  -1.003   0.438  1.00  0.00    -0.352 N 
ATOM      5  O   UNL     1       1.077  -0.202  -0.224  1.00  0.00    -0.269 OA
ATOM      6  C   UNL     1       2.302  -0.090  -0.233  1.00  0.00     0.251 C 
ATOM      7  H   UNL     1       2.602  -1.805   0.755  1.00  0.00     0.163 HD
BRANCH   6   8
ATOM      8  C   UNL     1       2.940   1.036  -0.946  1.00  0.00     0.039 A 
ATOM      9  C   UNL     1       4.054   0.827  -1.766  1.00  0.00     0.014 A 
ATOM     10  C   UNL     1       2.403   2.317  -0.804  1.00  0.00     0.014 A 
ATOM     11  C   UNL     1       4.701   1.913  -2.348  1.00  0.00     0.010 A 
ATOM     12  C   UNL     1       3.010   3.396  -1.449  1.00  0.00     0.010 A 
ATOM     13  C   UNL     1       4.179   3.207  -2.206  1.00  0.00    -0.014 A 
BRANCH  13  14
ATOM     14  C   UNL     1       4.823   4.357  -2.887  1.00  0.00     0.031 A 
ATOM     15  C   UNL     1       5.425   5.480  -2.090  1.00  0.00     0.074 A 
ATOM     16  C   UNL     1       4.825   4.405  -4.233  1.00  0.00     0.049 A 
ATOM     17  N   UNL     1       5.935   6.609  -2.509  1.00  0.00    -0.248 NA
ATOM     18  C   UNL     1       5.446   5.315  -0.628  1.00  0.00     0.031 C 
ATOM     19  C   UNL     1       4.271   3.373  -5.112  1.00  0.00     0.029 A 
ATOM     20  N   UNL     1       5.289   5.364  -5.097  1.00  0.00    -0.354 N 
ATOM     21  C   UNL     1       6.315   7.303  -1.366  1.00  0.00     0.074 A 
ATOM     22  C   UNL     1       5.953   6.475  -0.234  1.00  0.00     0.031 C 
ATOM     23  C   UNL     1       4.430   3.752  -6.388  1.00  0.00     0.029 A 
ATOM     24  C   UNL     1       5.035   5.079  -6.417  1.00  0.00     0.049 A 
ATOM     25  H   UNL     1       5.758   6.177  -4.800  1.00  0.00     0.167 HD
ATOM     26  C   UNL     1       6.911   8.517  -1.273  1.00  0.00     0.037 A 
ATOM     27  C   UNL     1       5.229   5.816  -7.527  1.00  0.00     0.037 A 
ATOM     28  C   UNL     1       7.260   9.330  -2.411  1.00  0.00     0.049 A 
ATOM     29  C   UNL     1       5.851   7.177  -7.402  1.00  0.00     0.074 A 
ATOM     30  C   UNL     1       7.894  10.560  -2.428  1.00  0.00     0.029 A 
ATOM     31  N   UNL     1       6.990   9.003  -3.734  1.00  0.00    -0.354 N 
ATOM     32  N   UNL     1       6.235   7.808  -6.317  1.00  0.00    -0.248 NA
ATOM     33  C   UNL     1       6.071   7.927  -8.645  1.00  0.00     0.031 C 
ATOM     34  C   UNL     1       7.955  11.002  -3.753  1.00  0.00     0.029 A 
ATOM     35  C   UNL     1       7.421  10.019  -4.572  1.00  0.00     0.049 A 
ATOM     36  H   UNL     1       6.555   8.172  -4.032  1.00  0.00     0.167 HD
ATOM     37  C   UNL     1       6.772   9.015  -6.749  1.00  0.00     0.074 A 
ATOM     38  C   UNL     1       6.660   9.027  -8.194  1.00  0.00     0.031 C 
ATOM     39  C   UNL     1       7.317  10.014  -6.012  1.00  0.00     0.037 A 
BRANCH  26  40
ATOM     40  C   UNL     1       7.185   9.054   0.107  1.00  0.00     0.058 A 
ATOM     41  C   UNL     1       8.142   8.475   0.957  1.00  0.00     0.135 A 
ATOM     42  C   UNL     1       6.480  10.171   0.588  1.00  0.00     0.135 A 
ATOM     43  F   UNL     1       8.841   7.401   0.556  1.00  0.00    -0.206 F 
ATOM     44  C   UNL     1       8.352   8.948   2.248  1.00  0.00     0.059 A 
ATOM     45  C   UNL     1       6.697  10.681   1.865  1.00  0.00     0.059 A 
ATOM     46  F   UNL     1       5.559  10.771  -0.181  1.00  0.00    -0.206 F 
ATOM     47  C   UNL     1       7.617  10.047   2.697  1.00  0.00     0.060 A 
BRANCH  47  48
ATOM     48  S   UNL     1       7.865  10.617   4.391  1.00  0.00     0.124 S 
ATOM     49  O   UNL     1       7.213   9.556   5.152  1.00  0.00    -0.237 OA
ATOM     50  O   UNL     1       9.320  10.665   4.495  1.00  0.00    -0.237 OA
ATOM     51  O   UNL     1       7.194  11.912   4.418  1.00  0.00    -0.744 OA
ENDBRANCH  47  48
ENDBRANCH  26  40
BRANCH  27  52
ATOM     52  C   UNL     1       4.817   5.263  -8.843  1.00  0.00     0.058 A 
ATOM     53  C   UNL     1       5.769   4.829  -9.775  1.00  0.00     0.135 A 
ATOM     54  C   UNL     1       3.460   5.082  -9.159  1.00  0.00     0.135 A 
ATOM     55  F   UNL     1       7.077   4.984  -9.520  1.00  0.00    -0.206 F 
ATOM     56  C   UNL     1       5.393   4.229 -10.972  1.00  0.00     0.059 A 
ATOM     57  C   UNL     1       3.060   4.461 -10.337  1.00  0.00     0.059 A 
ATOM     58  F   UNL     1       2.511   5.465  -8.291  1.00  0.00    -0.206 F 
ATOM     59  C   UNL     1       4.036   4.038 -11.238  1.00  0.00     0.060 A 
BRANCH  59  60
ATOM     60  S   UNL     1       3.566   3.173 -12.752  1.00  0.00     0.124 S 
ATOM     61  O   UNL     1       3.886   4.166 -13.770  1.00  0.00    -0.237 OA
ATOM     62  O   UNL     1       4.430   1.997 -12.711  1.00  0.00    -0.237 OA
ATOM     63  O   UNL     1       2.144   2.903 -12.558  1.00  0.00    -0.744 OA
ENDBRANCH  59  60
ENDBRANCH  27  52
BRANCH  39  64
ATOM     64  C   UNL     1       7.896  11.191  -6.748  1.00  0.00     0.058 A 
ATOM     65  C   UNL     1       7.086  12.167  -7.348  1.00  0.00     0.135 A 
ATOM     66  C   UNL     1       9.287  11.391  -6.766  1.00  0.00     0.135 A 
ATOM     67  F   UNL     1       5.752  12.019  -7.369  1.00  0.00    -0.206 F 
ATOM     68  C   UNL     1       7.635  13.300  -7.942  1.00  0.00     0.059 A 
ATOM     69  C   UNL     1       9.855  12.528  -7.330  1.00  0.00     0.059 A 
ATOM     70  F   UNL     1      10.106  10.490  -6.202  1.00  0.00    -0.206 F 
ATOM     71  C   UNL     1       9.020  13.477  -7.918  1.00  0.00     0.060 A 
BRANCH  71  72
ATOM     72  S   UNL     1       9.713  14.988  -8.623  1.00  0.00     0.124 S 
ATOM     73  O   UNL     1       9.532  14.757 -10.052  1.00  0.00    -0.237 OA
ATOM     74  O   UNL     1       8.867  16.021  -8.035  1.00  0.00    -0.237 OA
ATOM     75  O   UNL     1      11.096  14.978  -8.156  1.00  0.00    -0.744 OA
ENDBRANCH  71  72
ENDBRANCH  39  64
ENDBRANCH  13  14
ENDBRANCH   6   8
ENDBRANCH   3   4
ENDBRANCH   2   3
ENDBRANCH   1   2
BRANCH   1  76
ATOM     76  C   UNL     1       4.840  -3.578   2.364  1.00  0.00     0.002 C 
BRANCH  76  77
ATOM     77  C   UNL     1       6.367  -3.650   2.260  1.00  0.00     0.021 C 
BRANCH  77  78
ATOM     78  C   UNL     1       7.109  -3.411   3.573  1.00  0.00     0.116 C 
BRANCH  78  79
ATOM     79  N   UNL     1       6.809  -4.446   4.549  1.00  0.00    -0.352 N 
ATOM     80  C   UNL     1       7.661  -5.357   5.118  1.00  0.00     0.255 C 
ATOM     81  H   UNL     1       5.869  -4.501   4.839  1.00  0.00     0.163 HD
ATOM     82  O   UNL     1       7.216  -6.349   5.691  1.00  0.00    -0.269 OA
BRANCH  80  83
ATOM     83  C   UNL     1       9.119  -5.161   5.032  1.00  0.00     0.082 A 
ATOM     84  C   UNL     1       9.680  -3.924   5.380  1.00  0.00     0.019 A 
ATOM     85  C   UNL     1       9.956  -6.221   4.666  1.00  0.00     0.143 A 
ATOM     86  C   UNL     1      11.050  -3.741   5.264  1.00  0.00     0.021 A 
ATOM     87  N   UNL     1      11.297  -6.031   4.555  1.00  0.00    -0.238 NA
ATOM     88  C   UNL     1      11.809  -4.813   4.840  1.00  0.00     0.113 A 
BRANCH  85  89
ATOM     89  N   UNL     1       9.420  -7.474   4.296  1.00  0.00    -0.340 N 
ATOM     90  H   UNL     1       8.444  -7.517   4.173  1.00  0.00     0.168 HD
BRANCH  89  91
ATOM     91  C   UNL     1      10.133  -8.665   4.085  1.00  0.00     0.040 A 
ATOM     92  C   UNL     1       9.788  -9.500   3.019  1.00  0.00     0.026 A 
ATOM     93  C   UNL     1      11.130  -9.086   4.974  1.00  0.00     0.039 A 
ATOM     94  C   UNL     1      10.475 -10.696   2.801  1.00  0.00     0.003 A 
ATOM     95  C   UNL     1      11.815 -10.294   4.784  1.00  0.00     0.058 A 
ATOM     96  C   UNL     1      11.487 -11.090   3.677  1.00  0.00     0.013 A 
BRANCH  95  97
ATOM     97  C   UNL     1      12.888 -10.730   5.745  1.00  0.00     0.416 C 
ATOM     98  F   UNL     1      12.653 -11.974   6.255  1.00  0.00    -0.166 F 
ATOM     99  F   UNL     1      14.119 -10.798   5.164  1.00  0.00    -0.166 F 
ATOM    100  F   UNL     1      13.032  -9.914   6.827  1.00  0.00    -0.166 F 
ENDBRANCH  95  97
ENDBRANCH  89  91
ENDBRANCH  85  89
ENDBRANCH  80  83
ENDBRANCH  78  79
ENDBRANCH  77  78
ENDBRANCH  76  77
ENDBRANCH   1  76
TORSDOF 19
