REMARK SMILES CCc1cc(OCC(=O)NCCCCCCNC(=O)c2ccc(-c3c4nc(c(-c5c(F)cc(S(=O)(=O)[O-])cc5F)c5ccc([nH]5)c(-c5c(F)cc(S(=O)(=O)[O-])cc5F)c5nc(c(-c6c(F)cc(S(=O)(=O)[O-])cc6F)c6ccc3[nH]6)C=C5)C=C4)cc2)nc(Nc2ccc(C)c(F)c2)n1
REMARK SMILES IDX 13 1 12 2 11 3 10 4 8 5 9 6 7 8 6 9 5 10 3 11 4 12 97 13
REMARK SMILES IDX 87 14 86 15 2 16 1 17 88 18 89 20 90 21 96 22 91 23 94 24
REMARK SMILES IDX 92 25 95 26 93 27 14 28 15 29 16 30 17 31 18 32 19 34 20 35
REMARK SMILES IDX 21 36 85 37 22 38 84 39 23 40 24 41 25 42 78 43 26 44 83 45
REMARK SMILES IDX 77 46 79 47 27 48 82 49 76 50 75 51 28 53 62 54 41 55 61 56
REMARK SMILES IDX 42 57 45 58 60 59 80 60 43 61 44 62 59 64 81 65 46 66 29 67
REMARK SMILES IDX 30 68 39 69 31 70 32 71 38 72 40 73 33 74 34 75 35 76 36 77
REMARK SMILES IDX 37 78 63 79 64 80 73 81 65 82 66 83 72 84 74 85 67 86 68 87
REMARK SMILES IDX 69 88 70 89 71 90 47 91 48 92 57 93 49 94 50 95 56 96 58 97
REMARK SMILES IDX 51 98 52 99 53 100 54 101 55 102
REMARK H PARENT 10 7 88 19 17 33 79 52 45 63
REMARK Flexibility Score: inf
ROOT
ATOM      1  C   UNL     1      -2.934   5.389  -2.765  1.00  0.00     0.002 C 
ENDROOT
BRANCH   1   2
ATOM      2  C   UNL     1      -1.860   6.054  -1.894  1.00  0.00     0.021 C 
BRANCH   2   3
ATOM      3  C   UNL     1      -2.351   6.539  -0.530  1.00  0.00     0.116 C 
BRANCH   3   4
ATOM      4  N   UNL     1      -2.846   5.445   0.282  1.00  0.00    -0.353 N 
ATOM      5  C   UNL     1      -2.331   4.949   1.441  1.00  0.00     0.258 C 
ATOM      6  O   UNL     1      -2.891   3.994   1.983  1.00  0.00    -0.271 OA
ATOM      7  H   UNL     1      -3.661   5.002  -0.048  1.00  0.00     0.163 HD
BRANCH   5   8
ATOM      8  C   UNL     1      -1.084   5.595   2.060  1.00  0.00     0.331 C 
BRANCH   8   9
ATOM      9  O   UNL     1       0.091   5.654   1.274  1.00  0.00    -0.467 OA
BRANCH   9  10
ATOM     10  C   UNL     1       0.654   4.484   0.855  1.00  0.00     0.218 A 
ATOM     11  C   UNL     1       0.884   2.167   0.639  1.00  0.00     0.050 A 
ATOM     12  C   UNL     1       0.250   3.227   1.243  1.00  0.00     0.092 A 
ATOM     13  N   UNL     1       1.889   2.353  -0.229  1.00  0.00    -0.218 NA
ATOM     14  C   UNL     1       2.270   3.607  -0.513  1.00  0.00     0.230 A 
ATOM     15  N   UNL     1       1.674   4.687   0.001  1.00  0.00    -0.177 NA
BRANCH  11  16
ATOM     16  C   UNL     1       0.495   0.753   0.990  1.00  0.00     0.053 C 
ATOM     17  C   UNL     1       0.984  -0.290  -0.007  1.00  0.00     0.011 C 
ENDBRANCH  11  16
BRANCH  14  18
ATOM     18  N   UNL     1       3.399   3.813  -1.303  1.00  0.00    -0.324 N 
ATOM     19  H   UNL     1       3.675   4.750  -1.426  1.00  0.00     0.170 HD
BRANCH  18  20
ATOM     20  C   UNL     1       4.187   2.851  -1.942  1.00  0.00     0.044 A 
ATOM     21  C   UNL     1       5.577   2.860  -1.770  1.00  0.00     0.026 A 
ATOM     22  C   UNL     1       3.614   1.783  -2.642  1.00  0.00     0.065 A 
ATOM     23  C   UNL     1       6.370   1.817  -2.264  1.00  0.00     0.008 A 
ATOM     24  C   UNL     1       4.407   0.758  -3.148  1.00  0.00     0.128 A 
ATOM     25  C   UNL     1       5.787   0.750  -2.958  1.00  0.00    -0.015 A 
ATOM     26  F   UNL     1       3.814  -0.246  -3.812  1.00  0.00    -0.207 F 
ATOM     27  C   UNL     1       6.628  -0.390  -3.443  1.00  0.00     0.047 C 
ENDBRANCH  18  20
ENDBRANCH  14  18
ENDBRANCH   9  10
ENDBRANCH   8   9
ENDBRANCH   5   8
ENDBRANCH   3   4
ENDBRANCH   2   3
ENDBRANCH   1   2
BRANCH   1  28
ATOM     28  C   UNL     1      -4.202   6.217  -3.000  1.00  0.00     0.002 C 
BRANCH  28  29
ATOM     29  C   UNL     1      -3.971   7.615  -3.576  1.00  0.00     0.021 C 
BRANCH  29  30
ATOM     30  C   UNL     1      -3.255   7.641  -4.922  1.00  0.00     0.116 C 
BRANCH  30  31
ATOM     31  N   UNL     1      -4.045   7.030  -5.979  1.00  0.00    -0.352 N 
ATOM     32  C   UNL     1      -4.386   7.543  -7.208  1.00  0.00     0.251 C 
ATOM     33  H   UNL     1      -4.383   6.125  -5.789  1.00  0.00     0.163 HD
ATOM     34  O   UNL     1      -5.214   6.965  -7.908  1.00  0.00    -0.269 OA
BRANCH  32  35
ATOM     35  C   UNL     1      -3.768   8.804  -7.672  1.00  0.00     0.039 A 
ATOM     36  C   UNL     1      -4.579   9.791  -8.239  1.00  0.00     0.014 A 
ATOM     37  C   UNL     1      -2.393   9.016  -7.538  1.00  0.00     0.014 A 
ATOM     38  C   UNL     1      -4.019  11.015  -8.614  1.00  0.00     0.010 A 
ATOM     39  C   UNL     1      -1.852  10.262  -7.841  1.00  0.00     0.010 A 
ATOM     40  C   UNL     1      -2.657  11.274  -8.387  1.00  0.00    -0.014 A 
BRANCH  40  41
ATOM     41  C   UNL     1      -2.045  12.585  -8.728  1.00  0.00     0.031 A 
ATOM     42  C   UNL     1      -0.953  12.652  -9.764  1.00  0.00     0.074 A 
ATOM     43  C   UNL     1      -2.419  13.698  -8.066  1.00  0.00     0.049 A 
ATOM     44  N   UNL     1      -0.215  13.670 -10.122  1.00  0.00    -0.248 NA
ATOM     45  C   UNL     1      -0.633  11.401 -10.473  1.00  0.00     0.031 C 
ATOM     46  C   UNL     1      -3.444  13.759  -7.021  1.00  0.00     0.029 A 
ATOM     47  N   UNL     1      -1.972  14.993  -8.163  1.00  0.00    -0.354 N 
ATOM     48  C   UNL     1       0.659  13.183 -11.088  1.00  0.00     0.074 A 
ATOM     49  C   UNL     1       0.401  11.766 -11.216  1.00  0.00     0.031 C 
ATOM     50  C   UNL     1      -3.558  15.026  -6.588  1.00  0.00     0.029 A 
ATOM     51  C   UNL     1      -2.587  15.859  -7.289  1.00  0.00     0.049 A 
ATOM     52  H   UNL     1      -1.276  15.275  -8.799  1.00  0.00     0.167 HD
ATOM     53  C   UNL     1       1.575  13.860 -11.821  1.00  0.00     0.037 A 
ATOM     54  C   UNL     1      -2.380  17.173  -7.067  1.00  0.00     0.037 A 
ATOM     55  C   UNL     1       1.812  15.276 -11.705  1.00  0.00     0.049 A 
ATOM     56  C   UNL     1      -1.332  17.896  -7.874  1.00  0.00     0.074 A 
ATOM     57  C   UNL     1       2.698  16.060 -12.422  1.00  0.00     0.029 A 
ATOM     58  N   UNL     1       1.155  16.119 -10.822  1.00  0.00    -0.354 N 
ATOM     59  N   UNL     1      -0.541  17.426  -8.810  1.00  0.00    -0.248 NA
ATOM     60  C   UNL     1      -1.151  19.328  -7.600  1.00  0.00     0.031 C 
ATOM     61  C   UNL     1       2.607  17.371 -11.944  1.00  0.00     0.029 A 
ATOM     62  C   UNL     1       1.625  17.414 -10.968  1.00  0.00     0.049 A 
ATOM     63  H   UNL     1       0.459  15.840 -10.184  1.00  0.00     0.167 HD
ATOM     64  C   UNL     1       0.197  18.513  -9.265  1.00  0.00     0.074 A 
ATOM     65  C   UNL     1      -0.243  19.665  -8.506  1.00  0.00     0.031 C 
ATOM     66  C   UNL     1       1.152  18.556 -10.226  1.00  0.00     0.037 A 
BRANCH  53  67
ATOM     67  C   UNL     1       2.379  13.086 -12.829  1.00  0.00     0.058 A 
ATOM     68  C   UNL     1       1.794  12.578 -14.000  1.00  0.00     0.135 A 
ATOM     69  C   UNL     1       3.760  12.899 -12.655  1.00  0.00     0.135 A 
ATOM     70  F   UNL     1       0.474  12.712 -14.209  1.00  0.00    -0.206 F 
ATOM     71  C   UNL     1       2.543  11.897 -14.953  1.00  0.00     0.059 A 
ATOM     72  C   UNL     1       4.536  12.247 -13.610  1.00  0.00     0.059 A 
ATOM     73  F   UNL     1       4.372  13.362 -11.553  1.00  0.00    -0.206 F 
ATOM     74  C   UNL     1       3.916  11.742 -14.751  1.00  0.00     0.060 A 
BRANCH  74  75
ATOM     75  S   UNL     1       4.877  10.882 -16.015  1.00  0.00     0.124 S 
ATOM     76  O   UNL     1       4.423   9.506 -15.840  1.00  0.00    -0.237 OA
ATOM     77  O   UNL     1       4.439  11.543 -17.240  1.00  0.00    -0.237 OA
ATOM     78  O   UNL     1       6.260  11.141 -15.626  1.00  0.00    -0.744 OA
ENDBRANCH  74  75
ENDBRANCH  53  67
BRANCH  54  79
ATOM     79  C   UNL     1      -3.183  17.903  -6.047  1.00  0.00     0.058 A 
ATOM     80  C   UNL     1      -4.096  18.900  -6.425  1.00  0.00     0.135 A 
ATOM     81  C   UNL     1      -3.033  17.645  -4.676  1.00  0.00     0.135 A 
ATOM     82  F   UNL     1      -4.273  19.188  -7.724  1.00  0.00    -0.206 F 
ATOM     83  C   UNL     1      -4.802  19.640  -5.483  1.00  0.00     0.059 A 
ATOM     84  C   UNL     1      -3.750  18.351  -3.715  1.00  0.00     0.059 A 
ATOM     85  F   UNL     1      -2.187  16.689  -4.259  1.00  0.00    -0.206 F 
ATOM     86  C   UNL     1      -4.618  19.361  -4.128  1.00  0.00     0.060 A 
BRANCH  86  87
ATOM     87  S   UNL     1      -5.542  20.324  -2.911  1.00  0.00     0.124 S 
ATOM     88  O   UNL     1      -4.856  21.609  -2.974  1.00  0.00    -0.237 OA
ATOM     89  O   UNL     1      -6.895  20.293  -3.459  1.00  0.00    -0.237 OA
ATOM     90  O   UNL     1      -5.357  19.568  -1.676  1.00  0.00    -0.744 OA
ENDBRANCH  86  87
ENDBRANCH  54  79
BRANCH  66  91
ATOM     91  C   UNL     1       1.742  19.897 -10.568  1.00  0.00     0.058 A 
ATOM     92  C   UNL     1       2.629  20.560  -9.707  1.00  0.00     0.135 A 
ATOM     93  C   UNL     1       1.463  20.494 -11.809  1.00  0.00     0.135 A 
ATOM     94  F   UNL     1       2.924  20.037  -8.506  1.00  0.00    -0.206 F 
ATOM     95  C   UNL     1       3.204  21.778 -10.055  1.00  0.00     0.059 A 
ATOM     96  C   UNL     1       2.051  21.695 -12.191  1.00  0.00     0.059 A 
ATOM     97  F   UNL     1       0.629  19.896 -12.674  1.00  0.00    -0.206 F 
ATOM     98  C   UNL     1       2.913  22.335 -11.303  1.00  0.00     0.060 A 
BRANCH  98  99
ATOM     99  S   UNL     1       3.704  23.891 -11.761  1.00  0.00     0.124 S 
ATOM    100  O   UNL     1       2.992  24.844 -10.916  1.00  0.00    -0.237 OA
ATOM    101  O   UNL     1       5.099  23.648 -11.406  1.00  0.00    -0.237 OA
ATOM    102  O   UNL     1       3.438  24.000 -13.192  1.00  0.00    -0.744 OA
ENDBRANCH  98  99
ENDBRANCH  66  91
ENDBRANCH  40  41
ENDBRANCH  32  35
ENDBRANCH  30  31
ENDBRANCH  29  30
ENDBRANCH  28  29
ENDBRANCH   1  28
TORSDOF 21
