REMARK SMILES O=C(NCCCCCCNC(=O)[C@@H](CCO)NC(=O)c1c(F)ccc([N+](=O)[O-])c1F)c1ccc(-c2c3nc(c(-c4c(F)cc(S(=O)(=O)[O-])cc4F)c4ccc([nH]4)c(-c4c(F)cc(S(=O)(=O)[O-])cc4F)c4nc(c(-c5c(F)cc(S(=O)(=O)[O-])cc5F)c5ccc2[nH]5)C=C4)C=C3)cc1
REMARK SMILES IDX 6 1 5 2 4 3 3 4 1 5 2 6 31 8 32 9 96 10 33 11 95 12 34 13
REMARK SMILES IDX 35 14 36 15 89 16 37 17 94 18 88 19 90 20 38 21 93 22 87 23
REMARK SMILES IDX 86 24 39 26 73 27 52 28 72 29 53 30 56 31 71 32 91 33 54 34
REMARK SMILES IDX 55 35 70 37 92 38 57 39 40 40 41 41 50 42 42 43 43 44 49 45
REMARK SMILES IDX 51 46 44 47 45 48 46 49 47 50 48 51 74 52 75 53 84 54 76 55
REMARK SMILES IDX 77 56 83 57 85 58 78 59 79 60 80 61 81 62 82 63 58 64 59 65
REMARK SMILES IDX 68 66 60 67 61 68 67 69 69 70 62 71 63 72 64 73 65 74 66 75
REMARK SMILES IDX 7 76 8 77 9 78 10 79 11 80 12 82 13 83 14 84 15 85 16 86
REMARK SMILES IDX 17 88 18 89 19 91 20 92 21 93 29 94 22 95 23 96 25 97 30 98
REMARK SMILES IDX 24 99 26 100 27 101 28 102
REMARK H PARENT 3 7 90 25 56 36 10 81 16 87 17 90
REMARK Flexibility Score: inf
ROOT
ATOM      1  C   UNL     1       3.723   1.906  -3.368  1.00  0.00     0.002 C 
ENDROOT
BRANCH   1   2
ATOM      2  C   UNL     1       4.276   0.679  -2.643  1.00  0.00     0.021 C 
BRANCH   2   3
ATOM      3  C   UNL     1       4.198   0.748  -1.123  1.00  0.00     0.116 C 
BRANCH   3   4
ATOM      4  N   UNL     1       2.827   0.749  -0.640  1.00  0.00    -0.352 N 
ATOM      5  O   UNL     1       1.000  -0.098   0.376  1.00  0.00    -0.269 OA
ATOM      6  C   UNL     1       2.211  -0.135   0.217  1.00  0.00     0.251 C 
ATOM      7  H   UNL     1       2.261   1.482  -0.971  1.00  0.00     0.163 HD
BRANCH   6   8
ATOM      8  C   UNL     1       3.031  -1.139   0.933  1.00  0.00     0.039 A 
ATOM      9  C   UNL     1       4.229  -0.763   1.541  1.00  0.00     0.014 A 
ATOM     10  C   UNL     1       2.594  -2.466   0.999  1.00  0.00     0.014 A 
ATOM     11  C   UNL     1       5.055  -1.733   2.093  1.00  0.00     0.010 A 
ATOM     12  C   UNL     1       3.385  -3.427   1.639  1.00  0.00     0.010 A 
ATOM     13  C   UNL     1       4.631  -3.071   2.175  1.00  0.00    -0.014 A 
BRANCH  13  14
ATOM     14  C   UNL     1       5.481  -4.038   2.916  1.00  0.00     0.031 A 
ATOM     15  C   UNL     1       6.148  -5.195   2.226  1.00  0.00     0.074 A 
ATOM     16  C   UNL     1       5.698  -3.806   4.227  1.00  0.00     0.049 A 
ATOM     17  N   UNL     1       6.976  -6.077   2.726  1.00  0.00    -0.248 NA
ATOM     18  C   UNL     1       5.849  -5.397   0.800  1.00  0.00     0.031 C 
ATOM     19  C   UNL     1       5.082  -2.721   5.000  1.00  0.00     0.029 A 
ATOM     20  N   UNL     1       6.516  -4.429   5.132  1.00  0.00    -0.354 N 
ATOM     21  C   UNL     1       7.290  -6.943   1.685  1.00  0.00     0.074 A 
ATOM     22  C   UNL     1       6.544  -6.495   0.528  1.00  0.00     0.031 C 
ATOM     23  C   UNL     1       5.601  -2.709   6.235  1.00  0.00     0.029 A 
ATOM     24  C   UNL     1       6.532  -3.822   6.366  1.00  0.00     0.049 A 
ATOM     25  H   UNL     1       7.042  -5.234   4.920  1.00  0.00     0.167 HD
ATOM     26  C   UNL     1       8.128  -8.007   1.699  1.00  0.00     0.037 A 
ATOM     27  C   UNL     1       7.215  -4.129   7.484  1.00  0.00     0.037 A 
ATOM     28  C   UNL     1       8.878  -8.432   2.856  1.00  0.00     0.049 A 
ATOM     29  C   UNL     1       8.135  -5.313   7.465  1.00  0.00     0.074 A 
ATOM     30  C   UNL     1       9.765  -9.490   2.965  1.00  0.00     0.029 A 
ATOM     31  N   UNL     1       8.836  -7.819   4.100  1.00  0.00    -0.354 N 
ATOM     32  N   UNL     1       8.421  -6.115   6.468  1.00  0.00    -0.248 NA
ATOM     33  C   UNL     1       8.817  -5.643   8.723  1.00  0.00     0.031 C 
ATOM     34  C   UNL     1      10.232  -9.537   4.283  1.00  0.00     0.029 A 
ATOM     35  C   UNL     1       9.669  -8.484   4.985  1.00  0.00     0.049 A 
ATOM     36  H   UNL     1       8.293  -7.027   4.321  1.00  0.00     0.167 HD
ATOM     37  C   UNL     1       9.313  -7.048   6.978  1.00  0.00     0.074 A 
ATOM     38  C   UNL     1       9.548  -6.688   8.362  1.00  0.00     0.031 C 
ATOM     39  C   UNL     1       9.878  -8.116   6.362  1.00  0.00     0.037 A 
BRANCH  26  40
ATOM     40  C   UNL     1       8.294  -8.800   0.431  1.00  0.00     0.058 A 
ATOM     41  C   UNL     1       7.765 -10.097   0.326  1.00  0.00     0.135 A 
ATOM     42  C   UNL     1       9.061  -8.318  -0.641  1.00  0.00     0.135 A 
ATOM     43  F   UNL     1       7.021 -10.605   1.321  1.00  0.00    -0.206 F 
ATOM     44  C   UNL     1       8.007 -10.898  -0.787  1.00  0.00     0.059 A 
ATOM     45  C   UNL     1       9.300  -9.094  -1.771  1.00  0.00     0.059 A 
ATOM     46  F   UNL     1       9.576  -7.079  -0.599  1.00  0.00    -0.206 F 
ATOM     47  C   UNL     1       8.776 -10.387  -1.831  1.00  0.00     0.060 A 
BRANCH  47  48
ATOM     48  S   UNL     1       9.139 -11.396  -3.284  1.00  0.00     0.124 S 
ATOM     49  O   UNL     1       8.368 -10.710  -4.317  1.00  0.00    -0.237 OA
ATOM     50  O   UNL     1      10.589 -11.275  -3.391  1.00  0.00    -0.237 OA
ATOM     51  O   UNL     1       8.648 -12.720  -2.913  1.00  0.00    -0.744 OA
ENDBRANCH  47  48
ENDBRANCH  26  40
BRANCH  27  52
ATOM     52  C   UNL     1       7.039  -3.308   8.711  1.00  0.00     0.058 A 
ATOM     53  C   UNL     1       5.822  -3.302   9.411  1.00  0.00     0.135 A 
ATOM     54  C   UNL     1       8.077  -2.500   9.197  1.00  0.00     0.135 A 
ATOM     55  F   UNL     1       4.792  -4.044   8.975  1.00  0.00    -0.206 F 
ATOM     56  C   UNL     1       5.633  -2.517  10.542  1.00  0.00     0.059 A 
ATOM     57  C   UNL     1       7.922  -1.728  10.343  1.00  0.00     0.059 A 
ATOM     58  F   UNL     1       9.260  -2.473   8.563  1.00  0.00    -0.206 F 
ATOM     59  C   UNL     1       6.694  -1.743  11.009  1.00  0.00     0.060 A 
BRANCH  59  60
ATOM     60  S   UNL     1       6.488  -0.709  12.474  1.00  0.00     0.124 S 
ATOM     61  O   UNL     1       7.250  -1.455  13.468  1.00  0.00    -0.237 OA
ATOM     62  O   UNL     1       7.070   0.558  12.041  1.00  0.00    -0.237 OA
ATOM     63  O   UNL     1       5.041  -0.690  12.669  1.00  0.00    -0.744 OA
ENDBRANCH  59  60
ENDBRANCH  27  52
BRANCH  39  64
ATOM     64  C   UNL     1      10.801  -8.963   7.189  1.00  0.00     0.058 A 
ATOM     65  C   UNL     1      12.188  -8.925   6.979  1.00  0.00     0.135 A 
ATOM     66  C   UNL     1      10.307  -9.826   8.180  1.00  0.00     0.135 A 
ATOM     67  F   UNL     1      12.708  -8.123   6.037  1.00  0.00    -0.206 F 
ATOM     68  C   UNL     1      13.058  -9.708   7.730  1.00  0.00     0.059 A 
ATOM     69  C   UNL     1      11.160 -10.598   8.959  1.00  0.00     0.059 A 
ATOM     70  F   UNL     1       8.988  -9.891   8.423  1.00  0.00    -0.206 F 
ATOM     71  C   UNL     1      12.536 -10.530   8.729  1.00  0.00     0.060 A 
BRANCH  71  72
ATOM     72  S   UNL     1      13.632 -11.540   9.746  1.00  0.00     0.124 S 
ATOM     73  O   UNL     1      13.592 -10.826  11.018  1.00  0.00    -0.237 OA
ATOM     74  O   UNL     1      12.967 -12.839   9.727  1.00  0.00    -0.237 OA
ATOM     75  O   UNL     1      14.905 -11.483   9.034  1.00  0.00    -0.744 OA
ENDBRANCH  71  72
ENDBRANCH  39  64
ENDBRANCH  13  14
ENDBRANCH   6   8
ENDBRANCH   3   4
ENDBRANCH   2   3
ENDBRANCH   1   2
BRANCH   1  76
ATOM     76  C   UNL     1       4.345   3.245  -2.959  1.00  0.00     0.002 C 
BRANCH  76  77
ATOM     77  C   UNL     1       5.877   3.281  -2.943  1.00  0.00     0.021 C 
BRANCH  77  78
ATOM     78  C   UNL     1       6.533   3.037  -4.303  1.00  0.00     0.116 C 
BRANCH  78  79
ATOM     79  N   UNL     1       6.501   4.244  -5.100  1.00  0.00    -0.354 N 
ATOM     80  C   UNL     1       7.478   5.116  -5.450  1.00  0.00     0.242 C 
ATOM     81  H   UNL     1       5.610   4.473  -5.451  1.00  0.00     0.163 HD
ATOM     82  O   UNL     1       7.109   6.179  -5.968  1.00  0.00    -0.273 OA
BRANCH  80  83
ATOM     83  C   UNL     1       8.985   4.887  -5.190  1.00  0.00     0.173 C 
BRANCH  83  84
ATOM     84  C   UNL     1       9.479   5.183  -3.764  1.00  0.00     0.063 C 
BRANCH  84  85
ATOM     85  C   UNL     1       9.367   4.107  -2.693  1.00  0.00     0.158 C 
BRANCH  85  86
ATOM     86  O   UNL     1       9.742   2.823  -3.159  1.00  0.00    -0.396 OA
ATOM     87  H   UNL     1       9.150   2.555  -3.878  1.00  0.00     0.210 HD
ENDBRANCH  85  86
ENDBRANCH  84  85
ENDBRANCH  83  84
BRANCH  83  88
ATOM     88  N   UNL     1       9.523   3.654  -5.767  1.00  0.00    -0.340 N 
ATOM     89  C   UNL     1      10.346   3.478  -6.851  1.00  0.00     0.258 C 
ATOM     90  H   UNL     1       9.252   2.825  -5.309  1.00  0.00     0.164 HD
ATOM     91  O   UNL     1      10.610   2.354  -7.263  1.00  0.00    -0.269 OA
BRANCH  89  92
ATOM     92  C   UNL     1      10.961   4.632  -7.519  1.00  0.00     0.118 A 
ATOM     93  C   UNL     1      11.813   5.480  -6.812  1.00  0.00     0.139 A 
ATOM     94  C   UNL     1      10.751   4.839  -8.883  1.00  0.00     0.216 A 
ATOM     95  F   UNL     1      12.094   5.255  -5.522  1.00  0.00    -0.206 F 
ATOM     96  C   UNL     1      12.392   6.588  -7.426  1.00  0.00     0.047 A 
ATOM     97  C   UNL     1      11.363   5.925  -9.513  1.00  0.00     0.305 A 
ATOM     98  F   UNL     1       9.933   4.017  -9.557  1.00  0.00    -0.198 F 
ATOM     99  C   UNL     1      12.167   6.818  -8.782  1.00  0.00     0.092 A 
BRANCH  97 100
ATOM    100  N   UNL     1      11.184   6.148 -10.944  1.00  0.00     0.065 N 
ATOM    101  O   UNL     1      10.842   5.196 -11.655  1.00  0.00    -0.258 OA
ATOM    102  O   UNL     1      11.428   7.287 -11.370  1.00  0.00    -0.258 OA
ENDBRANCH  97 100
ENDBRANCH  89  92
ENDBRANCH  83  88
ENDBRANCH  80  83
ENDBRANCH  78  79
ENDBRANCH  77  78
ENDBRANCH  76  77
ENDBRANCH   1  76
TORSDOF 22
