REMARK SMILES O=C(NCCCCCCNC(=O)c1cc(=O)[nH]c2ccc(C(F)(F)F)cc12)c1ccc(-c2c3nc(c(-c4c(F)cc(S(=O)(=O)[O-])cc4F)c4ccc([nH]4)c(-c4c(F)cc(S(=O)(=O)[O-])cc4F)c4nc(c(-c5c(F)cc(S(=O)(=O)[O-])cc5F)c5ccc2[nH]5)C=C4)C=C3)cc1
REMARK SMILES IDX 5 1 4 2 3 3 1 4 2 5 28 7 29 8 93 9 30 10 92 11 31 12 32 13
REMARK SMILES IDX 33 14 86 15 34 16 91 17 85 18 87 19 35 20 90 21 84 22 83 23
REMARK SMILES IDX 36 25 70 26 49 27 69 28 50 29 53 30 68 31 88 32 51 33 52 34
REMARK SMILES IDX 67 36 89 37 54 38 37 39 38 40 47 41 39 42 40 43 46 44 48 45
REMARK SMILES IDX 41 46 42 47 43 48 44 49 45 50 71 51 72 52 81 53 73 54 74 55
REMARK SMILES IDX 80 56 82 57 75 58 76 59 77 60 78 61 79 62 55 63 56 64 65 65
REMARK SMILES IDX 57 66 58 67 64 68 66 69 59 70 60 71 61 72 62 73 63 74 6 75
REMARK SMILES IDX 7 76 8 77 9 78 10 79 11 80 12 82 13 83 14 84 27 85 15 86
REMARK SMILES IDX 18 87 26 88 16 89 17 90 19 91 21 92 20 94 22 95 23 96 24 97
REMARK SMILES IDX 25 98
REMARK H PARENT 3 6 87 24 53 35 10 81 17 93
REMARK Flexibility Score: inf
ROOT
ATOM      1  C   UNL     1       4.775  -1.801   2.017  1.00  0.00     0.021 C 
ENDROOT
BRANCH   1   2
ATOM      2  C   UNL     1       4.526  -1.161   0.657  1.00  0.00     0.116 C 
BRANCH   2   3
ATOM      3  N   UNL     1       3.112  -1.048   0.340  1.00  0.00    -0.352 N 
ATOM      4  O   UNL     1       1.168  -0.004  -0.116  1.00  0.00    -0.269 OA
ATOM      5  C   UNL     1       2.392   0.060  -0.036  1.00  0.00     0.251 C 
ATOM      6  H   UNL     1       2.597  -1.885   0.403  1.00  0.00     0.163 HD
BRANCH   5   7
ATOM      7  C   UNL     1       3.089   1.335  -0.319  1.00  0.00     0.039 A 
ATOM      8  C   UNL     1       4.244   1.362  -1.105  1.00  0.00     0.014 A 
ATOM      9  C   UNL     1       2.570   2.523   0.203  1.00  0.00     0.014 A 
ATOM     10  C   UNL     1       4.949   2.552  -1.261  1.00  0.00     0.010 A 
ATOM     11  C   UNL     1       3.239   3.731  -0.018  1.00  0.00     0.010 A 
ATOM     12  C   UNL     1       4.449   3.752  -0.729  1.00  0.00    -0.014 A 
BRANCH  12  13
ATOM     13  C   UNL     1       5.175   5.024  -0.976  1.00  0.00     0.031 A 
ATOM     14  C   UNL     1       5.801   5.794   0.154  1.00  0.00     0.074 A 
ATOM     15  C   UNL     1       5.274   5.478  -2.240  1.00  0.00     0.049 A 
ATOM     16  N   UNL     1       6.461   6.923   0.114  1.00  0.00    -0.248 NA
ATOM     17  C   UNL     1       5.664   5.228   1.505  1.00  0.00     0.031 C 
ATOM     18  C   UNL     1       4.696   4.823  -3.417  1.00  0.00     0.029 A 
ATOM     19  N   UNL     1       5.899   6.586  -2.752  1.00  0.00    -0.354 N 
ATOM     20  C   UNL     1       6.803   7.215   1.430  1.00  0.00     0.074 A 
ATOM     21  C   UNL     1       6.256   6.153   2.249  1.00  0.00     0.031 C 
ATOM     22  C   UNL     1       5.021   5.522  -4.514  1.00  0.00     0.029 A 
ATOM     23  C   UNL     1       5.780   6.703  -4.116  1.00  0.00     0.049 A 
ATOM     24  H   UNL     1       6.386   7.236  -2.195  1.00  0.00     0.167 HD
ATOM     25  C   UNL     1       7.511   8.267   1.907  1.00  0.00     0.037 A 
ATOM     26  C   UNL     1       6.215   7.661  -4.955  1.00  0.00     0.037 A 
ATOM     27  C   UNL     1       8.062   9.313   1.082  1.00  0.00     0.049 A 
ATOM     28  C   UNL     1       6.983   8.825  -4.400  1.00  0.00     0.074 A 
ATOM     29  C   UNL     1       8.823  10.404   1.468  1.00  0.00     0.029 A 
ATOM     30  N   UNL     1       7.906   9.404  -0.294  1.00  0.00    -0.354 N 
ATOM     31  N   UNL     1       7.321   9.068  -3.156  1.00  0.00    -0.248 NA
ATOM     32  C   UNL     1       7.428   9.845  -5.358  1.00  0.00     0.031 C 
ATOM     33  C   UNL     1       9.094  11.174   0.331  1.00  0.00     0.029 A 
ATOM     34  C   UNL     1       8.540  10.541  -0.770  1.00  0.00     0.049 A 
ATOM     35  H   UNL     1       7.418   8.756  -0.851  1.00  0.00     0.167 HD
ATOM     36  C   UNL     1       8.031  10.262  -3.183  1.00  0.00     0.074 A 
ATOM     37  C   UNL     1       8.087  10.683  -4.569  1.00  0.00     0.031 C 
ATOM     38  C   UNL     1       8.586  10.947  -2.153  1.00  0.00     0.037 A 
BRANCH  25  39
ATOM     39  C   UNL     1       7.719   8.352   3.395  1.00  0.00     0.058 A 
ATOM     40  C   UNL     1       8.598   7.490   4.069  1.00  0.00     0.135 A 
ATOM     41  C   UNL     1       7.057   9.333   4.152  1.00  0.00     0.135 A 
ATOM     42  F   UNL     1       9.247   6.526   3.398  1.00  0.00    -0.206 F 
ATOM     43  C   UNL     1       8.792   7.579   5.445  1.00  0.00     0.059 A 
ATOM     44  C   UNL     1       7.254   9.455   5.525  1.00  0.00     0.059 A 
ATOM     45  F   UNL     1       6.207  10.186   3.558  1.00  0.00    -0.206 F 
ATOM     46  C   UNL     1       8.111   8.562   6.165  1.00  0.00     0.060 A 
BRANCH  46  47
ATOM     47  S   UNL     1       8.365   8.659   7.950  1.00  0.00     0.124 S 
ATOM     48  O   UNL     1       7.599   7.506   8.414  1.00  0.00    -0.237 OA
ATOM     49  O   UNL     1       9.815   8.543   8.068  1.00  0.00    -0.237 OA
ATOM     50  O   UNL     1       7.812   9.962   8.303  1.00  0.00    -0.744 OA
ENDBRANCH  46  47
ENDBRANCH  25  39
BRANCH  26  51
ATOM     51  C   UNL     1       5.925   7.548  -6.408  1.00  0.00     0.058 A 
ATOM     52  C   UNL     1       6.940   7.245  -7.325  1.00  0.00     0.135 A 
ATOM     53  C   UNL     1       4.618   7.694  -6.899  1.00  0.00     0.135 A 
ATOM     54  F   UNL     1       8.206   7.101  -6.903  1.00  0.00    -0.206 F 
ATOM     55  C   UNL     1       6.673   7.095  -8.682  1.00  0.00     0.059 A 
ATOM     56  C   UNL     1       4.321   7.524  -8.247  1.00  0.00     0.059 A 
ATOM     57  F   UNL     1       3.609   7.967  -6.057  1.00  0.00    -0.206 F 
ATOM     58  C   UNL     1       5.358   7.231  -9.132  1.00  0.00     0.060 A 
BRANCH  58  59
ATOM     59  S   UNL     1       5.008   6.963 -10.883  1.00  0.00     0.124 S 
ATOM     60  O   UNL     1       5.512   8.197 -11.474  1.00  0.00    -0.237 OA
ATOM     61  O   UNL     1       5.778   5.757 -11.170  1.00  0.00    -0.237 OA
ATOM     62  O   UNL     1       3.558   6.793 -10.913  1.00  0.00    -0.744 OA
ENDBRANCH  58  59
ENDBRANCH  26  51
BRANCH  38  63
ATOM     63  C   UNL     1       9.325  12.211  -2.490  1.00  0.00     0.058 A 
ATOM     64  C   UNL     1       8.646  13.388  -2.840  1.00  0.00     0.135 A 
ATOM     65  C   UNL     1      10.727  12.255  -2.421  1.00  0.00     0.135 A 
ATOM     66  F   UNL     1       7.307  13.396  -2.929  1.00  0.00    -0.206 F 
ATOM     67  C   UNL     1       9.334  14.562  -3.132  1.00  0.00     0.059 A 
ATOM     68  C   UNL     1      11.433  13.424  -2.685  1.00  0.00     0.059 A 
ATOM     69  F   UNL     1      11.422  11.157  -2.084  1.00  0.00    -0.206 F 
ATOM     70  C   UNL     1      10.728  14.570  -3.051  1.00  0.00     0.060 A 
BRANCH  70  71
ATOM     71  S   UNL     1      11.609  16.107  -3.401  1.00  0.00     0.124 S 
ATOM     72  O   UNL     1      11.532  16.164  -4.857  1.00  0.00    -0.237 OA
ATOM     73  O   UNL     1      10.810  17.096  -2.684  1.00  0.00    -0.237 OA
ATOM     74  O   UNL     1      12.939  15.867  -2.850  1.00  0.00    -0.744 OA
ENDBRANCH  70  71
ENDBRANCH  38  63
ENDBRANCH  12  13
ENDBRANCH   5   7
ENDBRANCH   2   3
ENDBRANCH   1   2
BRANCH   1  75
ATOM     75  C   UNL     1       4.319  -3.255   2.149  1.00  0.00     0.002 C 
BRANCH  75  76
ATOM     76  C   UNL     1       4.883  -4.227   1.109  1.00  0.00     0.002 C 
BRANCH  76  77
ATOM     77  C   UNL     1       6.409  -4.243   0.962  1.00  0.00     0.021 C 
BRANCH  77  78
ATOM     78  C   UNL     1       7.193  -4.483   2.251  1.00  0.00     0.116 C 
BRANCH  78  79
ATOM     79  N   UNL     1       6.871  -5.763   2.862  1.00  0.00    -0.352 N 
ATOM     80  C   UNL     1       7.691  -6.788   3.230  1.00  0.00     0.252 C 
ATOM     81  H   UNL     1       5.914  -5.912   3.036  1.00  0.00     0.163 HD
ATOM     82  O   UNL     1       7.208  -7.837   3.651  1.00  0.00    -0.269 OA
BRANCH  80  83
ATOM     83  C   UNL     1       9.160  -6.630   3.087  1.00  0.00     0.054 A 
ATOM     84  C   UNL     1       9.732  -5.651   3.808  1.00  0.00     0.086 A 
ATOM     85  C   UNL     1       9.996  -7.551   2.297  1.00  0.00     0.012 A 
ATOM     86  C   UNL     1      11.185  -5.401   3.741  1.00  0.00     0.249 A 
ATOM     87  C   UNL     1      11.378  -7.314   2.244  1.00  0.00     0.049 A 
ATOM     88  C   UNL     1       9.479  -8.652   1.598  1.00  0.00     0.024 A 
ATOM     89  O   UNL     1      11.690  -4.476   4.367  1.00  0.00    -0.270 OA
ATOM     90  N   UNL     1      11.922  -6.237   2.953  1.00  0.00    -0.322 N 
ATOM     91  C   UNL     1      12.225  -8.141   1.507  1.00  0.00     0.027 A 
ATOM     92  C   UNL     1      10.323  -9.509   0.866  1.00  0.00     0.056 A 
ATOM     93  H   UNL     1      12.890  -6.074   2.880  1.00  0.00     0.170 HD
ATOM     94  C   UNL     1      11.698  -9.236   0.822  1.00  0.00     0.015 A 
BRANCH  92  95
ATOM     95  C   UNL     1       9.741 -10.704   0.149  1.00  0.00     0.416 C 
ATOM     96  F   UNL     1       9.092 -11.555   0.991  1.00  0.00    -0.166 F 
ATOM     97  F   UNL     1       8.834 -10.351  -0.803  1.00  0.00    -0.166 F 
ATOM     98  F   UNL     1      10.677 -11.460  -0.491  1.00  0.00    -0.166 F 
ENDBRANCH  92  95
ENDBRANCH  80  83
ENDBRANCH  78  79
ENDBRANCH  77  78
ENDBRANCH  76  77
ENDBRANCH  75  76
ENDBRANCH   1  75
TORSDOF 17
