REMARK SMILES O=C(NCCCCCCNC(=O)[C@@H]1C[NH2+]CCN1C(=O)N[C@@H]1CCOC1)c1ccc(-c2c3nc(c(-c4c(F)cc(S(=O)(=O)[O-])cc4F)c4ccc([nH]4)c(-c4c(F)cc(S(=O)(=O)[O-])cc4F)c4nc(c(-c5c(F)cc(S(=O)(=O)[O-])cc5F)c5ccc2[nH]5)C=C4)C=C3)cc1
REMARK SMILES IDX 6 1 5 2 4 3 3 4 1 5 2 6 27 8 28 9 92 10 29 11 91 12 30 13
REMARK SMILES IDX 31 14 32 15 85 16 33 17 90 18 84 19 86 20 34 21 89 22 83 23
REMARK SMILES IDX 82 24 35 26 69 27 48 28 68 29 49 30 52 31 67 32 87 33 50 34
REMARK SMILES IDX 51 35 66 37 88 38 53 39 36 40 37 41 46 42 38 43 39 44 45 45
REMARK SMILES IDX 47 46 40 47 41 48 42 49 43 50 44 51 70 52 71 53 80 54 72 55
REMARK SMILES IDX 73 56 79 57 81 58 74 59 75 60 76 61 77 62 78 63 54 64 55 65
REMARK SMILES IDX 64 66 56 67 57 68 63 69 65 70 58 71 59 72 60 73 61 74 62 75
REMARK SMILES IDX 7 76 8 77 9 78 10 79 11 80 12 82 13 83 14 84 18 85 15 86
REMARK SMILES IDX 17 87 16 88 19 91 20 92 21 93 22 95 23 96 26 97 24 98 25 99
REMARK H PARENT 3 7 86 25 52 36 10 81 15 89 15 90 21 94
REMARK Flexibility Score: inf
ROOT
ATOM      1  C   UNL     1       4.351   1.593  -3.521  1.00  0.00     0.002 C 
ENDROOT
BRANCH   1   2
ATOM      2  C   UNL     1       4.611   0.297  -2.756  1.00  0.00     0.021 C 
BRANCH   2   3
ATOM      3  C   UNL     1       4.323   0.360  -1.264  1.00  0.00     0.116 C 
BRANCH   3   4
ATOM      4  N   UNL     1       2.911   0.480  -0.947  1.00  0.00    -0.352 N 
ATOM      5  O   UNL     1       1.008  -0.066   0.149  1.00  0.00    -0.269 OA
ATOM      6  C   UNL     1       2.215  -0.172   0.055  1.00  0.00     0.251 C 
ATOM      7  H   UNL     1       2.390   1.096  -1.510  1.00  0.00     0.163 HD
BRANCH   6   8
ATOM      8  C   UNL     1       2.980  -1.037   0.987  1.00  0.00     0.039 A 
ATOM      9  C   UNL     1       4.154  -0.561   1.573  1.00  0.00     0.014 A 
ATOM     10  C   UNL     1       2.560  -2.350   1.212  1.00  0.00     0.014 A 
ATOM     11  C   UNL     1       4.991  -1.444   2.240  1.00  0.00     0.010 A 
ATOM     12  C   UNL     1       3.355  -3.209   1.981  1.00  0.00     0.010 A 
ATOM     13  C   UNL     1       4.594  -2.772   2.475  1.00  0.00    -0.014 A 
BRANCH  13  14
ATOM     14  C   UNL     1       5.469  -3.634   3.314  1.00  0.00     0.031 A 
ATOM     15  C   UNL     1       6.115  -4.881   2.773  1.00  0.00     0.074 A 
ATOM     16  C   UNL     1       5.729  -3.228   4.573  1.00  0.00     0.049 A 
ATOM     17  N   UNL     1       6.954  -5.692   3.368  1.00  0.00    -0.248 NA
ATOM     18  C   UNL     1       5.776  -5.278   1.398  1.00  0.00     0.031 C 
ATOM     19  C   UNL     1       5.133  -2.050   5.214  1.00  0.00     0.029 A 
ATOM     20  N   UNL     1       6.576  -3.727   5.527  1.00  0.00    -0.354 N 
ATOM     21  C   UNL     1       7.238  -6.697   2.449  1.00  0.00     0.074 A 
ATOM     22  C   UNL     1       6.456  -6.411   1.264  1.00  0.00     0.031 C 
ATOM     23  C   UNL     1       5.680  -1.881   6.425  1.00  0.00     0.029 A 
ATOM     24  C   UNL     1       6.607  -2.976   6.679  1.00  0.00     0.049 A 
ATOM     25  H   UNL     1       7.110  -4.544   5.401  1.00  0.00     0.167 HD
ATOM     26  C   UNL     1       8.081  -7.751   2.581  1.00  0.00     0.037 A 
ATOM     27  C   UNL     1       7.289  -3.154   7.825  1.00  0.00     0.037 A 
ATOM     28  C   UNL     1       8.859  -8.023   3.766  1.00  0.00     0.049 A 
ATOM     29  C   UNL     1       8.213  -4.329   7.941  1.00  0.00     0.074 A 
ATOM     30  C   UNL     1       9.745  -9.062   3.995  1.00  0.00     0.029 A 
ATOM     31  N   UNL     1       8.847  -7.252   4.921  1.00  0.00    -0.354 N 
ATOM     32  N   UNL     1       8.478  -5.257   7.052  1.00  0.00    -0.248 NA
ATOM     33  C   UNL     1       8.930  -4.484   9.211  1.00  0.00     0.031 C 
ATOM     34  C   UNL     1      10.241  -8.940   5.299  1.00  0.00     0.029 A 
ATOM     35  C   UNL     1       9.700  -7.799   5.867  1.00  0.00     0.049 A 
ATOM     36  H   UNL     1       8.311  -6.437   5.049  1.00  0.00     0.167 HD
ATOM     37  C   UNL     1       9.393  -6.108   7.657  1.00  0.00     0.074 A 
ATOM     38  C   UNL     1       9.665  -5.560   8.972  1.00  0.00     0.031 C 
ATOM     39  C   UNL     1       9.950  -7.247   7.175  1.00  0.00     0.037 A 
BRANCH  26  40
ATOM     40  C   UNL     1       8.214  -8.699   1.418  1.00  0.00     0.058 A 
ATOM     41  C   UNL     1       8.901  -8.336   0.249  1.00  0.00     0.135 A 
ATOM     42  C   UNL     1       7.717 -10.011   1.501  1.00  0.00     0.135 A 
ATOM     43  F   UNL     1       9.385  -7.092   0.108  1.00  0.00    -0.206 F 
ATOM     44  C   UNL     1       9.078  -9.233  -0.801  1.00  0.00     0.059 A 
ATOM     45  C   UNL     1       7.903 -10.932   0.473  1.00  0.00     0.059 A 
ATOM     46  F   UNL     1       7.053 -10.414   2.596  1.00  0.00    -0.206 F 
ATOM     47  C   UNL     1       8.578 -10.530  -0.678  1.00  0.00     0.060 A 
BRANCH  47  48
ATOM     48  S   UNL     1       8.840 -11.687  -2.041  1.00  0.00     0.124 S 
ATOM     49  O   UNL     1       7.927 -11.159  -3.050  1.00  0.00    -0.237 OA
ATOM     50  O   UNL     1      10.262 -11.518  -2.324  1.00  0.00    -0.237 OA
ATOM     51  O   UNL     1       8.466 -12.977  -1.470  1.00  0.00    -0.744 OA
ENDBRANCH  47  48
ENDBRANCH  26  40
BRANCH  27  52
ATOM     52  C   UNL     1       7.094  -2.207   8.954  1.00  0.00     0.058 A 
ATOM     53  C   UNL     1       8.117  -1.345   9.370  1.00  0.00     0.135 A 
ATOM     54  C   UNL     1       5.863  -2.137   9.627  1.00  0.00     0.135 A 
ATOM     55  F   UNL     1       9.311  -1.374   8.758  1.00  0.00    -0.206 F 
ATOM     56  C   UNL     1       7.937  -0.462  10.430  1.00  0.00     0.059 A 
ATOM     57  C   UNL     1       5.648  -1.240  10.666  1.00  0.00     0.059 A 
ATOM     58  F   UNL     1       4.844  -2.925   9.250  1.00  0.00    -0.206 F 
ATOM     59  C   UNL     1       6.697  -0.418  11.072  1.00  0.00     0.060 A 
BRANCH  59  60
ATOM     60  S   UNL     1       6.456   0.754  12.423  1.00  0.00     0.124 S 
ATOM     61  O   UNL     1       7.168   0.095  13.511  1.00  0.00    -0.237 OA
ATOM     62  O   UNL     1       7.075   1.966  11.895  1.00  0.00    -0.237 OA
ATOM     63  O   UNL     1       5.004   0.811  12.560  1.00  0.00    -0.744 OA
ENDBRANCH  59  60
ENDBRANCH  27  52
BRANCH  39  64
ATOM     64  C   UNL     1      10.915  -7.961   8.079  1.00  0.00     0.058 A 
ATOM     65  C   UNL     1      10.479  -8.646   9.224  1.00  0.00     0.135 A 
ATOM     66  C   UNL     1      12.291  -7.956   7.800  1.00  0.00     0.135 A 
ATOM     67  F   UNL     1       9.175  -8.674   9.539  1.00  0.00    -0.206 F 
ATOM     68  C   UNL     1      11.378  -9.265  10.086  1.00  0.00     0.059 A 
ATOM     69  C   UNL     1      13.205  -8.593   8.632  1.00  0.00     0.059 A 
ATOM     70  F   UNL     1      12.759  -7.324   6.712  1.00  0.00    -0.206 F 
ATOM     71  C   UNL     1      12.741  -9.228   9.784  1.00  0.00     0.060 A 
BRANCH  71  72
ATOM     72  S   UNL     1      13.900 -10.028  10.913  1.00  0.00     0.124 S 
ATOM     73  O   UNL     1      13.938  -9.074  12.017  1.00  0.00    -0.237 OA
ATOM     74  O   UNL     1      13.237 -11.298  11.195  1.00  0.00    -0.237 OA
ATOM     75  O   UNL     1      15.125 -10.128  10.126  1.00  0.00    -0.744 OA
ENDBRANCH  71  72
ENDBRANCH  39  64
ENDBRANCH  13  14
ENDBRANCH   6   8
ENDBRANCH   3   4
ENDBRANCH   2   3
ENDBRANCH   1   2
BRANCH   1  76
ATOM     76  C   UNL     1       4.958   2.853  -2.898  1.00  0.00     0.002 C 
BRANCH  76  77
ATOM     77  C   UNL     1       6.456   2.763  -2.571  1.00  0.00     0.021 C 
BRANCH  77  78
ATOM     78  C   UNL     1       7.351   2.853  -3.802  1.00  0.00     0.116 C 
BRANCH  78  79
ATOM     79  N   UNL     1       7.324   4.210  -4.305  1.00  0.00    -0.354 N 
ATOM     80  C   UNL     1       8.255   4.855  -5.055  1.00  0.00     0.248 C 
ATOM     81  H   UNL     1       6.525   4.736  -4.072  1.00  0.00     0.163 HD
ATOM     82  O   UNL     1       8.205   6.088  -5.061  1.00  0.00    -0.272 OA
BRANCH  80  83
ATOM     83  C   UNL     1       9.414   4.087  -5.669  1.00  0.00     0.231 C 
ATOM     84  C   UNL     1      10.382   5.016  -6.451  1.00  0.00     0.296 C 
ATOM     85  N   UNL     1       9.291   2.786  -6.360  1.00  0.00    -0.302 N 
ATOM     86  N   UNL     1      11.735   4.417  -6.622  1.00  0.00    -0.343 N 
ATOM     87  C   UNL     1      10.631   2.148  -6.402  1.00  0.00     0.183 C 
ATOM     88  C   UNL     1      11.621   3.054  -7.185  1.00  0.00     0.282 C 
ATOM     89  H   UNL     1      12.200   4.370  -5.716  1.00  0.00     0.346 HD
ATOM     90  H   UNL     1      12.278   4.997  -7.262  1.00  0.00     0.346 HD
BRANCH  85  91
ATOM     91  C   UNL     1       8.517   2.443  -7.416  1.00  0.00     0.318 C 
ATOM     92  O   UNL     1       8.919   1.603  -8.241  1.00  0.00    -0.249 OA
ATOM     93  N   UNL     1       7.303   2.838  -7.748  1.00  0.00    -0.333 N 
ATOM     94  H   UNL     1       7.234   2.667  -8.715  1.00  0.00     0.165 HD
BRANCH  93  95
ATOM     95  C   UNL     1       5.992   3.415  -7.366  1.00  0.00     0.112 C 
ATOM     96  C   UNL     1       5.116   3.339  -8.630  1.00  0.00     0.056 C 
ATOM     97  C   UNL     1       5.832   4.914  -7.124  1.00  0.00     0.185 C 
ATOM     98  C   UNL     1       5.577   4.573  -9.388  1.00  0.00     0.162 C 
ATOM     99  O   UNL     1       5.768   5.580  -8.396  1.00  0.00    -0.379 OA
ENDBRANCH  93  95
ENDBRANCH  85  91
ENDBRANCH  80  83
ENDBRANCH  78  79
ENDBRANCH  77  78
ENDBRANCH  76  77
ENDBRANCH   1  76
TORSDOF 18
