REMARK SMILES O=C(CC1(C(=O)NCCCCCCNC(=O)c2ccc(-c3c4nc(c(-c5c(F)cc(S(=O)(=O)[O-])cc5F)c5ccc([nH]5)c(-c5c(F)cc(S(=O)(=O)[O-])cc5F)c5nc(c(-c6c(F)cc(S(=O)(=O)[O-])cc6F)c6ccc3[nH]6)C=C5)C=C4)cc2)CCCCC1)Nc1ccc(N2CCOC2=O)cc1
REMARK SMILES IDX 10 1 9 2 8 3 7 4 5 5 6 6 4 8 83 9 87 10 84 11 86 12 85 13
REMARK SMILES IDX 3 14 2 15 1 16 88 17 89 19 90 20 100 21 91 22 99 23 92 24
REMARK SMILES IDX 93 25 94 26 97 27 95 28 96 29 98 30 11 31 12 32 13 33 14 34
REMARK SMILES IDX 15 35 16 37 17 38 18 39 82 40 19 41 81 42 20 43 21 44 22 45
REMARK SMILES IDX 75 46 23 47 80 48 74 49 76 50 24 51 79 52 73 53 72 54 25 56
REMARK SMILES IDX 59 57 38 58 58 59 39 60 42 61 57 62 77 63 40 64 41 65 56 67
REMARK SMILES IDX 78 68 43 69 26 70 27 71 36 72 28 73 29 74 35 75 37 76 30 77
REMARK SMILES IDX 31 78 32 79 33 80 34 81 60 82 61 83 70 84 62 85 63 86 69 87
REMARK SMILES IDX 71 88 64 89 65 90 66 91 67 92 68 93 44 94 45 95 54 96 46 97
REMARK SMILES IDX 47 98 53 99 55 100 48 101 49 102 50 103 51 104 52 105
REMARK H PARENT 7 7 88 18 14 36 76 55 42 66
REMARK Flexibility Score: inf
ROOT
ATOM      1  C   UNL     1       8.830   3.933  -2.000  1.00  0.00     0.002 C 
ENDROOT
BRANCH   1   2
ATOM      2  C   UNL     1       7.724   3.466  -1.057  1.00  0.00     0.021 C 
BRANCH   2   3
ATOM      3  C   UNL     1       6.338   3.517  -1.688  1.00  0.00     0.116 C 
BRANCH   3   4
ATOM      4  N   UNL     1       5.928   2.246  -2.209  1.00  0.00    -0.356 N 
ATOM      5  C   UNL     1       4.876   1.440  -1.969  1.00  0.00     0.226 C 
ATOM      6  O   UNL     1       4.801   0.505  -2.780  1.00  0.00    -0.274 OA
ATOM      7  H   UNL     1       6.547   1.886  -2.885  1.00  0.00     0.163 HD
BRANCH   5   8
ATOM      8  C   UNL     1       3.816   1.597  -0.822  1.00  0.00     0.058 C 
ATOM      9  C   UNL     1       2.837   2.769  -1.058  1.00  0.00     0.017 C 
ATOM     10  C   UNL     1       4.426   1.666   0.598  1.00  0.00     0.017 C 
ATOM     11  C   UNL     1       3.228   4.139  -0.503  1.00  0.00     0.001 C 
ATOM     12  C   UNL     1       4.831   3.007   1.186  1.00  0.00     0.001 C 
ATOM     13  C   UNL     1       3.835   4.125   0.899  1.00  0.00     0.000 C 
BRANCH   8  14
ATOM     14  C   UNL     1       2.992   0.240  -0.982  1.00  0.00     0.117 C 
BRANCH  14  15
ATOM     15  C   UNL     1       2.008  -0.165   0.102  1.00  0.00     0.225 C 
ATOM     16  O   UNL     1       0.800   0.007  -0.026  1.00  0.00    -0.275 OA
ATOM     17  N   UNL     1       2.634  -0.695   1.218  1.00  0.00    -0.326 N 
ATOM     18  H   UNL     1       3.597  -0.894   1.160  1.00  0.00     0.169 HD
BRANCH  17  19
ATOM     19  C   UNL     1       1.976  -0.961   2.421  1.00  0.00     0.041 A 
ATOM     20  C   UNL     1       2.512  -0.427   3.596  1.00  0.00     0.028 A 
ATOM     21  C   UNL     1       0.843  -1.763   2.463  1.00  0.00     0.028 A 
ATOM     22  C   UNL     1       1.871  -0.647   4.814  1.00  0.00     0.028 A 
ATOM     23  C   UNL     1       0.278  -2.083   3.696  1.00  0.00     0.028 A 
ATOM     24  C   UNL     1       0.772  -1.509   4.873  1.00  0.00     0.047 A 
BRANCH  24  25
ATOM     25  N   UNL     1       0.149  -1.787   6.096  1.00  0.00    -0.274 N 
ATOM     26  C   UNL     1      -0.118  -0.804   7.093  1.00  0.00     0.171 C 
ATOM     27  C   UNL     1      -0.249  -3.034   6.527  1.00  0.00     0.414 C 
ATOM     28  C   UNL     1      -1.116  -1.525   7.966  1.00  0.00     0.257 C 
ATOM     29  O   UNL     1      -0.868  -2.917   7.745  1.00  0.00    -0.447 OA
ATOM     30  O   UNL     1      -0.067  -4.114   5.981  1.00  0.00    -0.224 OA
ENDBRANCH  24  25
ENDBRANCH  17  19
ENDBRANCH  14  15
ENDBRANCH   8  14
ENDBRANCH   5   8
ENDBRANCH   3   4
ENDBRANCH   2   3
ENDBRANCH   1   2
BRANCH   1  31
ATOM     31  C   UNL     1       8.623   5.342  -2.572  1.00  0.00     0.002 C 
BRANCH  31  32
ATOM     32  C   UNL     1       8.344   6.434  -1.533  1.00  0.00     0.021 C 
BRANCH  32  33
ATOM     33  C   UNL     1       9.418   6.571  -0.460  1.00  0.00     0.116 C 
BRANCH  33  34
ATOM     34  N   UNL     1      10.736   6.739  -1.047  1.00  0.00    -0.352 N 
ATOM     35  C   UNL     1      11.640   7.755  -0.896  1.00  0.00     0.251 C 
ATOM     36  H   UNL     1      11.023   6.012  -1.645  1.00  0.00     0.163 HD
ATOM     37  O   UNL     1      12.573   7.859  -1.687  1.00  0.00    -0.269 OA
BRANCH  35  38
ATOM     38  C   UNL     1      11.495   8.714   0.218  1.00  0.00     0.039 A 
ATOM     39  C   UNL     1      11.801  10.057  -0.007  1.00  0.00     0.014 A 
ATOM     40  C   UNL     1      11.108   8.284   1.491  1.00  0.00     0.014 A 
ATOM     41  C   UNL     1      11.697  10.972   1.040  1.00  0.00     0.010 A 
ATOM     42  C   UNL     1      10.921   9.210   2.510  1.00  0.00     0.010 A 
ATOM     43  C   UNL     1      11.237  10.559   2.303  1.00  0.00    -0.014 A 
BRANCH  43  44
ATOM     44  C   UNL     1      11.109  11.529   3.418  1.00  0.00     0.031 A 
ATOM     45  C   UNL     1      11.954  11.376   4.655  1.00  0.00     0.074 A 
ATOM     46  C   UNL     1      10.214  12.530   3.324  1.00  0.00     0.049 A 
ATOM     47  N   UNL     1      11.984  12.120   5.730  1.00  0.00    -0.248 NA
ATOM     48  C   UNL     1      12.864  10.220   4.702  1.00  0.00     0.031 C 
ATOM     49  C   UNL     1       9.310  12.751   2.192  1.00  0.00     0.029 A 
ATOM     50  N   UNL     1       9.918  13.553   4.189  1.00  0.00    -0.354 N 
ATOM     51  C   UNL     1      12.911  11.524   6.578  1.00  0.00     0.074 A 
ATOM     52  C   UNL     1      13.365  10.317   5.924  1.00  0.00     0.031 C 
ATOM     53  C   UNL     1       8.594  13.864   2.413  1.00  0.00     0.029 A 
ATOM     54  C   UNL     1       8.954  14.412   3.717  1.00  0.00     0.049 A 
ATOM     55  H   UNL     1      10.355  13.661   5.064  1.00  0.00     0.167 HD
ATOM     56  C   UNL     1      13.366  11.960   7.777  1.00  0.00     0.037 A 
ATOM     57  C   UNL     1       8.424  15.519   4.272  1.00  0.00     0.037 A 
ATOM     58  C   UNL     1      12.912  13.169   8.413  1.00  0.00     0.049 A 
ATOM     59  C   UNL     1       8.925  15.970   5.616  1.00  0.00     0.074 A 
ATOM     60  C   UNL     1      13.332  13.723   9.609  1.00  0.00     0.029 A 
ATOM     61  N   UNL     1      11.928  14.008   7.908  1.00  0.00    -0.354 N 
ATOM     62  N   UNL     1       9.846  15.428   6.378  1.00  0.00    -0.248 NA
ATOM     63  C   UNL     1       8.321  17.187   6.174  1.00  0.00     0.031 C 
ATOM     64  C   UNL     1      12.563  14.866   9.855  1.00  0.00     0.029 A 
ATOM     65  C   UNL     1      11.710  15.062   8.780  1.00  0.00     0.049 A 
ATOM     66  H   UNL     1      11.454  13.874   7.056  1.00  0.00     0.167 HD
ATOM     67  C   UNL     1       9.958  16.258   7.488  1.00  0.00     0.074 A 
ATOM     68  C   UNL     1       9.015  17.341   7.293  1.00  0.00     0.031 C 
ATOM     69  C   UNL     1      10.771  16.137   8.568  1.00  0.00     0.037 A 
BRANCH  56  70
ATOM     70  C   UNL     1      14.404  11.119   8.475  1.00  0.00     0.058 A 
ATOM     71  C   UNL     1      15.703  10.969   7.960  1.00  0.00     0.135 A 
ATOM     72  C   UNL     1      14.104  10.466   9.682  1.00  0.00     0.135 A 
ATOM     73  F   UNL     1      16.045  11.559   6.803  1.00  0.00    -0.206 F 
ATOM     74  C   UNL     1      16.649  10.166   8.589  1.00  0.00     0.059 A 
ATOM     75  C   UNL     1      15.046   9.687  10.348  1.00  0.00     0.059 A 
ATOM     76  F   UNL     1      12.880  10.574  10.224  1.00  0.00    -0.206 F 
ATOM     77  C   UNL     1      16.310   9.527   9.782  1.00  0.00     0.060 A 
BRANCH  77  78
ATOM     78  S   UNL     1      17.544   8.476  10.576  1.00  0.00     0.124 S 
ATOM     79  O   UNL     1      17.586   7.337   9.663  1.00  0.00    -0.237 OA
ATOM     80  O   UNL     1      18.727   9.331  10.578  1.00  0.00    -0.237 OA
ATOM     81  O   UNL     1      16.967   8.204  11.889  1.00  0.00    -0.744 OA
ENDBRANCH  77  78
ENDBRANCH  56  70
BRANCH  57  82
ATOM     82  C   UNL     1       7.390  16.293   3.535  1.00  0.00     0.058 A 
ATOM     83  C   UNL     1       7.675  17.566   3.018  1.00  0.00     0.135 A 
ATOM     84  C   UNL     1       6.108  15.768   3.307  1.00  0.00     0.135 A 
ATOM     85  F   UNL     1       8.884  18.113   3.212  1.00  0.00    -0.206 F 
ATOM     86  C   UNL     1       6.723  18.297   2.314  1.00  0.00     0.059 A 
ATOM     87  C   UNL     1       5.149  16.468   2.582  1.00  0.00     0.059 A 
ATOM     88  F   UNL     1       5.790  14.547   3.765  1.00  0.00    -0.206 F 
ATOM     89  C   UNL     1       5.464  17.736   2.096  1.00  0.00     0.060 A 
BRANCH  89  90
ATOM     90  S   UNL     1       4.256  18.672   1.134  1.00  0.00     0.124 S 
ATOM     91  O   UNL     1       3.917  19.750   2.056  1.00  0.00    -0.237 OA
ATOM     92  O   UNL     1       5.033  19.054  -0.040  1.00  0.00    -0.237 OA
ATOM     93  O   UNL     1       3.197  17.698   0.886  1.00  0.00    -0.744 OA
ENDBRANCH  89  90
ENDBRANCH  57  82
BRANCH  69  94
ATOM     94  C   UNL     1      10.711  17.226   9.606  1.00  0.00     0.058 A 
ATOM     95  C   UNL     1       9.606  17.383  10.456  1.00  0.00     0.135 A 
ATOM     96  C   UNL     1      11.804  18.091   9.785  1.00  0.00     0.135 A 
ATOM     97  F   UNL     1       8.532  16.588  10.324  1.00  0.00    -0.206 F 
ATOM     98  C   UNL     1       9.575  18.376  11.430  1.00  0.00     0.059 A 
ATOM     99  C   UNL     1      11.809  19.068  10.774  1.00  0.00     0.059 A 
ATOM    100  F   UNL     1      12.892  17.977   9.006  1.00  0.00    -0.206 F 
ATOM    101  C   UNL     1      10.684  19.211  11.585  1.00  0.00     0.060 A 
BRANCH 101 102
ATOM    102  S   UNL     1      10.643  20.470  12.877  1.00  0.00     0.124 S 
ATOM    103  O   UNL     1       9.687  21.425  12.328  1.00  0.00    -0.237 OA
ATOM    104  O   UNL     1      10.187  19.710  14.037  1.00  0.00    -0.237 OA
ATOM    105  O   UNL     1      12.026  20.934  12.944  1.00  0.00    -0.744 OA
ENDBRANCH 101 102
ENDBRANCH  69  94
ENDBRANCH  43  44
ENDBRANCH  35  38
ENDBRANCH  33  34
ENDBRANCH  32  33
ENDBRANCH  31  32
ENDBRANCH   1  31
TORSDOF 20
