REMARK SMILES COc1ccc(C[N@@H+]2CCO[C@H](CC(=O)NCCCCCCNC(=O)c3ccc(-c4c5nc(c(-c6c(F)cc(S(=O)(=O)[O-])cc6F)c6ccc([nH]6)c(-c6c(F)cc(S(=O)(=O)[O-])cc6F)c6nc(c(-c7c(F)cc(S(=O)(=O)[O-])cc7F)c7ccc4[nH]7)C=C6)C=C5)cc3)C2)cc1OC
REMARK SMILES IDX 19 1 18 2 17 3 16 4 14 5 15 6 13 8 12 9 8 10 9 11 92 12
REMARK SMILES IDX 10 14 11 15 7 16 6 17 3 18 4 19 94 20 5 21 93 22 2 23 1 24
REMARK SMILES IDX 95 25 96 26 20 27 21 28 22 29 23 30 24 31 25 33 26 34 27 35
REMARK SMILES IDX 91 36 28 37 90 38 29 39 30 40 31 41 84 42 32 43 89 44 83 45
REMARK SMILES IDX 85 46 33 47 88 48 82 49 81 50 34 52 68 53 47 54 67 55 48 56
REMARK SMILES IDX 51 57 66 58 86 59 49 60 50 61 65 63 87 64 52 65 35 66 36 67
REMARK SMILES IDX 45 68 37 69 38 70 44 71 46 72 39 73 40 74 41 75 42 76 43 77
REMARK SMILES IDX 69 78 70 79 79 80 71 81 72 82 78 83 80 84 73 85 74 86 75 87
REMARK SMILES IDX 76 88 77 89 53 90 54 91 63 92 55 93 56 94 62 95 64 96 57 97
REMARK SMILES IDX 58 98 59 99 60 100 61 101
REMARK H PARENT 16 7 8 13 23 32 85 51 51 62
REMARK Flexibility Score: inf
ROOT
ATOM      1  C   UNL     1       6.163  -4.482   6.963  1.00  0.00     0.002 C 
ENDROOT
BRANCH   1   2
ATOM      2  C   UNL     1       5.884  -2.990   7.209  1.00  0.00     0.021 C 
BRANCH   2   3
ATOM      3  C   UNL     1       5.995  -2.050   6.008  1.00  0.00     0.116 C 
BRANCH   3   4
ATOM      4  N   UNL     1       5.445  -2.632   4.815  1.00  0.00    -0.356 N 
ATOM      5  C   UNL     1       4.254  -2.461   4.208  1.00  0.00     0.222 C 
ATOM      6  O   UNL     1       4.076  -3.168   3.219  1.00  0.00    -0.275 OA
ATOM      7  H   UNL     1       6.043  -3.268   4.361  1.00  0.00     0.163 HD
BRANCH   5   8
ATOM      8  C   UNL     1       3.228  -1.473   4.727  1.00  0.00     0.138 C 
BRANCH   8   9
ATOM      9  C   UNL     1       2.665  -1.848   6.096  1.00  0.00     0.182 C 
ATOM     10  N   UNL     1       0.955  -3.746   5.844  1.00  0.00    -0.327 N 
ATOM     11  C   UNL     1      -0.030  -2.800   6.361  1.00  0.00     0.291 C 
ATOM     12  C   UNL     1       2.292  -3.340   6.277  1.00  0.00     0.295 C 
ATOM     13  H   UNL     1       0.745  -4.642   6.284  1.00  0.00     0.348 HD
ATOM     14  C   UNL     1       0.315  -1.326   6.080  1.00  0.00     0.222 C 
ATOM     15  O   UNL     1       1.618  -0.961   6.537  1.00  0.00    -0.366 OA
BRANCH  10  16
ATOM     16  C   UNL     1       0.789  -4.314   4.492  1.00  0.00     0.299 C 
BRANCH  16  17
ATOM     17  C   UNL     1       0.493  -3.383   3.329  1.00  0.00     0.010 A 
ATOM     18  C   UNL     1       0.347  -1.196   1.576  1.00  0.00     0.160 A 
ATOM     19  C   UNL     1      -0.726  -1.502   2.418  1.00  0.00     0.051 A 
ATOM     20  C   UNL     1       1.404  -2.095   1.454  1.00  0.00     0.161 A 
ATOM     21  C   UNL     1      -0.668  -2.614   3.263  1.00  0.00     0.013 A 
ATOM     22  C   UNL     1       1.418  -3.225   2.288  1.00  0.00     0.060 A 
BRANCH  18  23
ATOM     23  O   UNL     1       0.375   0.069   1.058  1.00  0.00    -0.493 OA
ATOM     24  C   UNL     1      -0.130   0.135  -0.267  1.00  0.00     0.278 C 
ENDBRANCH  18  23
BRANCH  20  25
ATOM     25  O   UNL     1       2.493  -2.013   0.632  1.00  0.00    -0.493 OA
ATOM     26  C   UNL     1       2.970  -0.726   0.270  1.00  0.00     0.278 C 
ENDBRANCH  20  25
ENDBRANCH  16  17
ENDBRANCH  10  16
ENDBRANCH   8   9
ENDBRANCH   5   8
ENDBRANCH   3   4
ENDBRANCH   2   3
ENDBRANCH   1   2
BRANCH   1  27
ATOM     27  C   UNL     1       7.439  -4.855   6.204  1.00  0.00     0.002 C 
BRANCH  27  28
ATOM     28  C   UNL     1       8.700  -4.110   6.621  1.00  0.00     0.021 C 
BRANCH  28  29
ATOM     29  C   UNL     1       8.987  -4.162   8.108  1.00  0.00     0.116 C 
BRANCH  29  30
ATOM     30  N   UNL     1       9.399  -5.484   8.534  1.00  0.00    -0.352 N 
ATOM     31  C   UNL     1      10.496  -5.808   9.297  1.00  0.00     0.251 C 
ATOM     32  H   UNL     1       8.830  -6.234   8.246  1.00  0.00     0.163 HD
ATOM     33  O   UNL     1      10.849  -6.968   9.425  1.00  0.00    -0.269 OA
BRANCH  31  34
ATOM     34  C   UNL     1      11.252  -4.706   9.933  1.00  0.00     0.039 A 
ATOM     35  C   UNL     1      12.637  -4.662   9.780  1.00  0.00     0.014 A 
ATOM     36  C   UNL     1      10.580  -3.695  10.629  1.00  0.00     0.014 A 
ATOM     37  C   UNL     1      13.349  -3.586  10.310  1.00  0.00     0.010 A 
ATOM     38  C   UNL     1      11.279  -2.579  11.072  1.00  0.00     0.010 A 
ATOM     39  C   UNL     1      12.675  -2.528  10.946  1.00  0.00    -0.014 A 
BRANCH  39  40
ATOM     40  C   UNL     1      13.427  -1.394  11.540  1.00  0.00     0.031 A 
ATOM     41  C   UNL     1      13.372  -1.166  13.030  1.00  0.00     0.074 A 
ATOM     42  C   UNL     1      14.132  -0.564  10.747  1.00  0.00     0.049 A 
ATOM     43  N   UNL     1      13.946  -0.232  13.742  1.00  0.00    -0.248 NA
ATOM     44  C   UNL     1      12.541  -2.091  13.821  1.00  0.00     0.031 C 
ATOM     45  C   UNL     1      14.220  -0.656   9.287  1.00  0.00     0.029 A 
ATOM     46  N   UNL     1      14.913   0.522  11.055  1.00  0.00    -0.354 N 
ATOM     47  C   UNL     1      13.531  -0.445  15.052  1.00  0.00     0.074 A 
ATOM     48  C   UNL     1      12.614  -1.562  15.032  1.00  0.00     0.031 C 
ATOM     49  C   UNL     1      15.038   0.308   8.832  1.00  0.00     0.029 A 
ATOM     50  C   UNL     1      15.503   1.110   9.960  1.00  0.00     0.049 A 
ATOM     51  H   UNL     1      15.039   0.850  11.975  1.00  0.00     0.167 HD
ATOM     52  C   UNL     1      13.901   0.213  16.174  1.00  0.00     0.037 A 
ATOM     53  C   UNL     1      16.326   2.174   9.878  1.00  0.00     0.037 A 
ATOM     54  C   UNL     1      14.852   1.293  16.191  1.00  0.00     0.049 A 
ATOM     55  C   UNL     1      16.730   2.879  11.148  1.00  0.00     0.074 A 
ATOM     56  C   UNL     1      15.356   1.976  17.284  1.00  0.00     0.029 A 
ATOM     57  N   UNL     1      15.443   1.846  15.065  1.00  0.00    -0.354 N 
ATOM     58  N   UNL     1      16.391   2.610  12.387  1.00  0.00    -0.248 NA
ATOM     59  C   UNL     1      17.641   4.024  11.010  1.00  0.00     0.031 C 
ATOM     60  C   UNL     1      16.207   2.981  16.815  1.00  0.00     0.029 A 
ATOM     61  C   UNL     1      16.286   2.880  15.435  1.00  0.00     0.049 A 
ATOM     62  H   UNL     1      15.286   1.548  14.140  1.00  0.00     0.167 HD
ATOM     63  C   UNL     1      17.084   3.523  13.177  1.00  0.00     0.074 A 
ATOM     64  C   UNL     1      17.866   4.343  12.276  1.00  0.00     0.031 C 
ATOM     65  C   UNL     1      17.077   3.668  14.525  1.00  0.00     0.037 A 
BRANCH  52  66
ATOM     66  C   UNL     1      13.288  -0.209  17.482  1.00  0.00     0.058 A 
ATOM     67  C   UNL     1      13.612  -1.429  18.095  1.00  0.00     0.135 A 
ATOM     68  C   UNL     1      12.419   0.657  18.166  1.00  0.00     0.135 A 
ATOM     69  F   UNL     1      14.421  -2.305  17.477  1.00  0.00    -0.206 F 
ATOM     70  C   UNL     1      13.090  -1.780  19.336  1.00  0.00     0.059 A 
ATOM     71  C   UNL     1      11.909   0.339  19.421  1.00  0.00     0.059 A 
ATOM     72  F   UNL     1      12.070   1.833  17.622  1.00  0.00    -0.206 F 
ATOM     73  C   UNL     1      12.247  -0.885  19.995  1.00  0.00     0.060 A 
BRANCH  73  74
ATOM     74  S   UNL     1      11.619  -1.335  21.627  1.00  0.00     0.124 S 
ATOM     75  O   UNL     1      10.672  -2.394  21.294  1.00  0.00    -0.237 OA
ATOM     76  O   UNL     1      12.831  -1.762  22.318  1.00  0.00    -0.237 OA
ATOM     77  O   UNL     1      11.025  -0.095  22.118  1.00  0.00    -0.744 OA
ENDBRANCH  73  74
ENDBRANCH  52  66
BRANCH  53  78
ATOM     78  C   UNL     1      16.844   2.634   8.560  1.00  0.00     0.058 A 
ATOM     79  C   UNL     1      18.211   2.549   8.249  1.00  0.00     0.135 A 
ATOM     80  C   UNL     1      15.994   3.207   7.601  1.00  0.00     0.135 A 
ATOM     81  F   UNL     1      19.066   2.010   9.132  1.00  0.00    -0.206 F 
ATOM     82  C   UNL     1      18.723   3.056   7.059  1.00  0.00     0.059 A 
ATOM     83  C   UNL     1      16.478   3.691   6.390  1.00  0.00     0.059 A 
ATOM     84  F   UNL     1      14.676   3.293   7.836  1.00  0.00    -0.206 F 
ATOM     85  C   UNL     1      17.848   3.632   6.138  1.00  0.00     0.060 A 
BRANCH  85  86
ATOM     86  S   UNL     1      18.521   4.294   4.599  1.00  0.00     0.124 S 
ATOM     87  O   UNL     1      19.191   5.501   5.068  1.00  0.00    -0.237 OA
ATOM     88  O   UNL     1      19.392   3.211   4.154  1.00  0.00    -0.237 OA
ATOM     89  O   UNL     1      17.332   4.509   3.779  1.00  0.00    -0.744 OA
ENDBRANCH  85  86
ENDBRANCH  53  78
BRANCH  65  90
ATOM     90  C   UNL     1      17.995   4.704  15.116  1.00  0.00     0.058 A 
ATOM     91  C   UNL     1      17.765   6.079  14.963  1.00  0.00     0.135 A 
ATOM     92  C   UNL     1      19.103   4.305  15.882  1.00  0.00     0.135 A 
ATOM     93  F   UNL     1      16.721   6.515  14.239  1.00  0.00    -0.206 F 
ATOM     94  C   UNL     1      18.625   7.024  15.514  1.00  0.00     0.059 A 
ATOM     95  C   UNL     1      19.955   5.232  16.473  1.00  0.00     0.059 A 
ATOM     96  F   UNL     1      19.360   3.001  16.075  1.00  0.00    -0.206 F 
ATOM     97  C   UNL     1      19.718   6.590  16.267  1.00  0.00     0.060 A 
BRANCH  97  98
ATOM     98  S   UNL     1      20.819   7.825  16.987  1.00  0.00     0.124 S 
ATOM     99  O   UNL     1      21.540   8.297  15.809  1.00  0.00    -0.237 OA
ATOM    100  O   UNL     1      19.880   8.773  17.578  1.00  0.00    -0.237 OA
ATOM    101  O   UNL     1      21.612   7.058  17.943  1.00  0.00    -0.744 OA
ENDBRANCH  97  98
ENDBRANCH  65  90
ENDBRANCH  39  40
ENDBRANCH  31  34
ENDBRANCH  29  30
ENDBRANCH  28  29
ENDBRANCH  27  28
ENDBRANCH   1  27
TORSDOF 21
