REMARK SMILES COCC[C@]1(C(=O)NCCCCCCNC(=O)c2ccc(-c3c4nc(c(-c5c(F)cc(S(=O)(=O)[O-])cc5F)c5ccc([nH]5)c(-c5c(F)cc(S(=O)(=O)[O-])cc5F)c5nc(c(-c6c(F)cc(S(=O)(=O)[O-])cc6F)c6ccc3[nH]6)C=C5)C=C4)cc2)CCCN(C(=O)Cc2c(C)nc(C)[nH]c2=O)C1
REMARK SMILES IDX 11 1 10 2 9 3 8 4 6 5 7 6 5 8 84 9 100 10 85 11 87 12 86 13
REMARK SMILES IDX 4 14 3 15 2 16 1 17 88 18 89 19 90 20 91 21 92 22 98 23
REMARK SMILES IDX 93 24 94 25 97 26 99 27 95 28 96 30 12 31 13 32 14 33 15 34
REMARK SMILES IDX 16 35 17 37 18 38 19 39 83 40 20 41 82 42 21 43 22 44 23 45
REMARK SMILES IDX 76 46 24 47 81 48 75 49 77 50 25 51 80 52 74 53 73 54 26 56
REMARK SMILES IDX 60 57 39 58 59 59 40 60 43 61 58 62 78 63 41 64 42 65 57 67
REMARK SMILES IDX 79 68 44 69 27 70 28 71 37 72 29 73 30 74 36 75 38 76 31 77
REMARK SMILES IDX 32 78 33 79 34 80 35 81 61 82 62 83 71 84 63 85 64 86 70 87
REMARK SMILES IDX 72 88 65 89 66 90 67 91 68 92 69 93 45 94 46 95 55 96 47 97
REMARK SMILES IDX 48 98 54 99 56 100 49 101 50 102 51 103 52 104 53 105
REMARK H PARENT 8 7 97 29 15 36 77 55 43 66
REMARK Flexibility Score: inf
ROOT
ATOM      1  C   UNL     1       1.007   4.871   1.493  1.00  0.00     0.002 C 
ENDROOT
BRANCH   1   2
ATOM      2  C   UNL     1       1.061   4.734  -0.033  1.00  0.00     0.021 C 
BRANCH   2   3
ATOM      3  C   UNL     1       1.982   3.622  -0.543  1.00  0.00     0.116 C 
BRANCH   3   4
ATOM      4  N   UNL     1       1.514   2.325  -0.094  1.00  0.00    -0.356 N 
ATOM      5  C   UNL     1       0.703   1.423  -0.709  1.00  0.00     0.228 C 
ATOM      6  O   UNL     1      -0.071   0.831   0.047  1.00  0.00    -0.274 OA
ATOM      7  H   UNL     1       1.833   2.055   0.797  1.00  0.00     0.163 HD
BRANCH   5   8
ATOM      8  C   UNL     1       0.673   1.234  -2.240  1.00  0.00     0.069 C 
ATOM      9  C   UNL     1      -0.222   2.404  -2.782  1.00  0.00     0.021 C 
ATOM     10  C   UNL     1       2.094   1.231  -2.877  1.00  0.00     0.136 C 
ATOM     11  C   UNL     1       0.014   2.823  -4.234  1.00  0.00     0.023 C 
ATOM     12  N   UNL     1       2.038   1.547  -4.309  1.00  0.00    -0.341 N 
ATOM     13  C   UNL     1       1.496   2.867  -4.573  1.00  0.00     0.119 C 
BRANCH   8  14
ATOM     14  C   UNL     1      -0.035  -0.128  -2.583  1.00  0.00     0.047 C 
BRANCH  14  15
ATOM     15  C   UNL     1       0.664  -1.436  -2.149  1.00  0.00     0.161 C 
BRANCH  15  16
ATOM     16  O   UNL     1       0.417  -1.749  -0.782  1.00  0.00    -0.385 OA
ATOM     17  C   UNL     1       1.581  -1.727   0.032  1.00  0.00     0.194 C 
ENDBRANCH  15  16
ENDBRANCH  14  15
ENDBRANCH   8  14
BRANCH  12  18
ATOM     18  C   UNL     1       2.203   0.548  -5.264  1.00  0.00     0.227 C 
ATOM     19  O   UNL     1       2.471  -0.611  -4.930  1.00  0.00    -0.275 OA
BRANCH  18  20
ATOM     20  C   UNL     1       2.035   0.883  -6.758  1.00  0.00     0.143 C 
BRANCH  20  21
ATOM     21  C   UNL     1       0.586   1.007  -7.159  1.00  0.00     0.048 A 
ATOM     22  C   UNL     1      -0.357   0.042  -7.142  1.00  0.00     0.049 A 
ATOM     23  C   UNL     1       0.131   2.350  -7.605  1.00  0.00     0.254 A 
ATOM     24  C   UNL     1      -0.055  -1.408  -6.866  1.00  0.00     0.067 C 
ATOM     25  N   UNL     1      -1.704   0.282  -7.324  1.00  0.00    -0.240 NA
ATOM     26  N   UNL     1      -1.214   2.532  -7.677  1.00  0.00    -0.311 N 
ATOM     27  O   UNL     1       0.907   3.261  -7.868  1.00  0.00    -0.269 OA
ATOM     28  C   UNL     1      -2.083   1.499  -7.531  1.00  0.00     0.105 A 
ATOM     29  H   UNL     1      -1.567   3.436  -7.838  1.00  0.00     0.171 HD
ATOM     30  C   UNL     1      -3.542   1.841  -7.623  1.00  0.00     0.087 C 
ENDBRANCH  20  21
ENDBRANCH  18  20
ENDBRANCH  12  18
ENDBRANCH   5   8
ENDBRANCH   3   4
ENDBRANCH   2   3
ENDBRANCH   1   2
BRANCH   1  31
ATOM     31  C   UNL     1       2.359   5.084   2.176  1.00  0.00     0.002 C 
BRANCH  31  32
ATOM     32  C   UNL     1       3.207   6.215   1.594  1.00  0.00     0.021 C 
BRANCH  32  33
ATOM     33  C   UNL     1       2.515   7.571   1.553  1.00  0.00     0.116 C 
BRANCH  33  34
ATOM     34  N   UNL     1       2.269   8.105   2.882  1.00  0.00    -0.352 N 
ATOM     35  C   UNL     1       2.550   9.367   3.351  1.00  0.00     0.251 C 
ATOM     36  H   UNL     1       1.850   7.488   3.525  1.00  0.00     0.163 HD
ATOM     37  O   UNL     1       2.441   9.635   4.539  1.00  0.00    -0.269 OA
BRANCH  35  38
ATOM     38  C   UNL     1       3.012  10.388   2.387  1.00  0.00     0.039 A 
ATOM     39  C   UNL     1       4.208  11.067   2.631  1.00  0.00     0.014 A 
ATOM     40  C   UNL     1       2.285  10.623   1.217  1.00  0.00     0.014 A 
ATOM     41  C   UNL     1       4.711  11.943   1.666  1.00  0.00     0.010 A 
ATOM     42  C   UNL     1       2.817  11.448   0.234  1.00  0.00     0.010 A 
ATOM     43  C   UNL     1       4.035  12.115   0.447  1.00  0.00    -0.014 A 
BRANCH  43  44
ATOM     44  C   UNL     1       4.553  13.003  -0.624  1.00  0.00     0.031 A 
ATOM     45  C   UNL     1       3.752  14.210  -1.026  1.00  0.00     0.074 A 
ATOM     46  C   UNL     1       5.669  12.670  -1.301  1.00  0.00     0.049 A 
ATOM     47  N   UNL     1       3.905  14.999  -2.056  1.00  0.00    -0.248 NA
ATOM     48  C   UNL     1       2.604  14.552  -0.170  1.00  0.00     0.031 C 
ATOM     49  C   UNL     1       6.519  11.512  -1.018  1.00  0.00     0.029 A 
ATOM     50  N   UNL     1       6.265  13.262  -2.386  1.00  0.00    -0.354 N 
ATOM     51  C   UNL     1       2.856  15.908  -1.992  1.00  0.00     0.074 A 
ATOM     52  C   UNL     1       2.054  15.551  -0.843  1.00  0.00     0.031 C 
ATOM     53  C   UNL     1       7.527  11.479  -1.906  1.00  0.00     0.029 A 
ATOM     54  C   UNL     1       7.370  12.584  -2.848  1.00  0.00     0.049 A 
ATOM     55  H   UNL     1       5.934  14.093  -2.796  1.00  0.00     0.167 HD
ATOM     56  C   UNL     1       2.594  16.954  -2.812  1.00  0.00     0.037 A 
ATOM     57  C   UNL     1       8.151  12.814  -3.922  1.00  0.00     0.037 A 
ATOM     58  C   UNL     1       3.421  17.325  -3.929  1.00  0.00     0.049 A 
ATOM     59  C   UNL     1       7.845  13.985  -4.817  1.00  0.00     0.074 A 
ATOM     60  C   UNL     1       3.270  18.396  -4.792  1.00  0.00     0.029 A 
ATOM     61  N   UNL     1       4.558  16.640  -4.332  1.00  0.00    -0.354 N 
ATOM     62  N   UNL     1       6.865  14.853  -4.727  1.00  0.00    -0.248 NA
ATOM     63  C   UNL     1       8.744  14.209  -5.958  1.00  0.00     0.031 C 
ATOM     64  C   UNL     1       4.300  18.341  -5.736  1.00  0.00     0.029 A 
ATOM     65  C   UNL     1       5.115  17.261  -5.436  1.00  0.00     0.049 A 
ATOM     66  H   UNL     1       4.916  15.833  -3.897  1.00  0.00     0.167 HD
ATOM     67  C   UNL     1       7.051  15.746  -5.777  1.00  0.00     0.074 A 
ATOM     68  C   UNL     1       8.233  15.311  -6.492  1.00  0.00     0.031 C 
ATOM     69  C   UNL     1       6.311  16.830  -6.115  1.00  0.00     0.037 A 
BRANCH  56  70
ATOM     70  C   UNL     1       1.364  17.769  -2.528  1.00  0.00     0.058 A 
ATOM     71  C   UNL     1       1.286  18.621  -1.415  1.00  0.00     0.135 A 
ATOM     72  C   UNL     1       0.258  17.714  -3.392  1.00  0.00     0.135 A 
ATOM     73  F   UNL     1       2.308  18.698  -0.549  1.00  0.00    -0.206 F 
ATOM     74  C   UNL     1       0.142  19.366  -1.150  1.00  0.00     0.059 A 
ATOM     75  C   UNL     1      -0.886  18.472  -3.161  1.00  0.00     0.059 A 
ATOM     76  F   UNL     1       0.281  16.915  -4.470  1.00  0.00    -0.206 F 
ATOM     77  C   UNL     1      -0.941  19.282  -2.027  1.00  0.00     0.060 A 
BRANCH  77  78
ATOM     78  S   UNL     1      -2.422  20.249  -1.667  1.00  0.00     0.124 S 
ATOM     79  O   UNL     1      -3.011  19.480  -0.576  1.00  0.00    -0.237 OA
ATOM     80  O   UNL     1      -1.867  21.547  -1.299  1.00  0.00    -0.237 OA
ATOM     81  O   UNL     1      -3.160  20.220  -2.926  1.00  0.00    -0.744 OA
ENDBRANCH  77  78
ENDBRANCH  56  70
BRANCH  57  82
ATOM     82  C   UNL     1       9.307  11.922  -4.204  1.00  0.00     0.058 A 
ATOM     83  C   UNL     1      10.622  12.367  -4.007  1.00  0.00     0.135 A 
ATOM     84  C   UNL     1       9.123  10.606  -4.657  1.00  0.00     0.135 A 
ATOM     85  F   UNL     1      10.849  13.619  -3.582  1.00  0.00    -0.206 F 
ATOM     86  C   UNL     1      11.716  11.546  -4.261  1.00  0.00     0.059 A 
ATOM     87  C   UNL     1      10.200   9.759  -4.897  1.00  0.00     0.059 A 
ATOM     88  F   UNL     1       7.883  10.127  -4.845  1.00  0.00    -0.206 F 
ATOM     89  C   UNL     1      11.494  10.241  -4.705  1.00  0.00     0.060 A 
BRANCH  89  90
ATOM     90  S   UNL     1      12.918   9.166  -4.982  1.00  0.00     0.124 S 
ATOM     91  O   UNL     1      13.446   9.696  -6.234  1.00  0.00    -0.237 OA
ATOM     92  O   UNL     1      13.726   9.412  -3.792  1.00  0.00    -0.237 OA
ATOM     93  O   UNL     1      12.321   7.836  -5.060  1.00  0.00    -0.744 OA
ENDBRANCH  89  90
ENDBRANCH  57  82
BRANCH  69  94
ATOM     94  C   UNL     1       6.776  17.665  -7.273  1.00  0.00     0.058 A 
ATOM     95  C   UNL     1       6.567  17.265  -8.600  1.00  0.00     0.135 A 
ATOM     96  C   UNL     1       7.334  18.934  -7.045  1.00  0.00     0.135 A 
ATOM     97  F   UNL     1       6.044  16.058  -8.868  1.00  0.00    -0.206 F 
ATOM     98  C   UNL     1       6.891  18.099  -9.666  1.00  0.00     0.059 A 
ATOM     99  C   UNL     1       7.646  19.791  -8.094  1.00  0.00     0.059 A 
ATOM    100  F   UNL     1       7.546  19.363  -5.791  1.00  0.00    -0.206 F 
ATOM    101  C   UNL     1       7.420  19.364  -9.402  1.00  0.00     0.060 A 
BRANCH 101 102
ATOM    102  S   UNL     1       7.751  20.471 -10.790  1.00  0.00     0.124 S 
ATOM    103  O   UNL     1       8.966  19.886 -11.349  1.00  0.00    -0.237 OA
ATOM    104  O   UNL     1       6.546  20.325 -11.601  1.00  0.00    -0.237 OA
ATOM    105  O   UNL     1       7.916  21.774 -10.153  1.00  0.00    -0.744 OA
ENDBRANCH 101 102
ENDBRANCH  69  94
ENDBRANCH  43  44
ENDBRANCH  35  38
ENDBRANCH  33  34
ENDBRANCH  32  33
ENDBRANCH  31  32
ENDBRANCH   1  31
TORSDOF 22
