REMARK SMILES COc1cc(NS(=O)(=O)c2cc(C(=O)NCCCCCCNC(=O)c3ccc(-c4c5nc(c(-c6c(F)cc(S(=O)(=O)[O-])cc6F)c6ccc([nH]6)c(-c6c(F)cc(S(=O)(=O)[O-])cc6F)c6nc(c(-c7c(F)cc(S(=O)(=O)[O-])cc7F)c7ccc4[nH]7)C=C6)C=C5)cc3)cc(C)c2C)ccc1N1CCCC1=O
REMARK SMILES IDX 18 1 17 2 16 3 15 4 13 5 14 6 12 8 10 9 11 10 94 11 92 12
REMARK SMILES IDX 95 13 91 14 93 15 7 16 8 17 9 18 6 19 5 21 3 22 4 23 98 24
REMARK SMILES IDX 97 25 96 26 2 27 1 28 99 29 100 30 103 31 101 32 102 33
REMARK SMILES IDX 104 34 19 35 20 36 21 37 22 38 23 39 24 41 25 42 26 43 90 44
REMARK SMILES IDX 27 45 89 46 28 47 29 48 30 49 83 50 31 51 88 52 82 53 84 54
REMARK SMILES IDX 32 55 87 56 81 57 80 58 33 60 67 61 46 62 66 63 47 64 50 65
REMARK SMILES IDX 65 66 85 67 48 68 49 69 64 71 86 72 51 73 34 74 35 75 44 76
REMARK SMILES IDX 36 77 37 78 43 79 45 80 38 81 39 82 40 83 41 84 42 85 68 86
REMARK SMILES IDX 69 87 78 88 70 89 71 90 77 91 79 92 72 93 73 94 74 95 75 96
REMARK SMILES IDX 76 97 52 98 53 99 62 100 54 101 55 102 61 103 63 104 56 105
REMARK SMILES IDX 57 106 58 107 59 108 60 109
REMARK H PARENT 15 7 6 20 22 40 84 59 50 70
REMARK Flexibility Score: inf
ROOT
ATOM      1  C   UNL     1      -0.887   3.768   3.557  1.00  0.00     0.002 C 
ENDROOT
BRANCH   1   2
ATOM      2  C   UNL     1      -1.917   2.649   3.693  1.00  0.00     0.021 C 
BRANCH   2   3
ATOM      3  C   UNL     1      -2.043   1.743   2.481  1.00  0.00     0.116 C 
BRANCH   3   4
ATOM      4  N   UNL     1      -0.853   0.943   2.276  1.00  0.00    -0.352 N 
ATOM      5  C   UNL     1      -0.673  -0.412   2.181  1.00  0.00     0.251 C 
ATOM      6  O   UNL     1       0.475  -0.840   2.265  1.00  0.00    -0.269 OA
ATOM      7  H   UNL     1      -0.024   1.467   2.189  1.00  0.00     0.163 HD
BRANCH   5   8
ATOM      8  C   UNL     1      -1.788  -1.373   1.978  1.00  0.00     0.041 A 
ATOM      9  C   UNL     1      -2.521  -3.675   1.887  1.00  0.00     0.091 A 
ATOM     10  C   UNL     1      -1.538  -2.732   2.192  1.00  0.00     0.036 A 
ATOM     11  C   UNL     1      -3.864  -3.256   1.716  1.00  0.00    -0.028 A 
ATOM     12  C   UNL     1      -4.114  -1.887   1.509  1.00  0.00    -0.046 A 
ATOM     13  C   UNL     1      -5.031  -4.206   1.798  1.00  0.00     0.046 C 
ATOM     14  C   UNL     1      -3.036  -0.998   1.490  1.00  0.00     0.017 A 
ATOM     15  C   UNL     1      -5.486  -1.279   1.369  1.00  0.00     0.044 C 
BRANCH   9  16
ATOM     16  S   UNL     1      -2.064  -5.372   1.599  1.00  0.00     0.262 S 
ATOM     17  O   UNL     1      -2.981  -5.916   0.617  1.00  0.00    -0.201 OA
ATOM     18  O   UNL     1      -1.954  -5.986   2.908  1.00  0.00    -0.201 OA
BRANCH  16  19
ATOM     19  N   UNL     1      -0.538  -5.581   0.903  1.00  0.00    -0.279 N 
ATOM     20  H   UNL     1      -0.250  -6.512   0.764  1.00  0.00     0.180 HD
BRANCH  19  21
ATOM     21  C   UNL     1       0.385  -4.572   0.492  1.00  0.00     0.053 A 
ATOM     22  C   UNL     1       1.021  -2.437  -0.510  1.00  0.00     0.144 A 
ATOM     23  C   UNL     1       0.058  -3.441  -0.255  1.00  0.00     0.075 A 
ATOM     24  C   UNL     1       2.351  -2.640  -0.097  1.00  0.00     0.086 A 
ATOM     25  C   UNL     1       2.702  -3.859   0.491  1.00  0.00     0.032 A 
ATOM     26  C   UNL     1       1.732  -4.822   0.765  1.00  0.00     0.029 A 
BRANCH  22  27
ATOM     27  O   UNL     1       0.498  -1.356  -1.170  1.00  0.00    -0.494 OA
ATOM     28  C   UNL     1       0.963  -0.050  -0.853  1.00  0.00     0.278 C 
ENDBRANCH  22  27
BRANCH  24  29
ATOM     29  N   UNL     1       3.378  -1.693  -0.222  1.00  0.00    -0.309 N 
ATOM     30  C   UNL     1       4.035  -1.391  -1.462  1.00  0.00     0.126 C 
ATOM     31  C   UNL     1       3.909  -0.987   0.860  1.00  0.00     0.227 C 
ATOM     32  C   UNL     1       5.249  -0.581  -1.028  1.00  0.00     0.032 C 
ATOM     33  C   UNL     1       4.817   0.063   0.280  1.00  0.00     0.102 C 
ATOM     34  O   UNL     1       3.664  -1.107   2.051  1.00  0.00    -0.275 OA
ENDBRANCH  24  29
ENDBRANCH  19  21
ENDBRANCH  16  19
ENDBRANCH   9  16
ENDBRANCH   5   8
ENDBRANCH   3   4
ENDBRANCH   2   3
ENDBRANCH   1   2
BRANCH   1  35
ATOM     35  C   UNL     1      -1.083   4.702   2.360  1.00  0.00     0.002 C 
BRANCH  35  36
ATOM     36  C   UNL     1      -2.489   5.283   2.197  1.00  0.00     0.021 C 
BRANCH  36  37
ATOM     37  C   UNL     1      -3.064   5.947   3.442  1.00  0.00     0.116 C 
BRANCH  37  38
ATOM     38  N   UNL     1      -2.248   7.053   3.906  1.00  0.00    -0.352 N 
ATOM     39  C   UNL     1      -2.631   8.332   4.224  1.00  0.00     0.251 C 
ATOM     40  H   UNL     1      -1.287   6.860   4.007  1.00  0.00     0.163 HD
ATOM     41  O   UNL     1      -1.783   9.194   4.434  1.00  0.00    -0.269 OA
BRANCH  39  42
ATOM     42  C   UNL     1      -4.070   8.667   4.283  1.00  0.00     0.039 A 
ATOM     43  C   UNL     1      -4.516   9.832   3.657  1.00  0.00     0.014 A 
ATOM     44  C   UNL     1      -4.975   7.829   4.941  1.00  0.00     0.014 A 
ATOM     45  C   UNL     1      -5.880  10.129   3.644  1.00  0.00     0.010 A 
ATOM     46  C   UNL     1      -6.341   8.085   4.859  1.00  0.00     0.010 A 
ATOM     47  C   UNL     1      -6.807   9.242   4.216  1.00  0.00    -0.014 A 
BRANCH  47  48
ATOM     48  C   UNL     1      -8.267   9.511   4.151  1.00  0.00     0.031 A 
ATOM     49  C   UNL     1      -9.053   9.725   5.416  1.00  0.00     0.074 A 
ATOM     50  C   UNL     1      -8.891   9.510   2.956  1.00  0.00     0.049 A 
ATOM     51  N   UNL     1     -10.337   9.924   5.566  1.00  0.00    -0.248 NA
ATOM     52  C   UNL     1      -8.302   9.684   6.681  1.00  0.00     0.031 C 
ATOM     53  C   UNL     1      -8.244   9.270   1.664  1.00  0.00     0.029 A 
ATOM     54  N   UNL     1     -10.210   9.710   2.632  1.00  0.00    -0.354 N 
ATOM     55  C   UNL     1     -10.549  10.020   6.936  1.00  0.00     0.074 A 
ATOM     56  C   UNL     1      -9.272   9.800   7.577  1.00  0.00     0.031 C 
ATOM     57  C   UNL     1      -9.161   9.364   0.688  1.00  0.00     0.029 A 
ATOM     58  C   UNL     1     -10.467   9.627   1.284  1.00  0.00     0.049 A 
ATOM     59  H   UNL     1     -10.906   9.897   3.303  1.00  0.00     0.167 HD
ATOM     60  C   UNL     1     -11.700  10.292   7.598  1.00  0.00     0.037 A 
ATOM     61  C   UNL     1     -11.625   9.740   0.604  1.00  0.00     0.037 A 
ATOM     62  C   UNL     1     -12.963  10.528   6.949  1.00  0.00     0.049 A 
ATOM     63  C   UNL     1     -12.893  10.027   1.363  1.00  0.00     0.074 A 
ATOM     64  C   UNL     1     -14.175  10.867   7.526  1.00  0.00     0.029 A 
ATOM     65  N   UNL     1     -13.182  10.442   5.582  1.00  0.00    -0.354 N 
ATOM     66  N   UNL     1     -13.063  10.183   2.655  1.00  0.00    -0.248 NA
ATOM     67  C   UNL     1     -14.124  10.159   0.574  1.00  0.00     0.031 C 
ATOM     68  C   UNL     1     -15.138  10.928   6.513  1.00  0.00     0.029 A 
ATOM     69  C   UNL     1     -14.515  10.693   5.298  1.00  0.00     0.049 A 
ATOM     70  H   UNL     1     -12.492  10.234   4.911  1.00  0.00     0.167 HD
ATOM     71  C   UNL     1     -14.414  10.462   2.829  1.00  0.00     0.074 A 
ATOM     72  C   UNL     1     -15.012  10.465   1.510  1.00  0.00     0.031 C 
ATOM     73  C   UNL     1     -15.097  10.698   3.978  1.00  0.00     0.037 A 
BRANCH  60  74
ATOM     74  C   UNL     1     -11.646  10.345   9.102  1.00  0.00     0.058 A 
ATOM     75  C   UNL     1     -10.965  11.368   9.783  1.00  0.00     0.135 A 
ATOM     76  C   UNL     1     -12.313   9.381   9.874  1.00  0.00     0.135 A 
ATOM     77  F   UNL     1     -10.296  12.309   9.098  1.00  0.00    -0.206 F 
ATOM     78  C   UNL     1     -10.920  11.413  11.173  1.00  0.00     0.059 A 
ATOM     79  C   UNL     1     -12.310   9.425  11.266  1.00  0.00     0.059 A 
ATOM     80  F   UNL     1     -12.981   8.380   9.278  1.00  0.00    -0.206 F 
ATOM     81  C   UNL     1     -11.596  10.437  11.906  1.00  0.00     0.060 A 
BRANCH  81  82
ATOM     82  S   UNL     1     -11.530  10.514  13.708  1.00  0.00     0.124 S 
ATOM     83  O   UNL     1     -10.146  10.129  13.965  1.00  0.00    -0.237 OA
ATOM     84  O   UNL     1     -11.859  11.911  13.972  1.00  0.00    -0.237 OA
ATOM     85  O   UNL     1     -12.538   9.545  14.128  1.00  0.00    -0.744 OA
ENDBRANCH  81  82
ENDBRANCH  60  74
BRANCH  61  86
ATOM     86  C   UNL     1     -11.633   9.602  -0.877  1.00  0.00     0.058 A 
ATOM     87  C   UNL     1     -11.890  10.705  -1.706  1.00  0.00     0.135 A 
ATOM     88  C   UNL     1     -11.370   8.370  -1.496  1.00  0.00     0.135 A 
ATOM     89  F   UNL     1     -12.154  11.904  -1.163  1.00  0.00    -0.206 F 
ATOM     90  C   UNL     1     -11.901  10.590  -3.092  1.00  0.00     0.059 A 
ATOM     91  C   UNL     1     -11.347   8.236  -2.881  1.00  0.00     0.059 A 
ATOM     92  F   UNL     1     -11.102   7.286  -0.751  1.00  0.00    -0.206 F 
ATOM     93  C   UNL     1     -11.623   9.351  -3.671  1.00  0.00     0.060 A 
BRANCH  93  94
ATOM     94  S   UNL     1     -11.588   9.225  -5.472  1.00  0.00     0.124 S 
ATOM     95  O   UNL     1     -13.003   9.350  -5.803  1.00  0.00    -0.237 OA
ATOM     96  O   UNL     1     -10.742  10.355  -5.840  1.00  0.00    -0.237 OA
ATOM     97  O   UNL     1     -10.999   7.909  -5.704  1.00  0.00    -0.744 OA
ENDBRANCH  93  94
ENDBRANCH  61  86
BRANCH  73  98
ATOM     98  C   UNL     1     -16.563  11.017   3.862  1.00  0.00     0.058 A 
ATOM     99  C   UNL     1     -17.509  10.044   3.506  1.00  0.00     0.135 A 
ATOM    100  C   UNL     1     -17.033  12.306   4.165  1.00  0.00     0.135 A 
ATOM    101  F   UNL     1     -17.114   8.797   3.199  1.00  0.00    -0.206 F 
ATOM    102  C   UNL     1     -18.866  10.342   3.430  1.00  0.00     0.059 A 
ATOM    103  C   UNL     1     -18.388  12.618   4.128  1.00  0.00     0.059 A 
ATOM    104  F   UNL     1     -16.172  13.273   4.522  1.00  0.00    -0.206 F 
ATOM    105  C   UNL     1     -19.296  11.632   3.747  1.00  0.00     0.060 A 
BRANCH 105 106
ATOM    106  S   UNL     1     -21.063  11.995   3.679  1.00  0.00     0.124 S 
ATOM    107  O   UNL     1     -21.306  12.005   2.241  1.00  0.00    -0.237 OA
ATOM    108  O   UNL     1     -21.640  10.873   4.413  1.00  0.00    -0.237 OA
ATOM    109  O   UNL     1     -21.170  13.292   4.342  1.00  0.00    -0.744 OA
ENDBRANCH 105 106
ENDBRANCH  73  98
ENDBRANCH  47  48
ENDBRANCH  39  42
ENDBRANCH  37  38
ENDBRANCH  36  37
ENDBRANCH  35  36
ENDBRANCH   1  35
TORSDOF 21
