REMARK SMILES COc1ccc(N2C(=O)[NH+]=C(NCCCCCCNC(=O)c3ccc(-c4c5nc(c(-c6c(F)cc(S(=O)(=O)[O-])cc6F)c6ccc([nH]6)c(-c6c(F)cc(S(=O)(=O)[O-])cc6F)c6nc(c(-c7c(F)cc(S(=O)(=O)[O-])cc7F)c7ccc4[nH]7)C=C6)C=C5)cc3)/C(=C\c3cc(Cl)c(OCC(=O)[O-])c(Cl)c3)C2=O)cc1
REMARK SMILES IDX 15 1 14 2 13 3 12 4 7 5 8 6 103 7 9 8 10 9 88 10 104 11
REMARK SMILES IDX 11 12 89 14 6 16 3 17 4 18 106 19 5 20 105 21 2 22 1 23
REMARK SMILES IDX 90 24 91 25 102 26 92 27 100 28 93 29 94 30 101 31 95 32
REMARK SMILES IDX 96 33 97 34 98 35 99 36 16 37 17 38 18 39 19 40 20 41 21 43
REMARK SMILES IDX 22 44 23 45 87 46 24 47 86 48 25 49 26 50 27 51 80 52 28 53
REMARK SMILES IDX 85 54 79 55 81 56 29 57 84 58 78 59 77 60 30 62 64 63 43 64
REMARK SMILES IDX 63 65 44 66 47 67 62 68 82 69 45 70 46 71 61 73 83 74 48 75
REMARK SMILES IDX 31 76 32 77 41 78 33 79 34 80 40 81 42 82 35 83 36 84 37 85
REMARK SMILES IDX 38 86 39 87 65 88 66 89 75 90 67 91 68 92 74 93 76 94 69 95
REMARK SMILES IDX 70 96 71 97 72 98 73 99 49 100 50 101 59 102 51 103 52 104
REMARK SMILES IDX 58 105 60 106 53 107 54 108 55 109 56 110 57 111
REMARK H PARENT 10 13 12 15 19 42 81 61 47 72
REMARK Flexibility Score: inf
ROOT
ATOM      1  C   UNL     1       3.179 -10.370   7.706  1.00  0.00     0.003 C 
ENDROOT
BRANCH   1   2
ATOM      2  C   UNL     1       2.202 -10.035   6.580  1.00  0.00     0.037 C 
BRANCH   2   3
ATOM      3  C   UNL     1       1.351  -8.795   6.847  1.00  0.00     0.194 C 
BRANCH   3   4
ATOM      4  N   UNL     1       2.205  -7.631   7.048  1.00  0.00    -0.305 N 
ATOM      5  N   UNL     1       1.931  -4.318   4.579  1.00  0.00    -0.155 N 
ATOM      6  C   UNL     1       1.168  -5.477   4.415  1.00  0.00     0.448 C 
ATOM      7  C   UNL     1       3.011  -4.236   5.445  1.00  0.00     0.328 C 
ATOM      8  O   UNL     1       0.378  -5.612   3.484  1.00  0.00    -0.212 OA
ATOM      9  N   UNL     1       1.320  -6.505   5.292  1.00  0.00    -0.209 N 
ATOM     10  C   UNL     1       3.210  -5.424   6.339  1.00  0.00     0.129 C 
ATOM     11  O   UNL     1       3.772  -3.269   5.526  1.00  0.00    -0.249 OA
ATOM     12  C   UNL     1       2.230  -6.540   6.211  1.00  0.00     0.236 C 
ATOM     13  H   UNL     1       0.700  -7.268   5.223  1.00  0.00     0.270 HD
ATOM     14  C   UNL     1       4.275  -5.365   7.169  1.00  0.00     0.030 C 
ATOM     15  H   UNL     1       2.800  -7.626   7.831  1.00  0.00     0.256 HD
BRANCH   5  16
ATOM     16  C   UNL     1       1.610  -3.204   3.739  1.00  0.00     0.111 A 
ATOM     17  C   UNL     1       0.904  -1.080   2.036  1.00  0.00     0.119 A 
ATOM     18  C   UNL     1      -0.058  -1.677   2.848  1.00  0.00     0.050 A 
ATOM     19  C   UNL     1       2.226  -1.524   2.093  1.00  0.00     0.050 A 
ATOM     20  C   UNL     1       0.286  -2.746   3.676  1.00  0.00     0.047 A 
ATOM     21  C   UNL     1       2.581  -2.571   2.954  1.00  0.00     0.047 A 
BRANCH  17  22
ATOM     22  O   UNL     1       0.460  -0.037   1.272  1.00  0.00    -0.497 OA
ATOM     23  C   UNL     1       1.069   0.074  -0.009  1.00  0.00     0.278 C 
ENDBRANCH  17  22
ENDBRANCH   5  16
BRANCH  14  24
ATOM     24  C   UNL     1       4.851  -6.374   8.067  1.00  0.00    -0.021 A 
ATOM     25  C   UNL     1       4.780  -6.226   9.450  1.00  0.00     0.032 A 
ATOM     26  C   UNL     1       5.600  -7.430   7.546  1.00  0.00     0.032 A 
ATOM     27  C   UNL     1       5.446  -7.132  10.289  1.00  0.00     0.085 A 
ATOM     28  C   UNL     1       6.283  -8.334   8.386  1.00  0.00     0.085 A 
ATOM     29  Cl  UNL     1       5.323  -6.854  11.998  1.00  0.00    -0.080 Cl
ATOM     30  C   UNL     1       6.205  -8.209   9.780  1.00  0.00     0.157 A 
ATOM     31  Cl  UNL     1       7.249  -9.498   7.555  1.00  0.00    -0.080 Cl
BRANCH  30  32
ATOM     32  O   UNL     1       6.869  -8.933  10.732  1.00  0.00    -0.485 OA
BRANCH  32  33
ATOM     33  C   UNL     1       7.140 -10.311  10.585  1.00  0.00     0.282 C 
BRANCH  33  34
ATOM     34  C   UNL     1       5.980 -11.270  10.404  1.00  0.00     0.079 C 
ATOM     35  O   UNL     1       5.721 -11.886   9.381  1.00  0.00    -0.546 OA
ATOM     36  O   UNL     1       5.239 -11.421  11.522  1.00  0.00    -0.546 OA
ENDBRANCH  33  34
ENDBRANCH  32  33
ENDBRANCH  30  32
ENDBRANCH  14  24
ENDBRANCH   3   4
ENDBRANCH   2   3
ENDBRANCH   1   2
BRANCH   1  37
ATOM     37  C   UNL     1       2.535 -10.583   9.075  1.00  0.00     0.002 C 
BRANCH  37  38
ATOM     38  C   UNL     1       1.630 -11.809   9.169  1.00  0.00     0.021 C 
BRANCH  38  39
ATOM     39  C   UNL     1       2.280 -13.120   8.736  1.00  0.00     0.116 C 
BRANCH  39  40
ATOM     40  N   UNL     1       3.476 -13.416   9.510  1.00  0.00    -0.352 N 
ATOM     41  C   UNL     1       3.691 -14.438  10.402  1.00  0.00     0.251 C 
ATOM     42  H   UNL     1       4.233 -12.801   9.376  1.00  0.00     0.163 HD
ATOM     43  O   UNL     1       4.533 -14.305  11.285  1.00  0.00    -0.269 OA
BRANCH  41  44
ATOM     44  C   UNL     1       2.884 -15.670  10.253  1.00  0.00     0.039 A 
ATOM     45  C   UNL     1       2.381 -16.342  11.367  1.00  0.00     0.014 A 
ATOM     46  C   UNL     1       2.594 -16.125   8.962  1.00  0.00     0.014 A 
ATOM     47  C   UNL     1       1.501 -17.412  11.177  1.00  0.00     0.010 A 
ATOM     48  C   UNL     1       1.644 -17.115   8.777  1.00  0.00     0.010 A 
ATOM     49  C   UNL     1       1.087 -17.770   9.882  1.00  0.00    -0.014 A 
BRANCH  49  50
ATOM     50  C   UNL     1       0.063 -18.814   9.635  1.00  0.00     0.031 A 
ATOM     51  C   UNL     1       0.422 -20.028   8.820  1.00  0.00     0.074 A 
ATOM     52  C   UNL     1      -1.204 -18.610  10.046  1.00  0.00     0.049 A 
ATOM     53  N   UNL     1      -0.349 -20.987   8.382  1.00  0.00    -0.248 NA
ATOM     54  C   UNL     1       1.832 -20.159   8.409  1.00  0.00     0.031 C 
ATOM     55  C   UNL     1      -1.676 -17.437  10.787  1.00  0.00     0.029 A 
ATOM     56  N   UNL     1      -2.333 -19.372   9.885  1.00  0.00    -0.354 N 
ATOM     57  C   UNL     1       0.475 -21.828   7.644  1.00  0.00     0.074 A 
ATOM     58  C   UNL     1       1.790 -21.228   7.629  1.00  0.00     0.031 C 
ATOM     59  C   UNL     1      -2.988 -17.573  11.041  1.00  0.00     0.029 A 
ATOM     60  C   UNL     1      -3.461 -18.815  10.442  1.00  0.00     0.049 A 
ATOM     61  H   UNL     1      -2.336 -20.237   9.414  1.00  0.00     0.167 HD
ATOM     62  C   UNL     1       0.170 -23.010   7.059  1.00  0.00     0.037 A 
ATOM     63  C   UNL     1      -4.734 -19.256  10.457  1.00  0.00     0.037 A 
ATOM     64  C   UNL     1      -1.141 -23.601   7.098  1.00  0.00     0.049 A 
ATOM     65  C   UNL     1      -5.051 -20.566   9.785  1.00  0.00     0.074 A 
ATOM     66  C   UNL     1      -1.556 -24.812   6.575  1.00  0.00     0.029 A 
ATOM     67  N   UNL     1      -2.251 -23.022   7.699  1.00  0.00    -0.354 N 
ATOM     68  N   UNL     1      -4.246 -21.379   9.143  1.00  0.00    -0.248 NA
ATOM     69  C   UNL     1      -6.446 -21.023   9.845  1.00  0.00     0.031 C 
ATOM     70  C   UNL     1      -2.927 -24.945   6.819  1.00  0.00     0.029 A 
ATOM     71  C   UNL     1      -3.354 -23.844   7.546  1.00  0.00     0.049 A 
ATOM     72  H   UNL     1      -2.253 -22.154   8.164  1.00  0.00     0.167 HD
ATOM     73  C   UNL     1      -5.027 -22.462   8.757  1.00  0.00     0.074 A 
ATOM     74  C   UNL     1      -6.366 -22.203   9.246  1.00  0.00     0.031 C 
ATOM     75  C   UNL     1      -4.672 -23.572   8.063  1.00  0.00     0.037 A 
BRANCH  62  76
ATOM     76  C   UNL     1       1.274 -23.748   6.349  1.00  0.00     0.058 A 
ATOM     77  C   UNL     1       2.349 -24.315   7.054  1.00  0.00     0.135 A 
ATOM     78  C   UNL     1       1.241 -23.928   4.957  1.00  0.00     0.135 A 
ATOM     79  F   UNL     1       2.444 -24.159   8.384  1.00  0.00    -0.206 F 
ATOM     80  C   UNL     1       3.363 -25.009   6.403  1.00  0.00     0.059 A 
ATOM     81  C   UNL     1       2.228 -24.647   4.288  1.00  0.00     0.059 A 
ATOM     82  F   UNL     1       0.240 -23.405   4.231  1.00  0.00    -0.206 F 
ATOM     83  C   UNL     1       3.291 -25.174   5.019  1.00  0.00     0.060 A 
BRANCH  83  84
ATOM     84  S   UNL     1       4.605 -26.099   4.197  1.00  0.00     0.124 S 
ATOM     85  O   UNL     1       5.728 -25.172   4.309  1.00  0.00    -0.237 OA
ATOM     86  O   UNL     1       4.695 -27.304   5.014  1.00  0.00    -0.237 OA
ATOM     87  O   UNL     1       4.089 -26.296   2.846  1.00  0.00    -0.744 OA
ENDBRANCH  83  84
ENDBRANCH  62  76
BRANCH  63  88
ATOM     88  C   UNL     1      -5.796 -18.474  11.151  1.00  0.00     0.058 A 
ATOM     89  C   UNL     1      -6.410 -18.968  12.312  1.00  0.00     0.135 A 
ATOM     90  C   UNL     1      -6.224 -17.228  10.669  1.00  0.00     0.135 A 
ATOM     91  F   UNL     1      -6.038 -20.155  12.814  1.00  0.00    -0.206 F 
ATOM     92  C   UNL     1      -7.433 -18.274  12.950  1.00  0.00     0.059 A 
ATOM     93  C   UNL     1      -7.224 -16.499  11.307  1.00  0.00     0.059 A 
ATOM     94  F   UNL     1      -5.655 -16.697   9.575  1.00  0.00    -0.206 F 
ATOM     95  C   UNL     1      -7.834 -17.039  12.438  1.00  0.00     0.060 A 
BRANCH  95  96
ATOM     96  S   UNL     1      -9.151 -16.139  13.285  1.00  0.00     0.124 S 
ATOM     97  O   UNL     1     -10.319 -16.945  12.951  1.00  0.00    -0.237 OA
ATOM     98  O   UNL     1      -8.713 -16.193  14.676  1.00  0.00    -0.237 OA
ATOM     99  O   UNL     1      -9.100 -14.815  12.671  1.00  0.00    -0.744 OA
ENDBRANCH  95  96
ENDBRANCH  63  88
BRANCH  75 100
ATOM    100  C   UNL     1      -5.731 -24.616   7.839  1.00  0.00     0.058 A 
ATOM    101  C   UNL     1      -6.794 -24.415   6.945  1.00  0.00     0.135 A 
ATOM    102  C   UNL     1      -5.643 -25.859   8.487  1.00  0.00     0.135 A 
ATOM    103  F   UNL     1      -6.928 -23.242   6.306  1.00  0.00    -0.206 F 
ATOM    104  C   UNL     1      -7.747 -25.403   6.720  1.00  0.00     0.059 A 
ATOM    105  C   UNL     1      -6.565 -26.872   8.252  1.00  0.00     0.059 A 
ATOM    106  F   UNL     1      -4.638 -26.105   9.344  1.00  0.00    -0.206 F 
ATOM    107  C   UNL     1      -7.620 -26.630   7.374  1.00  0.00     0.060 A 
BRANCH 107 108
ATOM    108  S   UNL     1      -8.840 -27.916   7.038  1.00  0.00     0.124 S 
ATOM    109  O   UNL     1     -10.015 -27.395   7.730  1.00  0.00    -0.237 OA
ATOM    110  O   UNL     1      -8.907 -27.909   5.580  1.00  0.00    -0.237 OA
ATOM    111  O   UNL     1      -8.245 -29.113   7.627  1.00  0.00    -0.744 OA
ENDBRANCH 107 108
ENDBRANCH  75 100
ENDBRANCH  49  50
ENDBRANCH  41  44
ENDBRANCH  39  40
ENDBRANCH  38  39
ENDBRANCH  37  38
ENDBRANCH   1  37
TORSDOF 21
