REMARK SMILES C[C@@H](Sc1nc(-c2ccc3c(c2)OCO3)ccc1C#N)C(=O)NCCCCCCNC(=O)c1ccc(-c2c3nc(c(-c4c(F)cc(S(=O)(=O)[O-])cc4F)c4ccc([nH]4)c(-c4c(F)cc(S(=O)(=O)[O-])cc4F)c4nc(c(-c5c(F)cc(S(=O)(=O)[O-])cc5F)c5ccc2[nH]5)C=C4)C=C3)cc1
REMARK SMILES IDX 26 1 25 2 24 3 23 4 21 5 22 6 2 8 1 9 3 10 4 11 5 12 18 13
REMARK SMILES IDX 6 14 17 15 16 16 19 17 20 18 7 19 8 20 12 21 9 22 11 23
REMARK SMILES IDX 10 24 13 25 15 26 14 27 27 28 28 29 29 30 30 31 31 32 32 34
REMARK SMILES IDX 33 35 34 36 98 37 35 38 97 39 36 40 37 41 38 42 91 43 39 44
REMARK SMILES IDX 96 45 90 46 92 47 40 48 95 49 89 50 88 51 41 53 75 54 54 55
REMARK SMILES IDX 74 56 55 57 58 58 73 59 93 60 56 61 57 62 72 64 94 65 59 66
REMARK SMILES IDX 42 67 43 68 52 69 44 70 45 71 51 72 53 73 46 74 47 75 48 76
REMARK SMILES IDX 49 77 50 78 76 79 77 80 86 81 78 82 79 83 85 84 87 85 80 86
REMARK SMILES IDX 81 87 82 88 83 89 84 90 60 91 61 92 70 93 62 94 63 95 69 96
REMARK SMILES IDX 71 97 64 98 65 99 66 100 67 101 68 102
REMARK H PARENT 23 7 30 33 92 52 58 63
REMARK Flexibility Score: inf
ROOT
ATOM      1  C   UNL     1      -3.099   1.817  -2.153  1.00  0.00     0.002 C 
ENDROOT
BRANCH   1   2
ATOM      2  C   UNL     1      -1.592   1.651  -1.931  1.00  0.00     0.021 C 
BRANCH   2   3
ATOM      3  C   UNL     1      -1.099   2.281  -0.628  1.00  0.00     0.116 C 
BRANCH   3   4
ATOM      4  N   UNL     1      -1.584   1.525   0.511  1.00  0.00    -0.355 N 
ATOM      5  C   UNL     1      -0.915   0.731   1.394  1.00  0.00     0.233 C 
ATOM      6  O   UNL     1      -1.586   0.149   2.252  1.00  0.00    -0.274 OA
ATOM      7  H   UNL     1      -2.552   1.597   0.672  1.00  0.00     0.163 HD
BRANCH   5   8
ATOM      8  C   UNL     1       0.612   0.564   1.343  1.00  0.00     0.139 C 
ATOM      9  C   UNL     1       1.078  -0.056   0.028  1.00  0.00     0.030 C 
BRANCH   8  10
ATOM     10  S   UNL     1       1.355   2.179   1.851  1.00  0.00    -0.092 SA
BRANCH  10  11
ATOM     11  C   UNL     1       3.129   2.034   1.808  1.00  0.00     0.115 A 
ATOM     12  N   UNL     1       3.698   3.271   1.663  1.00  0.00    -0.240 NA
ATOM     13  C   UNL     1       3.922   0.897   1.947  1.00  0.00     0.084 A 
ATOM     14  C   UNL     1       5.045   3.394   1.599  1.00  0.00     0.072 A 
ATOM     15  C   UNL     1       5.312   1.034   1.846  1.00  0.00     0.024 A 
ATOM     16  C   UNL     1       5.879   2.288   1.668  1.00  0.00     0.030 A 
BRANCH  13  17
ATOM     17  C   UNL     1       3.433  -0.417   2.220  1.00  0.00     0.102 C 
ATOM     18  N   UNL     1       3.086  -1.506   2.413  1.00  0.00    -0.192 NA
ENDBRANCH  13  17
BRANCH  14  19
ATOM     19  C   UNL     1       5.607   4.750   1.501  1.00  0.00     0.004 A 
ATOM     20  C   UNL     1       6.517   5.071   0.460  1.00  0.00     0.014 A 
ATOM     21  C   UNL     1       5.340   5.721   2.485  1.00  0.00     0.061 A 
ATOM     22  C   UNL     1       7.181   6.302   0.418  1.00  0.00     0.051 A 
ATOM     23  C   UNL     1       6.022   6.923   2.428  1.00  0.00     0.166 A 
ATOM     24  C   UNL     1       6.923   7.199   1.427  1.00  0.00     0.165 A 
ATOM     25  O   UNL     1       5.932   7.937   3.332  1.00  0.00    -0.454 OA
ATOM     26  O   UNL     1       7.514   8.414   1.575  1.00  0.00    -0.454 OA
ATOM     27  C   UNL     1       6.874   8.883   2.778  1.00  0.00     0.468 C 
ENDBRANCH  14  19
ENDBRANCH  10  11
ENDBRANCH   8  10
ENDBRANCH   5   8
ENDBRANCH   3   4
ENDBRANCH   2   3
ENDBRANCH   1   2
BRANCH   1  28
ATOM     28  C   UNL     1      -3.583   3.270  -2.138  1.00  0.00     0.002 C 
BRANCH  28  29
ATOM     29  C   UNL     1      -2.838   4.193  -3.104  1.00  0.00     0.021 C 
BRANCH  29  30
ATOM     30  C   UNL     1      -2.926   3.755  -4.560  1.00  0.00     0.116 C 
BRANCH  30  31
ATOM     31  N   UNL     1      -4.298   3.786  -5.045  1.00  0.00    -0.352 N 
ATOM     32  C   UNL     1      -4.816   4.488  -6.105  1.00  0.00     0.251 C 
ATOM     33  H   UNL     1      -4.940   3.231  -4.546  1.00  0.00     0.163 HD
ATOM     34  O   UNL     1      -6.029   4.606  -6.239  1.00  0.00    -0.269 OA
BRANCH  32  35
ATOM     35  C   UNL     1      -3.888   5.110  -7.070  1.00  0.00     0.039 A 
ATOM     36  C   UNL     1      -4.095   6.433  -7.463  1.00  0.00     0.014 A 
ATOM     37  C   UNL     1      -2.794   4.388  -7.556  1.00  0.00     0.014 A 
ATOM     38  C   UNL     1      -3.166   7.052  -8.302  1.00  0.00     0.010 A 
ATOM     39  C   UNL     1      -1.827   5.033  -8.318  1.00  0.00     0.010 A 
ATOM     40  C   UNL     1      -2.006   6.370  -8.706  1.00  0.00    -0.014 A 
BRANCH  40  41
ATOM     41  C   UNL     1      -0.968   7.026  -9.542  1.00  0.00     0.031 A 
ATOM     42  C   UNL     1      -0.648   6.470 -10.905  1.00  0.00     0.074 A 
ATOM     43  C   UNL     1      -0.268   8.068  -9.048  1.00  0.00     0.049 A 
ATOM     44  N   UNL     1       0.287   6.832 -11.743  1.00  0.00    -0.248 NA
ATOM     45  C   UNL     1      -1.469   5.341 -11.378  1.00  0.00     0.031 C 
ATOM     46  C   UNL     1      -0.465   8.673  -7.729  1.00  0.00     0.029 A 
ATOM     47  N   UNL     1       0.763   8.794  -9.591  1.00  0.00    -0.354 N 
ATOM     48  C   UNL     1       0.183   5.966 -12.825  1.00  0.00     0.074 A 
ATOM     49  C   UNL     1      -0.878   5.033 -12.524  1.00  0.00     0.031 C 
ATOM     50  C   UNL     1       0.401   9.688  -7.574  1.00  0.00     0.029 A 
ATOM     51  C   UNL     1       1.253   9.774  -8.756  1.00  0.00     0.049 A 
ATOM     52  H   UNL     1       1.120   8.630 -10.494  1.00  0.00     0.167 HD
ATOM     53  C   UNL     1       0.900   5.962 -13.972  1.00  0.00     0.037 A 
ATOM     54  C   UNL     1       2.284  10.627  -8.916  1.00  0.00     0.037 A 
ATOM     55  C   UNL     1       1.932   6.918 -14.278  1.00  0.00     0.049 A 
ATOM     56  C   UNL     1       3.079  10.579 -10.197  1.00  0.00     0.074 A 
ATOM     57  C   UNL     1       2.662   7.043 -15.447  1.00  0.00     0.029 A 
ATOM     58  N   UNL     1       2.388   7.901 -13.414  1.00  0.00    -0.354 N 
ATOM     59  N   UNL     1       2.913   9.804 -11.243  1.00  0.00    -0.248 NA
ATOM     60  C   UNL     1       4.201  11.521 -10.323  1.00  0.00     0.031 C 
ATOM     61  C   UNL     1       3.612   8.049 -15.261  1.00  0.00     0.029 A 
ATOM     62  C   UNL     1       3.417   8.610 -14.010  1.00  0.00     0.049 A 
ATOM     63  H   UNL     1       2.032   8.070 -12.511  1.00  0.00     0.167 HD
ATOM     64  C   UNL     1       3.876  10.200 -12.166  1.00  0.00     0.074 A 
ATOM     65  C   UNL     1       4.615  11.285 -11.560  1.00  0.00     0.031 C 
ATOM     66  C   UNL     1       4.124   9.711 -13.406  1.00  0.00     0.037 A 
BRANCH  53  67
ATOM     67  C   UNL     1       0.616   4.895 -14.993  1.00  0.00     0.058 A 
ATOM     68  C   UNL     1      -0.564   4.887 -15.753  1.00  0.00     0.135 A 
ATOM     69  C   UNL     1       1.591   3.926 -15.287  1.00  0.00     0.135 A 
ATOM     70  F   UNL     1      -1.538   5.776 -15.502  1.00  0.00    -0.206 F 
ATOM     71  C   UNL     1      -0.766   3.959 -16.770  1.00  0.00     0.059 A 
ATOM     72  C   UNL     1       1.424   3.010 -16.319  1.00  0.00     0.059 A 
ATOM     73  F   UNL     1       2.734   3.884 -14.584  1.00  0.00    -0.206 F 
ATOM     74  C   UNL     1       0.240   3.033 -17.054  1.00  0.00     0.060 A 
BRANCH  74  75
ATOM     75  S   UNL     1      -0.011   1.882 -18.421  1.00  0.00     0.124 S 
ATOM     76  O   UNL     1      -1.074   1.031 -17.894  1.00  0.00    -0.237 OA
ATOM     77  O   UNL     1      -0.395   2.775 -19.509  1.00  0.00    -0.237 OA
ATOM     78  O   UNL     1       1.290   1.238 -18.569  1.00  0.00    -0.744 OA
ENDBRANCH  74  75
ENDBRANCH  53  67
BRANCH  54  79
ATOM     79  C   UNL     1       2.647  11.597  -7.842  1.00  0.00     0.058 A 
ATOM     80  C   UNL     1       2.556  12.981  -8.055  1.00  0.00     0.135 A 
ATOM     81  C   UNL     1       3.145  11.162  -6.603  1.00  0.00     0.135 A 
ATOM     82  F   UNL     1       2.090  13.451  -9.223  1.00  0.00    -0.206 F 
ATOM     83  C   UNL     1       2.994  13.898  -7.104  1.00  0.00     0.059 A 
ATOM     84  C   UNL     1       3.552  12.060  -5.621  1.00  0.00     0.059 A 
ATOM     85  F   UNL     1       3.236   9.850  -6.335  1.00  0.00    -0.206 F 
ATOM     86  C   UNL     1       3.497  13.426  -5.891  1.00  0.00     0.060 A 
BRANCH  86  87
ATOM     87  S   UNL     1       4.078  14.623  -4.671  1.00  0.00     0.124 S 
ATOM     88  O   UNL     1       5.295  15.119  -5.304  1.00  0.00    -0.237 OA
ATOM     89  O   UNL     1       2.962  15.561  -4.608  1.00  0.00    -0.237 OA
ATOM     90  O   UNL     1       4.276  13.812  -3.473  1.00  0.00    -0.744 OA
ENDBRANCH  86  87
ENDBRANCH  54  79
BRANCH  66  91
ATOM     91  C   UNL     1       5.190  10.383 -14.229  1.00  0.00     0.058 A 
ATOM     92  C   UNL     1       6.554  10.268 -13.924  1.00  0.00     0.135 A 
ATOM     93  C   UNL     1       4.837  11.088 -15.393  1.00  0.00     0.135 A 
ATOM     94  F   UNL     1       6.948   9.612 -12.820  1.00  0.00    -0.206 F 
ATOM     95  C   UNL     1       7.530  10.844 -14.732  1.00  0.00     0.059 A 
ATOM     96  C   UNL     1       5.796  11.638 -16.235  1.00  0.00     0.059 A 
ATOM     97  F   UNL     1       3.546  11.219 -15.739  1.00  0.00    -0.206 F 
ATOM     98  C   UNL     1       7.141  11.518 -15.891  1.00  0.00     0.060 A 
BRANCH  98  99
ATOM     99  S   UNL     1       8.421  12.209 -16.959  1.00  0.00     0.124 S 
ATOM    100  O   UNL     1       8.922  13.312 -16.145  1.00  0.00    -0.237 OA
ATOM    101  O   UNL     1       9.330  11.078 -17.122  1.00  0.00    -0.237 OA
ATOM    102  O   UNL     1       7.691  12.598 -18.161  1.00  0.00    -0.744 OA
ENDBRANCH  98  99
ENDBRANCH  66  91
ENDBRANCH  40  41
ENDBRANCH  32  35
ENDBRANCH  30  31
ENDBRANCH  29  30
ENDBRANCH  28  29
ENDBRANCH   1  28
TORSDOF 20
