REMARK SMILES Cc1ccc(C2=NN(C(=O)CCC(=O)NCCCCCCNC(=O)c3ccc(-c4c5nc(c(-c6c(F)cc(S(=O)(=O)[O-])cc6F)c6ccc([nH]6)c(-c6c(F)cc(S(=O)(=O)[O-])cc6F)c6nc(c(-c7c(F)cc(S(=O)(=O)[O-])cc7F)c7ccc4[nH]7)C=C6)C=C5)cc3)[C@H](C[C@@H]3C=c4cccc(C)c4=NC3=O)C2)cc1
REMARK SMILES IDX 17 1 16 2 15 3 13 4 14 5 12 7 11 8 9 9 10 10 8 11 6 12 7 13
REMARK SMILES IDX 105 14 91 15 5 16 1 17 2 18 3 19 107 20 4 21 106 22 92 23
REMARK SMILES IDX 93 24 94 25 103 26 95 27 102 28 104 29 96 30 101 31 97 32
REMARK SMILES IDX 99 33 98 34 100 35 18 36 19 37 20 38 21 39 22 40 23 41 24 43
REMARK SMILES IDX 25 44 26 45 90 46 27 47 89 48 28 49 29 50 30 51 83 52 31 53
REMARK SMILES IDX 88 54 82 55 84 56 32 57 87 58 81 59 80 60 33 62 67 63 46 64
REMARK SMILES IDX 66 65 47 66 50 67 65 68 85 69 48 70 49 71 64 73 86 74 51 75
REMARK SMILES IDX 34 76 35 77 44 78 36 79 37 80 43 81 45 82 38 83 39 84 40 85
REMARK SMILES IDX 41 86 42 87 68 88 69 89 78 90 70 91 71 92 77 93 79 94 72 95
REMARK SMILES IDX 73 96 74 97 75 98 76 99 52 100 53 101 62 102 54 103 55 104
REMARK SMILES IDX 61 105 63 106 56 107 57 108 58 109 59 110 60 111
REMARK H PARENT 15 6 22 42 84 61 50 72
REMARK Flexibility Score: inf
ROOT
ATOM      1  C   UNL     1      -4.245   0.011  -0.860  1.00  0.00     0.021 C 
ENDROOT
BRANCH   1   2
ATOM      2  C   UNL     1      -5.139   0.922   0.958  1.00  0.00     0.116 C 
BRANCH   2   3
ATOM      3  N   UNL     1      -6.415   1.901   1.072  1.00  0.00    -0.356 N 
ATOM      4  C   UNL     1      -7.680   1.823   1.519  1.00  0.00     0.220 C 
ATOM      5  O   UNL     1      -8.392   2.813   1.325  1.00  0.00    -0.275 OA
ATOM      6  H   UNL     1      -6.212   2.797   0.719  1.00  0.00     0.163 HD
BRANCH   4   7
ATOM      7  C   UNL     1      -8.182   0.624   2.258  1.00  0.00     0.110 C 
BRANCH   7   8
ATOM      8  C   UNL     1      -7.921  -0.745   1.651  1.00  0.00     0.112 C 
BRANCH   8   9
ATOM      9  C   UNL     1      -6.478  -1.281   1.719  1.00  0.00     0.243 C 
ATOM     10  O   UNL     1      -6.083  -1.839   2.742  1.00  0.00    -0.273 OA
BRANCH   9  11
ATOM     11  N   UNL     1      -5.621  -0.951   0.594  1.00  0.00    -0.230 N 
ATOM     12  C   UNL     1      -3.275   0.598   0.506  1.00  0.00     0.070 C 
ATOM     13  N   UNL     1      -3.888  -0.691   1.070  1.00  0.00    -0.174 NA
ATOM     14  C   UNL     1      -4.760   1.673  -0.644  1.00  0.00     0.086 C 
ATOM     15  C   UNL     1      -6.221   0.232  -0.689  1.00  0.00     0.118 C 
BRANCH  12  16
ATOM     16  C   UNL     1      -1.479   0.368   0.195  1.00  0.00    -0.002 A 
ATOM     17  C   UNL     1       2.767   0.416  -0.532  1.00  0.00     0.044 C 
ATOM     18  C   UNL     1       1.289   0.275  -0.629  1.00  0.00    -0.051 A 
ATOM     19  C   UNL     1       0.510  -0.879  -0.474  1.00  0.00     0.004 A 
ATOM     20  C   UNL     1       0.660   1.456  -0.648  1.00  0.00     0.004 A 
ATOM     21  C   UNL     1      -0.895  -0.847  -0.139  1.00  0.00     0.010 A 
ATOM     22  C   UNL     1      -0.543   1.442  -0.007  1.00  0.00     0.010 A 
ENDBRANCH  12  16
BRANCH  15  23
ATOM     23  C   UNL     1      -6.664  -0.752  -1.984  1.00  0.00     0.045 C 
BRANCH  23  24
ATOM     24  C   UNL     1      -7.720  -1.865  -1.641  1.00  0.00     0.106 C 
ATOM     25  C   UNL     1      -7.200  -2.917  -0.698  1.00  0.00    -0.003 C 
ATOM     26  C   UNL     1      -8.443  -2.631  -2.763  1.00  0.00     0.253 C 
ATOM     27  C   UNL     1      -8.013  -3.869  -0.247  1.00  0.00    -0.003 A 
ATOM     28  N   UNL     1      -9.237  -3.719  -2.390  1.00  0.00    -0.212 NA
ATOM     29  O   UNL     1      -8.424  -2.205  -3.916  1.00  0.00    -0.272 OA
ATOM     30  C   UNL     1      -7.907  -4.470   1.058  1.00  0.00     0.010 A 
ATOM     31  C   UNL     1      -9.043  -4.293  -1.237  1.00  0.00     0.077 A 
ATOM     32  C   UNL     1      -8.767  -5.426   1.423  1.00  0.00     0.001 A 
ATOM     33  C   UNL     1      -9.761  -5.557  -0.818  1.00  0.00    -0.025 A 
ATOM     34  C   UNL     1      -9.638  -6.024   0.442  1.00  0.00     0.005 A 
ATOM     35  C   UNL     1     -10.419  -6.362  -1.889  1.00  0.00     0.047 C 
ENDBRANCH  23  24
ENDBRANCH  15  23
ENDBRANCH   9  11
ENDBRANCH   8   9
ENDBRANCH   7   8
ENDBRANCH   4   7
ENDBRANCH   2   3
ENDBRANCH   1   2
BRANCH   1  36
ATOM     36  C   UNL     1      -2.882   1.315  -1.490  1.00  0.00     0.002 C 
BRANCH  36  37
ATOM     37  C   UNL     1      -2.575   2.749  -0.284  1.00  0.00     0.002 C 
BRANCH  37  38
ATOM     38  C   UNL     1      -2.270   2.711   1.558  1.00  0.00     0.021 C 
BRANCH  38  39
ATOM     39  C   UNL     1      -1.604   1.501   2.629  1.00  0.00     0.116 C 
BRANCH  39  40
ATOM     40  N   UNL     1      -0.125   1.391   2.852  1.00  0.00    -0.352 N 
ATOM     41  C   UNL     1       0.821   0.386   3.125  1.00  0.00     0.251 C 
ATOM     42  H   UNL     1       0.307   2.273   2.788  1.00  0.00     0.163 HD
ATOM     43  O   UNL     1       1.868   0.779   3.655  1.00  0.00    -0.269 OA
BRANCH  41  44
ATOM     44  C   UNL     1       0.765  -1.076   2.769  1.00  0.00     0.039 A 
ATOM     45  C   UNL     1       1.956  -1.715   2.313  1.00  0.00     0.014 A 
ATOM     46  C   UNL     1      -0.393  -1.840   2.803  1.00  0.00     0.014 A 
ATOM     47  C   UNL     1       1.941  -2.984   1.685  1.00  0.00     0.010 A 
ATOM     48  C   UNL     1      -0.409  -3.103   2.188  1.00  0.00     0.010 A 
ATOM     49  C   UNL     1       0.726  -3.643   1.543  1.00  0.00    -0.014 A 
BRANCH  49  50
ATOM     50  C   UNL     1       0.491  -4.865   0.751  1.00  0.00     0.031 A 
ATOM     51  C   UNL     1       0.446  -6.184   1.440  1.00  0.00     0.074 A 
ATOM     52  C   UNL     1       0.017  -4.775  -0.518  1.00  0.00     0.049 A 
ATOM     53  N   UNL     1       0.320  -7.327   0.852  1.00  0.00    -0.248 NA
ATOM     54  C   UNL     1       0.583  -6.306   2.888  1.00  0.00     0.031 C 
ATOM     55  C   UNL     1      -0.923  -5.689  -1.174  1.00  0.00     0.029 A 
ATOM     56  N   UNL     1       0.332  -3.859  -1.531  1.00  0.00    -0.354 N 
ATOM     57  C   UNL     1       0.065  -8.279   1.821  1.00  0.00     0.074 A 
ATOM     58  C   UNL     1       0.324  -7.606   3.072  1.00  0.00     0.031 C 
ATOM     59  C   UNL     1      -0.973  -5.415  -2.490  1.00  0.00     0.029 A 
ATOM     60  C   UNL     1       0.124  -4.504  -2.765  1.00  0.00     0.049 A 
ATOM     61  H   UNL     1       0.643  -2.934  -1.402  1.00  0.00     0.167 HD
ATOM     62  C   UNL     1      -0.477  -9.480   1.460  1.00  0.00     0.037 A 
ATOM     63  C   UNL     1       1.125  -4.744  -3.662  1.00  0.00     0.037 A 
ATOM     64  C   UNL     1      -0.620  -9.563   0.011  1.00  0.00     0.049 A 
ATOM     65  C   UNL     1       1.232  -6.184  -4.098  1.00  0.00     0.074 A 
ATOM     66  C   UNL     1      -1.684  -9.274  -0.828  1.00  0.00     0.029 A 
ATOM     67  N   UNL     1       0.499  -9.701  -0.795  1.00  0.00    -0.354 N 
ATOM     68  N   UNL     1       0.759  -7.176  -3.404  1.00  0.00    -0.248 NA
ATOM     69  C   UNL     1       1.994  -6.624  -5.264  1.00  0.00     0.031 C 
ATOM     70  C   UNL     1      -1.191  -9.202  -2.148  1.00  0.00     0.029 A 
ATOM     71  C   UNL     1       0.170  -9.460  -2.116  1.00  0.00     0.049 A 
ATOM     72  H   UNL     1       1.399  -9.936  -0.473  1.00  0.00     0.167 HD
ATOM     73  C   UNL     1       1.292  -8.343  -3.878  1.00  0.00     0.074 A 
ATOM     74  C   UNL     1       1.982  -7.956  -5.093  1.00  0.00     0.031 C 
ATOM     75  C   UNL     1       1.182  -9.500  -3.162  1.00  0.00     0.037 A 
BRANCH  62  76
ATOM     76  C   UNL     1      -1.159 -10.467   2.395  1.00  0.00     0.058 A 
ATOM     77  C   UNL     1      -2.197 -11.303   1.913  1.00  0.00     0.135 A 
ATOM     78  C   UNL     1      -0.882 -10.623   3.767  1.00  0.00     0.135 A 
ATOM     79  F   UNL     1      -2.532 -11.338   0.616  1.00  0.00    -0.206 F 
ATOM     80  C   UNL     1      -2.956 -12.139   2.732  1.00  0.00     0.059 A 
ATOM     81  C   UNL     1      -1.655 -11.427   4.619  1.00  0.00     0.059 A 
ATOM     82  F   UNL     1       0.181 -10.041   4.335  1.00  0.00    -0.206 F 
ATOM     83  C   UNL     1      -2.700 -12.174   4.092  1.00  0.00     0.060 A 
BRANCH  83  84
ATOM     84  S   UNL     1      -3.739 -13.217   5.133  1.00  0.00     0.124 S 
ATOM     85  O   UNL     1      -5.070 -12.674   4.878  1.00  0.00    -0.237 OA
ATOM     86  O   UNL     1      -3.482 -14.546   4.588  1.00  0.00    -0.237 OA
ATOM     87  O   UNL     1      -3.221 -12.981   6.478  1.00  0.00    -0.744 OA
ENDBRANCH  83  84
ENDBRANCH  62  76
BRANCH  63  88
ATOM     88  C   UNL     1       2.359  -3.943  -3.431  1.00  0.00     0.058 A 
ATOM     89  C   UNL     1       2.408  -2.565  -3.682  1.00  0.00     0.135 A 
ATOM     90  C   UNL     1       3.397  -4.505  -2.671  1.00  0.00     0.135 A 
ATOM     91  F   UNL     1       1.433  -1.971  -4.392  1.00  0.00    -0.206 F 
ATOM     92  C   UNL     1       3.421  -1.766  -3.147  1.00  0.00     0.059 A 
ATOM     93  C   UNL     1       4.384  -3.723  -2.092  1.00  0.00     0.059 A 
ATOM     94  F   UNL     1       3.418  -5.819  -2.413  1.00  0.00    -0.206 F 
ATOM     95  C   UNL     1       4.374  -2.349  -2.304  1.00  0.00     0.060 A 
BRANCH  95  96
ATOM     96  S   UNL     1       5.604  -1.372  -1.403  1.00  0.00     0.124 S 
ATOM     97  O   UNL     1       5.537  -0.063  -2.047  1.00  0.00    -0.237 OA
ATOM     98  O   UNL     1       5.090  -1.435  -0.038  1.00  0.00    -0.237 OA
ATOM     99  O   UNL     1       6.835  -2.114  -1.637  1.00  0.00    -0.744 OA
ENDBRANCH  95  96
ENDBRANCH  63  88
BRANCH  75 100
ATOM    100  C   UNL     1       1.956 -10.768  -3.423  1.00  0.00     0.058 A 
ATOM    101  C   UNL     1       3.202 -10.817  -4.071  1.00  0.00     0.135 A 
ATOM    102  C   UNL     1       1.484 -12.005  -2.922  1.00  0.00     0.135 A 
ATOM    103  F   UNL     1       3.842  -9.702  -4.450  1.00  0.00    -0.206 F 
ATOM    104  C   UNL     1       3.865 -12.017  -4.327  1.00  0.00     0.059 A 
ATOM    105  C   UNL     1       2.161 -13.206  -3.107  1.00  0.00     0.059 A 
ATOM    106  F   UNL     1       0.339 -12.090  -2.228  1.00  0.00    -0.206 F 
ATOM    107  C   UNL     1       3.325 -13.210  -3.860  1.00  0.00     0.060 A 
BRANCH 107 108
ATOM    108  S   UNL     1       4.147 -14.765  -4.237  1.00  0.00     0.124 S 
ATOM    109  O   UNL     1       3.607 -15.061  -5.561  1.00  0.00    -0.237 OA
ATOM    110  O   UNL     1       5.560 -14.402  -4.199  1.00  0.00    -0.237 OA
ATOM    111  O   UNL     1       3.705 -15.649  -3.163  1.00  0.00    -0.744 OA
ENDBRANCH 107 108
ENDBRANCH  75 100
ENDBRANCH  49  50
ENDBRANCH  41  44
ENDBRANCH  39  40
ENDBRANCH  38  39
ENDBRANCH  37  38
ENDBRANCH  36  37
ENDBRANCH   1  36
TORSDOF 22
