REMARK SMILES CN(C)c1ccc(-c2nnc([C@H]3CC[N@@H+](Cc4ccc(C(=O)NCCCCCCNC(=O)c5ccc(-c6c7nc(c(-c8c(F)cc(S(=O)(=O)[O-])cc8F)c8ccc([nH]8)c(-c8c(F)cc(S(=O)(=O)[O-])cc8F)c8nc(c(-c9c(F)cc(S(=O)(=O)[O-])cc9F)c9ccc6[nH]9)C=C8)C=C7)cc5)cc4)C3)o2)cc1
REMARK SMILES IDX 25 1 24 2 23 3 21 4 22 5 20 7 17 8 18 9 100 10 19 11 99 12
REMARK SMILES IDX 16 13 15 14 12 15 13 16 101 17 14 18 11 20 8 21 9 22 102 23
REMARK SMILES IDX 10 24 7 25 4 26 5 27 104 28 6 29 103 30 2 31 1 32 3 33 26 34
REMARK SMILES IDX 27 35 28 36 29 37 30 38 31 39 32 41 33 42 34 43 98 44 35 45
REMARK SMILES IDX 97 46 36 47 37 48 38 49 91 50 39 51 96 52 90 53 92 54 40 55
REMARK SMILES IDX 95 56 89 57 88 58 41 60 75 61 54 62 74 63 55 64 58 65 73 66
REMARK SMILES IDX 93 67 56 68 57 69 72 71 94 72 59 73 42 74 43 75 52 76 44 77
REMARK SMILES IDX 45 78 51 79 53 80 46 81 47 82 48 83 49 84 50 85 76 86 77 87
REMARK SMILES IDX 86 88 78 89 79 90 85 91 87 92 80 93 81 94 82 95 83 96 84 97
REMARK SMILES IDX 60 98 61 99 70 100 62 101 63 102 69 103 71 104 64 105 65 106
REMARK SMILES IDX 66 107 67 108 68 109
REMARK H PARENT 23 6 15 19 30 40 92 59 58 70
REMARK Flexibility Score: inf
ROOT
ATOM      1  C   UNL     1       2.391   8.507 -13.222  1.00  0.00     0.021 C 
ENDROOT
BRANCH   1   2
ATOM      2  C   UNL     1       2.039   7.025 -13.053  1.00  0.00     0.116 C 
BRANCH   2   3
ATOM      3  N   UNL     1       2.382   6.258 -14.246  1.00  0.00    -0.352 N 
ATOM      4  C   UNL     1       3.253   5.216 -14.461  1.00  0.00     0.251 C 
ATOM      5  O   UNL     1       3.223   4.644 -15.552  1.00  0.00    -0.269 OA
ATOM      6  H   UNL     1       1.895   6.542 -15.054  1.00  0.00     0.163 HD
BRANCH   4   7
ATOM      7  C   UNL     1       4.203   4.722 -13.429  1.00  0.00     0.039 A 
ATOM      8  C   UNL     1       5.896   3.666 -11.427  1.00  0.00     0.006 A 
ATOM      9  C   UNL     1       5.313   2.825 -12.385  1.00  0.00     0.010 A 
ATOM     10  C   UNL     1       5.725   5.047 -11.570  1.00  0.00     0.010 A 
ATOM     11  C   UNL     1       4.474   3.349 -13.376  1.00  0.00     0.014 A 
ATOM     12  C   UNL     1       4.889   5.571 -12.565  1.00  0.00     0.014 A 
BRANCH   8  13
ATOM     13  C   UNL     1       6.629   3.087 -10.234  1.00  0.00     0.299 C 
BRANCH  13  14
ATOM     14  N   UNL     1       5.847   2.897  -8.999  1.00  0.00    -0.330 N 
ATOM     15  C   UNL     1       3.985   4.333  -8.380  1.00  0.00     0.138 C 
ATOM     16  C   UNL     1       3.500   3.195  -9.275  1.00  0.00     0.081 C 
ATOM     17  C   UNL     1       5.502   4.143  -8.291  1.00  0.00     0.276 C 
ATOM     18  C   UNL     1       4.598   2.148  -9.154  1.00  0.00     0.263 C 
ATOM     19  H   UNL     1       6.507   2.348  -8.449  1.00  0.00     0.348 HD
BRANCH  15  20
ATOM     20  C   UNL     1       3.518   5.670  -8.835  1.00  0.00     0.225 A 
ATOM     21  C   UNL     1       3.616   7.706  -9.463  1.00  0.00     0.247 A 
ATOM     22  N   UNL     1       2.338   7.408  -9.338  1.00  0.00    -0.108 NA
ATOM     23  O   UNL     1       4.434   6.646  -9.162  1.00  0.00    -0.420 OA
ATOM     24  N   UNL     1       2.274   6.091  -8.944  1.00  0.00    -0.112 NA
BRANCH  21  25
ATOM     25  C   UNL     1       4.204   8.926 -10.001  1.00  0.00     0.039 A 
ATOM     26  C   UNL     1       4.800  11.241 -11.566  1.00  0.00     0.036 A 
ATOM     27  C   UNL     1       3.952  11.303 -10.456  1.00  0.00     0.027 A 
ATOM     28  C   UNL     1       5.476  10.029 -11.757  1.00  0.00     0.027 A 
ATOM     29  C   UNL     1       3.621  10.160  -9.711  1.00  0.00     0.016 A 
ATOM     30  C   UNL     1       5.213   8.900 -10.965  1.00  0.00     0.016 A 
BRANCH  26  31
ATOM     31  N   UNL     1       4.960  12.291 -12.465  1.00  0.00    -0.378 N 
ATOM     32  C   UNL     1       4.770  11.983 -13.885  1.00  0.00     0.143 C 
ATOM     33  C   UNL     1       4.659  13.668 -12.093  1.00  0.00     0.143 C 
ENDBRANCH  26  31
ENDBRANCH  21  25
ENDBRANCH  15  20
ENDBRANCH  13  14
ENDBRANCH   8  13
ENDBRANCH   4   7
ENDBRANCH   2   3
ENDBRANCH   1   2
BRANCH   1  34
ATOM     34  C   UNL     1       1.357   9.355 -13.976  1.00  0.00     0.002 C 
BRANCH  34  35
ATOM     35  C   UNL     1       0.041   9.636 -13.235  1.00  0.00     0.002 C 
BRANCH  35  36
ATOM     36  C   UNL     1       0.142  10.277 -11.842  1.00  0.00     0.021 C 
BRANCH  36  37
ATOM     37  C   UNL     1       0.782  11.666 -11.767  1.00  0.00     0.116 C 
BRANCH  37  38
ATOM     38  N   UNL     1      -0.035  12.715 -12.355  1.00  0.00    -0.352 N 
ATOM     39  C   UNL     1      -0.399  13.958 -11.891  1.00  0.00     0.251 C 
ATOM     40  H   UNL     1      -0.391  12.496 -13.247  1.00  0.00     0.163 HD
ATOM     41  O   UNL     1      -1.197  14.615 -12.561  1.00  0.00    -0.269 OA
BRANCH  39  42
ATOM     42  C   UNL     1       0.123  14.543 -10.622  1.00  0.00     0.039 A 
ATOM     43  C   UNL     1      -0.707  15.389  -9.879  1.00  0.00     0.014 A 
ATOM     44  C   UNL     1       1.439  14.364 -10.195  1.00  0.00     0.014 A 
ATOM     45  C   UNL     1      -0.233  16.010  -8.713  1.00  0.00     0.010 A 
ATOM     46  C   UNL     1       1.903  14.939  -9.004  1.00  0.00     0.010 A 
ATOM     47  C   UNL     1       1.074  15.780  -8.253  1.00  0.00    -0.014 A 
BRANCH  47  48
ATOM     48  C   UNL     1       1.550  16.393  -6.981  1.00  0.00     0.031 A 
ATOM     49  C   UNL     1       2.618  17.459  -6.975  1.00  0.00     0.074 A 
ATOM     50  C   UNL     1       1.032  15.965  -5.813  1.00  0.00     0.049 A 
ATOM     51  N   UNL     1       3.087  18.150  -5.966  1.00  0.00    -0.248 NA
ATOM     52  C   UNL     1       3.256  17.775  -8.261  1.00  0.00     0.031 C 
ATOM     53  C   UNL     1       0.056  14.881  -5.673  1.00  0.00     0.029 A 
ATOM     54  N   UNL     1       1.252  16.380  -4.522  1.00  0.00    -0.354 N 
ATOM     55  C   UNL     1       4.068  18.985  -6.492  1.00  0.00     0.074 A 
ATOM     56  C   UNL     1       4.163  18.676  -7.903  1.00  0.00     0.031 C 
ATOM     57  C   UNL     1      -0.250  14.730  -4.374  1.00  0.00     0.029 A 
ATOM     58  C   UNL     1       0.514  15.693  -3.587  1.00  0.00     0.049 A 
ATOM     59  H   UNL     1       1.880  17.101  -4.289  1.00  0.00     0.167 HD
ATOM     60  C   UNL     1       4.805  19.933  -5.862  1.00  0.00     0.037 A 
ATOM     61  C   UNL     1       0.449  15.828  -2.248  1.00  0.00     0.037 A 
ATOM     62  C   UNL     1       4.697  20.242  -4.456  1.00  0.00     0.049 A 
ATOM     63  C   UNL     1       1.243  16.918  -1.579  1.00  0.00     0.074 A 
ATOM     64  C   UNL     1       5.341  21.241  -3.743  1.00  0.00     0.029 A 
ATOM     65  N   UNL     1       3.906  19.555  -3.548  1.00  0.00    -0.354 N 
ATOM     66  N   UNL     1       2.079  17.777  -2.113  1.00  0.00    -0.248 NA
ATOM     67  C   UNL     1       1.065  17.076  -0.129  1.00  0.00     0.031 C 
ATOM     68  C   UNL     1       4.980  21.123  -2.396  1.00  0.00     0.029 A 
ATOM     69  C   UNL     1       4.064  20.090  -2.279  1.00  0.00     0.049 A 
ATOM     70  H   UNL     1       3.319  18.797  -3.772  1.00  0.00     0.167 HD
ATOM     71  C   UNL     1       2.501  18.595  -1.071  1.00  0.00     0.074 A 
ATOM     72  C   UNL     1       1.813  18.141   0.120  1.00  0.00     0.031 C 
ATOM     73  C   UNL     1       3.377  19.631  -1.097  1.00  0.00     0.037 A 
BRANCH  60  74
ATOM     74  C   UNL     1       5.794  20.725  -6.678  1.00  0.00     0.058 A 
ATOM     75  C   UNL     1       5.376  21.677  -7.622  1.00  0.00     0.135 A 
ATOM     76  C   UNL     1       7.175  20.594  -6.454  1.00  0.00     0.135 A 
ATOM     77  F   UNL     1       4.070  21.840  -7.886  1.00  0.00    -0.206 F 
ATOM     78  C   UNL     1       6.290  22.458  -8.324  1.00  0.00     0.059 A 
ATOM     79  C   UNL     1       8.106  21.384  -7.125  1.00  0.00     0.059 A 
ATOM     80  F   UNL     1       7.633  19.702  -5.562  1.00  0.00    -0.206 F 
ATOM     81  C   UNL     1       7.653  22.308  -8.065  1.00  0.00     0.060 A 
BRANCH  81  82
ATOM     82  S   UNL     1       8.824  23.351  -8.961  1.00  0.00     0.124 S 
ATOM     83  O   UNL     1       8.751  22.781 -10.305  1.00  0.00    -0.237 OA
ATOM     84  O   UNL     1       8.236  24.680  -8.807  1.00  0.00    -0.237 OA
ATOM     85  O   UNL     1      10.080  23.139  -8.258  1.00  0.00    -0.744 OA
ENDBRANCH  81  82
ENDBRANCH  60  74
BRANCH  61  86
ATOM     86  C   UNL     1      -0.427  14.925  -1.451  1.00  0.00     0.058 A 
ATOM     87  C   UNL     1      -1.589  15.402  -0.826  1.00  0.00     0.135 A 
ATOM     88  C   UNL     1      -0.114  13.566  -1.297  1.00  0.00     0.135 A 
ATOM     89  F   UNL     1      -1.930  16.695  -0.941  1.00  0.00    -0.206 F 
ATOM     90  C   UNL     1      -2.394  14.572  -0.052  1.00  0.00     0.059 A 
ATOM     91  C   UNL     1      -0.918  12.709  -0.553  1.00  0.00     0.059 A 
ATOM     92  F   UNL     1       0.976  13.055  -1.892  1.00  0.00    -0.206 F 
ATOM     93  C   UNL     1      -2.049  13.226   0.079  1.00  0.00     0.060 A 
BRANCH  93  94
ATOM     94  S   UNL     1      -3.114  12.149   1.062  1.00  0.00     0.124 S 
ATOM     95  O   UNL     1      -2.796  12.581   2.418  1.00  0.00    -0.237 OA
ATOM     96  O   UNL     1      -4.443  12.503   0.573  1.00  0.00    -0.237 OA
ATOM     97  O   UNL     1      -2.659  10.809   0.703  1.00  0.00    -0.744 OA
ENDBRANCH  93  94
ENDBRANCH  61  86
BRANCH  73  98
ATOM     98  C   UNL     1       3.609  20.369   0.195  1.00  0.00     0.058 A 
ATOM     99  C   UNL     1       4.293  19.785   1.273  1.00  0.00     0.135 A 
ATOM    100  C   UNL     1       3.143  21.685   0.354  1.00  0.00     0.135 A 
ATOM    101  F   UNL     1       4.760  18.530   1.176  1.00  0.00    -0.206 F 
ATOM    102  C   UNL     1       4.460  20.458   2.479  1.00  0.00     0.059 A 
ATOM    103  C   UNL     1       3.328  22.389   1.540  1.00  0.00     0.059 A 
ATOM    104  F   UNL     1       2.497  22.300  -0.649  1.00  0.00    -0.206 F 
ATOM    105  C   UNL     1       3.967  21.758   2.606  1.00  0.00     0.060 A 
BRANCH 105 106
ATOM    106  S   UNL     1       4.175  22.616   4.180  1.00  0.00     0.124 S 
ATOM    107  O   UNL     1       3.171  21.955   5.008  1.00  0.00    -0.237 OA
ATOM    108  O   UNL     1       5.565  22.324   4.516  1.00  0.00    -0.237 OA
ATOM    109  O   UNL     1       3.896  24.009   3.847  1.00  0.00    -0.744 OA
ENDBRANCH 105 106
ENDBRANCH  73  98
ENDBRANCH  47  48
ENDBRANCH  39  42
ENDBRANCH  37  38
ENDBRANCH  36  37
ENDBRANCH  35  36
ENDBRANCH  34  35
ENDBRANCH   1  34
TORSDOF 21
