REMARK SMILES C[C@@H](C(=O)NCCCCCCNC(=O)c1ccc(-c2c3nc(c(-c4c(F)cc(S(=O)(=O)[O-])cc4F)c4ccc([nH]4)c(-c4c(F)cc(S(=O)(=O)[O-])cc4F)c4nc(c(-c5c(F)cc(S(=O)(=O)[O-])cc5F)c5ccc2[nH]5)C=C4)C=C3)cc1)c1ccc(-c2cccc(OC(=O)NC3CC3)c2)c(F)c1
REMARK SMILES IDX 7 1 6 2 5 3 3 4 4 5 2 7 1 8 81 9 82 10 100 11 83 12 98 13
REMARK SMILES IDX 84 14 99 15 85 16 86 17 97 18 87 19 89 20 88 21 90 22 91 23
REMARK SMILES IDX 92 24 93 25 94 27 95 28 96 29 8 30 9 31 10 32 11 33 12 34
REMARK SMILES IDX 13 35 14 37 15 38 16 39 80 40 17 41 79 42 18 43 19 44 20 45
REMARK SMILES IDX 73 46 21 47 78 48 72 49 74 50 22 51 77 52 71 53 70 54 23 56
REMARK SMILES IDX 57 57 36 58 56 59 37 60 40 61 55 62 75 63 38 64 39 65 54 67
REMARK SMILES IDX 76 68 41 69 24 70 25 71 34 72 26 73 27 74 33 75 35 76 28 77
REMARK SMILES IDX 29 78 30 79 31 80 32 81 58 82 59 83 68 84 60 85 61 86 67 87
REMARK SMILES IDX 69 88 62 89 63 90 64 91 65 92 66 93 42 94 43 95 52 96 44 97
REMARK SMILES IDX 45 98 51 99 53 100 46 101 47 102 48 103 49 104 50 105
REMARK H PARENT 5 6 93 26 12 36 74 55 40 66
REMARK Flexibility Score: inf
ROOT
ATOM      1  C   UNL     1       4.185  -0.855   1.293  1.00  0.00     0.021 C 
ENDROOT
BRANCH   1   2
ATOM      2  C   UNL     1       3.376  -1.887   0.501  1.00  0.00     0.116 C 
BRANCH   2   3
ATOM      3  N   UNL     1       2.258  -2.343   1.299  1.00  0.00    -0.356 N 
ATOM      4  C   UNL     1       0.963  -1.917   1.288  1.00  0.00     0.227 C 
ATOM      5  O   UNL     1       0.262  -2.243   2.248  1.00  0.00    -0.274 OA
ATOM      6  H   UNL     1       2.461  -3.063   1.940  1.00  0.00     0.163 HD
BRANCH   4   7
ATOM      7  C   UNL     1       0.431  -1.118   0.081  1.00  0.00     0.105 C 
ATOM      8  C   UNL     1       0.973   0.317   0.091  1.00  0.00     0.023 C 
BRANCH   7   9
ATOM      9  C   UNL     1      -1.096  -1.179   0.000  1.00  0.00    -0.033 A 
ATOM     10  C   UNL     1      -1.899  -0.030   0.049  1.00  0.00     0.005 A 
ATOM     11  C   UNL     1      -1.737  -2.426  -0.092  1.00  0.00     0.044 A 
ATOM     12  C   UNL     1      -3.290  -0.122   0.047  1.00  0.00     0.012 A 
ATOM     13  C   UNL     1      -3.129  -2.512  -0.075  1.00  0.00     0.131 A 
ATOM     14  C   UNL     1      -3.929  -1.367   0.009  1.00  0.00     0.018 A 
ATOM     15  F   UNL     1      -3.693  -3.730  -0.113  1.00  0.00    -0.206 F 
BRANCH  14  16
ATOM     16  C   UNL     1      -5.384  -1.428   0.165  1.00  0.00    -0.012 A 
ATOM     17  C   UNL     1      -6.244  -0.774  -0.731  1.00  0.00     0.009 A 
ATOM     18  C   UNL     1      -5.932  -2.059   1.293  1.00  0.00     0.056 A 
ATOM     19  C   UNL     1      -7.620  -0.738  -0.500  1.00  0.00     0.004 A 
ATOM     20  C   UNL     1      -7.301  -2.011   1.526  1.00  0.00     0.133 A 
ATOM     21  C   UNL     1      -8.148  -1.352   0.634  1.00  0.00     0.047 A 
BRANCH  20  22
ATOM     22  O   UNL     1      -7.938  -2.582   2.655  1.00  0.00    -0.410 OA
BRANCH  22  23
ATOM     23  C   UNL     1      -7.342  -3.368   3.634  1.00  0.00     0.412 C 
ATOM     24  O   UNL     1      -6.148  -3.635   3.730  1.00  0.00    -0.224 OA
ATOM     25  N   UNL     1      -8.226  -3.881   4.547  1.00  0.00    -0.318 N 
ATOM     26  H   UNL     1      -7.830  -4.482   5.219  1.00  0.00     0.167 HD
BRANCH  25  27
ATOM     27  C   UNL     1      -9.629  -3.677   4.672  1.00  0.00     0.085 C 
ATOM     28  C   UNL     1     -10.593  -3.302   3.582  1.00  0.00     0.027 C 
ATOM     29  C   UNL     1     -10.559  -4.711   4.088  1.00  0.00     0.027 C 
ENDBRANCH  25  27
ENDBRANCH  22  23
ENDBRANCH  20  22
ENDBRANCH  14  16
ENDBRANCH   7   9
ENDBRANCH   4   7
ENDBRANCH   2   3
ENDBRANCH   1   2
BRANCH   1  30
ATOM     30  C   UNL     1       4.924  -1.452   2.498  1.00  0.00     0.002 C 
BRANCH  30  31
ATOM     31  C   UNL     1       5.899  -2.580   2.150  1.00  0.00     0.002 C 
BRANCH  31  32
ATOM     32  C   UNL     1       6.933  -2.213   1.084  1.00  0.00     0.021 C 
BRANCH  32  33
ATOM     33  C   UNL     1       7.824  -1.040   1.469  1.00  0.00     0.116 C 
BRANCH  33  34
ATOM     34  N   UNL     1       8.668  -1.359   2.611  1.00  0.00    -0.352 N 
ATOM     35  C   UNL     1      10.037  -1.306   2.702  1.00  0.00     0.251 C 
ATOM     36  H   UNL     1       8.196  -1.650   3.424  1.00  0.00     0.163 HD
ATOM     37  O   UNL     1      10.620  -1.819   3.650  1.00  0.00    -0.269 OA
BRANCH  35  38
ATOM     38  C   UNL     1      10.796  -0.636   1.626  1.00  0.00     0.039 A 
ATOM     39  C   UNL     1      11.891  -1.284   1.052  1.00  0.00     0.014 A 
ATOM     40  C   UNL     1      10.387   0.618   1.163  1.00  0.00     0.014 A 
ATOM     41  C   UNL     1      12.541  -0.699  -0.036  1.00  0.00     0.010 A 
ATOM     42  C   UNL     1      10.984   1.157   0.031  1.00  0.00     0.010 A 
ATOM     43  C   UNL     1      12.070   0.508  -0.577  1.00  0.00    -0.014 A 
BRANCH  43  44
ATOM     44  C   UNL     1      12.694   1.130  -1.771  1.00  0.00     0.031 A 
ATOM     45  C   UNL     1      13.312   2.495  -1.660  1.00  0.00     0.074 A 
ATOM     46  C   UNL     1      12.608   0.520  -2.969  1.00  0.00     0.049 A 
ATOM     47  N   UNL     1      13.772   3.276  -2.603  1.00  0.00    -0.248 NA
ATOM     48  C   UNL     1      13.388   3.074  -0.309  1.00  0.00     0.031 C 
ATOM     49  C   UNL     1      11.992  -0.785  -3.211  1.00  0.00     0.029 A 
ATOM     50  N   UNL     1      13.012   0.933  -4.215  1.00  0.00    -0.354 N 
ATOM     51  C   UNL     1      14.164   4.446  -1.965  1.00  0.00     0.074 A 
ATOM     52  C   UNL     1      13.838   4.293  -0.564  1.00  0.00     0.031 C 
ATOM     53  C   UNL     1      12.055  -1.065  -4.522  1.00  0.00     0.029 A 
ATOM     54  C   UNL     1      12.671   0.060  -5.221  1.00  0.00     0.049 A 
ATOM     55  H   UNL     1      13.499   1.774  -4.373  1.00  0.00     0.167 HD
ATOM     56  C   UNL     1      14.757   5.541  -2.496  1.00  0.00     0.037 A 
ATOM     57  C   UNL     1      12.810   0.163  -6.558  1.00  0.00     0.037 A 
ATOM     58  C   UNL     1      15.088   5.673  -3.891  1.00  0.00     0.049 A 
ATOM     59  C   UNL     1      13.466   1.387  -7.136  1.00  0.00     0.074 A 
ATOM     60  C   UNL     1      15.751   6.710  -4.522  1.00  0.00     0.029 A 
ATOM     61  N   UNL     1      14.767   4.746  -4.873  1.00  0.00    -0.354 N 
ATOM     62  N   UNL     1      13.900   2.457  -6.512  1.00  0.00    -0.248 NA
ATOM     63  C   UNL     1      13.658   1.421  -8.592  1.00  0.00     0.031 C 
ATOM     64  C   UNL     1      15.774   6.440  -5.894  1.00  0.00     0.029 A 
ATOM     65  C   UNL     1      15.189   5.201  -6.110  1.00  0.00     0.049 A 
ATOM     66  H   UNL     1      14.306   3.890  -4.713  1.00  0.00     0.167 HD
ATOM     67  C   UNL     1      14.444   3.278  -7.494  1.00  0.00     0.074 A 
ATOM     68  C   UNL     1      14.282   2.582  -8.754  1.00  0.00     0.031 C 
ATOM     69  C   UNL     1      15.031   4.493  -7.359  1.00  0.00     0.037 A 
BRANCH  56  70
ATOM     70  C   UNL     1      15.058   6.687  -1.567  1.00  0.00     0.058 A 
ATOM     71  C   UNL     1      16.004   6.580  -0.533  1.00  0.00     0.135 A 
ATOM     72  C   UNL     1      14.379   7.909  -1.703  1.00  0.00     0.135 A 
ATOM     73  F   UNL     1      16.678   5.434  -0.348  1.00  0.00    -0.206 F 
ATOM     74  C   UNL     1      16.221   7.619   0.366  1.00  0.00     0.059 A 
ATOM     75  C   UNL     1      14.607   8.975  -0.838  1.00  0.00     0.059 A 
ATOM     76  F   UNL     1      13.468   8.073  -2.676  1.00  0.00    -0.206 F 
ATOM     77  C   UNL     1      15.510   8.810   0.211  1.00  0.00     0.060 A 
BRANCH  77  78
ATOM     78  S   UNL     1      15.766  10.130   1.414  1.00  0.00     0.124 S 
ATOM     79  O   UNL     1      15.085   9.589   2.586  1.00  0.00    -0.237 OA
ATOM     80  O   UNL     1      17.222  10.195   1.501  1.00  0.00    -0.237 OA
ATOM     81  O   UNL     1      15.126  11.285   0.794  1.00  0.00    -0.744 OA
ENDBRANCH  77  78
ENDBRANCH  56  70
BRANCH  57  82
ATOM     82  C   UNL     1      12.313  -0.937  -7.426  1.00  0.00     0.058 A 
ATOM     83  C   UNL     1      13.199  -1.812  -8.069  1.00  0.00     0.135 A 
ATOM     84  C   UNL     1      10.937  -1.181  -7.566  1.00  0.00     0.135 A 
ATOM     85  F   UNL     1      14.523  -1.616  -7.974  1.00  0.00    -0.206 F 
ATOM     86  C   UNL     1      12.741  -2.896  -8.813  1.00  0.00     0.059 A 
ATOM     87  C   UNL     1      10.455  -2.272  -8.283  1.00  0.00     0.059 A 
ATOM     88  F   UNL     1      10.047  -0.382  -6.956  1.00  0.00    -0.206 F 
ATOM     89  C   UNL     1      11.367  -3.125  -8.903  1.00  0.00     0.060 A 
BRANCH  89  90
ATOM     90  S   UNL     1      10.789  -4.591  -9.785  1.00  0.00     0.124 S 
ATOM     91  O   UNL     1      11.083  -4.238 -11.169  1.00  0.00    -0.237 OA
ATOM     92  O   UNL     1      11.618  -5.642  -9.203  1.00  0.00    -0.237 OA
ATOM     93  O   UNL     1       9.373  -4.656  -9.437  1.00  0.00    -0.744 OA
ENDBRANCH  89  90
ENDBRANCH  57  82
BRANCH  69  94
ATOM     94  C   UNL     1      15.592   5.149  -8.591  1.00  0.00     0.058 A 
ATOM     95  C   UNL     1      14.767   5.739  -9.560  1.00  0.00     0.135 A 
ATOM     96  C   UNL     1      16.983   5.291  -8.738  1.00  0.00     0.135 A 
ATOM     97  F   UNL     1      13.433   5.623  -9.473  1.00  0.00    -0.206 F 
ATOM     98  C   UNL     1      15.301   6.453 -10.629  1.00  0.00     0.059 A 
ATOM     99  C   UNL     1      17.536   6.024  -9.782  1.00  0.00     0.059 A 
ATOM    100  F   UNL     1      17.817   4.751  -7.835  1.00  0.00    -0.206 F 
ATOM    101  C   UNL     1      16.686   6.603 -10.723  1.00  0.00     0.060 A 
BRANCH 101 102
ATOM    102  S   UNL     1      17.359   7.609 -12.063  1.00  0.00     0.124 S 
ATOM    103  O   UNL     1      17.116   6.757 -13.222  1.00  0.00    -0.237 OA
ATOM    104  O   UNL     1      16.545   8.818 -11.982  1.00  0.00    -0.237 OA
ATOM    105  O   UNL     1      18.761   7.778 -11.692  1.00  0.00    -0.744 OA
ENDBRANCH 101 102
ENDBRANCH  69  94
ENDBRANCH  43  44
ENDBRANCH  35  38
ENDBRANCH  33  34
ENDBRANCH  32  33
ENDBRANCH  31  32
ENDBRANCH  30  31
ENDBRANCH   1  30
TORSDOF 21
