REMARK SMILES CS(=O)(=O)c1cc(F)ccc1N1CCC[C@@H](C(=O)NCCCCCCNC(=O)c2ccc(-c3c4nc(c(-c5c(F)cc(S(=O)(=O)[O-])cc5F)c5ccc([nH]5)c(-c5c(F)cc(S(=O)(=O)[O-])cc5F)c5nc(c(-c6c(F)cc(S(=O)(=O)[O-])cc6F)c6ccc3[nH]6)C=C5)C=C4)cc2)C1
REMARK SMILES IDX 23 1 22 2 21 3 20 4 19 5 17 6 18 7 16 9 12 10 13 11 95 12
REMARK SMILES IDX 14 13 15 14 11 15 5 16 6 17 7 18 10 19 8 20 9 21 2 22 1 23
REMARK SMILES IDX 3 24 4 25 24 26 25 27 26 28 27 29 28 31 29 32 30 33 94 34
REMARK SMILES IDX 31 35 93 36 32 37 33 38 34 39 87 40 35 41 92 42 86 43 88 44
REMARK SMILES IDX 36 45 91 46 85 47 84 48 37 50 71 51 50 52 70 53 51 54 54 55
REMARK SMILES IDX 69 56 89 57 52 58 53 59 68 61 90 62 55 63 38 64 39 65 48 66
REMARK SMILES IDX 40 67 41 68 47 69 49 70 42 71 43 72 44 73 45 74 46 75 72 76
REMARK SMILES IDX 73 77 82 78 74 79 75 80 81 81 83 82 76 83 77 84 78 85 79 86
REMARK SMILES IDX 80 87 56 88 57 89 66 90 58 91 59 92 65 93 67 94 60 95 61 96
REMARK SMILES IDX 62 97 63 98 64 99
REMARK H PARENT 19 8 26 30 88 49 54 60
REMARK Flexibility Score: inf
ROOT
ATOM      1  C   UNL     1       9.792   0.251  -0.981  1.00  0.00     0.002 C 
ENDROOT
BRANCH   1   2
ATOM      2  C   UNL     1       9.452  -0.218   0.438  1.00  0.00     0.002 C 
BRANCH   2   3
ATOM      3  C   UNL     1       8.534   0.722   1.234  1.00  0.00     0.021 C 
BRANCH   3   4
ATOM      4  C   UNL     1       7.197   1.020   0.553  1.00  0.00     0.116 C 
BRANCH   4   5
ATOM      5  N   UNL     1       6.415  -0.196   0.436  1.00  0.00    -0.356 N 
ATOM      6  C   UNL     1       5.288  -0.578   1.088  1.00  0.00     0.224 C 
ATOM      7  O   UNL     1       4.949  -1.761   1.008  1.00  0.00    -0.275 OA
ATOM      8  H   UNL     1       6.755  -0.846  -0.221  1.00  0.00     0.163 HD
BRANCH   6   9
ATOM      9  C   UNL     1       4.414   0.451   1.782  1.00  0.00     0.098 C 
ATOM     10  N   UNL     1       2.115   1.391   1.478  1.00  0.00    -0.370 N 
ATOM     11  C   UNL     1       1.724   1.041   2.848  1.00  0.00     0.116 C 
ATOM     12  C   UNL     1       3.218   0.656   0.849  1.00  0.00     0.130 C 
ATOM     13  C   UNL     1       2.940   0.886   3.758  1.00  0.00     0.022 C 
ATOM     14  C   UNL     1       3.962  -0.068   3.150  1.00  0.00     0.017 C 
BRANCH  10  15
ATOM     15  C   UNL     1       1.704   2.597   0.938  1.00  0.00     0.056 A 
ATOM     16  C   UNL     1       0.887   2.748  -0.197  1.00  0.00     0.093 A 
ATOM     17  C   UNL     1       0.533   4.034  -0.661  1.00  0.00     0.061 A 
ATOM     18  C   UNL     1       0.972   5.167  -0.000  1.00  0.00     0.124 A 
ATOM     19  C   UNL     1       2.135   3.785   1.576  1.00  0.00     0.030 A 
ATOM     20  F   UNL     1       0.605   6.377  -0.441  1.00  0.00    -0.207 F 
ATOM     21  C   UNL     1       1.772   5.056   1.119  1.00  0.00     0.041 A 
BRANCH  16  22
ATOM     22  S   UNL     1       0.106   1.458  -1.136  1.00  0.00     0.177 S 
ATOM     23  C   UNL     1       0.371  -0.143  -0.472  1.00  0.00     0.164 C 
ATOM     24  O   UNL     1       0.737   1.478  -2.445  1.00  0.00    -0.224 OA
ATOM     25  O   UNL     1      -1.323   1.703  -1.016  1.00  0.00    -0.224 OA
ENDBRANCH  16  22
ENDBRANCH  10  15
ENDBRANCH   6   9
ENDBRANCH   4   5
ENDBRANCH   3   4
ENDBRANCH   2   3
ENDBRANCH   1   2
BRANCH   1  26
ATOM     26  C   UNL     1      10.393   1.655  -1.073  1.00  0.00     0.021 C 
BRANCH  26  27
ATOM     27  C   UNL     1      11.669   1.859  -0.264  1.00  0.00     0.116 C 
BRANCH  27  28
ATOM     28  N   UNL     1      12.761   1.023  -0.736  1.00  0.00    -0.352 N 
ATOM     29  C   UNL     1      14.052   1.377  -1.037  1.00  0.00     0.251 C 
ATOM     30  H   UNL     1      12.543   0.070  -0.856  1.00  0.00     0.163 HD
ATOM     31  O   UNL     1      14.796   0.571  -1.590  1.00  0.00    -0.269 OA
BRANCH  29  32
ATOM     32  C   UNL     1      14.537   2.737  -0.715  1.00  0.00     0.039 A 
ATOM     33  C   UNL     1      15.260   3.442  -1.680  1.00  0.00     0.014 A 
ATOM     34  C   UNL     1      14.280   3.315   0.532  1.00  0.00     0.014 A 
ATOM     35  C   UNL     1      15.675   4.750  -1.415  1.00  0.00     0.010 A 
ATOM     36  C   UNL     1      14.636   4.640   0.769  1.00  0.00     0.010 A 
ATOM     37  C   UNL     1      15.338   5.370  -0.201  1.00  0.00    -0.014 A 
BRANCH  37  38
ATOM     38  C   UNL     1      15.710   6.783   0.070  1.00  0.00     0.031 A 
ATOM     39  C   UNL     1      16.671   7.113   1.179  1.00  0.00     0.074 A 
ATOM     40  C   UNL     1      15.142   7.772  -0.647  1.00  0.00     0.049 A 
ATOM     41  N   UNL     1      17.062   8.284   1.610  1.00  0.00    -0.248 NA
ATOM     42  C   UNL     1      17.251   5.978   1.917  1.00  0.00     0.031 C 
ATOM     43  C   UNL     1      14.169   7.581  -1.725  1.00  0.00     0.029 A 
ATOM     44  N   UNL     1      15.294   9.134  -0.577  1.00  0.00    -0.354 N 
ATOM     45  C   UNL     1      17.925   8.030   2.670  1.00  0.00     0.074 A 
ATOM     46  C   UNL     1      17.958   6.595   2.852  1.00  0.00     0.031 C 
ATOM     47  C   UNL     1      13.836   8.778  -2.234  1.00  0.00     0.029 A 
ATOM     48  C   UNL     1      14.539   9.823  -1.495  1.00  0.00     0.049 A 
ATOM     49  H   UNL     1      15.890   9.576   0.071  1.00  0.00     0.167 HD
ATOM     50  C   UNL     1      18.643   8.911   3.406  1.00  0.00     0.037 A 
ATOM     51  C   UNL     1      14.421  11.147  -1.717  1.00  0.00     0.037 A 
ATOM     52  C   UNL     1      18.625  10.336   3.203  1.00  0.00     0.049 A 
ATOM     53  C   UNL     1      15.217  12.108  -0.879  1.00  0.00     0.074 A 
ATOM     54  C   UNL     1      19.352  11.307   3.870  1.00  0.00     0.029 A 
ATOM     55  N   UNL     1      17.846  10.995   2.263  1.00  0.00    -0.354 N 
ATOM     56  N   UNL     1      16.056  11.847   0.096  1.00  0.00    -0.248 NA
ATOM     57  C   UNL     1      15.055  13.539  -1.167  1.00  0.00     0.031 C 
ATOM     58  C   UNL     1      18.983  12.556   3.360  1.00  0.00     0.029 A 
ATOM     59  C   UNL     1      18.061  12.361   2.344  1.00  0.00     0.049 A 
ATOM     60  H   UNL     1      17.231  10.556   1.632  1.00  0.00     0.167 HD
ATOM     61  C   UNL     1      16.537  13.080   0.523  1.00  0.00     0.074 A 
ATOM     62  C   UNL     1      15.903  14.085  -0.305  1.00  0.00     0.031 C 
ATOM     63  C   UNL     1      17.424  13.351   1.512  1.00  0.00     0.037 A 
BRANCH  50  64
ATOM     64  C   UNL     1      19.522   8.359   4.495  1.00  0.00     0.058 A 
ATOM     65  C   UNL     1      19.216   8.583   5.846  1.00  0.00     0.135 A 
ATOM     66  C   UNL     1      20.696   7.647   4.199  1.00  0.00     0.135 A 
ATOM     67  F   UNL     1      18.103   9.252   6.187  1.00  0.00    -0.206 F 
ATOM     68  C   UNL     1      20.047   8.129   6.865  1.00  0.00     0.059 A 
ATOM     69  C   UNL     1      21.528   7.161   5.202  1.00  0.00     0.059 A 
ATOM     70  F   UNL     1      21.024   7.387   2.923  1.00  0.00    -0.206 F 
ATOM     71  C   UNL     1      21.201   7.418   6.533  1.00  0.00     0.060 A 
BRANCH  71  72
ATOM     72  S   UNL     1      22.246   6.795   7.868  1.00  0.00     0.124 S 
ATOM     73  O   UNL     1      22.853   8.021   8.371  1.00  0.00    -0.237 OA
ATOM     74  O   UNL     1      21.270   6.159   8.748  1.00  0.00    -0.237 OA
ATOM     75  O   UNL     1      23.152   5.876   7.186  1.00  0.00    -0.744 OA
ENDBRANCH  71  72
ENDBRANCH  50  64
BRANCH  51  76
ATOM     76  C   UNL     1      13.537  11.630  -2.811  1.00  0.00     0.058 A 
ATOM     77  C   UNL     1      12.140  11.537  -2.717  1.00  0.00     0.135 A 
ATOM     78  C   UNL     1      14.081  12.147  -3.996  1.00  0.00     0.135 A 
ATOM     79  F   UNL     1      11.571  11.040  -1.608  1.00  0.00    -0.206 F 
ATOM     80  C   UNL     1      11.314  11.908  -3.773  1.00  0.00     0.059 A 
ATOM     81  C   UNL     1      13.274  12.547  -5.057  1.00  0.00     0.059 A 
ATOM     82  F   UNL     1      15.411  12.267  -4.125  1.00  0.00    -0.206 F 
ATOM     83  C   UNL     1      11.892  12.405  -4.942  1.00  0.00     0.060 A 
BRANCH  83  84
ATOM     84  S   UNL     1      10.805  12.847  -6.314  1.00  0.00     0.124 S 
ATOM     85  O   UNL     1      10.325  11.536  -6.738  1.00  0.00    -0.237 OA
ATOM     86  O   UNL     1       9.821  13.703  -5.660  1.00  0.00    -0.237 OA
ATOM     87  O   UNL     1      11.698  13.523  -7.250  1.00  0.00    -0.744 OA
ENDBRANCH  83  84
ENDBRANCH  51  76
BRANCH  63  88
ATOM     88  C   UNL     1      17.783  14.791   1.753  1.00  0.00     0.058 A 
ATOM     89  C   UNL     1      19.059  15.271   1.418  1.00  0.00     0.135 A 
ATOM     90  C   UNL     1      16.898  15.670   2.395  1.00  0.00     0.135 A 
ATOM     91  F   UNL     1      19.945  14.470   0.806  1.00  0.00    -0.206 F 
ATOM     92  C   UNL     1      19.453  16.567   1.731  1.00  0.00     0.059 A 
ATOM     93  C   UNL     1      17.262  16.979   2.696  1.00  0.00     0.059 A 
ATOM     94  F   UNL     1      15.662  15.262   2.726  1.00  0.00    -0.206 F 
ATOM     95  C   UNL     1      18.549  17.412   2.377  1.00  0.00     0.060 A 
BRANCH  95  96
ATOM     96  S   UNL     1      19.077  19.092   2.777  1.00  0.00     0.124 S 
ATOM     97  O   UNL     1      20.025  18.856   3.861  1.00  0.00    -0.237 OA
ATOM     98  O   UNL     1      19.654  19.544   1.515  1.00  0.00    -0.237 OA
ATOM     99  O   UNL     1      17.834  19.755   3.163  1.00  0.00    -0.744 OA
ENDBRANCH  95  96
ENDBRANCH  63  88
ENDBRANCH  37  38
ENDBRANCH  29  32
ENDBRANCH  27  28
ENDBRANCH  26  27
ENDBRANCH   1  26
TORSDOF 18
