REMARK SMILES CC[NH2+]CCC(=O)NC1(CC(=O)NCCCCCCNC(=O)c2ccc(-c3c4nc(c(-c5c(F)cc(S(=O)(=O)[O-])cc5F)c5ccc([nH]5)c(-c5c(F)cc(S(=O)(=O)[O-])cc5F)c5nc(c(-c6c(F)cc(S(=O)(=O)[O-])cc6F)c6ccc3[nH]6)C=C5)C=C4)cc2)CCC1
REMARK SMILES IDX 15 1 14 2 13 3 11 4 12 5 10 7 9 8 89 9 91 10 90 11 8 12 6 13
REMARK SMILES IDX 7 14 5 16 4 17 3 18 2 21 1 22 16 23 17 24 18 25 19 26 20 27
REMARK SMILES IDX 21 28 22 30 23 31 24 32 88 33 25 34 87 35 26 36 27 37 28 38
REMARK SMILES IDX 81 39 29 40 86 41 80 42 82 43 30 44 85 45 79 46 78 47 31 49
REMARK SMILES IDX 65 50 44 51 64 52 45 53 48 54 63 55 83 56 46 57 47 58 62 60
REMARK SMILES IDX 84 61 49 62 32 63 33 64 42 65 34 66 35 67 41 68 43 69 36 70
REMARK SMILES IDX 37 71 38 72 39 73 40 74 66 75 67 76 76 77 68 78 69 79 75 80
REMARK SMILES IDX 77 81 70 82 71 83 72 84 73 85 74 86 50 87 51 88 60 89 52 90
REMARK SMILES IDX 53 91 59 92 61 93 54 94 55 95 56 96 57 97 58 98
REMARK H PARENT 13 6 8 15 3 19 3 20 20 29 82 48 48 59
REMARK Flexibility Score: inf
ROOT
ATOM      1  C   UNL     1       5.173   2.671   1.178  1.00  0.00     0.021 C 
ENDROOT
BRANCH   1   2
ATOM      2  C   UNL     1       5.340   1.592   0.106  1.00  0.00     0.116 C 
BRANCH   2   3
ATOM      3  N   UNL     1       6.108   0.491   0.656  1.00  0.00    -0.356 N 
ATOM      4  C   UNL     1       5.645  -0.684   1.172  1.00  0.00     0.222 C 
ATOM      5  O   UNL     1       6.364  -1.329   1.935  1.00  0.00    -0.275 OA
ATOM      6  H   UNL     1       7.086   0.606   0.657  1.00  0.00     0.163 HD
BRANCH   4   7
ATOM      7  C   UNL     1       4.309  -1.215   0.727  1.00  0.00     0.128 C 
BRANCH   7   8
ATOM      8  C   UNL     1       3.069  -0.956   1.608  1.00  0.00     0.049 C 
ATOM      9  C   UNL     1       1.850  -1.267   0.708  1.00  0.00     0.029 C 
ATOM     10  C   UNL     1       2.491   0.480   1.759  1.00  0.00     0.029 C 
ATOM     11  C   UNL     1       1.702   0.256   0.465  1.00  0.00     0.005 C 
BRANCH   8  12
ATOM     12  N   UNL     1       3.217  -1.603   2.937  1.00  0.00    -0.350 N 
ATOM     13  C   UNL     1       2.344  -1.943   3.933  1.00  0.00     0.226 C 
ATOM     14  O   UNL     1       2.828  -2.127   5.057  1.00  0.00    -0.275 OA
ATOM     15  H   UNL     1       4.149  -1.839   3.148  1.00  0.00     0.164 HD
BRANCH  13  16
ATOM     16  C   UNL     1       0.859  -2.182   3.721  1.00  0.00     0.161 C 
BRANCH  16  17
ATOM     17  C   UNL     1      -0.064  -0.965   3.863  1.00  0.00     0.270 C 
BRANCH  17  18
ATOM     18  N   UNL     1      -0.584  -0.421   2.603  1.00  0.00    -0.346 N 
ATOM     19  H   UNL     1      -1.008   0.486   2.800  1.00  0.00     0.346 HD
ATOM     20  H   UNL     1       0.210  -0.365   1.966  1.00  0.00     0.346 HD
BRANCH  18  21
ATOM     21  C   UNL     1      -1.586  -1.255   1.939  1.00  0.00     0.257 C 
ATOM     22  C   UNL     1      -1.738  -0.824   0.482  1.00  0.00     0.071 C 
ENDBRANCH  18  21
ENDBRANCH  17  18
ENDBRANCH  16  17
ENDBRANCH  13  16
ENDBRANCH   8  12
ENDBRANCH   7   8
ENDBRANCH   4   7
ENDBRANCH   2   3
ENDBRANCH   1   2
BRANCH   1  23
ATOM     23  C   UNL     1       6.295   3.704   1.180  1.00  0.00     0.002 C 
BRANCH  23  24
ATOM     24  C   UNL     1       6.274   4.643  -0.029  1.00  0.00     0.002 C 
BRANCH  24  25
ATOM     25  C   UNL     1       4.952   5.385  -0.259  1.00  0.00     0.021 C 
BRANCH  25  26
ATOM     26  C   UNL     1       4.416   6.133   0.961  1.00  0.00     0.116 C 
BRANCH  26  27
ATOM     27  N   UNL     1       5.395   7.072   1.484  1.00  0.00    -0.352 N 
ATOM     28  C   UNL     1       5.380   8.443   1.483  1.00  0.00     0.251 C 
ATOM     29  H   UNL     1       6.186   6.662   1.903  1.00  0.00     0.163 HD
ATOM     30  O   UNL     1       6.412   9.064   1.712  1.00  0.00    -0.269 OA
BRANCH  28  31
ATOM     31  C   UNL     1       4.122   9.164   1.204  1.00  0.00     0.039 A 
ATOM     32  C   UNL     1       4.152  10.271   0.353  1.00  0.00     0.014 A 
ATOM     33  C   UNL     1       2.925   8.772   1.811  1.00  0.00     0.014 A 
ATOM     34  C   UNL     1       2.970  10.959   0.074  1.00  0.00     0.010 A 
ATOM     35  C   UNL     1       1.737   9.417   1.479  1.00  0.00     0.010 A 
ATOM     36  C   UNL     1       1.749  10.522   0.615  1.00  0.00    -0.014 A 
BRANCH  36  37
ATOM     37  C   UNL     1       0.475  11.210   0.290  1.00  0.00     0.031 A 
ATOM     38  C   UNL     1      -0.296  11.921   1.367  1.00  0.00     0.074 A 
ATOM     39  C   UNL     1      -0.014  11.140  -0.963  1.00  0.00     0.049 A 
ATOM     40  N   UNL     1      -1.451  12.531   1.290  1.00  0.00    -0.248 NA
ATOM     41  C   UNL     1       0.295  11.925   2.715  1.00  0.00     0.031 C 
ATOM     42  C   UNL     1       0.623  10.441  -2.081  1.00  0.00     0.029 A 
ATOM     43  N   UNL     1      -1.163  11.656  -1.506  1.00  0.00    -0.354 N 
ATOM     44  C   UNL     1      -1.734  12.974   2.577  1.00  0.00     0.074 A 
ATOM     45  C   UNL     1      -0.652  12.521   3.425  1.00  0.00     0.031 C 
ATOM     46  C   UNL     1      -0.131  10.592  -3.181  1.00  0.00     0.029 A 
ATOM     47  C   UNL     1      -1.321  11.366  -2.840  1.00  0.00     0.049 A 
ATOM     48  H   UNL     1      -1.814  12.183  -0.989  1.00  0.00     0.167 HD
ATOM     49  C   UNL     1      -2.788  13.707   3.007  1.00  0.00     0.037 A 
ATOM     50  C   UNL     1      -2.314  11.685  -3.692  1.00  0.00     0.037 A 
ATOM     51  C   UNL     1      -3.846  14.175   2.150  1.00  0.00     0.049 A 
ATOM     52  C   UNL     1      -3.473  12.502  -3.193  1.00  0.00     0.074 A 
ATOM     53  C   UNL     1      -4.922  14.983   2.473  1.00  0.00     0.029 A 
ATOM     54  N   UNL     1      -3.966  13.871   0.801  1.00  0.00    -0.354 N 
ATOM     55  N   UNL     1      -3.691  12.972  -1.987  1.00  0.00    -0.248 NA
ATOM     56  C   UNL     1      -4.519  12.837  -4.168  1.00  0.00     0.031 C 
ATOM     57  C   UNL     1      -5.716  15.131   1.330  1.00  0.00     0.029 A 
ATOM     58  C   UNL     1      -5.110  14.455   0.283  1.00  0.00     0.049 A 
ATOM     59  H   UNL     1      -3.330  13.322   0.288  1.00  0.00     0.167 HD
ATOM     60  C   UNL     1      -4.886  13.679  -2.065  1.00  0.00     0.074 A 
ATOM     61  C   UNL     1      -5.338  13.583  -3.438  1.00  0.00     0.031 C 
ATOM     62  C   UNL     1      -5.546  14.349  -1.088  1.00  0.00     0.037 A 
BRANCH  49  63
ATOM     63  C   UNL     1      -2.849  14.043   4.473  1.00  0.00     0.058 A 
ATOM     64  C   UNL     1      -1.950  14.946   5.064  1.00  0.00     0.135 A 
ATOM     65  C   UNL     1      -3.831  13.466   5.296  1.00  0.00     0.135 A 
ATOM     66  F   UNL     1      -0.984  15.516   4.328  1.00  0.00    -0.206 F 
ATOM     67  C   UNL     1      -1.997  15.235   6.424  1.00  0.00     0.059 A 
ATOM     68  C   UNL     1      -3.915  13.764   6.653  1.00  0.00     0.059 A 
ATOM     69  F   UNL     1      -4.718  12.598   4.784  1.00  0.00    -0.206 F 
ATOM     70  C   UNL     1      -2.980  14.635   7.212  1.00  0.00     0.060 A 
BRANCH  70  71
ATOM     71  S   UNL     1      -3.019  15.008   8.977  1.00  0.00     0.124 S 
ATOM     72  O   UNL     1      -1.873  14.244   9.460  1.00  0.00    -0.237 OA
ATOM     73  O   UNL     1      -2.865  16.459   8.994  1.00  0.00    -0.237 OA
ATOM     74  O   UNL     1      -4.326  14.515   9.400  1.00  0.00    -0.744 OA
ENDBRANCH  70  71
ENDBRANCH  49  63
BRANCH  50  75
ATOM     75  C   UNL     1      -2.232  11.257  -5.113  1.00  0.00     0.058 A 
ATOM     76  C   UNL     1      -1.972  12.189  -6.129  1.00  0.00     0.135 A 
ATOM     77  C   UNL     1      -2.373   9.910  -5.481  1.00  0.00     0.135 A 
ATOM     78  F   UNL     1      -1.835  13.489  -5.827  1.00  0.00    -0.206 F 
ATOM     79  C   UNL     1      -1.861  11.803  -7.461  1.00  0.00     0.059 A 
ATOM     80  C   UNL     1      -2.243   9.496  -6.803  1.00  0.00     0.059 A 
ATOM     81  F   UNL     1      -2.605   8.978  -4.543  1.00  0.00    -0.206 F 
ATOM     82  C   UNL     1      -1.992  10.452  -7.787  1.00  0.00     0.060 A 
BRANCH  82  83
ATOM     83  S   UNL     1      -1.778   9.953  -9.509  1.00  0.00     0.124 S 
ATOM     84  O   UNL     1      -3.014  10.437 -10.112  1.00  0.00    -0.237 OA
ATOM     85  O   UNL     1      -0.560  10.665  -9.885  1.00  0.00    -0.237 OA
ATOM     86  O   UNL     1      -1.643   8.502  -9.423  1.00  0.00    -0.744 OA
ENDBRANCH  82  83
ENDBRANCH  50  75
BRANCH  62  87
ATOM     87  C   UNL     1      -6.816  15.055  -1.474  1.00  0.00     0.058 A 
ATOM     88  C   UNL     1      -8.000  14.350  -1.740  1.00  0.00     0.135 A 
ATOM     89  C   UNL     1      -6.862  16.458  -1.527  1.00  0.00     0.135 A 
ATOM     90  F   UNL     1      -8.008  13.008  -1.710  1.00  0.00    -0.206 F 
ATOM     91  C   UNL     1      -9.180  15.010  -2.068  1.00  0.00     0.059 A 
ATOM     92  C   UNL     1      -8.037  17.139  -1.826  1.00  0.00     0.059 A 
ATOM     93  F   UNL     1      -5.759  17.180  -1.271  1.00  0.00    -0.206 F 
ATOM     94  C   UNL     1      -9.189  16.405  -2.106  1.00  0.00     0.060 A 
BRANCH  94  95
ATOM     95  S   UNL     1     -10.735  17.251  -2.498  1.00  0.00     0.124 S 
ATOM     96  O   UNL     1     -10.838  17.023  -3.935  1.00  0.00    -0.237 OA
ATOM     97  O   UNL     1     -11.701  16.535  -1.671  1.00  0.00    -0.237 OA
ATOM     98  O   UNL     1     -10.478  18.631  -2.098  1.00  0.00    -0.744 OA
ENDBRANCH  94  95
ENDBRANCH  62  87
ENDBRANCH  36  37
ENDBRANCH  28  31
ENDBRANCH  26  27
ENDBRANCH  25  26
ENDBRANCH  24  25
ENDBRANCH  23  24
ENDBRANCH   1  23
TORSDOF 22
