REMARK SMILES Cn1nc(C(=O)N2C[C@@H](O)C[C@H]2C(=O)NCCCCCCNC(=O)c2ccc(-c3c4nc(c(-c5c(F)cc(S(=O)(=O)[O-])cc5F)c5ccc([nH]5)c(-c5c(F)cc(S(=O)(=O)[O-])cc5F)c5nc(c(-c6c(F)cc(S(=O)(=O)[O-])cc6F)c6ccc3[nH]6)C=C5)C=C4)cc2)ccc1=O
REMARK SMILES IDX 19 1 18 2 17 3 16 4 15 5 13 6 14 7 12 9 7 10 8 11 9 12 11 13
REMARK SMILES IDX 5 14 6 15 4 16 1 17 2 18 3 19 93 20 92 21 94 22 91 23 10 24
REMARK SMILES IDX 20 26 21 27 22 28 23 29 24 31 25 32 26 33 90 34 27 35 89 36
REMARK SMILES IDX 28 37 29 38 30 39 83 40 31 41 88 42 82 43 84 44 32 45 87 46
REMARK SMILES IDX 81 47 80 48 33 50 67 51 46 52 66 53 47 54 50 55 65 56 85 57
REMARK SMILES IDX 48 58 49 59 64 61 86 62 51 63 34 64 35 65 44 66 36 67 37 68
REMARK SMILES IDX 43 69 45 70 38 71 39 72 40 73 41 74 42 75 68 76 69 77 78 78
REMARK SMILES IDX 70 79 71 80 77 81 79 82 72 83 73 84 74 85 75 86 76 87 52 88
REMARK SMILES IDX 53 89 62 90 54 91 55 92 61 93 63 94 56 95 57 96 58 97 59 98
REMARK SMILES IDX 60 99
REMARK H PARENT 15 8 10 25 22 30 84 49 50 60
REMARK Flexibility Score: inf
ROOT
ATOM      1  C   UNL     1      -0.044  -7.043   8.399  1.00  0.00     0.002 C 
ENDROOT
BRANCH   1   2
ATOM      2  C   UNL     1      -0.404  -5.566   8.194  1.00  0.00     0.002 C 
BRANCH   2   3
ATOM      3  C   UNL     1       0.131  -4.934   6.904  1.00  0.00     0.021 C 
BRANCH   3   4
ATOM      4  C   UNL     1      -0.292  -5.663   5.637  1.00  0.00     0.116 C 
BRANCH   4   5
ATOM      5  N   UNL     1      -1.698  -5.489   5.351  1.00  0.00    -0.354 N 
ATOM      6  C   UNL     1      -2.316  -4.928   4.275  1.00  0.00     0.242 C 
ATOM      7  O   UNL     1      -3.538  -5.092   4.184  1.00  0.00    -0.273 OA
ATOM      8  H   UNL     1      -2.306  -5.830   6.045  1.00  0.00     0.163 HD
BRANCH   6   9
ATOM      9  C   UNL     1      -1.531  -4.278   3.119  1.00  0.00     0.177 C 
ATOM     10  N   UNL     1      -0.569  -3.226   3.452  1.00  0.00    -0.323 N 
ATOM     11  C   UNL     1       0.750  -3.511   2.904  1.00  0.00     0.152 C 
ATOM     12  C   UNL     1       0.505  -4.576   1.839  1.00  0.00     0.136 C 
ATOM     13  C   UNL     1      -0.745  -5.316   2.312  1.00  0.00     0.069 C 
BRANCH  10  14
ATOM     14  C   UNL     1      -1.092  -1.981   3.773  1.00  0.00     0.275 C 
ATOM     15  O   UNL     1      -2.118  -1.825   4.427  1.00  0.00    -0.267 OA
BRANCH  14  16
ATOM     16  C   UNL     1      -0.463  -0.741   3.146  1.00  0.00     0.149 A 
ATOM     17  C   UNL     1       1.000   0.175   0.006  1.00  0.00     0.178 C 
ATOM     18  N   UNL     1       0.451   0.324   1.340  1.00  0.00    -0.232 N 
ATOM     19  N   UNL     1      -0.047  -0.819   1.919  1.00  0.00    -0.165 NA
ATOM     20  C   UNL     1       0.480   1.565   1.963  1.00  0.00     0.266 A 
ATOM     21  C   UNL     1      -0.033   1.600   3.353  1.00  0.00     0.076 A 
ATOM     22  O   UNL     1       0.897   2.601   1.454  1.00  0.00    -0.268 OA
ATOM     23  C   UNL     1      -0.472   0.492   3.954  1.00  0.00     0.042 A 
ENDBRANCH  14  16
ENDBRANCH  10  14
BRANCH  12  24
ATOM     24  O   UNL     1       1.599  -5.466   1.694  1.00  0.00    -0.391 OA
ATOM     25  H   UNL     1       1.770  -5.908   2.541  1.00  0.00     0.211 HD
ENDBRANCH  12  24
ENDBRANCH   6   9
ENDBRANCH   4   5
ENDBRANCH   3   4
ENDBRANCH   2   3
ENDBRANCH   1   2
BRANCH   1  26
ATOM     26  C   UNL     1       1.444  -7.379   8.268  1.00  0.00     0.021 C 
BRANCH  26  27
ATOM     27  C   UNL     1       2.352  -6.614   9.224  1.00  0.00     0.116 C 
BRANCH  27  28
ATOM     28  N   UNL     1       2.088  -6.963  10.610  1.00  0.00    -0.352 N 
ATOM     29  C   UNL     1       2.948  -7.501  11.534  1.00  0.00     0.251 C 
ATOM     30  H   UNL     1       1.172  -6.790  10.928  1.00  0.00     0.163 HD
ATOM     31  O   UNL     1       2.523  -7.940  12.598  1.00  0.00    -0.269 OA
BRANCH  29  32
ATOM     32  C   UNL     1       4.391  -7.557  11.226  1.00  0.00     0.039 A 
ATOM     33  C   UNL     1       5.071  -8.768  11.362  1.00  0.00     0.014 A 
ATOM     34  C   UNL     1       5.063  -6.406  10.800  1.00  0.00     0.014 A 
ATOM     35  C   UNL     1       6.424  -8.838  11.028  1.00  0.00     0.010 A 
ATOM     36  C   UNL     1       6.400  -6.488  10.424  1.00  0.00     0.010 A 
ATOM     37  C   UNL     1       7.093  -7.702  10.543  1.00  0.00    -0.014 A 
BRANCH  37  38
ATOM     38  C   UNL     1       8.536  -7.753  10.206  1.00  0.00     0.031 A 
ATOM     39  C   UNL     1       9.525  -7.045  11.089  1.00  0.00     0.074 A 
ATOM     40  C   UNL     1       8.947  -8.404   9.101  1.00  0.00     0.049 A 
ATOM     41  N   UNL     1      10.818  -6.919  10.943  1.00  0.00    -0.248 NA
ATOM     42  C   UNL     1       8.987  -6.378  12.288  1.00  0.00     0.031 C 
ATOM     43  C   UNL     1       8.076  -9.115   8.162  1.00  0.00     0.029 A 
ATOM     44  N   UNL     1      10.204  -8.570   8.577  1.00  0.00    -0.354 N 
ATOM     45  C   UNL     1      11.249  -6.172  12.032  1.00  0.00     0.074 A 
ATOM     46  C   UNL     1      10.075  -5.821  12.800  1.00  0.00     0.031 C 
ATOM     47  C   UNL     1       8.828  -9.654   7.187  1.00  0.00     0.029 A 
ATOM     48  C   UNL     1      10.228  -9.304   7.414  1.00  0.00     0.049 A 
ATOM     49  H   UNL     1      11.014  -8.197   8.994  1.00  0.00     0.167 HD
ATOM     50  C   UNL     1      12.514  -5.836  12.376  1.00  0.00     0.037 A 
ATOM     51  C   UNL     1      11.262  -9.652   6.624  1.00  0.00     0.037 A 
ATOM     52  C   UNL     1      13.680  -6.202  11.618  1.00  0.00     0.049 A 
ATOM     53  C   UNL     1      12.654  -9.219   7.005  1.00  0.00     0.074 A 
ATOM     54  C   UNL     1      15.007  -5.923  11.896  1.00  0.00     0.029 A 
ATOM     55  N   UNL     1      13.661  -6.933  10.441  1.00  0.00    -0.354 N 
ATOM     56  N   UNL     1      13.046  -8.536   8.054  1.00  0.00    -0.248 NA
ATOM     57  C   UNL     1      13.744  -9.604   6.097  1.00  0.00     0.031 C 
ATOM     58  C   UNL     1      15.789  -6.460  10.869  1.00  0.00     0.029 A 
ATOM     59  C   UNL     1      14.952  -7.106   9.973  1.00  0.00     0.049 A 
ATOM     60  H   UNL     1      12.850  -7.279  10.003  1.00  0.00     0.167 HD
ATOM     61  C   UNL     1      14.429  -8.437   7.947  1.00  0.00     0.074 A 
ATOM     62  C   UNL     1      14.807  -9.135   6.736  1.00  0.00     0.031 C 
ATOM     63  C   UNL     1      15.308  -7.821   8.775  1.00  0.00     0.037 A 
BRANCH  50  64
ATOM     64  C   UNL     1      12.712  -5.059  13.645  1.00  0.00     0.058 A 
ATOM     65  C   UNL     1      12.583  -5.675  14.899  1.00  0.00     0.135 A 
ATOM     66  C   UNL     1      13.114  -3.714  13.611  1.00  0.00     0.135 A 
ATOM     67  F   UNL     1      12.181  -6.953  14.986  1.00  0.00    -0.206 F 
ATOM     68  C   UNL     1      12.845  -4.986  16.077  1.00  0.00     0.059 A 
ATOM     69  C   UNL     1      13.402  -3.011  14.777  1.00  0.00     0.059 A 
ATOM     70  F   UNL     1      13.243  -3.077  12.436  1.00  0.00    -0.206 F 
ATOM     71  C   UNL     1      13.264  -3.656  16.005  1.00  0.00     0.060 A 
BRANCH  71  72
ATOM     72  S   UNL     1      13.649  -2.795  17.544  1.00  0.00     0.124 S 
ATOM     73  O   UNL     1      12.322  -2.640  18.132  1.00  0.00    -0.237 OA
ATOM     74  O   UNL     1      14.534  -3.742  18.215  1.00  0.00    -0.237 OA
ATOM     75  O   UNL     1      14.283  -1.560  17.094  1.00  0.00    -0.744 OA
ENDBRANCH  71  72
ENDBRANCH  50  64
BRANCH  51  76
ATOM     76  C   UNL     1      11.038 -10.467   5.401  1.00  0.00     0.058 A 
ATOM     77  C   UNL     1      11.487 -11.795   5.332  1.00  0.00     0.135 A 
ATOM     78  C   UNL     1      10.400  -9.933   4.271  1.00  0.00     0.135 A 
ATOM     79  F   UNL     1      12.108 -12.348   6.385  1.00  0.00    -0.206 F 
ATOM     80  C   UNL     1      11.340 -12.555   4.176  1.00  0.00     0.059 A 
ATOM     81  C   UNL     1      10.220 -10.681   3.112  1.00  0.00     0.059 A 
ATOM     82  F   UNL     1       9.938  -8.673   4.292  1.00  0.00    -0.206 F 
ATOM     83  C   UNL     1      10.709 -11.987   3.069  1.00  0.00     0.060 A 
BRANCH  83  84
ATOM     84  S   UNL     1      10.511 -12.986   1.578  1.00  0.00     0.124 S 
ATOM     85  O   UNL     1      11.875 -13.015   1.062  1.00  0.00    -0.237 OA
ATOM     86  O   UNL     1      10.004 -14.244   2.118  1.00  0.00    -0.237 OA
ATOM     87  O   UNL     1       9.552 -12.221   0.787  1.00  0.00    -0.744 OA
ENDBRANCH  83  84
ENDBRANCH  51  76
BRANCH  63  88
ATOM     88  C   UNL     1      16.767  -7.898   8.424  1.00  0.00     0.058 A 
ATOM     89  C   UNL     1      17.313  -7.125   7.389  1.00  0.00     0.135 A 
ATOM     90  C   UNL     1      17.640  -8.692   9.185  1.00  0.00     0.135 A 
ATOM     91  F   UNL     1      16.518  -6.354   6.630  1.00  0.00    -0.206 F 
ATOM     92  C   UNL     1      18.675  -7.144   7.112  1.00  0.00     0.059 A 
ATOM     93  C   UNL     1      19.009  -8.709   8.941  1.00  0.00     0.059 A 
ATOM     94  F   UNL     1      17.167  -9.442  10.193  1.00  0.00    -0.206 F 
ATOM     95  C   UNL     1      19.516  -7.935   7.898  1.00  0.00     0.060 A 
BRANCH  95  96
ATOM     96  S   UNL     1      21.289  -7.907   7.560  1.00  0.00     0.124 S 
ATOM     97  O   UNL     1      21.365  -8.671   6.319  1.00  0.00    -0.237 OA
ATOM     98  O   UNL     1      21.562  -6.478   7.442  1.00  0.00    -0.237 OA
ATOM     99  O   UNL     1      21.870  -8.555   8.733  1.00  0.00    -0.744 OA
ENDBRANCH  95  96
ENDBRANCH  63  88
ENDBRANCH  37  38
ENDBRANCH  29  32
ENDBRANCH  27  28
ENDBRANCH  26  27
ENDBRANCH   1  26
TORSDOF 19
