REMARK SMILES CS(=O)(=O)N1C[C@@H]2CN(C(=O)c3ccco3)C[C@]2(C(=O)NCCCCCCNC(=O)c2ccc(-c3c4nc(c(-c5c(F)cc(S(=O)(=O)[O-])cc5F)c5ccc([nH]5)c(-c5c(F)cc(S(=O)(=O)[O-])cc5F)c5nc(c(-c6c(F)cc(S(=O)(=O)[O-])cc6F)c6ccc3[nH]6)C=C5)C=C4)cc2)C1
REMARK SMILES IDX 25 1 24 2 23 3 22 4 21 5 19 6 20 7 18 9 5 10 6 11 97 12 7 13
REMARK SMILES IDX 8 14 17 15 9 16 2 17 1 18 3 19 4 20 10 21 11 22 12 23 13 24
REMARK SMILES IDX 16 25 14 26 15 27 26 28 27 29 28 30 29 31 30 33 31 34 32 35
REMARK SMILES IDX 96 36 33 37 95 38 34 39 35 40 36 41 89 42 37 43 94 44 88 45
REMARK SMILES IDX 90 46 38 47 93 48 87 49 86 50 39 52 73 53 52 54 72 55 53 56
REMARK SMILES IDX 56 57 71 58 91 59 54 60 55 61 70 63 92 64 57 65 40 66 41 67
REMARK SMILES IDX 50 68 42 69 43 70 49 71 51 72 44 73 45 74 46 75 47 76 48 77
REMARK SMILES IDX 74 78 75 79 84 80 76 81 77 82 83 83 85 84 78 85 79 86 80 87
REMARK SMILES IDX 81 88 82 89 58 90 59 91 68 92 60 93 61 94 67 95 69 96 62 97
REMARK SMILES IDX 63 98 64 99 65 100 66 101
REMARK H PARENT 21 8 28 32 90 51 56 62
REMARK Flexibility Score: inf
ROOT
ATOM      1  C   UNL     1       5.798   7.756  -2.441  1.00  0.00     0.002 C 
ENDROOT
BRANCH   1   2
ATOM      2  C   UNL     1       4.349   7.962  -1.991  1.00  0.00     0.002 C 
BRANCH   2   3
ATOM      3  C   UNL     1       3.315   7.173  -2.798  1.00  0.00     0.021 C 
BRANCH   3   4
ATOM      4  C   UNL     1       3.319   5.666  -2.536  1.00  0.00     0.116 C 
BRANCH   4   5
ATOM      5  N   UNL     1       2.539   5.381  -1.346  1.00  0.00    -0.356 N 
ATOM      6  C   UNL     1       1.228   4.979  -1.302  1.00  0.00     0.229 C 
ATOM      7  O   UNL     1       0.594   5.175  -0.263  1.00  0.00    -0.274 OA
ATOM      8  H   UNL     1       2.997   5.488  -0.482  1.00  0.00     0.163 HD
BRANCH   6   9
ATOM      9  C   UNL     1       0.667   4.265  -2.561  1.00  0.00     0.086 C 
ATOM     10  N   UNL     1       0.668   1.761  -2.416  1.00  0.00    -0.201 NA
ATOM     11  C   UNL     1       0.142   2.134  -3.730  1.00  0.00     0.108 C 
ATOM     12  C   UNL     1       0.526   2.985  -1.565  1.00  0.00     0.121 C 
ATOM     13  C   UNL     1      -0.393   3.522  -3.457  1.00  0.00     0.042 C 
ATOM     14  C   UNL     1      -0.594   4.299  -4.731  1.00  0.00     0.126 C 
ATOM     15  C   UNL     1      -0.145   5.634  -2.841  1.00  0.00     0.138 C 
ATOM     16  N   UNL     1      -0.417   5.641  -4.280  1.00  0.00    -0.334 N 
BRANCH  10  17
ATOM     17  S   UNL     1       0.095   0.296  -1.794  1.00  0.00     0.211 S 
ATOM     18  C   UNL     1       1.036   0.122  -0.291  1.00  0.00     0.176 C 
ATOM     19  O   UNL     1       0.506  -0.749  -2.711  1.00  0.00    -0.213 OA
ATOM     20  O   UNL     1      -1.296   0.480  -1.452  1.00  0.00    -0.213 OA
ENDBRANCH  10  17
BRANCH  16  21
ATOM     21  C   UNL     1      -0.292   6.644  -5.234  1.00  0.00     0.289 C 
ATOM     22  O   UNL     1      -0.549   6.398  -6.414  1.00  0.00    -0.265 OA
BRANCH  21  23
ATOM     23  C   UNL     1       0.285   7.908  -4.845  1.00  0.00     0.191 A 
ATOM     24  C   UNL     1       1.370   8.574  -5.388  1.00  0.00     0.056 A 
ATOM     25  O   UNL     1      -0.271   8.667  -3.853  1.00  0.00    -0.459 OA
ATOM     26  C   UNL     1       1.490   9.795  -4.689  1.00  0.00     0.043 A 
ATOM     27  C   UNL     1       0.450   9.820  -3.790  1.00  0.00     0.196 A 
ENDBRANCH  21  23
ENDBRANCH  16  21
ENDBRANCH   6   9
ENDBRANCH   4   5
ENDBRANCH   3   4
ENDBRANCH   2   3
ENDBRANCH   1   2
BRANCH   1  28
ATOM     28  C   UNL     1       6.076   8.054  -3.919  1.00  0.00     0.021 C 
BRANCH  28  29
ATOM     29  C   UNL     1       5.697   9.458  -4.386  1.00  0.00     0.116 C 
BRANCH  29  30
ATOM     30  N   UNL     1       6.429  10.497  -3.681  1.00  0.00    -0.352 N 
ATOM     31  C   UNL     1       7.159  11.542  -4.191  1.00  0.00     0.251 C 
ATOM     32  H   UNL     1       6.396  10.444  -2.698  1.00  0.00     0.163 HD
ATOM     33  O   UNL     1       7.835  12.244  -3.445  1.00  0.00    -0.269 OA
BRANCH  31  34
ATOM     34  C   UNL     1       7.149  11.799  -5.646  1.00  0.00     0.039 A 
ATOM     35  C   UNL     1       8.368  11.929  -6.316  1.00  0.00     0.014 A 
ATOM     36  C   UNL     1       5.943  11.903  -6.347  1.00  0.00     0.014 A 
ATOM     37  C   UNL     1       8.379  12.105  -7.701  1.00  0.00     0.010 A 
ATOM     38  C   UNL     1       5.959  12.022  -7.736  1.00  0.00     0.010 A 
ATOM     39  C   UNL     1       7.177  12.121  -8.428  1.00  0.00    -0.014 A 
BRANCH  39  40
ATOM     40  C   UNL     1       7.187  12.229  -9.911  1.00  0.00     0.031 A 
ATOM     41  C   UNL     1       6.612  13.442 -10.590  1.00  0.00     0.074 A 
ATOM     42  C   UNL     1       7.677  11.212 -10.648  1.00  0.00     0.049 A 
ATOM     43  N   UNL     1       6.510  13.700 -11.869  1.00  0.00    -0.248 NA
ATOM     44  C   UNL     1       6.061  14.493  -9.720  1.00  0.00     0.031 C 
ATOM     45  C   UNL     1       8.223   9.964 -10.108  1.00  0.00     0.029 A 
ATOM     46  N   UNL     1       7.792  11.061 -12.008  1.00  0.00    -0.354 N 
ATOM     47  C   UNL     1       5.881  14.936 -11.958  1.00  0.00     0.074 A 
ATOM     48  C   UNL     1       5.577  15.352 -10.606  1.00  0.00     0.031 C 
ATOM     49  C   UNL     1       8.632   9.187 -11.123  1.00  0.00     0.029 A 
ATOM     50  C   UNL     1       8.346   9.860 -12.387  1.00  0.00     0.049 A 
ATOM     51  H   UNL     1       7.505  11.748 -12.652  1.00  0.00     0.167 HD
ATOM     52  C   UNL     1       5.603  15.668 -13.064  1.00  0.00     0.037 A 
ATOM     53  C   UNL     1       8.591   9.355 -13.612  1.00  0.00     0.037 A 
ATOM     54  C   UNL     1       5.921  15.254 -14.407  1.00  0.00     0.049 A 
ATOM     55  C   UNL     1       8.261  10.181 -14.826  1.00  0.00     0.074 A 
ATOM     56  C   UNL     1       5.729  15.949 -15.589  1.00  0.00     0.029 A 
ATOM     57  N   UNL     1       6.491  14.036 -14.749  1.00  0.00    -0.354 N 
ATOM     58  N   UNL     1       7.731  11.379 -14.888  1.00  0.00    -0.248 NA
ATOM     59  C   UNL     1       8.569   9.592 -16.137  1.00  0.00     0.031 C 
ATOM     60  C   UNL     1       6.133  15.130 -16.649  1.00  0.00     0.029 A 
ATOM     61  C   UNL     1       6.633  13.949 -16.125  1.00  0.00     0.049 A 
ATOM     62  H   UNL     1       6.755  13.336 -14.109  1.00  0.00     0.167 HD
ATOM     63  C   UNL     1       7.670  11.699 -16.241  1.00  0.00     0.074 A 
ATOM     64  C   UNL     1       8.227  10.573 -16.961  1.00  0.00     0.031 C 
ATOM     65  C   UNL     1       7.197  12.825 -16.831  1.00  0.00     0.037 A 
BRANCH  52  66
ATOM     66  C   UNL     1       4.917  16.994 -12.872  1.00  0.00     0.058 A 
ATOM     67  C   UNL     1       5.577  18.088 -12.287  1.00  0.00     0.135 A 
ATOM     68  C   UNL     1       3.599  17.188 -13.317  1.00  0.00     0.135 A 
ATOM     69  F   UNL     1       6.832  17.956 -11.832  1.00  0.00    -0.206 F 
ATOM     70  C   UNL     1       4.944  19.316 -12.123  1.00  0.00     0.059 A 
ATOM     71  C   UNL     1       2.958  18.417 -13.190  1.00  0.00     0.059 A 
ATOM     72  F   UNL     1       2.921  16.178 -13.884  1.00  0.00    -0.206 F 
ATOM     73  C   UNL     1       3.634  19.471 -12.579  1.00  0.00     0.060 A 
BRANCH  73  74
ATOM     74  S   UNL     1       2.832  21.074 -12.363  1.00  0.00     0.124 S 
ATOM     75  O   UNL     1       2.605  21.093 -10.921  1.00  0.00    -0.237 OA
ATOM     76  O   UNL     1       3.847  21.999 -12.856  1.00  0.00    -0.237 OA
ATOM     77  O   UNL     1       1.631  20.968 -13.185  1.00  0.00    -0.744 OA
ENDBRANCH  73  74
ENDBRANCH  52  66
BRANCH  53  78
ATOM     78  C   UNL     1       9.196   8.002 -13.750  1.00  0.00     0.058 A 
ATOM     79  C   UNL     1      10.508   7.839 -14.220  1.00  0.00     0.135 A 
ATOM     80  C   UNL     1       8.479   6.846 -13.404  1.00  0.00     0.135 A 
ATOM     81  F   UNL     1      11.232   8.912 -14.571  1.00  0.00    -0.206 F 
ATOM     82  C   UNL     1      11.082   6.579 -14.359  1.00  0.00     0.059 A 
ATOM     83  C   UNL     1       9.041   5.577 -13.507  1.00  0.00     0.059 A 
ATOM     84  F   UNL     1       7.226   6.947 -12.933  1.00  0.00    -0.206 F 
ATOM     85  C   UNL     1      10.341   5.454 -13.995  1.00  0.00     0.060 A 
BRANCH  85  86
ATOM     86  S   UNL     1      11.114   3.827 -14.129  1.00  0.00     0.124 S 
ATOM     87  O   UNL     1      11.142   3.632 -15.574  1.00  0.00    -0.237 OA
ATOM     88  O   UNL     1      12.407   4.050 -13.489  1.00  0.00    -0.237 OA
ATOM     89  O   UNL     1      10.200   2.960 -13.391  1.00  0.00    -0.744 OA
ENDBRANCH  85  86
ENDBRANCH  53  78
BRANCH  65  90
ATOM     90  C   UNL     1       7.293  12.918 -18.330  1.00  0.00     0.058 A 
ATOM     91  C   UNL     1       6.472  12.155 -19.175  1.00  0.00     0.135 A 
ATOM     92  C   UNL     1       8.180  13.829 -18.928  1.00  0.00     0.135 A 
ATOM     93  F   UNL     1       5.611  11.264 -18.657  1.00  0.00    -0.206 F 
ATOM     94  C   UNL     1       6.542  12.276 -20.559  1.00  0.00     0.059 A 
ATOM     95  C   UNL     1       8.245  13.988 -20.308  1.00  0.00     0.059 A 
ATOM     96  F   UNL     1       8.981  14.591 -18.166  1.00  0.00    -0.206 F 
ATOM     97  C   UNL     1       7.429  13.199 -21.117  1.00  0.00     0.060 A 
BRANCH  97  98
ATOM     98  S   UNL     1       7.481  13.373 -22.913  1.00  0.00     0.124 S 
ATOM     99  O   UNL     1       8.157  12.142 -23.309  1.00  0.00    -0.237 OA
ATOM    100  O   UNL     1       6.066  13.459 -23.259  1.00  0.00    -0.237 OA
ATOM    101  O   UNL     1       8.245  14.601 -23.114  1.00  0.00    -0.744 OA
ENDBRANCH  97  98
ENDBRANCH  65  90
ENDBRANCH  39  40
ENDBRANCH  31  34
ENDBRANCH  29  30
ENDBRANCH  28  29
ENDBRANCH   1  28
TORSDOF 19
