REMARK SMILES Cc1coc2cc3c(cc12)[C@@H](C)[C@H](CCC(=O)N[C@@H](Cc1c[nH]c2ccccc12)C(=O)NCCCCCCNC(=O)c1ccc(-c2c4nc(c(-c5c(F)cc(S(=O)(=O)[O-])cc5F)c5ccc([nH]5)c(-c5c(F)cc(S(=O)(=O)[O-])cc5F)c5nc(c(-c6c(F)cc(S(=O)(=O)[O-])cc6F)c6ccc2[nH]6)C=C5)C=C4)cc1)C(=O)O3
REMARK SMILES IDX 35 1 34 2 33 3 32 4 30 5 31 6 19 8 18 9 16 10 17 11 15 13
REMARK SMILES IDX 14 14 13 15 1 16 2 17 3 18 10 19 4 20 5 21 9 22 6 23 8 24
REMARK SMILES IDX 7 25 11 26 110 27 12 28 108 29 109 30 20 31 21 32 22 33
REMARK SMILES IDX 29 34 23 35 24 36 28 37 25 39 27 40 26 41 36 42 37 43 38 44
REMARK SMILES IDX 39 45 40 46 41 48 42 49 43 50 107 51 44 52 106 53 45 54
REMARK SMILES IDX 46 55 47 56 100 57 48 58 105 59 99 60 101 61 49 62 104 63
REMARK SMILES IDX 98 64 97 65 50 67 84 68 63 69 83 70 64 71 67 72 82 73 102 74
REMARK SMILES IDX 65 75 66 76 81 78 103 79 68 80 51 81 52 82 61 83 53 84 54 85
REMARK SMILES IDX 60 86 62 87 55 88 56 89 57 90 58 91 59 92 85 93 86 94 95 95
REMARK SMILES IDX 87 96 88 97 94 98 96 99 89 100 90 101 91 102 92 103 93 104
REMARK SMILES IDX 69 105 70 106 79 107 71 108 72 109 78 110 80 111 73 112
REMARK SMILES IDX 74 113 75 114 76 115 77 116
REMARK H PARENT 32 7 18 12 23 38 39 47 101 66 67 77
REMARK Flexibility Score: inf
ROOT
ATOM      1  C   UNL     1     -10.890  -2.110  -6.779  1.00  0.00     0.002 C 
ENDROOT
BRANCH   1   2
ATOM      2  C   UNL     1      -9.833  -1.182  -7.385  1.00  0.00     0.021 C 
BRANCH   2   3
ATOM      3  C   UNL     1      -9.016  -0.421  -6.359  1.00  0.00     0.116 C 
BRANCH   3   4
ATOM      4  N   UNL     1      -8.087  -1.267  -5.653  1.00  0.00    -0.354 N 
ATOM      5  C   UNL     1      -6.946  -0.919  -5.008  1.00  0.00     0.242 C 
ATOM      6  O   UNL     1      -6.427  -1.768  -4.272  1.00  0.00    -0.273 OA
ATOM      7  H   UNL     1      -8.310  -2.226  -5.637  1.00  0.00     0.163 HD
BRANCH   5   8
ATOM      8  C   UNL     1      -6.325   0.486  -5.110  1.00  0.00     0.175 C 
BRANCH   8   9
ATOM      9  N   UNL     1      -6.048   1.003  -6.458  1.00  0.00    -0.344 N 
ATOM     10  C   UNL     1      -4.871   1.098  -7.142  1.00  0.00     0.220 C 
ATOM     11  O   UNL     1      -4.909   1.474  -8.316  1.00  0.00    -0.275 OA
ATOM     12  H   UNL     1      -6.838   1.333  -6.945  1.00  0.00     0.164 HD
BRANCH  10  13
ATOM     13  C   UNL     1      -3.529   0.788  -6.484  1.00  0.00     0.101 C 
BRANCH  13  14
ATOM     14  C   UNL     1      -2.889   2.009  -5.795  1.00  0.00     0.026 C 
BRANCH  14  15
ATOM     15  C   UNL     1      -3.438   2.269  -4.383  1.00  0.00     0.107 C 
ATOM     16  C   UNL     1       1.332  -0.226   0.251  1.00  0.00     0.048 C 
ATOM     17  C   UNL     1       1.105   1.185  -0.141  1.00  0.00    -0.005 A 
ATOM     18  C   UNL     1       1.769   2.302   0.327  1.00  0.00     0.199 A 
ATOM     19  C   UNL     1       0.130   1.678  -1.053  1.00  0.00     0.024 A 
ATOM     20  O   UNL     1       1.270   3.437  -0.227  1.00  0.00    -0.464 OA
ATOM     21  C   UNL     1       0.262   3.061  -1.059  1.00  0.00     0.137 A 
ATOM     22  C   UNL     1      -0.871   1.098  -1.847  1.00  0.00     0.020 A 
ATOM     23  C   UNL     1      -0.542   3.921  -1.797  1.00  0.00     0.095 A 
ATOM     24  C   UNL     1      -1.726   1.932  -2.587  1.00  0.00    -0.001 A 
ATOM     25  C   UNL     1      -1.545   3.312  -2.551  1.00  0.00     0.138 A 
ATOM     26  C   UNL     1      -2.895   1.328  -3.301  1.00  0.00     0.034 C 
ATOM     27  O   UNL     1      -2.407   4.189  -3.225  1.00  0.00    -0.426 OA
ATOM     28  C   UNL     1      -3.959   0.948  -2.256  1.00  0.00     0.014 C 
ATOM     29  C   UNL     1      -3.419   3.745  -4.056  1.00  0.00     0.314 C 
ATOM     30  O   UNL     1      -4.215   4.519  -4.552  1.00  0.00    -0.251 OA
ENDBRANCH  14  15
ENDBRANCH  13  14
ENDBRANCH  10  13
ENDBRANCH   8   9
BRANCH   8  31
ATOM     31  C   UNL     1      -6.896   1.531  -4.126  1.00  0.00     0.072 C 
BRANCH  31  32
ATOM     32  C   UNL     1      -8.336   1.901  -4.154  1.00  0.00    -0.020 A 
ATOM     33  C   UNL     1      -9.345   1.274  -3.447  1.00  0.00     0.087 A 
ATOM     34  C   UNL     1      -8.910   3.078  -4.737  1.00  0.00     0.003 A 
ATOM     35  N   UNL     1     -10.508   1.968  -3.646  1.00  0.00    -0.361 N 
ATOM     36  C   UNL     1     -10.274   3.063  -4.444  1.00  0.00     0.046 A 
ATOM     37  C   UNL     1      -8.388   4.183  -5.444  1.00  0.00     0.010 A 
ATOM     38  H   UNL     1     -11.384   1.718  -3.272  1.00  0.00     0.166 HD
ATOM     39  C   UNL     1     -11.154   4.060  -4.878  1.00  0.00     0.026 A 
ATOM     40  C   UNL     1      -9.249   5.209  -5.852  1.00  0.00     0.001 A 
ATOM     41  C   UNL     1     -10.614   5.136  -5.588  1.00  0.00     0.002 A 
ENDBRANCH  31  32
ENDBRANCH   8  31
ENDBRANCH   5   8
ENDBRANCH   3   4
ENDBRANCH   2   3
ENDBRANCH   1   2
BRANCH   1  42
ATOM     42  C   UNL     1     -11.846  -1.479  -5.759  1.00  0.00     0.002 C 
BRANCH  42  43
ATOM     43  C   UNL     1     -12.507  -0.157  -6.165  1.00  0.00     0.021 C 
BRANCH  43  44
ATOM     44  C   UNL     1     -13.165  -0.142  -7.545  1.00  0.00     0.116 C 
BRANCH  44  45
ATOM     45  N   UNL     1     -14.034  -1.270  -7.796  1.00  0.00    -0.352 N 
ATOM     46  C   UNL     1     -15.314  -1.593  -7.452  1.00  0.00     0.251 C 
ATOM     47  H   UNL     1     -13.601  -1.966  -8.341  1.00  0.00     0.163 HD
ATOM     48  O   UNL     1     -15.736  -2.662  -7.902  1.00  0.00    -0.269 OA
BRANCH  46  49
ATOM     49  C   UNL     1     -16.198  -0.778  -6.575  1.00  0.00     0.039 A 
ATOM     50  C   UNL     1     -15.890   0.478  -6.054  1.00  0.00     0.014 A 
ATOM     51  C   UNL     1     -17.445  -1.346  -6.250  1.00  0.00     0.014 A 
ATOM     52  C   UNL     1     -16.766   1.121  -5.186  1.00  0.00     0.010 A 
ATOM     53  C   UNL     1     -18.342  -0.691  -5.408  1.00  0.00     0.010 A 
ATOM     54  C   UNL     1     -17.990   0.536  -4.853  1.00  0.00    -0.014 A 
BRANCH  54  55
ATOM     55  C   UNL     1     -18.886   1.314  -4.000  1.00  0.00     0.031 A 
ATOM     56  C   UNL     1     -19.285   2.653  -4.526  1.00  0.00     0.074 A 
ATOM     57  C   UNL     1     -19.427   0.870  -2.850  1.00  0.00     0.049 A 
ATOM     58  N   UNL     1     -19.039   3.821  -4.026  1.00  0.00    -0.248 NA
ATOM     59  C   UNL     1     -19.985   2.689  -5.818  1.00  0.00     0.031 C 
ATOM     60  C   UNL     1     -19.410  -0.489  -2.309  1.00  0.00     0.029 A 
ATOM     61  N   UNL     1     -20.197   1.557  -1.956  1.00  0.00    -0.354 N 
ATOM     62  C   UNL     1     -19.717   4.735  -4.831  1.00  0.00     0.074 A 
ATOM     63  C   UNL     1     -20.178   3.998  -5.981  1.00  0.00     0.031 C 
ATOM     64  C   UNL     1     -20.299  -0.570  -1.294  1.00  0.00     0.029 A 
ATOM     65  C   UNL     1     -20.840   0.753  -1.029  1.00  0.00     0.049 A 
ATOM     66  H   UNL     1     -20.288   2.538  -1.970  1.00  0.00     0.167 HD
ATOM     67  C   UNL     1     -20.014   5.998  -4.416  1.00  0.00     0.037 A 
ATOM     68  C   UNL     1     -21.786   1.135  -0.138  1.00  0.00     0.037 A 
ATOM     69  C   UNL     1     -19.219   6.398  -3.287  1.00  0.00     0.049 A 
ATOM     70  C   UNL     1     -21.666   2.601   0.057  1.00  0.00     0.074 A 
ATOM     71  C   UNL     1     -17.869   6.561  -3.047  1.00  0.00     0.029 A 
ATOM     72  N   UNL     1     -19.823   6.434  -2.054  1.00  0.00    -0.354 N 
ATOM     73  N   UNL     1     -20.670   3.187   0.661  1.00  0.00    -0.248 NA
ATOM     74  C   UNL     1     -22.521   3.481  -0.726  1.00  0.00     0.031 C 
ATOM     75  C   UNL     1     -17.687   6.229  -1.673  1.00  0.00     0.029 A 
ATOM     76  C   UNL     1     -18.939   5.896  -1.155  1.00  0.00     0.049 A 
ATOM     77  H   UNL     1     -20.722   6.781  -1.854  1.00  0.00     0.167 HD
ATOM     78  C   UNL     1     -20.535   4.410   0.025  1.00  0.00     0.074 A 
ATOM     79  C   UNL     1     -21.775   4.588  -0.719  1.00  0.00     0.031 C 
ATOM     80  C   UNL     1     -19.325   5.035  -0.057  1.00  0.00     0.037 A 
BRANCH  67  81
ATOM     81  C   UNL     1     -21.251   6.761  -4.831  1.00  0.00     0.058 A 
ATOM     82  C   UNL     1     -21.362   8.135  -4.532  1.00  0.00     0.135 A 
ATOM     83  C   UNL     1     -22.444   6.130  -5.246  1.00  0.00     0.135 A 
ATOM     84  F   UNL     1     -20.292   8.833  -4.118  1.00  0.00    -0.206 F 
ATOM     85  C   UNL     1     -22.582   8.812  -4.566  1.00  0.00     0.059 A 
ATOM     86  C   UNL     1     -23.660   6.798  -5.341  1.00  0.00     0.059 A 
ATOM     87  F   UNL     1     -22.506   4.812  -5.480  1.00  0.00    -0.206 F 
ATOM     88  C   UNL     1     -23.730   8.126  -4.951  1.00  0.00     0.060 A 
BRANCH  88  89
ATOM     89  S   UNL     1     -25.330   8.950  -4.855  1.00  0.00     0.124 S 
ATOM     90  O   UNL     1     -25.529   9.022  -3.412  1.00  0.00    -0.237 OA
ATOM     91  O   UNL     1     -25.063  10.217  -5.529  1.00  0.00    -0.237 OA
ATOM     92  O   UNL     1     -26.218   8.040  -5.572  1.00  0.00    -0.744 OA
ENDBRANCH  88  89
ENDBRANCH  67  81
BRANCH  68  93
ATOM     93  C   UNL     1     -22.933   0.351   0.382  1.00  0.00     0.058 A 
ATOM     94  C   UNL     1     -23.651   0.772   1.514  1.00  0.00     0.135 A 
ATOM     95  C   UNL     1     -23.516  -0.685  -0.377  1.00  0.00     0.135 A 
ATOM     96  F   UNL     1     -23.183   1.770   2.279  1.00  0.00    -0.206 F 
ATOM     97  C   UNL     1     -24.895   0.230   1.850  1.00  0.00     0.059 A 
ATOM     98  C   UNL     1     -24.746  -1.251  -0.053  1.00  0.00     0.059 A 
ATOM     99  F   UNL     1     -22.949  -1.115  -1.514  1.00  0.00    -0.206 F 
ATOM    100  C   UNL     1     -25.444  -0.769   1.047  1.00  0.00     0.060 A 
BRANCH 100 101
ATOM    101  S   UNL     1     -27.123  -1.348   1.380  1.00  0.00     0.124 S 
ATOM    102  O   UNL     1     -26.963  -2.016   2.667  1.00  0.00    -0.237 OA
ATOM    103  O   UNL     1     -27.878  -0.100   1.397  1.00  0.00    -0.237 OA
ATOM    104  O   UNL     1     -27.408  -2.230   0.251  1.00  0.00    -0.744 OA
ENDBRANCH 100 101
ENDBRANCH  68  93
BRANCH  80 105
ATOM    105  C   UNL     1     -18.228   4.588   0.870  1.00  0.00     0.058 A 
ATOM    106  C   UNL     1     -17.640   3.312   0.832  1.00  0.00     0.135 A 
ATOM    107  C   UNL     1     -17.645   5.540   1.721  1.00  0.00     0.135 A 
ATOM    108  F   UNL     1     -18.070   2.379  -0.029  1.00  0.00    -0.206 F 
ATOM    109  C   UNL     1     -16.542   2.988   1.630  1.00  0.00     0.059 A 
ATOM    110  C   UNL     1     -16.529   5.249   2.501  1.00  0.00     0.059 A 
ATOM    111  F   UNL     1     -18.124   6.795   1.754  1.00  0.00    -0.206 F 
ATOM    112  C   UNL     1     -15.987   3.966   2.456  1.00  0.00     0.060 A 
BRANCH 112 113
ATOM    113  S   UNL     1     -14.490   3.575   3.388  1.00  0.00     0.124 S 
ATOM    114  O   UNL     1     -15.002   2.705   4.441  1.00  0.00    -0.237 OA
ATOM    115  O   UNL     1     -13.652   2.927   2.383  1.00  0.00    -0.237 OA
ATOM    116  O   UNL     1     -14.014   4.882   3.833  1.00  0.00    -0.744 OA
ENDBRANCH 112 113
ENDBRANCH  80 105
ENDBRANCH  54  55
ENDBRANCH  46  49
ENDBRANCH  44  45
ENDBRANCH  43  44
ENDBRANCH  42  43
ENDBRANCH   1  42
TORSDOF 22
