REMARK SMILES Cc1ccccc1C[C@@H](CC(F)(F)F)C(=O)NCCCCCCNC(=O)c1ccc(-c2c3nc(c(-c4c(F)cc(S(=O)(=O)[O-])cc4F)c4ccc([nH]4)c(-c4c(F)cc(S(=O)(=O)[O-])cc4F)c4nc(c(-c5c(F)cc(S(=O)(=O)[O-])cc5F)c5ccc2[nH]5)C=C4)C=C3)cc1
REMARK SMILES IDX 21 1 20 2 19 3 18 4 17 5 15 6 16 7 9 9 8 10 7 11 1 12 2 13
REMARK SMILES IDX 3 14 4 15 6 16 5 17 10 18 11 19 12 20 13 21 14 22 22 23
REMARK SMILES IDX 23 24 24 25 25 26 26 28 27 29 28 30 92 31 29 32 91 33 30 34
REMARK SMILES IDX 31 35 32 36 85 37 33 38 90 39 84 40 86 41 34 42 89 43 83 44
REMARK SMILES IDX 82 45 35 47 69 48 48 49 68 50 49 51 52 52 67 53 87 54 50 55
REMARK SMILES IDX 51 56 66 58 88 59 53 60 36 61 37 62 46 63 38 64 39 65 45 66
REMARK SMILES IDX 47 67 40 68 41 69 42 70 43 71 44 72 70 73 71 74 80 75 72 76
REMARK SMILES IDX 73 77 79 78 81 79 74 80 75 81 76 82 77 83 78 84 54 85 55 86
REMARK SMILES IDX 64 87 56 88 57 89 63 90 65 91 58 92 59 93 60 94 61 95 62 96
REMARK H PARENT 17 8 24 27 86 46 52 57
REMARK Flexibility Score: inf
ROOT
ATOM      1  C   UNL     1       0.920   8.426   2.253  1.00  0.00     0.002 C 
ENDROOT
BRANCH   1   2
ATOM      2  C   UNL     1       1.945   7.290   2.425  1.00  0.00     0.002 C 
BRANCH   2   3
ATOM      3  C   UNL     1       1.439   5.850   2.279  1.00  0.00     0.021 C 
BRANCH   3   4
ATOM      4  C   UNL     1       0.641   5.557   1.012  1.00  0.00     0.116 C 
BRANCH   4   5
ATOM      5  N   UNL     1       1.463   5.344  -0.163  1.00  0.00    -0.356 N 
ATOM      6  C   UNL     1       1.395   4.436  -1.168  1.00  0.00     0.223 C 
ATOM      7  O   UNL     1       2.059   4.678  -2.183  1.00  0.00    -0.275 OA
ATOM      8  H   UNL     1       2.212   5.977  -0.247  1.00  0.00     0.163 HD
BRANCH   6   9
ATOM      9  C   UNL     1       0.525   3.176  -1.141  1.00  0.00     0.092 C 
BRANCH   9  10
ATOM     10  C   UNL     1       0.644   2.338   0.148  1.00  0.00     0.049 C 
BRANCH  10  11
ATOM     11  C   UNL     1       0.136   0.909   0.035  1.00  0.00    -0.044 A 
ATOM     12  C   UNL     1       2.465  -0.144  -0.299  1.00  0.00     0.044 C 
ATOM     13  C   UNL     1       0.966  -0.210  -0.181  1.00  0.00    -0.048 A 
ATOM     14  C   UNL     1       0.387  -1.495  -0.213  1.00  0.00     0.004 A 
ATOM     15  C   UNL     1      -0.986  -1.679  -0.057  1.00  0.00     0.000 A 
ATOM     16  C   UNL     1      -1.247   0.695   0.205  1.00  0.00     0.004 A 
ATOM     17  C   UNL     1      -1.805  -0.580   0.149  1.00  0.00     0.000 A 
ENDBRANCH  10  11
ENDBRANCH   9  10
BRANCH   9  18
ATOM     18  C   UNL     1      -0.880   3.435  -1.717  1.00  0.00     0.129 C 
BRANCH  18  19
ATOM     19  C   UNL     1      -1.825   4.296  -0.915  1.00  0.00     0.389 C 
ATOM     20  F   UNL     1      -1.443   5.586  -0.900  1.00  0.00    -0.171 F 
ATOM     21  F   UNL     1      -3.062   4.258  -1.466  1.00  0.00    -0.171 F 
ATOM     22  F   UNL     1      -1.951   3.876   0.359  1.00  0.00    -0.171 F 
ENDBRANCH  18  19
ENDBRANCH   9  18
ENDBRANCH   6   9
ENDBRANCH   4   5
ENDBRANCH   3   4
ENDBRANCH   2   3
ENDBRANCH   1   2
BRANCH   1  23
ATOM     23  C   UNL     1      -0.448   8.251   2.921  1.00  0.00     0.021 C 
BRANCH  23  24
ATOM     24  C   UNL     1      -0.399   8.066   4.429  1.00  0.00     0.116 C 
BRANCH  24  25
ATOM     25  N   UNL     1      -0.792   9.240   5.187  1.00  0.00    -0.352 N 
ATOM     26  C   UNL     1      -1.200   9.201   6.520  1.00  0.00     0.251 C 
ATOM     27  H   UNL     1      -0.769  10.114   4.733  1.00  0.00     0.163 HD
ATOM     28  O   UNL     1      -2.090   9.870   6.978  1.00  0.00    -0.269 OA
BRANCH  26  29
ATOM     29  C   UNL     1      -0.353   8.351   7.395  1.00  0.00     0.039 A 
ATOM     30  C   UNL     1       0.609   8.979   8.191  1.00  0.00     0.014 A 
ATOM     31  C   UNL     1      -0.353   6.970   7.221  1.00  0.00     0.014 A 
ATOM     32  C   UNL     1       1.672   8.230   8.697  1.00  0.00     0.010 A 
ATOM     33  C   UNL     1       0.743   6.247   7.651  1.00  0.00     0.010 A 
ATOM     34  C   UNL     1       1.777   6.879   8.356  1.00  0.00    -0.014 A 
BRANCH  34  35
ATOM     35  C   UNL     1       2.964   6.067   8.615  1.00  0.00     0.031 A 
ATOM     36  C   UNL     1       2.943   5.016   9.671  1.00  0.00     0.074 A 
ATOM     37  C   UNL     1       4.069   6.198   7.845  1.00  0.00     0.049 A 
ATOM     38  N   UNL     1       3.995   4.561  10.270  1.00  0.00    -0.248 NA
ATOM     39  C   UNL     1       1.708   4.401  10.149  1.00  0.00     0.031 C 
ATOM     40  C   UNL     1       5.192   5.262   7.783  1.00  0.00     0.029 A 
ATOM     41  N   UNL     1       4.498   7.232   7.019  1.00  0.00    -0.354 N 
ATOM     42  C   UNL     1       3.630   3.429  10.967  1.00  0.00     0.074 A 
ATOM     43  C   UNL     1       2.185   3.410  10.911  1.00  0.00     0.031 C 
ATOM     44  C   UNL     1       6.253   5.891   7.256  1.00  0.00     0.029 A 
ATOM     45  C   UNL     1       5.892   7.290   7.121  1.00  0.00     0.049 A 
ATOM     46  H   UNL     1       3.928   7.814   6.466  1.00  0.00     0.167 HD
ATOM     47  C   UNL     1       4.583   2.548  11.393  1.00  0.00     0.037 A 
ATOM     48  C   UNL     1       6.613   8.326   7.648  1.00  0.00     0.037 A 
ATOM     49  C   UNL     1       5.928   2.997  11.037  1.00  0.00     0.049 A 
ATOM     50  C   UNL     1       7.521   7.918   8.798  1.00  0.00     0.074 A 
ATOM     51  C   UNL     1       6.767   2.671   9.983  1.00  0.00     0.029 A 
ATOM     52  N   UNL     1       6.478   4.122  11.642  1.00  0.00    -0.354 N 
ATOM     53  N   UNL     1       7.418   6.787   9.438  1.00  0.00    -0.248 NA
ATOM     54  C   UNL     1       8.582   8.763   9.346  1.00  0.00     0.031 C 
ATOM     55  C   UNL     1       7.806   3.627   9.931  1.00  0.00     0.029 A 
ATOM     56  C   UNL     1       7.603   4.537  10.953  1.00  0.00     0.049 A 
ATOM     57  H   UNL     1       6.118   4.560  12.447  1.00  0.00     0.167 HD
ATOM     58  C   UNL     1       8.310   6.757  10.479  1.00  0.00     0.074 A 
ATOM     59  C   UNL     1       9.043   8.002  10.355  1.00  0.00     0.031 C 
ATOM     60  C   UNL     1       8.350   5.717  11.365  1.00  0.00     0.037 A 
BRANCH  47  61
ATOM     61  C   UNL     1       4.265   1.129  11.831  1.00  0.00     0.058 A 
ATOM     62  C   UNL     1       5.144   0.060  11.544  1.00  0.00     0.135 A 
ATOM     63  C   UNL     1       3.077   0.747  12.486  1.00  0.00     0.135 A 
ATOM     64  F   UNL     1       6.368   0.268  11.043  1.00  0.00    -0.206 F 
ATOM     65  C   UNL     1       4.808  -1.280  11.746  1.00  0.00     0.059 A 
ATOM     66  C   UNL     1       2.692  -0.589  12.650  1.00  0.00     0.059 A 
ATOM     67  F   UNL     1       2.260   1.665  13.023  1.00  0.00    -0.206 F 
ATOM     68  C   UNL     1       3.559  -1.599  12.255  1.00  0.00     0.060 A 
BRANCH  68  69
ATOM     69  S   UNL     1       3.094  -3.337  12.377  1.00  0.00     0.124 S 
ATOM     70  O   UNL     1       3.371  -3.826  11.030  1.00  0.00    -0.237 OA
ATOM     71  O   UNL     1       3.988  -3.818  13.424  1.00  0.00    -0.237 OA
ATOM     72  O   UNL     1       1.679  -3.284  12.735  1.00  0.00    -0.744 OA
ENDBRANCH  68  69
ENDBRANCH  47  61
BRANCH  48  73
ATOM     73  C   UNL     1       5.958   9.652   7.526  1.00  0.00     0.058 A 
ATOM     74  C   UNL     1       5.841  10.208   6.240  1.00  0.00     0.135 A 
ATOM     75  C   UNL     1       5.098  10.127   8.525  1.00  0.00     0.135 A 
ATOM     76  F   UNL     1       6.670   9.814   5.260  1.00  0.00    -0.206 F 
ATOM     77  C   UNL     1       4.787  11.051   5.907  1.00  0.00     0.059 A 
ATOM     78  C   UNL     1       4.039  10.980   8.216  1.00  0.00     0.059 A 
ATOM     79  F   UNL     1       5.182   9.649   9.775  1.00  0.00    -0.206 F 
ATOM     80  C   UNL     1       3.847  11.364   6.887  1.00  0.00     0.060 A 
BRANCH  80  81
ATOM     81  S   UNL     1       2.294  12.129   6.358  1.00  0.00     0.124 S 
ATOM     82  O   UNL     1       2.765  13.302   5.630  1.00  0.00    -0.237 OA
ATOM     83  O   UNL     1       1.702  11.070   5.540  1.00  0.00    -0.237 OA
ATOM     84  O   UNL     1       1.611  12.396   7.617  1.00  0.00    -0.744 OA
ENDBRANCH  80  81
ENDBRANCH  48  73
BRANCH  60  85
ATOM     85  C   UNL     1       9.162   5.666  12.638  1.00  0.00     0.058 A 
ATOM     86  C   UNL     1       9.475   6.794  13.415  1.00  0.00     0.135 A 
ATOM     87  C   UNL     1       9.552   4.421  13.188  1.00  0.00     0.135 A 
ATOM     88  F   UNL     1       9.059   8.019  13.062  1.00  0.00    -0.206 F 
ATOM     89  C   UNL     1      10.189   6.706  14.613  1.00  0.00     0.059 A 
ATOM     90  C   UNL     1      10.219   4.305  14.406  1.00  0.00     0.059 A 
ATOM     91  F   UNL     1       9.287   3.266  12.559  1.00  0.00    -0.206 F 
ATOM     92  C   UNL     1      10.560   5.457  15.100  1.00  0.00     0.060 A 
BRANCH  92  93
ATOM     93  S   UNL     1      11.438   5.322  16.669  1.00  0.00     0.124 S 
ATOM     94  O   UNL     1      12.828   5.287  16.223  1.00  0.00    -0.237 OA
ATOM     95  O   UNL     1      11.035   6.534  17.376  1.00  0.00    -0.237 OA
ATOM     96  O   UNL     1      10.921   4.078  17.230  1.00  0.00    -0.744 OA
ENDBRANCH  92  93
ENDBRANCH  60  85
ENDBRANCH  34  35
ENDBRANCH  26  29
ENDBRANCH  24  25
ENDBRANCH  23  24
ENDBRANCH   1  23
TORSDOF 20
