REMARK SMILES Cn1ccc(CNC(=O)[C@@H]2[C@@H]3CC[C@@H](C3)[C@@H]2C(=O)NCCCCCCNC(=O)c2ccc(-c3c4nc(c(-c5c(F)cc(S(=O)(=O)[O-])cc5F)c5ccc([nH]5)c(-c5c(F)cc(S(=O)(=O)[O-])cc5F)c5nc(c(-c6c(F)cc(S(=O)(=O)[O-])cc6F)c6ccc3[nH]6)C=C5)C=C4)cc2)n1
REMARK SMILES IDX 22 1 21 2 20 3 19 4 17 5 18 6 16 8 10 9 11 10 12 11 15 12
REMARK SMILES IDX 14 13 13 14 8 15 7 16 9 18 6 19 5 20 1 21 2 22 3 23 95 24
REMARK SMILES IDX 4 25 23 26 24 27 25 28 26 29 27 30 28 32 29 33 30 34 94 35
REMARK SMILES IDX 31 36 93 37 32 38 33 39 34 40 87 41 35 42 92 43 86 44 88 45
REMARK SMILES IDX 36 46 91 47 85 48 84 49 37 51 71 52 50 53 70 54 51 55 54 56
REMARK SMILES IDX 69 57 89 58 52 59 53 60 68 62 90 63 55 64 38 65 39 66 48 67
REMARK SMILES IDX 40 68 41 69 47 70 49 71 42 72 43 73 44 74 45 75 46 76 72 77
REMARK SMILES IDX 73 78 82 79 74 80 75 81 81 82 83 83 76 84 77 85 78 86 79 87
REMARK SMILES IDX 80 88 56 89 57 90 66 91 58 92 59 93 65 94 67 95 60 96 61 97
REMARK SMILES IDX 62 98 63 99 64 100
REMARK H PARENT 19 7 7 17 26 31 88 50 54 61
REMARK Flexibility Score: inf
ROOT
ATOM      1  C   UNL     1      -3.384   6.012   3.546  1.00  0.00     0.002 C 
ENDROOT
BRANCH   1   2
ATOM      2  C   UNL     1      -2.784   6.509   2.227  1.00  0.00     0.021 C 
BRANCH   2   3
ATOM      3  C   UNL     1      -1.261   6.509   2.141  1.00  0.00     0.116 C 
BRANCH   3   4
ATOM      4  N   UNL     1      -0.690   5.215   2.437  1.00  0.00    -0.356 N 
ATOM      5  C   UNL     1       0.395   4.579   1.925  1.00  0.00     0.224 C 
ATOM      6  O   UNL     1       0.584   3.441   2.350  1.00  0.00    -0.275 OA
ATOM      7  H   UNL     1      -1.170   4.707   3.130  1.00  0.00     0.163 HD
BRANCH   5   8
ATOM      8  C   UNL     1       1.213   5.205   0.795  1.00  0.00     0.094 C 
ATOM      9  C   UNL     1       2.547   4.502   0.379  1.00  0.00     0.094 C 
ATOM     10  C   UNL     1       3.581   5.669   0.415  1.00  0.00     0.002 C 
ATOM     11  C   UNL     1       3.883   6.181   1.835  1.00  0.00     0.005 C 
ATOM     12  C   UNL     1       2.727   6.827  -0.098  1.00  0.00     0.009 C 
ATOM     13  C   UNL     1       1.689   6.667   1.015  1.00  0.00     0.002 C 
ATOM     14  C   UNL     1       2.545   6.765   2.287  1.00  0.00     0.005 C 
BRANCH   9  15
ATOM     15  C   UNL     1       3.013   3.245   1.114  1.00  0.00     0.224 C 
ATOM     16  N   UNL     1       2.447   2.046   0.824  1.00  0.00    -0.350 N 
ATOM     17  H   UNL     1       2.814   1.280   1.323  1.00  0.00     0.163 HD
ATOM     18  O   UNL     1       3.926   3.250   1.940  1.00  0.00    -0.275 OA
BRANCH  16  19
ATOM     19  C   UNL     1       1.387   1.718  -0.106  1.00  0.00     0.174 C 
BRANCH  19  20
ATOM     20  C   UNL     1       1.876   0.639  -1.019  1.00  0.00     0.082 A 
ATOM     21  C   UNL     1       4.283  -0.539  -3.255  1.00  0.00     0.173 C 
ATOM     22  N   UNL     1       3.137  -0.356  -2.400  1.00  0.00    -0.275 N 
ATOM     23  C   UNL     1       2.199  -1.287  -2.067  1.00  0.00     0.108 A 
ATOM     24  N   UNL     1       2.941   0.835  -1.813  1.00  0.00    -0.176 NA
ATOM     25  C   UNL     1       1.363  -0.674  -1.163  1.00  0.00     0.047 A 
ENDBRANCH  19  20
ENDBRANCH  16  19
ENDBRANCH   9  15
ENDBRANCH   5   8
ENDBRANCH   3   4
ENDBRANCH   2   3
ENDBRANCH   1   2
BRANCH   1  26
ATOM     26  C   UNL     1      -2.876   6.703   4.813  1.00  0.00     0.002 C 
BRANCH  26  27
ATOM     27  C   UNL     1      -2.994   8.227   4.825  1.00  0.00     0.021 C 
BRANCH  27  28
ATOM     28  C   UNL     1      -4.377   8.774   4.489  1.00  0.00     0.116 C 
BRANCH  28  29
ATOM     29  N   UNL     1      -5.398   8.323   5.418  1.00  0.00    -0.352 N 
ATOM     30  C   UNL     1      -6.336   9.063   6.098  1.00  0.00     0.251 C 
ATOM     31  H   UNL     1      -5.422   7.353   5.584  1.00  0.00     0.163 HD
ATOM     32  O   UNL     1      -7.022   8.538   6.966  1.00  0.00    -0.269 OA
BRANCH  30  33
ATOM     33  C   UNL     1      -6.490  10.504   5.793  1.00  0.00     0.039 A 
ATOM     34  C   UNL     1      -6.565  11.412   6.851  1.00  0.00     0.014 A 
ATOM     35  C   UNL     1      -6.545  10.956   4.471  1.00  0.00     0.014 A 
ATOM     36  C   UNL     1      -6.636  12.780   6.582  1.00  0.00     0.010 A 
ATOM     37  C   UNL     1      -6.537  12.323   4.207  1.00  0.00     0.010 A 
ATOM     38  C   UNL     1      -6.585  13.250   5.258  1.00  0.00    -0.014 A 
BRANCH  38  39
ATOM     39  C   UNL     1      -6.590  14.706   4.958  1.00  0.00     0.031 A 
ATOM     40  C   UNL     1      -7.728  15.310   4.177  1.00  0.00     0.074 A 
ATOM     41  C   UNL     1      -5.553  15.474   5.350  1.00  0.00     0.049 A 
ATOM     42  N   UNL     1      -7.879  16.540   3.757  1.00  0.00    -0.248 NA
ATOM     43  C   UNL     1      -8.831  14.410   3.802  1.00  0.00     0.031 C 
ATOM     44  C   UNL     1      -4.377  15.000   6.084  1.00  0.00     0.029 A 
ATOM     45  N   UNL     1      -5.317  16.816   5.183  1.00  0.00    -0.354 N 
ATOM     46  C   UNL     1      -9.091  16.562   3.077  1.00  0.00     0.074 A 
ATOM     47  C   UNL     1      -9.601  15.209   3.078  1.00  0.00     0.031 C 
ATOM     48  C   UNL     1      -3.559  16.037   6.325  1.00  0.00     0.029 A 
ATOM     49  C   UNL     1      -4.126  17.241   5.728  1.00  0.00     0.049 A 
ATOM     50  H   UNL     1      -5.941  17.419   4.718  1.00  0.00     0.167 HD
ATOM     51  C   UNL     1      -9.738  17.619   2.531  1.00  0.00     0.037 A 
ATOM     52  C   UNL     1      -3.553  18.461   5.734  1.00  0.00     0.037 A 
ATOM     53  C   UNL     1      -9.232  18.967   2.543  1.00  0.00     0.049 A 
ATOM     54  C   UNL     1      -4.272  19.609   5.072  1.00  0.00     0.074 A 
ATOM     55  C   UNL     1      -9.819  20.110   2.027  1.00  0.00     0.029 A 
ATOM     56  N   UNL     1      -8.025  19.357   3.104  1.00  0.00    -0.354 N 
ATOM     57  N   UNL     1      -5.438  19.617   4.469  1.00  0.00    -0.248 NA
ATOM     58  C   UNL     1      -3.600  20.916   5.095  1.00  0.00     0.031 C 
ATOM     59  C   UNL     1      -8.948  21.183   2.241  1.00  0.00     0.029 A 
ATOM     60  C   UNL     1      -7.844  20.719   2.937  1.00  0.00     0.049 A 
ATOM     61  H   UNL     1      -7.391  18.753   3.555  1.00  0.00     0.167 HD
ATOM     62  C   UNL     1      -5.655  20.935   4.080  1.00  0.00     0.074 A 
ATOM     63  C   UNL     1      -4.507  21.697   4.526  1.00  0.00     0.031 C 
ATOM     64  C   UNL     1      -6.708  21.468   3.412  1.00  0.00     0.037 A 
BRANCH  51  65
ATOM     65  C   UNL     1     -11.079  17.370   1.897  1.00  0.00     0.058 A 
ATOM     66  C   UNL     1     -12.206  17.056   2.674  1.00  0.00     0.135 A 
ATOM     67  C   UNL     1     -11.259  17.508   0.511  1.00  0.00     0.135 A 
ATOM     68  F   UNL     1     -12.088  16.894   4.002  1.00  0.00    -0.206 F 
ATOM     69  C   UNL     1     -13.460  16.874   2.100  1.00  0.00     0.059 A 
ATOM     70  C   UNL     1     -12.510  17.358  -0.082  1.00  0.00     0.059 A 
ATOM     71  F   UNL     1     -10.216  17.803  -0.281  1.00  0.00    -0.206 F 
ATOM     72  C   UNL     1     -13.603  17.033   0.721  1.00  0.00     0.060 A 
BRANCH  72  73
ATOM     73  S   UNL     1     -15.245  16.825   0.000  1.00  0.00     0.124 S 
ATOM     74  O   UNL     1     -15.446  15.386   0.143  1.00  0.00    -0.237 OA
ATOM     75  O   UNL     1     -16.070  17.669   0.859  1.00  0.00    -0.237 OA
ATOM     76  O   UNL     1     -15.079  17.301  -1.370  1.00  0.00    -0.744 OA
ENDBRANCH  72  73
ENDBRANCH  51  65
BRANCH  52  77
ATOM     77  C   UNL     1      -2.232  18.677   6.386  1.00  0.00     0.058 A 
ATOM     78  C   UNL     1      -2.111  19.497   7.519  1.00  0.00     0.135 A 
ATOM     79  C   UNL     1      -1.058  18.111   5.864  1.00  0.00     0.135 A 
ATOM     80  F   UNL     1      -3.202  20.064   8.055  1.00  0.00    -0.206 F 
ATOM     81  C   UNL     1      -0.872  19.787   8.082  1.00  0.00     0.059 A 
ATOM     82  C   UNL     1       0.189  18.359   6.430  1.00  0.00     0.059 A 
ATOM     83  F   UNL     1      -1.117  17.302   4.794  1.00  0.00    -0.206 F 
ATOM     84  C   UNL     1       0.274  19.218   7.524  1.00  0.00     0.060 A 
BRANCH  84  85
ATOM     85  S   UNL     1       1.879  19.612   8.252  1.00  0.00     0.124 S 
ATOM     86  O   UNL     1       2.068  20.989   7.813  1.00  0.00    -0.237 OA
ATOM     87  O   UNL     1       1.624  19.424   9.677  1.00  0.00    -0.237 OA
ATOM     88  O   UNL     1       2.771  18.627   7.647  1.00  0.00    -0.744 OA
ENDBRANCH  84  85
ENDBRANCH  52  77
BRANCH  64  89
ATOM     89  C   UNL     1      -6.700  22.953   3.174  1.00  0.00     0.058 A 
ATOM     90  C   UNL     1      -5.825  23.553   2.254  1.00  0.00     0.135 A 
ATOM     91  C   UNL     1      -7.617  23.782   3.841  1.00  0.00     0.135 A 
ATOM     92  F   UNL     1      -4.924  22.808   1.594  1.00  0.00    -0.206 F 
ATOM     93  C   UNL     1      -5.842  24.925   2.024  1.00  0.00     0.059 A 
ATOM     94  C   UNL     1      -7.674  25.151   3.602  1.00  0.00     0.059 A 
ATOM     95  F   UNL     1      -8.484  23.259   4.723  1.00  0.00    -0.206 F 
ATOM     96  C   UNL     1      -6.773  25.715   2.701  1.00  0.00     0.060 A 
BRANCH  96  97
ATOM     97  S   UNL     1      -6.808  27.488   2.364  1.00  0.00     0.124 S 
ATOM     98  O   UNL     1      -5.590  27.939   3.028  1.00  0.00    -0.237 OA
ATOM     99  O   UNL     1      -6.786  27.528   0.904  1.00  0.00    -0.237 OA
ATOM    100  O   UNL     1      -8.057  27.928   2.978  1.00  0.00    -0.744 OA
ENDBRANCH  96  97
ENDBRANCH  64  89
ENDBRANCH  38  39
ENDBRANCH  30  33
ENDBRANCH  28  29
ENDBRANCH  27  28
ENDBRANCH  26  27
ENDBRANCH   1  26
TORSDOF 19
