REMARK SMILES CN(C)c1oc(/C=N/c2ccc(O)c(C(=O)NCCCCCCNC(=O)c3ccc(-c4c5nc(c(-c6c(F)cc(S(=O)(=O)[O-])cc6F)c6ccc([nH]6)c(-c6c(F)cc(S(=O)(=O)[O-])cc6F)c6nc(c(-c7c(F)cc(S(=O)(=O)[O-])cc7F)c7ccc4[nH]7)C=C6)C=C5)cc3)c2)cc1Br
REMARK SMILES IDX 20 1 19 2 18 3 17 4 15 5 16 6 14 8 9 9 10 10 93 11 11 12
REMARK SMILES IDX 12 13 8 14 7 15 6 16 4 17 5 18 95 19 94 20 96 21 2 22 1 23
REMARK SMILES IDX 3 24 13 25 21 27 22 28 23 29 24 30 25 31 26 33 27 34 28 35
REMARK SMILES IDX 92 36 29 37 91 38 30 39 31 40 32 41 85 42 33 43 90 44 84 45
REMARK SMILES IDX 86 46 34 47 89 48 83 49 82 50 35 52 69 53 48 54 68 55 49 56
REMARK SMILES IDX 52 57 67 58 87 59 50 60 51 61 66 63 88 64 53 65 36 66 37 67
REMARK SMILES IDX 46 68 38 69 39 70 45 71 47 72 40 73 41 74 42 75 43 76 44 77
REMARK SMILES IDX 70 78 71 79 80 80 72 81 73 82 79 83 81 84 74 85 75 86 76 87
REMARK SMILES IDX 77 88 78 89 54 90 55 91 64 92 56 93 57 94 63 95 65 96 58 97
REMARK SMILES IDX 59 98 60 99 61 100 62 101
REMARK H PARENT 17 7 13 26 24 32 86 51 52 62
REMARK Flexibility Score: inf
ROOT
ATOM      1  C   UNL     1       0.471   2.444 -15.742  1.00  0.00     0.002 C 
ENDROOT
BRANCH   1   2
ATOM      2  C   UNL     1      -0.194   2.546 -14.364  1.00  0.00     0.021 C 
BRANCH   2   3
ATOM      3  C   UNL     1      -0.209   1.225 -13.586  1.00  0.00     0.116 C 
BRANCH   3   4
ATOM      4  N   UNL     1       1.053   1.040 -12.901  1.00  0.00    -0.352 N 
ATOM      5  C   UNL     1       1.451   1.251 -11.609  1.00  0.00     0.255 C 
ATOM      6  O   UNL     1       2.647   1.048 -11.374  1.00  0.00    -0.269 OA
ATOM      7  H   UNL     1       1.768   0.692 -13.481  1.00  0.00     0.163 HD
BRANCH   5   8
ATOM      8  C   UNL     1       0.557   1.618 -10.467  1.00  0.00     0.083 A 
ATOM      9  C   UNL     1       0.349   1.471  -8.021  1.00  0.00     0.064 A 
ATOM     10  C   UNL     1      -0.820   2.227  -8.076  1.00  0.00     0.032 A 
ATOM     11  C   UNL     1       1.006   1.154  -9.212  1.00  0.00     0.046 A 
ATOM     12  C   UNL     1      -1.286   2.704  -9.301  1.00  0.00     0.049 A 
ATOM     13  C   UNL     1      -0.575   2.442 -10.482  1.00  0.00     0.128 A 
BRANCH   9  14
ATOM     14  N   UNL     1       0.993   1.198  -6.811  1.00  0.00    -0.253 NA
ATOM     15  C   UNL     1       0.382   0.540  -5.884  1.00  0.00     0.158 C 
BRANCH  15  16
ATOM     16  C   UNL     1       1.036   0.384  -4.615  1.00  0.00     0.149 A 
ATOM     17  C   UNL     1       1.169  -0.175  -2.481  1.00  0.00     0.210 A 
ATOM     18  O   UNL     1       0.387  -0.264  -3.606  1.00  0.00    -0.438 OA
ATOM     19  C   UNL     1       2.334   0.490  -2.811  1.00  0.00     0.082 A 
ATOM     20  C   UNL     1       2.262   0.836  -4.172  1.00  0.00     0.070 A 
ATOM     21  Br  UNL     1       3.831   0.905  -1.758  1.00  0.00    -0.045 Br
BRANCH  17  22
ATOM     22  N   UNL     1       0.651  -0.701  -1.341  1.00  0.00    -0.348 N 
ATOM     23  C   UNL     1       1.067  -0.222  -0.037  1.00  0.00     0.146 C 
ATOM     24  C   UNL     1      -0.424  -1.673  -1.417  1.00  0.00     0.146 C 
ENDBRANCH  17  22
ENDBRANCH  15  16
ENDBRANCH   9  14
BRANCH  13  25
ATOM     25  O   UNL     1      -0.983   3.097 -11.606  1.00  0.00    -0.507 OA
ATOM     26  H   UNL     1      -1.745   3.641 -11.581  1.00  0.00     0.293 HD
ENDBRANCH  13  25
ENDBRANCH   5   8
ENDBRANCH   3   4
ENDBRANCH   2   3
ENDBRANCH   1   2
BRANCH   1  27
ATOM     27  C   UNL     1      -0.316   1.632 -16.777  1.00  0.00     0.002 C 
BRANCH  27  28
ATOM     28  C   UNL     1      -1.746   2.117 -17.045  1.00  0.00     0.021 C 
BRANCH  28  29
ATOM     29  C   UNL     1      -1.859   3.557 -17.544  1.00  0.00     0.116 C 
BRANCH  29  30
ATOM     30  N   UNL     1      -1.220   3.734 -18.836  1.00  0.00    -0.352 N 
ATOM     31  C   UNL     1      -1.732   4.215 -20.015  1.00  0.00     0.251 C 
ATOM     32  H   UNL     1      -0.273   3.468 -18.872  1.00  0.00     0.163 HD
ATOM     33  O   UNL     1      -1.090   4.078 -21.052  1.00  0.00    -0.269 OA
BRANCH  31  34
ATOM     34  C   UNL     1      -3.052   4.888 -20.050  1.00  0.00     0.039 A 
ATOM     35  C   UNL     1      -3.916   4.610 -21.113  1.00  0.00     0.014 A 
ATOM     36  C   UNL     1      -3.419   5.830 -19.083  1.00  0.00     0.014 A 
ATOM     37  C   UNL     1      -5.162   5.238 -21.182  1.00  0.00     0.010 A 
ATOM     38  C   UNL     1      -4.685   6.418 -19.124  1.00  0.00     0.010 A 
ATOM     39  C   UNL     1      -5.566   6.131 -20.177  1.00  0.00    -0.014 A 
BRANCH  39  40
ATOM     40  C   UNL     1      -6.913   6.758 -20.221  1.00  0.00     0.031 A 
ATOM     41  C   UNL     1      -7.063   8.237 -20.456  1.00  0.00     0.074 A 
ATOM     42  C   UNL     1      -8.004   5.992 -20.025  1.00  0.00     0.049 A 
ATOM     43  N   UNL     1      -8.156   8.955 -20.522  1.00  0.00    -0.248 NA
ATOM     44  C   UNL     1      -5.825   9.016 -20.618  1.00  0.00     0.031 C 
ATOM     45  C   UNL     1      -7.988   4.555 -19.738  1.00  0.00     0.029 A 
ATOM     46  N   UNL     1      -9.338   6.311 -20.037  1.00  0.00    -0.354 N 
ATOM     47  C   UNL     1      -7.741  10.265 -20.731  1.00  0.00     0.074 A 
ATOM     48  C   UNL     1      -6.293  10.251 -20.734  1.00  0.00     0.031 C 
ATOM     49  C   UNL     1      -9.251   4.114 -19.624  1.00  0.00     0.029 A 
ATOM     50  C   UNL     1     -10.165   5.237 -19.808  1.00  0.00     0.049 A 
ATOM     51  H   UNL     1      -9.672   7.224 -20.194  1.00  0.00     0.167 HD
ATOM     52  C   UNL     1      -8.496  11.373 -20.927  1.00  0.00     0.037 A 
ATOM     53  C   UNL     1     -11.509   5.164 -19.758  1.00  0.00     0.037 A 
ATOM     54  C   UNL     1      -9.936  11.381 -20.948  1.00  0.00     0.049 A 
ATOM     55  C   UNL     1     -12.323   6.404 -20.003  1.00  0.00     0.074 A 
ATOM     56  C   UNL     1     -10.790  12.447 -21.179  1.00  0.00     0.029 A 
ATOM     57  N   UNL     1     -10.737  10.269 -20.738  1.00  0.00    -0.354 N 
ATOM     58  N   UNL     1     -11.910   7.625 -20.247  1.00  0.00    -0.248 NA
ATOM     59  C   UNL     1     -13.784   6.255 -19.975  1.00  0.00     0.031 C 
ATOM     60  C   UNL     1     -12.107  11.983 -21.084  1.00  0.00     0.029 A 
ATOM     61  C   UNL     1     -12.074  10.623 -20.826  1.00  0.00     0.049 A 
ATOM     62  H   UNL     1     -10.405   9.360 -20.553  1.00  0.00     0.167 HD
ATOM     63  C   UNL     1     -13.061   8.385 -20.420  1.00  0.00     0.074 A 
ATOM     64  C   UNL     1     -14.185   7.483 -20.273  1.00  0.00     0.031 C 
ATOM     65  C   UNL     1     -13.179   9.712 -20.675  1.00  0.00     0.037 A 
BRANCH  52  66
ATOM     66  C   UNL     1      -7.778  12.674 -21.157  1.00  0.00     0.058 A 
ATOM     67  C   UNL     1      -7.128  12.944 -22.372  1.00  0.00     0.135 A 
ATOM     68  C   UNL     1      -7.785  13.681 -20.180  1.00  0.00     0.135 A 
ATOM     69  F   UNL     1      -7.079  12.009 -23.334  1.00  0.00    -0.206 F 
ATOM     70  C   UNL     1      -6.496  14.161 -22.604  1.00  0.00     0.059 A 
ATOM     71  C   UNL     1      -7.177  14.915 -20.398  1.00  0.00     0.059 A 
ATOM     72  F   UNL     1      -8.391  13.474 -19.000  1.00  0.00    -0.206 F 
ATOM     73  C   UNL     1      -6.526  15.141 -21.611  1.00  0.00     0.060 A 
BRANCH  73  74
ATOM     74  S   UNL     1      -5.720  16.724 -21.935  1.00  0.00     0.124 S 
ATOM     75  O   UNL     1      -4.312  16.367 -21.793  1.00  0.00    -0.237 OA
ATOM     76  O   UNL     1      -6.163  17.029 -23.292  1.00  0.00    -0.237 OA
ATOM     77  O   UNL     1      -6.255  17.596 -20.894  1.00  0.00    -0.744 OA
ENDBRANCH  73  74
ENDBRANCH  52  66
BRANCH  53  78
ATOM     78  C   UNL     1     -12.177   3.864 -19.489  1.00  0.00     0.058 A 
ATOM     79  C   UNL     1     -12.866   3.184 -20.504  1.00  0.00     0.135 A 
ATOM     80  C   UNL     1     -12.149   3.284 -18.212  1.00  0.00     0.135 A 
ATOM     81  F   UNL     1     -12.922   3.703 -21.740  1.00  0.00    -0.206 F 
ATOM     82  C   UNL     1     -13.530   1.987 -20.257  1.00  0.00     0.059 A 
ATOM     83  C   UNL     1     -12.787   2.076 -17.946  1.00  0.00     0.059 A 
ATOM     84  F   UNL     1     -11.486   3.886 -17.213  1.00  0.00    -0.206 F 
ATOM     85  C   UNL     1     -13.488   1.443 -18.972  1.00  0.00     0.060 A 
BRANCH  85  86
ATOM     86  S   UNL     1     -14.327  -0.125 -18.661  1.00  0.00     0.124 S 
ATOM     87  O   UNL     1     -15.714   0.306 -18.532  1.00  0.00    -0.237 OA
ATOM     88  O   UNL     1     -14.005  -0.895 -19.859  1.00  0.00    -0.237 OA
ATOM     89  O   UNL     1     -13.695  -0.601 -17.433  1.00  0.00    -0.744 OA
ENDBRANCH  85  86
ENDBRANCH  53  78
BRANCH  65  90
ATOM     90  C   UNL     1     -14.571  10.254 -20.827  1.00  0.00     0.058 A 
ATOM     91  C   UNL     1     -15.413  10.431 -19.718  1.00  0.00     0.135 A 
ATOM     92  C   UNL     1     -15.066  10.605 -22.092  1.00  0.00     0.135 A 
ATOM     93  F   UNL     1     -14.987  10.104 -18.487  1.00  0.00    -0.206 F 
ATOM     94  C   UNL     1     -16.713  10.903 -19.862  1.00  0.00     0.059 A 
ATOM     95  C   UNL     1     -16.356  11.101 -22.257  1.00  0.00     0.059 A 
ATOM     96  F   UNL     1     -14.296  10.464 -23.183  1.00  0.00    -0.206 F 
ATOM     97  C   UNL     1     -17.178  11.229 -21.138  1.00  0.00     0.060 A 
BRANCH  97  98
ATOM     98  S   UNL     1     -18.867  11.840 -21.319  1.00  0.00     0.124 S 
ATOM     99  O   UNL     1     -19.635  10.601 -21.251  1.00  0.00    -0.237 OA
ATOM    100  O   UNL     1     -19.005  12.735 -20.173  1.00  0.00    -0.237 OA
ATOM    101  O   UNL     1     -18.849  12.500 -22.621  1.00  0.00    -0.744 OA
ENDBRANCH  97  98
ENDBRANCH  65  90
ENDBRANCH  39  40
ENDBRANCH  31  34
ENDBRANCH  29  30
ENDBRANCH  28  29
ENDBRANCH  27  28
ENDBRANCH   1  27
TORSDOF 20
