REMARK SMILES COc1ccc(-c2cnc(N)c(C(=O)NCCCCCCNC(=O)c3ccc(-c4c5nc(c(-c6c(F)cc(S(=O)(=O)[O-])cc6F)c6ccc([nH]6)c(-c6c(F)cc(S(=O)(=O)[O-])cc6F)c6nc(c(-c7c(F)cc(S(=O)(=O)[O-])cc7F)c7ccc4[nH]7)C=C6)C=C5)cc3)c2)c(C)c1
REMARK SMILES IDX 19 1 18 2 17 3 16 4 15 5 13 6 14 7 12 9 7 10 8 11 91 12 9 13
REMARK SMILES IDX 10 14 6 15 3 16 4 17 94 18 5 19 92 20 93 21 2 22 1 23 11 24
REMARK SMILES IDX 20 27 21 28 22 29 23 30 24 32 25 33 26 34 90 35 27 36 89 37
REMARK SMILES IDX 28 38 29 39 30 40 83 41 31 42 88 43 82 44 84 45 32 46 87 47
REMARK SMILES IDX 81 48 80 49 33 51 67 52 46 53 66 54 47 55 50 56 65 57 85 58
REMARK SMILES IDX 48 59 49 60 64 62 86 63 51 64 34 65 35 66 44 67 36 68 37 69
REMARK SMILES IDX 43 70 45 71 38 72 39 73 40 74 41 75 42 76 68 77 69 78 78 79
REMARK SMILES IDX 70 80 71 81 77 82 79 83 72 84 73 85 74 86 75 87 76 88 52 89
REMARK SMILES IDX 53 90 62 91 54 92 55 93 61 94 63 95 56 96 57 97 58 98 59 99
REMARK SMILES IDX 60 100
REMARK H PARENT 15 8 11 25 11 26 22 31 84 50 50 61
REMARK Flexibility Score: inf
ROOT
ATOM      1  C   UNL     1       1.188 -12.747   6.755  1.00  0.00     0.002 C 
ENDROOT
BRANCH   1   2
ATOM      2  C   UNL     1       0.064 -11.858   7.308  1.00  0.00     0.002 C 
BRANCH   2   3
ATOM      3  C   UNL     1       0.364 -10.414   7.730  1.00  0.00     0.021 C 
BRANCH   3   4
ATOM      4  C   UNL     1       1.223  -9.544   6.813  1.00  0.00     0.116 C 
BRANCH   4   5
ATOM      5  N   UNL     1       0.793  -9.488   5.429  1.00  0.00    -0.352 N 
ATOM      6  C   UNL     1       1.056  -8.545   4.462  1.00  0.00     0.255 C 
ATOM      7  O   UNL     1       0.633  -8.747   3.321  1.00  0.00    -0.269 OA
ATOM      8  H   UNL     1       0.228 -10.238   5.137  1.00  0.00     0.163 HD
BRANCH   6   9
ATOM      9  C   UNL     1       1.762  -7.263   4.727  1.00  0.00     0.082 A 
ATOM     10  C   UNL     1       1.850  -4.867   4.233  1.00  0.00     0.001 A 
ATOM     11  C   UNL     1       2.950  -4.828   5.082  1.00  0.00     0.122 A 
ATOM     12  C   UNL     1       1.243  -6.120   4.083  1.00  0.00     0.028 A 
ATOM     13  N   UNL     1       3.509  -5.910   5.674  1.00  0.00    -0.238 NA
ATOM     14  C   UNL     1       2.949  -7.117   5.445  1.00  0.00     0.136 A 
BRANCH  10  15
ATOM     15  C   UNL     1       1.429  -3.670   3.482  1.00  0.00    -0.014 A 
ATOM     16  C   UNL     1       0.796  -1.370   1.941  1.00  0.00     0.119 A 
ATOM     17  C   UNL     1       2.071  -1.915   1.880  1.00  0.00     0.047 A 
ATOM     18  C   UNL     1      -0.151  -1.953   2.784  1.00  0.00     0.050 A 
ATOM     19  C   UNL     1       2.377  -3.051   2.636  1.00  0.00     0.013 A 
ATOM     20  C   UNL     1       0.145  -3.094   3.561  1.00  0.00    -0.040 A 
ATOM     21  C   UNL     1      -0.963  -3.659   4.409  1.00  0.00     0.045 C 
BRANCH  16  22
ATOM     22  O   UNL     1       0.372  -0.266   1.254  1.00  0.00    -0.497 OA
ATOM     23  C   UNL     1       1.085   0.032   0.059  1.00  0.00     0.278 C 
ENDBRANCH  16  22
ENDBRANCH  10  15
BRANCH  14  24
ATOM     24  N   UNL     1       3.688  -8.154   5.970  1.00  0.00    -0.383 N 
ATOM     25  H   UNL     1       4.517  -7.966   6.465  1.00  0.00     0.158 HD
ATOM     26  H   UNL     1       3.386  -9.084   5.849  1.00  0.00     0.158 HD
ENDBRANCH  14  24
ENDBRANCH   6   9
ENDBRANCH   4   5
ENDBRANCH   3   4
ENDBRANCH   2   3
ENDBRANCH   1   2
BRANCH   1  27
ATOM     27  C   UNL     1       2.523 -12.800   7.497  1.00  0.00     0.021 C 
BRANCH  27  28
ATOM     28  C   UNL     1       2.446 -13.089   8.990  1.00  0.00     0.116 C 
BRANCH  28  29
ATOM     29  N   UNL     1       2.889 -14.417   9.375  1.00  0.00    -0.352 N 
ATOM     30  C   UNL     1       3.380 -14.750  10.636  1.00  0.00     0.251 C 
ATOM     31  H   UNL     1       2.840 -15.131   8.699  1.00  0.00     0.163 HD
ATOM     32  O   UNL     1       4.297 -15.520  10.818  1.00  0.00    -0.269 OA
BRANCH  30  33
ATOM     33  C   UNL     1       2.607 -14.203  11.779  1.00  0.00     0.039 A 
ATOM     34  C   UNL     1       1.767 -15.068  12.489  1.00  0.00     0.014 A 
ATOM     35  C   UNL     1       2.538 -12.827  11.967  1.00  0.00     0.014 A 
ATOM     36  C   UNL     1       0.740 -14.539  13.273  1.00  0.00     0.010 A 
ATOM     37  C   UNL     1       1.466 -12.307  12.663  1.00  0.00     0.010 A 
ATOM     38  C   UNL     1       0.546 -13.158  13.291  1.00  0.00    -0.014 A 
BRANCH  38  39
ATOM     39  C   UNL     1      -0.634 -12.495  13.839  1.00  0.00     0.031 A 
ATOM     40  C   UNL     1      -0.538 -11.630  15.041  1.00  0.00     0.074 A 
ATOM     41  C   UNL     1      -1.789 -12.515  13.138  1.00  0.00     0.049 A 
ATOM     42  N   UNL     1      -1.547 -11.255  15.757  1.00  0.00    -0.248 NA
ATOM     43  C   UNL     1       0.734 -11.128  15.548  1.00  0.00     0.031 C 
ATOM     44  C   UNL     1      -2.906 -11.582  13.262  1.00  0.00     0.029 A 
ATOM     45  N   UNL     1      -2.259 -13.484  12.263  1.00  0.00    -0.354 N 
ATOM     46  C   UNL     1      -1.118 -10.250  16.597  1.00  0.00     0.074 A 
ATOM     47  C   UNL     1       0.322 -10.255  16.472  1.00  0.00     0.031 C 
ATOM     48  C   UNL     1      -3.991 -12.117  12.682  1.00  0.00     0.029 A 
ATOM     49  C   UNL     1      -3.660 -13.482  12.313  1.00  0.00     0.049 A 
ATOM     50  H   UNL     1      -1.704 -14.072  11.702  1.00  0.00     0.167 HD
ATOM     51  C   UNL     1      -2.031  -9.426  17.193  1.00  0.00     0.037 A 
ATOM     52  C   UNL     1      -4.357 -14.580  12.736  1.00  0.00     0.037 A 
ATOM     53  C   UNL     1      -3.400  -9.818  16.856  1.00  0.00     0.049 A 
ATOM     54  C   UNL     1      -5.161 -14.358  13.999  1.00  0.00     0.074 A 
ATOM     55  C   UNL     1      -4.302  -9.338  15.920  1.00  0.00     0.029 A 
ATOM     56  N   UNL     1      -3.918 -11.024  17.316  1.00  0.00    -0.354 N 
ATOM     57  N   UNL     1      -5.008 -13.335  14.793  1.00  0.00    -0.248 NA
ATOM     58  C   UNL     1      -6.186 -15.281  14.481  1.00  0.00     0.031 C 
ATOM     59  C   UNL     1      -5.345 -10.284  15.783  1.00  0.00     0.029 A 
ATOM     60  C   UNL     1      -5.082 -11.339  16.639  1.00  0.00     0.049 A 
ATOM     61  H   UNL     1      -3.512 -11.576  18.023  1.00  0.00     0.167 HD
ATOM     62  C   UNL     1      -5.827 -13.468  15.884  1.00  0.00     0.074 A 
ATOM     63  C   UNL     1      -6.573 -14.684  15.622  1.00  0.00     0.031 C 
ATOM     64  C   UNL     1      -5.805 -12.572  16.916  1.00  0.00     0.037 A 
BRANCH  51  65
ATOM     65  C   UNL     1      -1.674  -8.082  17.807  1.00  0.00     0.058 A 
ATOM     66  C   UNL     1      -2.578  -6.996  17.761  1.00  0.00     0.135 A 
ATOM     67  C   UNL     1      -0.434  -7.777  18.401  1.00  0.00     0.135 A 
ATOM     68  F   UNL     1      -3.843  -7.149  17.349  1.00  0.00    -0.206 F 
ATOM     69  C   UNL     1      -2.231  -5.695  18.128  1.00  0.00     0.059 A 
ATOM     70  C   UNL     1      -0.040  -6.473  18.727  1.00  0.00     0.059 A 
ATOM     71  F   UNL     1       0.430  -8.745  18.736  1.00  0.00    -0.206 F 
ATOM     72  C   UNL     1      -0.943  -5.431  18.567  1.00  0.00     0.060 A 
BRANCH  72  73
ATOM     73  S   UNL     1      -0.480  -3.726  18.925  1.00  0.00     0.124 S 
ATOM     74  O   UNL     1      -0.844  -3.042  17.687  1.00  0.00    -0.237 OA
ATOM     75  O   UNL     1      -1.308  -3.423  20.086  1.00  0.00    -0.237 OA
ATOM     76  O   UNL     1       0.955  -3.811  19.183  1.00  0.00    -0.744 OA
ENDBRANCH  72  73
ENDBRANCH  51  65
BRANCH  52  77
ATOM     77  C   UNL     1      -3.711 -15.863  12.344  1.00  0.00     0.058 A 
ATOM     78  C   UNL     1      -3.693 -16.182  10.974  1.00  0.00     0.135 A 
ATOM     79  C   UNL     1      -2.754 -16.471  13.169  1.00  0.00     0.135 A 
ATOM     80  F   UNL     1      -4.606 -15.645  10.148  1.00  0.00    -0.206 F 
ATOM     81  C   UNL     1      -2.654 -16.914  10.411  1.00  0.00     0.059 A 
ATOM     82  C   UNL     1      -1.707 -17.218  12.626  1.00  0.00     0.059 A 
ATOM     83  F   UNL     1      -2.732 -16.213  14.485  1.00  0.00    -0.206 F 
ATOM     84  C   UNL     1      -1.625 -17.357  11.239  1.00  0.00     0.060 A 
BRANCH  84  85
ATOM     85  S   UNL     1      -0.103 -17.940  10.452  1.00  0.00     0.124 S 
ATOM     86  O   UNL     1      -0.598 -18.991   9.570  1.00  0.00    -0.237 OA
ATOM     87  O   UNL     1       0.370 -16.726   9.785  1.00  0.00    -0.237 OA
ATOM     88  O   UNL     1       0.705 -18.389  11.579  1.00  0.00    -0.744 OA
ENDBRANCH  84  85
ENDBRANCH  52  77
BRANCH  64  89
ATOM     89  C   UNL     1      -6.529 -12.717  18.233  1.00  0.00     0.058 A 
ATOM     90  C   UNL     1      -6.801 -13.950  18.850  1.00  0.00     0.135 A 
ATOM     91  C   UNL     1      -6.866 -11.569  18.992  1.00  0.00     0.135 A 
ATOM     92  F   UNL     1      -6.427 -15.108  18.287  1.00  0.00    -0.206 F 
ATOM     93  C   UNL     1      -7.429 -14.043  20.095  1.00  0.00     0.059 A 
ATOM     94  C   UNL     1      -7.444 -11.639  20.258  1.00  0.00     0.059 A 
ATOM     95  F   UNL     1      -6.634 -10.332  18.529  1.00  0.00    -0.206 F 
ATOM     96  C   UNL     1      -7.749 -12.882  20.791  1.00  0.00     0.060 A 
BRANCH  96  97
ATOM     97  S   UNL     1      -8.510 -12.987  22.422  1.00  0.00     0.124 S 
ATOM     98  O   UNL     1      -9.927 -12.889  22.090  1.00  0.00    -0.237 OA
ATOM     99  O   UNL     1      -8.066 -14.290  22.909  1.00  0.00    -0.237 OA
ATOM    100  O   UNL     1      -7.942 -11.840  23.125  1.00  0.00    -0.744 OA
ENDBRANCH  96  97
ENDBRANCH  64  89
ENDBRANCH  38  39
ENDBRANCH  30  33
ENDBRANCH  28  29
ENDBRANCH  27  28
ENDBRANCH   1  27
TORSDOF 19
