REMARK SMILES O=C(NCCCCCCNC(=O)c1ccc(-c2c3nc(c(-c4c(F)cc(S(=O)(=O)[O-])cc4F)c4ccc([nH]4)c(-c4c(F)cc(S(=O)(=O)[O-])cc4F)c4nc(c(-c5c(F)cc(S(=O)(=O)[O-])cc5F)c5ccc2[nH]5)C=C4)C=C3)cc1)c1ccc(C#CC#C[C@H]2C[C@@H](O)C2)cc1
REMARK SMILES IDX 6 1 5 2 4 3 3 4 1 5 2 6 79 8 80 9 93 10 81 11 92 12 82 13
REMARK SMILES IDX 83 14 84 15 85 16 86 17 87 18 91 19 88 20 89 21 90 22 7 24
REMARK SMILES IDX 8 25 9 26 10 27 11 28 12 30 13 31 14 32 78 33 15 34 77 35
REMARK SMILES IDX 16 36 17 37 18 38 71 39 19 40 76 41 70 42 72 43 20 44 75 45
REMARK SMILES IDX 69 46 68 47 21 49 55 50 34 51 54 52 35 53 38 54 53 55 73 56
REMARK SMILES IDX 36 57 37 58 52 60 74 61 39 62 22 63 23 64 32 65 24 66 25 67
REMARK SMILES IDX 31 68 33 69 26 70 27 71 28 72 29 73 30 74 56 75 57 76 66 77
REMARK SMILES IDX 58 78 59 79 65 80 67 81 60 82 61 83 62 84 63 85 64 86 40 87
REMARK SMILES IDX 41 88 50 89 42 90 43 91 49 92 51 93 44 94 45 95 46 96 47 97
REMARK SMILES IDX 48 98
REMARK H PARENT 3 7 90 23 10 29 72 48 38 59
REMARK Flexibility Score: inf
ROOT
ATOM      1  C   UNL     1       4.300  -1.654   3.157  1.00  0.00     0.002 C 
ENDROOT
BRANCH   1   2
ATOM      2  C   UNL     1       4.805  -0.528   2.249  1.00  0.00     0.021 C 
BRANCH   2   3
ATOM      3  C   UNL     1       4.526  -0.735   0.762  1.00  0.00     0.116 C 
BRANCH   3   4
ATOM      4  N   UNL     1       3.100  -0.759   0.479  1.00  0.00    -0.352 N 
ATOM      5  O   UNL     1       1.127   0.050  -0.255  1.00  0.00    -0.269 OA
ATOM      6  C   UNL     1       2.353   0.095  -0.290  1.00  0.00     0.251 C 
ATOM      7  H   UNL     1       2.599  -1.494   0.900  1.00  0.00     0.163 HD
BRANCH   6   8
ATOM      8  C   UNL     1       3.023   1.087  -1.157  1.00  0.00     0.039 A 
ATOM      9  C   UNL     1       4.041   0.706  -2.038  1.00  0.00     0.015 A 
ATOM     10  C   UNL     1       2.591   2.416  -1.112  1.00  0.00     0.015 A 
ATOM     11  C   UNL     1       4.675   1.669  -2.824  1.00  0.00     0.018 A 
ATOM     12  C   UNL     1       3.218   3.375  -1.910  1.00  0.00     0.018 A 
ATOM     13  C   UNL     1       4.266   3.003  -2.757  1.00  0.00     0.026 A 
BRANCH  13  14
ATOM     14  C   UNL     1       4.906   3.982  -3.577  1.00  0.00    -0.053 C 
ATOM     15  C   UNL     1       5.430   4.792  -4.293  1.00  0.00    -0.010 C 
BRANCH  15  16
ATOM     16  C   UNL     1       6.066   5.806  -5.243  1.00  0.00    -0.015 C 
ATOM     17  C   UNL     1       6.533   6.590  -6.024  1.00  0.00    -0.085 C 
BRANCH  17  18
ATOM     18  C   UNL     1       7.058   7.521  -6.994  1.00  0.00     0.070 C 
ATOM     19  C   UNL     1       6.729   9.013  -6.742  1.00  0.00     0.048 C 
ATOM     20  C   UNL     1       8.549   7.909  -6.838  1.00  0.00     0.048 C 
ATOM     21  C   UNL     1       8.146   9.340  -7.269  1.00  0.00     0.116 C 
BRANCH  21  22
ATOM     22  O   UNL     1       8.833  10.429  -6.630  1.00  0.00    -0.393 OA
ATOM     23  H   UNL     1       8.806  10.309  -5.668  1.00  0.00     0.210 HD
ENDBRANCH  21  22
ENDBRANCH  17  18
ENDBRANCH  15  16
ENDBRANCH  13  14
ENDBRANCH   6   8
ENDBRANCH   3   4
ENDBRANCH   2   3
ENDBRANCH   1   2
BRANCH   1  24
ATOM     24  C   UNL     1       4.817  -3.053   2.810  1.00  0.00     0.002 C 
BRANCH  24  25
ATOM     25  C   UNL     1       6.340  -3.186   2.747  1.00  0.00     0.021 C 
BRANCH  25  26
ATOM     26  C   UNL     1       7.065  -2.791   4.029  1.00  0.00     0.116 C 
BRANCH  26  27
ATOM     27  N   UNL     1       6.710  -3.651   5.147  1.00  0.00    -0.352 N 
ATOM     28  C   UNL     1       7.524  -4.394   5.966  1.00  0.00     0.251 C 
ATOM     29  H   UNL     1       5.747  -3.709   5.345  1.00  0.00     0.163 HD
ATOM     30  O   UNL     1       7.035  -5.220   6.730  1.00  0.00    -0.269 OA
BRANCH  28  31
ATOM     31  C   UNL     1       8.991  -4.210   5.908  1.00  0.00     0.039 A 
ATOM     32  C   UNL     1       9.815  -5.337   5.913  1.00  0.00     0.014 A 
ATOM     33  C   UNL     1       9.552  -2.931   5.843  1.00  0.00     0.014 A 
ATOM     34  C   UNL     1      11.197  -5.182   5.790  1.00  0.00     0.010 A 
ATOM     35  C   UNL     1      10.920  -2.784   5.631  1.00  0.00     0.010 A 
ATOM     36  C   UNL     1      11.759  -3.907   5.608  1.00  0.00    -0.014 A 
BRANCH  36  37
ATOM     37  C   UNL     1      13.219  -3.735   5.387  1.00  0.00     0.031 A 
ATOM     38  C   UNL     1      14.047  -2.938   6.359  1.00  0.00     0.074 A 
ATOM     39  C   UNL     1      13.791  -4.252   4.281  1.00  0.00     0.049 A 
ATOM     40  N   UNL     1      15.319  -2.635   6.306  1.00  0.00    -0.248 NA
ATOM     41  C   UNL     1      13.348  -2.386   7.530  1.00  0.00     0.031 C 
ATOM     42  C   UNL     1      13.086  -5.003   3.239  1.00  0.00     0.029 A 
ATOM     43  N   UNL     1      15.091  -4.218   3.841  1.00  0.00    -0.354 N 
ATOM     44  C   UNL     1      15.572  -1.861   7.433  1.00  0.00     0.074 A 
ATOM     45  C   UNL     1      14.306  -1.679   8.110  1.00  0.00     0.031 C 
ATOM     46  C   UNL     1      13.964  -5.378   2.296  1.00  0.00     0.029 A 
ATOM     47  C   UNL     1      15.283  -4.853   2.637  1.00  0.00     0.049 A 
ATOM     48  H   UNL     1      15.817  -3.780   4.342  1.00  0.00     0.167 HD
ATOM     49  C   UNL     1      16.754  -1.369   7.877  1.00  0.00     0.037 A 
ATOM     50  C   UNL     1      16.391  -4.984   1.879  1.00  0.00     0.037 A 
ATOM     51  C   UNL     1      18.008  -1.553   7.193  1.00  0.00     0.049 A 
ATOM     52  C   UNL     1      17.687  -4.399   2.372  1.00  0.00     0.074 A 
ATOM     53  C   UNL     1      19.267  -1.126   7.576  1.00  0.00     0.029 A 
ATOM     54  N   UNL     1      18.163  -2.205   5.977  1.00  0.00    -0.354 N 
ATOM     55  N   UNL     1      17.921  -3.723   3.472  1.00  0.00    -0.248 NA
ATOM     56  C   UNL     1      18.871  -4.600   1.527  1.00  0.00     0.031 C 
ATOM     57  C   UNL     1      20.171  -1.460   6.563  1.00  0.00     0.029 A 
ATOM     58  C   UNL     1      19.491  -2.165   5.582  1.00  0.00     0.049 A 
ATOM     59  H   UNL     1      17.436  -2.633   5.470  1.00  0.00     0.167 HD
ATOM     60  C   UNL     1      19.283  -3.442   3.465  1.00  0.00     0.074 A 
ATOM     61  C   UNL     1      19.822  -4.035   2.258  1.00  0.00     0.031 C 
ATOM     62  C   UNL     1      20.019  -2.759   4.376  1.00  0.00     0.037 A 
BRANCH  49  63
ATOM     63  C   UNL     1      16.741  -0.580   9.162  1.00  0.00     0.058 A 
ATOM     64  C   UNL     1      16.433  -1.178  10.396  1.00  0.00     0.135 A 
ATOM     65  C   UNL     1      17.057   0.789   9.165  1.00  0.00     0.135 A 
ATOM     66  F   UNL     1      16.111  -2.480  10.455  1.00  0.00    -0.206 F 
ATOM     67  C   UNL     1      16.396  -0.441  11.575  1.00  0.00     0.059 A 
ATOM     68  C   UNL     1      17.064   1.537  10.338  1.00  0.00     0.059 A 
ATOM     69  F   UNL     1      17.362   1.415   8.018  1.00  0.00    -0.206 F 
ATOM     70  C   UNL     1      16.712   0.917  11.536  1.00  0.00     0.060 A 
BRANCH  70  71
ATOM     71  S   UNL     1      16.646   1.859  13.074  1.00  0.00     0.124 S 
ATOM     72  O   UNL     1      15.210   1.891  13.334  1.00  0.00    -0.237 OA
ATOM     73  O   UNL     1      17.434   1.030  13.979  1.00  0.00    -0.237 OA
ATOM     74  O   UNL     1      17.247   3.140  12.716  1.00  0.00    -0.744 OA
ENDBRANCH  70  71
ENDBRANCH  49  63
BRANCH  50  75
ATOM     75  C   UNL     1      16.314  -5.703   0.578  1.00  0.00     0.058 A 
ATOM     76  C   UNL     1      16.942  -6.943   0.391  1.00  0.00     0.135 A 
ATOM     77  C   UNL     1      15.582  -5.174  -0.497  1.00  0.00     0.135 A 
ATOM     78  F   UNL     1      17.662  -7.487   1.384  1.00  0.00    -0.206 F 
ATOM     79  C   UNL     1      16.856  -7.629  -0.817  1.00  0.00     0.059 A 
ATOM     80  C   UNL     1      15.454  -5.856  -1.703  1.00  0.00     0.059 A 
ATOM     81  F   UNL     1      14.948  -3.998  -0.367  1.00  0.00    -0.206 F 
ATOM     82  C   UNL     1      16.101  -7.080  -1.855  1.00  0.00     0.060 A 
BRANCH  82  83
ATOM     83  S   UNL     1      15.940  -8.012  -3.394  1.00  0.00     0.124 S 
ATOM     84  O   UNL     1      17.290  -7.920  -3.938  1.00  0.00    -0.237 OA
ATOM     85  O   UNL     1      15.533  -9.327  -2.911  1.00  0.00    -0.237 OA
ATOM     86  O   UNL     1      14.913  -7.276  -4.126  1.00  0.00    -0.744 OA
ENDBRANCH  82  83
ENDBRANCH  50  75
BRANCH  62  87
ATOM     87  C   UNL     1      21.501  -2.643   4.130  1.00  0.00     0.058 A 
ATOM     88  C   UNL     1      22.026  -1.857   3.092  1.00  0.00     0.135 A 
ATOM     89  C   UNL     1      22.413  -3.289   4.983  1.00  0.00     0.135 A 
ATOM     90  F   UNL     1      21.203  -1.222   2.242  1.00  0.00    -0.206 F 
ATOM     91  C   UNL     1      23.398  -1.736   2.892  1.00  0.00     0.059 A 
ATOM     92  C   UNL     1      23.788  -3.153   4.825  1.00  0.00     0.059 A 
ATOM     93  F   UNL     1      21.969  -4.047   5.999  1.00  0.00    -0.206 F 
ATOM     94  C   UNL     1      24.271  -2.384   3.768  1.00  0.00     0.060 A 
BRANCH  94  95
ATOM     95  S   UNL     1      26.048  -2.188   3.518  1.00  0.00     0.124 S 
ATOM     96  O   UNL     1      26.259  -2.950   2.291  1.00  0.00    -0.237 OA
ATOM     97  O   UNL     1      26.186  -0.740   3.397  1.00  0.00    -0.237 OA
ATOM     98  O   UNL     1      26.629  -2.770   4.724  1.00  0.00    -0.744 OA
ENDBRANCH  94  95
ENDBRANCH  62  87
ENDBRANCH  36  37
ENDBRANCH  28  31
ENDBRANCH  26  27
ENDBRANCH  25  26
ENDBRANCH  24  25
ENDBRANCH   1  24
TORSDOF 20
