REMARK SMILES CC[C@@H](NC(=O)N1CCO[C@H](CC(=O)NCCCCCCNC(=O)c2ccc(-c3c4nc(c(-c5c(F)cc(S(=O)(=O)[O-])cc5F)c5ccc([nH]5)c(-c5c(F)cc(S(=O)(=O)[O-])cc5F)c5nc(c(-c6c(F)cc(S(=O)(=O)[O-])cc6F)c6ccc3[nH]6)C=C5)C=C4)cc2)C1)c1cccs1
REMARK SMILES IDX 18 1 17 2 16 3 15 4 13 5 14 6 12 8 11 9 7 10 8 11 91 12 9 13
REMARK SMILES IDX 10 14 5 15 4 16 6 18 3 19 2 20 1 21 92 22 93 23 96 24 94 25
REMARK SMILES IDX 95 26 19 27 20 28 21 29 22 30 23 31 24 33 25 34 26 35 90 36
REMARK SMILES IDX 27 37 89 38 28 39 29 40 30 41 83 42 31 43 88 44 82 45 84 46
REMARK SMILES IDX 32 47 87 48 81 49 80 50 33 52 67 53 46 54 66 55 47 56 50 57
REMARK SMILES IDX 65 58 85 59 48 60 49 61 64 63 86 64 51 65 34 66 35 67 44 68
REMARK SMILES IDX 36 69 37 70 43 71 45 72 38 73 39 74 40 75 41 76 42 77 68 78
REMARK SMILES IDX 69 79 78 80 70 81 71 82 77 83 79 84 72 85 73 86 74 87 75 88
REMARK SMILES IDX 76 89 52 90 53 91 62 92 54 93 55 94 61 95 63 96 56 97 57 98
REMARK SMILES IDX 58 99 59 100 60 101
REMARK H PARENT 15 7 4 17 22 32 84 51 50 62
REMARK Flexibility Score: inf
ROOT
ATOM      1  C   UNL     1       2.186   2.816  -7.009  1.00  0.00     0.002 C 
ENDROOT
BRANCH   1   2
ATOM      2  C   UNL     1       0.751   2.261  -6.838  1.00  0.00     0.021 C 
BRANCH   2   3
ATOM      3  C   UNL     1      -0.010   2.498  -5.508  1.00  0.00     0.116 C 
BRANCH   3   4
ATOM      4  N   UNL     1      -1.465   2.213  -5.638  1.00  0.00    -0.356 N 
ATOM      5  C   UNL     1      -2.455   1.423  -5.128  1.00  0.00     0.222 C 
ATOM      6  O   UNL     1      -3.598   1.735  -5.495  1.00  0.00    -0.275 OA
ATOM      7  H   UNL     1      -1.846   2.797  -6.332  1.00  0.00     0.163 HD
BRANCH   5   8
ATOM      8  C   UNL     1      -2.308   0.300  -4.111  1.00  0.00     0.133 C 
BRANCH   8   9
ATOM      9  C   UNL     1      -3.119  -0.998  -4.423  1.00  0.00     0.147 C 
ATOM     10  N   UNL     1      -1.516  -2.610  -3.404  1.00  0.00    -0.320 N 
ATOM     11  C   UNL     1      -1.228  -3.147  -4.739  1.00  0.00     0.150 C 
ATOM     12  C   UNL     1      -2.891  -2.102  -3.357  1.00  0.00     0.154 C 
ATOM     13  C   UNL     1      -1.577  -2.144  -5.852  1.00  0.00     0.182 C 
ATOM     14  O   UNL     1      -2.883  -1.574  -5.725  1.00  0.00    -0.374 OA
BRANCH  10  15
ATOM     15  C   UNL     1      -1.090  -3.353  -2.329  1.00  0.00     0.318 C 
ATOM     16  N   UNL     1       0.136  -3.127  -1.791  1.00  0.00    -0.330 N 
ATOM     17  H   UNL     1       0.450  -3.876  -1.235  1.00  0.00     0.166 HD
ATOM     18  O   UNL     1      -1.799  -4.218  -1.815  1.00  0.00    -0.249 OA
BRANCH  16  19
ATOM     19  C   UNL     1       1.102  -2.019  -1.847  1.00  0.00     0.124 C 
BRANCH  19  20
ATOM     20  C   UNL     1       0.609  -0.785  -1.048  1.00  0.00     0.027 C 
ATOM     21  C   UNL     1       1.048  -0.824   0.416  1.00  0.00     0.006 C 
ENDBRANCH  19  20
BRANCH  19  22
ATOM     22  C   UNL     1       1.540  -1.791  -3.266  1.00  0.00     0.027 A 
ATOM     23  C   UNL     1       2.256  -2.628  -4.110  1.00  0.00     0.017 A 
ATOM     24  S   UNL     1       1.232  -0.335  -4.070  1.00  0.00    -0.147 S 
ATOM     25  C   UNL     1       2.179  -2.213  -5.473  1.00  0.00     0.012 A 
ATOM     26  C   UNL     1       1.486  -1.039  -5.590  1.00  0.00     0.065 A 
ENDBRANCH  19  22
ENDBRANCH  16  19
ENDBRANCH  10  15
ENDBRANCH   8   9
ENDBRANCH   5   8
ENDBRANCH   3   4
ENDBRANCH   2   3
ENDBRANCH   1   2
BRANCH   1  27
ATOM     27  C   UNL     1       3.338   2.410  -6.077  1.00  0.00     0.002 C 
BRANCH  27  28
ATOM     28  C   UNL     1       4.027   1.045  -6.226  1.00  0.00     0.021 C 
BRANCH  28  29
ATOM     29  C   UNL     1       4.276   0.501  -7.629  1.00  0.00     0.116 C 
BRANCH  29  30
ATOM     30  N   UNL     1       5.114   1.398  -8.404  1.00  0.00    -0.352 N 
ATOM     31  C   UNL     1       6.387   1.224  -8.873  1.00  0.00     0.251 C 
ATOM     32  H   UNL     1       4.704   2.265  -8.625  1.00  0.00     0.163 HD
ATOM     33  O   UNL     1       7.032   2.214  -9.244  1.00  0.00    -0.269 OA
BRANCH  31  34
ATOM     34  C   UNL     1       7.001  -0.118  -8.952  1.00  0.00     0.039 A 
ATOM     35  C   UNL     1       8.350  -0.267  -8.613  1.00  0.00     0.014 A 
ATOM     36  C   UNL     1       6.276  -1.216  -9.425  1.00  0.00     0.014 A 
ATOM     37  C   UNL     1       8.957  -1.521  -8.707  1.00  0.00     0.010 A 
ATOM     38  C   UNL     1       6.866  -2.479  -9.456  1.00  0.00     0.010 A 
ATOM     39  C   UNL     1       8.214  -2.644  -9.104  1.00  0.00    -0.014 A 
BRANCH  39  40
ATOM     40  C   UNL     1       8.834  -3.994  -9.150  1.00  0.00     0.031 A 
ATOM     41  C   UNL     1       8.975  -4.723 -10.459  1.00  0.00     0.074 A 
ATOM     42  C   UNL     1       9.225  -4.577  -8.000  1.00  0.00     0.049 A 
ATOM     43  N   UNL     1       9.448  -5.920 -10.689  1.00  0.00    -0.248 NA
ATOM     44  C   UNL     1       8.500  -4.025 -11.664  1.00  0.00     0.031 C 
ATOM     45  C   UNL     1       9.098  -3.981  -6.667  1.00  0.00     0.029 A 
ATOM     46  N   UNL     1       9.800  -5.800  -7.761  1.00  0.00    -0.354 N 
ATOM     47  C   UNL     1       9.322  -6.122 -12.059  1.00  0.00     0.074 A 
ATOM     48  C   UNL     1       8.674  -4.947 -12.600  1.00  0.00     0.031 C 
ATOM     49  C   UNL     1       9.604  -4.827  -5.756  1.00  0.00     0.029 A 
ATOM     50  C   UNL     1      10.049  -6.042  -6.429  1.00  0.00     0.049 A 
ATOM     51  H   UNL     1      10.015  -6.443  -8.474  1.00  0.00     0.167 HD
ATOM     52  C   UNL     1       9.728  -7.181 -12.800  1.00  0.00     0.037 A 
ATOM     53  C   UNL     1      10.566  -7.126  -5.819  1.00  0.00     0.037 A 
ATOM     54  C   UNL     1      10.383  -8.340 -12.247  1.00  0.00     0.049 A 
ATOM     55  C   UNL     1      10.991  -8.299  -6.660  1.00  0.00     0.074 A 
ATOM     56  C   UNL     1      10.884  -9.445 -12.913  1.00  0.00     0.029 A 
ATOM     57  N   UNL     1      10.620  -8.548 -10.895  1.00  0.00    -0.354 N 
ATOM     58  N   UNL     1      10.928  -8.444  -7.963  1.00  0.00    -0.248 NA
ATOM     59  C   UNL     1      11.561  -9.453  -5.953  1.00  0.00     0.031 C 
ATOM     60  C   UNL     1      11.367 -10.347 -11.960  1.00  0.00     0.029 A 
ATOM     61  C   UNL     1      11.229  -9.778 -10.704  1.00  0.00     0.049 A 
ATOM     62  H   UNL     1      10.389  -7.915 -10.178  1.00  0.00     0.167 HD
ATOM     63  C   UNL     1      11.472  -9.694  -8.234  1.00  0.00     0.074 A 
ATOM     64  C   UNL     1      11.876 -10.256  -6.960  1.00  0.00     0.031 C 
ATOM     65  C   UNL     1      11.625 -10.321  -9.427  1.00  0.00     0.037 A 
BRANCH  52  66
ATOM     66  C   UNL     1       9.474  -7.141 -14.284  1.00  0.00     0.058 A 
ATOM     67  C   UNL     1      10.146  -6.241 -15.127  1.00  0.00     0.135 A 
ATOM     68  C   UNL     1       8.575  -8.042 -14.879  1.00  0.00     0.135 A 
ATOM     69  F   UNL     1      11.008  -5.348 -14.614  1.00  0.00    -0.206 F 
ATOM     70  C   UNL     1       9.914  -6.213 -16.499  1.00  0.00     0.059 A 
ATOM     71  C   UNL     1       8.350  -8.054 -16.254  1.00  0.00     0.059 A 
ATOM     72  F   UNL     1       7.902  -8.925 -14.124  1.00  0.00    -0.206 F 
ATOM     73  C   UNL     1       9.014  -7.125 -17.053  1.00  0.00     0.060 A 
BRANCH  73  74
ATOM     74  S   UNL     1       8.730  -7.078 -18.835  1.00  0.00     0.124 S 
ATOM     75  O   UNL     1       7.990  -5.828 -18.979  1.00  0.00    -0.237 OA
ATOM     76  O   UNL     1      10.090  -7.073 -19.366  1.00  0.00    -0.237 OA
ATOM     77  O   UNL     1       7.963  -8.293 -19.091  1.00  0.00    -0.744 OA
ENDBRANCH  73  74
ENDBRANCH  52  66
BRANCH  53  78
ATOM     78  C   UNL     1      10.720  -7.143  -4.338  1.00  0.00     0.058 A 
ATOM     79  C   UNL     1      11.989  -7.125  -3.741  1.00  0.00     0.135 A 
ATOM     80  C   UNL     1       9.601  -7.157  -3.490  1.00  0.00     0.135 A 
ATOM     81  F   UNL     1      13.091  -7.116  -4.507  1.00  0.00    -0.206 F 
ATOM     82  C   UNL     1      12.146  -7.137  -2.358  1.00  0.00     0.059 A 
ATOM     83  C   UNL     1       9.731  -7.139  -2.105  1.00  0.00     0.059 A 
ATOM     84  F   UNL     1       8.363  -7.157  -4.009  1.00  0.00    -0.206 F 
ATOM     85  C   UNL     1      11.009  -7.138  -1.548  1.00  0.00     0.060 A 
BRANCH  85  86
ATOM     86  S   UNL     1      11.222  -7.101   0.244  1.00  0.00     0.124 S 
ATOM     87  O   UNL     1      11.735  -8.441   0.507  1.00  0.00    -0.237 OA
ATOM     88  O   UNL     1      12.172  -6.007   0.415  1.00  0.00    -0.237 OA
ATOM     89  O   UNL     1       9.874  -6.834   0.737  1.00  0.00    -0.744 OA
ENDBRANCH  85  86
ENDBRANCH  53  78
BRANCH  65  90
ATOM     90  C   UNL     1      12.279 -11.675  -9.419  1.00  0.00     0.058 A 
ATOM     91  C   UNL     1      11.628 -12.809  -8.908  1.00  0.00     0.135 A 
ATOM     92  C   UNL     1      13.553 -11.851  -9.984  1.00  0.00     0.135 A 
ATOM     93  F   UNL     1      10.412 -12.695  -8.349  1.00  0.00    -0.206 F 
ATOM     94  C   UNL     1      12.225 -14.064  -8.937  1.00  0.00     0.059 A 
ATOM     95  C   UNL     1      14.155 -13.103 -10.054  1.00  0.00     0.059 A 
ATOM     96  F   UNL     1      14.217 -10.803 -10.496  1.00  0.00    -0.206 F 
ATOM     97  C   UNL     1      13.487 -14.203  -9.517  1.00  0.00     0.060 A 
BRANCH  97  98
ATOM     98  S   UNL     1      14.230 -15.846  -9.584  1.00  0.00     0.124 S 
ATOM     99  O   UNL     1      14.565 -16.075  -8.182  1.00  0.00    -0.237 OA
ATOM    100  O   UNL     1      13.141 -16.657 -10.118  1.00  0.00    -0.237 OA
ATOM    101  O   UNL     1      15.370 -15.668 -10.480  1.00  0.00    -0.744 OA
ENDBRANCH  97  98
ENDBRANCH  65  90
ENDBRANCH  39  40
ENDBRANCH  31  34
ENDBRANCH  29  30
ENDBRANCH  28  29
ENDBRANCH  27  28
ENDBRANCH   1  27
TORSDOF 21
