REMARK SMILES CC(C)(O)C#Cc1ccc(C(=O)N[C@@H](CCC(N)=O)C(=O)NCCCCCCNC(=O)c2ccc(-c3c4nc(c(-c5c(F)cc(S(=O)(=O)[O-])cc5F)c5ccc([nH]5)c(-c5c(F)cc(S(=O)(=O)[O-])cc5F)c5nc(c(-c6c(F)cc(S(=O)(=O)[O-])cc6F)c6ccc3[nH]6)C=C5)C=C4)cc2)s1
REMARK SMILES IDX 24 1 23 2 22 3 20 4 21 5 14 7 13 8 11 9 12 10 10 12 7 13
REMARK SMILES IDX 8 14 98 15 9 16 6 17 5 18 2 19 1 20 3 21 4 22 15 24 16 25
REMARK SMILES IDX 17 26 18 27 19 28 25 31 26 32 27 33 28 34 29 35 30 36 31 38
REMARK SMILES IDX 32 39 33 40 97 41 34 42 96 43 35 44 36 45 37 46 90 47 38 48
REMARK SMILES IDX 95 49 89 50 91 51 39 52 94 53 88 54 87 55 40 57 74 58 53 59
REMARK SMILES IDX 73 60 54 61 57 62 72 63 92 64 55 65 56 66 71 68 93 69 58 70
REMARK SMILES IDX 41 71 42 72 51 73 43 74 44 75 50 76 52 77 45 78 46 79 47 80
REMARK SMILES IDX 48 81 49 82 75 83 76 84 85 85 77 86 78 87 84 88 86 89 79 90
REMARK SMILES IDX 80 91 81 92 82 93 83 94 59 95 60 96 69 97 61 98 62 99 68 100
REMARK SMILES IDX 70 101 63 102 64 103 65 104 66 105 67 106
REMARK H PARENT 22 6 13 11 4 23 18 29 18 30 29 37 91 56 57 67
REMARK Flexibility Score: inf
ROOT
ATOM      1  C   UNL     1       8.308   5.729  -7.933  1.00  0.00     0.021 C 
ENDROOT
BRANCH   1   2
ATOM      2  C   UNL     1       7.129   4.772  -7.869  1.00  0.00     0.116 C 
BRANCH   2   3
ATOM      3  N   UNL     1       7.060   4.003  -6.650  1.00  0.00    -0.354 N 
ATOM      4  C   UNL     1       6.002   3.379  -6.053  1.00  0.00     0.242 C 
ATOM      5  O   UNL     1       6.256   2.618  -5.114  1.00  0.00    -0.273 OA
ATOM      6  H   UNL     1       7.916   3.912  -6.171  1.00  0.00     0.163 HD
BRANCH   4   7
ATOM      7  C   UNL     1       4.545   3.586  -6.535  1.00  0.00     0.172 C 
BRANCH   7   8
ATOM      8  N   UNL     1       4.217   5.018  -6.583  1.00  0.00    -0.340 N 
ATOM      9  C   UNL     1       3.719   5.878  -5.623  1.00  0.00     0.262 C 
ATOM     10  O   UNL     1       3.722   7.071  -5.930  1.00  0.00    -0.268 OA
ATOM     11  H   UNL     1       4.383   5.441  -7.457  1.00  0.00     0.164 HD
BRANCH   9  12
ATOM     12  C   UNL     1       3.059   5.394  -4.428  1.00  0.00     0.093 A 
ATOM     13  C   UNL     1       1.951   3.787  -3.025  1.00  0.00     0.078 A 
ATOM     14  C   UNL     1       1.280   4.990  -2.993  1.00  0.00     0.030 A 
ATOM     15  S   UNL     1       3.562   4.046  -3.504  1.00  0.00    -0.121 S 
ATOM     16  C   UNL     1       1.963   5.962  -3.792  1.00  0.00     0.027 A 
BRANCH  13  17
ATOM     17  C   UNL     1       1.453   2.520  -2.639  1.00  0.00    -0.053 C 
ATOM     18  C   UNL     1       1.019   1.404  -2.123  1.00  0.00    -0.063 C 
BRANCH  18  19
ATOM     19  C   UNL     1       0.512   0.103  -1.522  1.00  0.00     0.120 C 
ATOM     20  C   UNL     1       0.991  -0.018  -0.077  1.00  0.00     0.056 C 
ATOM     21  C   UNL     1       0.992  -1.075  -2.365  1.00  0.00     0.056 C 
BRANCH  19  22
ATOM     22  O   UNL     1      -0.913   0.131  -1.535  1.00  0.00    -0.378 OA
ATOM     23  H   UNL     1      -1.255  -0.693  -1.154  1.00  0.00     0.212 HD
ENDBRANCH  19  22
ENDBRANCH  18  19
ENDBRANCH  13  17
ENDBRANCH   9  12
ENDBRANCH   7   8
BRANCH   7  24
ATOM     24  C   UNL     1       4.021   2.775  -7.733  1.00  0.00     0.045 C 
BRANCH  24  25
ATOM     25  C   UNL     1       4.873   2.592  -8.979  1.00  0.00     0.102 C 
BRANCH  25  26
ATOM     26  C   UNL     1       6.006   1.601  -8.805  1.00  0.00     0.217 C 
ATOM     27  N   UNL     1       6.824   1.477  -9.888  1.00  0.00    -0.370 N 
ATOM     28  O   UNL     1       6.198   0.928  -7.803  1.00  0.00    -0.275 OA
ATOM     29  H   UNL     1       6.662   2.022 -10.692  1.00  0.00     0.159 HD
ATOM     30  H   UNL     1       7.576   0.841  -9.868  1.00  0.00     0.159 HD
ENDBRANCH  25  26
ENDBRANCH  24  25
ENDBRANCH   7  24
ENDBRANCH   4   7
ENDBRANCH   2   3
ENDBRANCH   1   2
BRANCH   1  31
ATOM     31  C   UNL     1       9.678   5.051  -8.016  1.00  0.00     0.002 C 
BRANCH  31  32
ATOM     32  C   UNL     1       9.841   3.948  -9.073  1.00  0.00     0.002 C 
BRANCH  32  33
ATOM     33  C   UNL     1       9.417   4.281 -10.511  1.00  0.00     0.021 C 
BRANCH  33  34
ATOM     34  C   UNL     1      10.097   5.502 -11.110  1.00  0.00     0.116 C 
BRANCH  34  35
ATOM     35  N   UNL     1      11.541   5.343 -11.213  1.00  0.00    -0.352 N 
ATOM     36  C   UNL     1      12.470   6.277 -11.627  1.00  0.00     0.251 C 
ATOM     37  H   UNL     1      11.898   4.462 -10.956  1.00  0.00     0.163 HD
ATOM     38  O   UNL     1      13.572   5.926 -12.013  1.00  0.00    -0.269 OA
BRANCH  36  39
ATOM     39  C   UNL     1      12.097   7.705 -11.602  1.00  0.00     0.039 A 
ATOM     40  C   UNL     1      12.424   8.541 -12.673  1.00  0.00     0.014 A 
ATOM     41  C   UNL     1      11.395   8.197 -10.503  1.00  0.00     0.014 A 
ATOM     42  C   UNL     1      11.965   9.856 -12.666  1.00  0.00     0.010 A 
ATOM     43  C   UNL     1      10.843   9.456 -10.551  1.00  0.00     0.010 A 
ATOM     44  C   UNL     1      11.152  10.303 -11.612  1.00  0.00    -0.014 A 
BRANCH  44  45
ATOM     45  C   UNL     1      10.508  11.614 -11.687  1.00  0.00     0.031 A 
ATOM     46  C   UNL     1       9.667  11.824 -12.904  1.00  0.00     0.074 A 
ATOM     47  C   UNL     1      10.467  12.476 -10.647  1.00  0.00     0.049 A 
ATOM     48  N   UNL     1       9.842  12.675 -13.861  1.00  0.00    -0.248 NA
ATOM     49  C   UNL     1       8.569  10.874 -13.155  1.00  0.00     0.031 C 
ATOM     50  C   UNL     1      10.960  12.269  -9.280  1.00  0.00     0.029 A 
ATOM     51  N   UNL     1       9.861  13.692 -10.560  1.00  0.00    -0.354 N 
ATOM     52  C   UNL     1       8.751  12.524 -14.718  1.00  0.00     0.074 A 
ATOM     53  C   UNL     1       8.118  11.289 -14.341  1.00  0.00     0.031 C 
ATOM     54  C   UNL     1      10.424  13.199  -8.460  1.00  0.00     0.029 A 
ATOM     55  C   UNL     1       9.694  14.163  -9.261  1.00  0.00     0.049 A 
ATOM     56  H   UNL     1       9.564  14.197 -11.352  1.00  0.00     0.167 HD
ATOM     57  C   UNL     1       8.321  13.548 -15.510  1.00  0.00     0.037 A 
ATOM     58  C   UNL     1       8.979  15.248  -8.870  1.00  0.00     0.037 A 
ATOM     59  C   UNL     1       9.331  14.572 -15.618  1.00  0.00     0.049 A 
ATOM     60  C   UNL     1       8.813  16.111 -10.067  1.00  0.00     0.074 A 
ATOM     61  C   UNL     1      10.636  14.609 -16.070  1.00  0.00     0.029 A 
ATOM     62  N   UNL     1       9.165  15.710 -14.867  1.00  0.00    -0.354 N 
ATOM     63  N   UNL     1       9.799  16.718 -10.671  1.00  0.00    -0.248 NA
ATOM     64  C   UNL     1       7.609  15.937 -10.865  1.00  0.00     0.031 C 
ATOM     65  C   UNL     1      11.311  15.486 -15.171  1.00  0.00     0.029 A 
ATOM     66  C   UNL     1      10.368  15.990 -14.273  1.00  0.00     0.049 A 
ATOM     67  H   UNL     1       8.334  16.230 -14.772  1.00  0.00     0.167 HD
ATOM     68  C   UNL     1       9.508  16.610 -12.023  1.00  0.00     0.074 A 
ATOM     69  C   UNL     1       8.105  16.206 -12.075  1.00  0.00     0.031 C 
ATOM     70  C   UNL     1      10.502  16.582 -12.959  1.00  0.00     0.037 A 
BRANCH  57  71
ATOM     71  C   UNL     1       6.874  13.814 -15.877  1.00  0.00     0.058 A 
ATOM     72  C   UNL     1       6.573  14.865 -16.773  1.00  0.00     0.135 A 
ATOM     73  C   UNL     1       5.766  13.286 -15.178  1.00  0.00     0.135 A 
ATOM     74  F   UNL     1       7.542  15.443 -17.501  1.00  0.00    -0.206 F 
ATOM     75  C   UNL     1       5.294  15.411 -16.890  1.00  0.00     0.059 A 
ATOM     76  C   UNL     1       4.473  13.780 -15.320  1.00  0.00     0.059 A 
ATOM     77  F   UNL     1       5.888  12.329 -14.252  1.00  0.00    -0.206 F 
ATOM     78  C   UNL     1       4.253  14.873 -16.141  1.00  0.00     0.060 A 
BRANCH  78  79
ATOM     79  S   UNL     1       2.627  15.643 -16.200  1.00  0.00     0.124 S 
ATOM     80  O   UNL     1       2.878  16.904 -15.514  1.00  0.00    -0.237 OA
ATOM     81  O   UNL     1       2.386  15.731 -17.637  1.00  0.00    -0.237 OA
ATOM     82  O   UNL     1       1.780  14.691 -15.486  1.00  0.00    -0.744 OA
ENDBRANCH  78  79
ENDBRANCH  57  71
BRANCH  58  83
ATOM     83  C   UNL     1       8.171  15.430  -7.634  1.00  0.00     0.058 A 
ATOM     84  C   UNL     1       7.691  16.697  -7.255  1.00  0.00     0.135 A 
ATOM     85  C   UNL     1       7.610  14.328  -6.955  1.00  0.00     0.135 A 
ATOM     86  F   UNL     1       8.154  17.801  -7.861  1.00  0.00    -0.206 F 
ATOM     87  C   UNL     1       6.678  16.860  -6.303  1.00  0.00     0.059 A 
ATOM     88  C   UNL     1       6.606  14.466  -5.996  1.00  0.00     0.059 A 
ATOM     89  F   UNL     1       7.955  13.072  -7.274  1.00  0.00    -0.206 F 
ATOM     90  C   UNL     1       6.125  15.735  -5.694  1.00  0.00     0.060 A 
BRANCH  90  91
ATOM     91  S   UNL     1       4.693  15.927  -4.604  1.00  0.00     0.124 S 
ATOM     92  O   UNL     1       5.283  16.585  -3.444  1.00  0.00    -0.237 OA
ATOM     93  O   UNL     1       3.796  16.745  -5.414  1.00  0.00    -0.237 OA
ATOM     94  O   UNL     1       4.248  14.553  -4.383  1.00  0.00    -0.744 OA
ENDBRANCH  90  91
ENDBRANCH  58  83
BRANCH  70  95
ATOM     95  C   UNL     1      11.894  16.989 -12.544  1.00  0.00     0.058 A 
ATOM     96  C   UNL     1      12.683  16.306 -11.601  1.00  0.00     0.135 A 
ATOM     97  C   UNL     1      12.510  18.029 -13.256  1.00  0.00     0.135 A 
ATOM     98  F   UNL     1      12.209  15.236 -10.948  1.00  0.00    -0.206 F 
ATOM     99  C   UNL     1      14.010  16.666 -11.353  1.00  0.00     0.059 A 
ATOM    100  C   UNL     1      13.839  18.384 -13.049  1.00  0.00     0.059 A 
ATOM    101  F   UNL     1      11.830  18.683 -14.213  1.00  0.00    -0.206 F 
ATOM    102  C   UNL     1      14.581  17.705 -12.086  1.00  0.00     0.060 A 
BRANCH 102 103
ATOM    103  S   UNL     1      16.319  18.119 -11.824  1.00  0.00     0.124 S 
ATOM    104  O   UNL     1      16.291  18.744 -10.506  1.00  0.00    -0.237 OA
ATOM    105  O   UNL     1      16.971  16.815 -11.893  1.00  0.00    -0.237 OA
ATOM    106  O   UNL     1      16.628  19.018 -12.934  1.00  0.00    -0.744 OA
ENDBRANCH 102 103
ENDBRANCH  70  95
ENDBRANCH  44  45
ENDBRANCH  36  39
ENDBRANCH  34  35
ENDBRANCH  33  34
ENDBRANCH  32  33
ENDBRANCH  31  32
ENDBRANCH   1  31
TORSDOF 24
