REMARK SMILES O=C(C[C@@H](NS(=O)(=O)c1ccc(Cl)cc1)c1ccc(F)cc1)NCCCCCCNC(=O)c1ccc(-c2c3nc(c(-c4c(F)cc(S(=O)(=O)[O-])cc4F)c4ccc([nH]4)c(-c4c(F)cc(S(=O)(=O)[O-])cc4F)c4nc(c(-c5c(F)cc(S(=O)(=O)[O-])cc5F)c5ccc2[nH]5)C=C4)C=C3)cc1
REMARK SMILES IDX 26 1 25 2 24 3 23 4 1 5 2 6 3 8 4 9 5 10 6 12 7 13 8 14 9 15
REMARK SMILES IDX 10 16 15 17 11 18 14 19 12 20 13 21 16 22 17 23 22 24 18 25
REMARK SMILES IDX 21 26 19 27 20 28 27 29 28 30 29 31 30 32 31 33 32 35 33 36
REMARK SMILES IDX 34 37 98 38 35 39 97 40 36 41 37 42 38 43 91 44 39 45 96 46
REMARK SMILES IDX 90 47 92 48 40 49 95 50 89 51 88 52 41 54 75 55 54 56 74 57
REMARK SMILES IDX 55 58 58 59 73 60 93 61 56 62 57 63 72 65 94 66 59 67 42 68
REMARK SMILES IDX 43 69 52 70 44 71 45 72 51 73 53 74 46 75 47 76 48 77 49 78
REMARK SMILES IDX 50 79 76 80 77 81 86 82 78 83 79 84 85 85 87 86 80 87 81 88
REMARK SMILES IDX 82 89 83 90 84 91 60 92 61 93 70 94 62 95 63 96 69 97 71 98
REMARK SMILES IDX 64 99 65 100 66 101 67 102 68 103
REMARK H PARENT 23 7 5 11 30 34 92 53 58 64
REMARK Flexibility Score: inf
ROOT
ATOM      1  C   UNL     1       4.260  -2.821  -2.492  1.00  0.00     0.002 C 
ENDROOT
BRANCH   1   2
ATOM      2  C   UNL     1       2.749  -2.561  -2.465  1.00  0.00     0.021 C 
BRANCH   2   3
ATOM      3  C   UNL     1       2.197  -2.118  -1.112  1.00  0.00     0.116 C 
BRANCH   3   4
ATOM      4  N   UNL     1       2.713  -0.824  -0.708  1.00  0.00    -0.356 N 
ATOM      5  O   UNL     1       1.249  -0.572   1.047  1.00  0.00    -0.275 OA
ATOM      6  C   UNL     1       2.173  -0.147   0.363  1.00  0.00     0.221 C 
ATOM      7  H   UNL     1       3.462  -0.423  -1.206  1.00  0.00     0.163 HD
BRANCH   6   8
ATOM      8  C   UNL     1       2.843   1.172   0.659  1.00  0.00     0.124 C 
BRANCH   8   9
ATOM      9  C   UNL     1       3.863   1.008   1.803  1.00  0.00     0.109 C 
BRANCH   9  10
ATOM     10  N   UNL     1       5.077   0.342   1.256  1.00  0.00    -0.203 NA
ATOM     11  H   UNL     1       5.593   1.049   0.733  1.00  0.00     0.142 HD
BRANCH  10  12
ATOM     12  S   UNL     1       6.173  -0.384   2.318  1.00  0.00     0.241 S 
ATOM     13  O   UNL     1       5.452  -0.779   3.510  1.00  0.00    -0.207 OA
ATOM     14  O   UNL     1       6.902  -1.336   1.515  1.00  0.00    -0.207 OA
BRANCH  12  15
ATOM     15  C   UNL     1       7.327   0.887   2.761  1.00  0.00     0.082 A 
ATOM     16  C   UNL     1       7.972   0.797   4.001  1.00  0.00     0.023 A 
ATOM     17  C   UNL     1       7.542   1.987   1.926  1.00  0.00     0.023 A 
ATOM     18  C   UNL     1       8.823   1.823   4.413  1.00  0.00     0.022 A 
ATOM     19  C   UNL     1       8.377   3.021   2.354  1.00  0.00     0.022 A 
ATOM     20  C   UNL     1       9.011   2.937   3.595  1.00  0.00     0.041 A 
ATOM     21  Cl  UNL     1      10.024   4.223   4.123  1.00  0.00    -0.084 Cl
ENDBRANCH  12  15
ENDBRANCH  10  12
ENDBRANCH   9  10
BRANCH   9  22
ATOM     22  C   UNL     1       4.206   2.358   2.429  1.00  0.00    -0.029 A 
ATOM     23  C   UNL     1       4.320   3.536   1.664  1.00  0.00     0.008 A 
ATOM     24  C   UNL     1       4.479   2.431   3.808  1.00  0.00     0.008 A 
ATOM     25  C   UNL     1       4.691   4.743   2.260  1.00  0.00     0.039 A 
ATOM     26  C   UNL     1       4.875   3.634   4.397  1.00  0.00     0.039 A 
ATOM     27  C   UNL     1       4.975   4.779   3.618  1.00  0.00     0.123 A 
ATOM     28  F   UNL     1       5.357   5.932   4.181  1.00  0.00    -0.207 F 
ENDBRANCH   9  22
ENDBRANCH   8   9
ENDBRANCH   6   8
ENDBRANCH   3   4
ENDBRANCH   2   3
ENDBRANCH   1   2
BRANCH   1  29
ATOM     29  C   UNL     1       4.759  -3.923  -1.554  1.00  0.00     0.002 C 
BRANCH  29  30
ATOM     30  C   UNL     1       4.106  -5.296  -1.739  1.00  0.00     0.021 C 
BRANCH  30  31
ATOM     31  C   UNL     1       4.188  -5.879  -3.147  1.00  0.00     0.116 C 
BRANCH  31  32
ATOM     32  N   UNL     1       5.554  -6.127  -3.579  1.00  0.00    -0.352 N 
ATOM     33  C   UNL     1       6.061  -7.210  -4.257  1.00  0.00     0.251 C 
ATOM     34  H   UNL     1       6.205  -5.424  -3.354  1.00  0.00     0.163 HD
ATOM     35  O   UNL     1       7.271  -7.314  -4.434  1.00  0.00    -0.269 OA
BRANCH  33  36
ATOM     36  C   UNL     1       5.147  -8.266  -4.749  1.00  0.00     0.039 A 
ATOM     37  C   UNL     1       5.461  -9.603  -4.492  1.00  0.00     0.014 A 
ATOM     38  C   UNL     1       3.988  -7.941  -5.461  1.00  0.00     0.014 A 
ATOM     39  C   UNL     1       4.582 -10.613  -4.893  1.00  0.00     0.010 A 
ATOM     40  C   UNL     1       3.088  -8.944  -5.815  1.00  0.00     0.010 A 
ATOM     41  C   UNL     1       3.373 -10.289  -5.531  1.00  0.00    -0.014 A 
BRANCH  41  42
ATOM     42  C   UNL     1       2.394 -11.339  -5.912  1.00  0.00     0.031 A 
ATOM     43  C   UNL     1       2.104 -11.605  -7.363  1.00  0.00     0.074 A 
ATOM     44  C   UNL     1       1.719 -12.005  -4.954  1.00  0.00     0.049 A 
ATOM     45  N   UNL     1       1.202 -12.391  -7.894  1.00  0.00    -0.248 NA
ATOM     46  C   UNL     1       2.919 -10.876  -8.348  1.00  0.00     0.031 C 
ATOM     47  C   UNL     1       1.890 -11.818  -3.512  1.00  0.00     0.029 A 
ATOM     48  N   UNL     1       0.743 -12.967  -5.049  1.00  0.00    -0.354 N 
ATOM     49  C   UNL     1       1.329 -12.239  -9.269  1.00  0.00     0.074 A 
ATOM     50  C   UNL     1       2.370 -11.260  -9.493  1.00  0.00     0.031 C 
ATOM     51  C   UNL     1       1.060 -12.648  -2.859  1.00  0.00     0.029 A 
ATOM     52  C   UNL     1       0.273 -13.400  -3.832  1.00  0.00     0.049 A 
ATOM     53  H   UNL     1       0.411 -13.314  -5.909  1.00  0.00     0.167 HD
ATOM     54  C   UNL     1       0.650 -12.872 -10.255  1.00  0.00     0.037 A 
ATOM     55  C   UNL     1      -0.691 -14.293  -3.532  1.00  0.00     0.037 A 
ATOM     56  C   UNL     1      -0.358 -13.874 -10.029  1.00  0.00     0.049 A 
ATOM     57  C   UNL     1      -1.424 -14.989  -4.646  1.00  0.00     0.074 A 
ATOM     58  C   UNL     1      -1.073 -14.599 -10.967  1.00  0.00     0.029 A 
ATOM     59  N   UNL     1      -0.784 -14.303  -8.782  1.00  0.00    -0.354 N 
ATOM     60  N   UNL     1      -1.277 -14.847  -5.941  1.00  0.00    -0.248 NA
ATOM     61  C   UNL     1      -2.453 -15.966  -4.261  1.00  0.00     0.031 C 
ATOM     62  C   UNL     1      -1.948 -15.450 -10.287  1.00  0.00     0.029 A 
ATOM     63  C   UNL     1      -1.755 -15.280  -8.926  1.00  0.00     0.049 A 
ATOM     64  H   UNL     1      -0.447 -13.964  -7.921  1.00  0.00     0.167 HD
ATOM     65  C   UNL     1      -2.177 -15.731  -6.525  1.00  0.00     0.074 A 
ATOM     66  C   UNL     1      -2.861 -16.410  -5.444  1.00  0.00     0.031 C 
ATOM     67  C   UNL     1      -2.413 -15.959  -7.839  1.00  0.00     0.037 A 
BRANCH  54  68
ATOM     68  C   UNL     1       0.984 -12.519 -11.675  1.00  0.00     0.058 A 
ATOM     69  C   UNL     1       0.082 -11.785 -12.461  1.00  0.00     0.135 A 
ATOM     70  C   UNL     1       2.168 -12.969 -12.281  1.00  0.00     0.135 A 
ATOM     71  F   UNL     1      -1.061 -11.325 -11.928  1.00  0.00    -0.206 F 
ATOM     72  C   UNL     1       0.333 -11.525 -13.804  1.00  0.00     0.059 A 
ATOM     73  C   UNL     1       2.450 -12.702 -13.617  1.00  0.00     0.059 A 
ATOM     74  F   UNL     1       3.073 -13.655 -11.565  1.00  0.00    -0.206 F 
ATOM     75  C   UNL     1       1.519 -11.992 -14.375  1.00  0.00     0.060 A 
BRANCH  75  76
ATOM     76  S   UNL     1       1.845 -11.627 -16.113  1.00  0.00     0.124 S 
ATOM     77  O   UNL     1       0.910 -12.521 -16.787  1.00  0.00    -0.237 OA
ATOM     78  O   UNL     1       1.533 -10.202 -16.191  1.00  0.00    -0.237 OA
ATOM     79  O   UNL     1       3.258 -11.958 -16.267  1.00  0.00    -0.744 OA
ENDBRANCH  75  76
ENDBRANCH  54  68
BRANCH  55  80
ATOM     80  C   UNL     1      -1.002 -14.597  -2.111  1.00  0.00     0.058 A 
ATOM     81  C   UNL     1      -1.673 -13.673  -1.296  1.00  0.00     0.135 A 
ATOM     82  C   UNL     1      -0.612 -15.816  -1.536  1.00  0.00     0.135 A 
ATOM     83  F   UNL     1      -2.058 -12.489  -1.797  1.00  0.00    -0.206 F 
ATOM     84  C   UNL     1      -1.932 -13.940   0.043  1.00  0.00     0.059 A 
ATOM     85  C   UNL     1      -0.879 -16.114  -0.204  1.00  0.00     0.059 A 
ATOM     86  F   UNL     1       0.021 -16.735  -2.282  1.00  0.00    -0.206 F 
ATOM     87  C   UNL     1      -1.527 -15.162   0.582  1.00  0.00     0.060 A 
BRANCH  87  88
ATOM     88  S   UNL     1      -1.873 -15.494   2.323  1.00  0.00     0.124 S 
ATOM     89  O   UNL     1      -0.894 -14.636   2.982  1.00  0.00    -0.237 OA
ATOM     90  O   UNL     1      -3.267 -15.078   2.445  1.00  0.00    -0.237 OA
ATOM     91  O   UNL     1      -1.638 -16.929   2.445  1.00  0.00    -0.744 OA
ENDBRANCH  87  88
ENDBRANCH  55  80
BRANCH  67  92
ATOM     92  C   UNL     1      -3.429 -17.004  -8.198  1.00  0.00     0.058 A 
ATOM     93  C   UNL     1      -3.019 -18.242  -8.719  1.00  0.00     0.135 A 
ATOM     94  C   UNL     1      -4.805 -16.744  -8.120  1.00  0.00     0.135 A 
ATOM     95  F   UNL     1      -1.713 -18.536  -8.815  1.00  0.00    -0.206 F 
ATOM     96  C   UNL     1      -3.941 -19.178  -9.175  1.00  0.00     0.059 A 
ATOM     97  C   UNL     1      -5.746 -17.674  -8.553  1.00  0.00     0.059 A 
ATOM     98  F   UNL     1      -5.245 -15.579  -7.619  1.00  0.00    -0.206 F 
ATOM     99  C   UNL     1      -5.302 -18.880  -9.097  1.00  0.00     0.060 A 
BRANCH  99 100
ATOM    100  S   UNL     1      -6.487 -20.099  -9.707  1.00  0.00     0.124 S 
ATOM    101  O   UNL     1      -6.326 -19.975 -11.151  1.00  0.00    -0.237 OA
ATOM    102  O   UNL     1      -5.989 -21.338  -9.116  1.00  0.00    -0.237 OA
ATOM    103  O   UNL     1      -7.761 -19.627  -9.173  1.00  0.00    -0.744 OA
ENDBRANCH  99 100
ENDBRANCH  67  92
ENDBRANCH  41  42
ENDBRANCH  33  36
ENDBRANCH  31  32
ENDBRANCH  30  31
ENDBRANCH  29  30
ENDBRANCH   1  29
TORSDOF 21
