REMARK SMILES NS(=O)(=O)c1ccc(-n2nc(NC(=O)NCCCCCCCCCCC(=O)NCCCCCCNC(=O)c3ccc(-c4c5nc(c(-c6c(F)cc(S(=O)(=O)[O-])cc6F)c6ccc([nH]6)c(-c6c(F)cc(S(=O)(=O)[O-])cc6F)c6nc(c(-c7c(F)cc(S(=O)(=O)[O-])cc7F)c7ccc4[nH]7)C=C6)C=C5)cc3)cc2-c2ccccc2)cc1
REMARK SMILES IDX 24 1 23 2 22 3 21 4 20 5 19 6 18 7 17 8 16 9 15 10 12 11
REMARK SMILES IDX 13 12 14 14 11 16 9 17 10 18 105 19 104 20 8 21 5 22 6 23
REMARK SMILES IDX 113 24 7 25 112 26 2 27 3 28 4 29 1 30 106 33 107 34 111 35
REMARK SMILES IDX 108 36 110 37 109 38 25 39 26 40 27 41 28 42 29 44 30 45
REMARK SMILES IDX 31 46 32 47 33 48 34 49 35 50 36 51 37 53 38 54 39 55 103 56
REMARK SMILES IDX 40 57 102 58 41 59 42 60 43 61 96 62 44 63 101 64 95 65
REMARK SMILES IDX 97 66 45 67 100 68 94 69 93 70 46 72 80 73 59 74 79 75 60 76
REMARK SMILES IDX 63 77 78 78 98 79 61 80 62 81 77 83 99 84 64 85 47 86 48 87
REMARK SMILES IDX 57 88 49 89 50 90 56 91 58 92 51 93 52 94 53 95 54 96 55 97
REMARK SMILES IDX 81 98 82 99 91 100 83 101 84 102 90 103 92 104 85 105 86 106
REMARK SMILES IDX 87 107 88 108 89 109 65 110 66 111 75 112 67 113 68 114
REMARK SMILES IDX 74 115 76 116 69 117 70 118 71 119 72 120 73 121
REMARK H PARENT 12 13 15 15 1 31 1 32 28 43 35 52 97 71 63 82
REMARK Flexibility Score: inf
ROOT
ATOM      1  C   UNL     1      -1.210   0.721   6.073  1.00  0.00     0.010 C 
ENDROOT
BRANCH   1   2
ATOM      2  C   UNL     1      -0.664  -0.531   6.758  1.00  0.00     0.001 C 
BRANCH   2   3
ATOM      3  C   UNL     1      -1.430  -1.821   6.437  1.00  0.00     0.000 C 
BRANCH   3   4
ATOM      4  C   UNL     1      -0.719  -2.721   5.445  1.00  0.00     0.000 C 
BRANCH   4   5
ATOM      5  C   UNL     1       0.572  -3.332   5.980  1.00  0.00     0.000 C 
BRANCH   5   6
ATOM      6  C   UNL     1       0.474  -4.126   7.288  1.00  0.00     0.000 C 
BRANCH   6   7
ATOM      7  C   UNL     1      -0.524  -5.289   7.316  1.00  0.00     0.002 C 
BRANCH   7   8
ATOM      8  C   UNL     1      -0.502  -6.244   6.122  1.00  0.00     0.021 C 
BRANCH   8   9
ATOM      9  C   UNL     1       0.871  -6.697   5.652  1.00  0.00     0.117 C 
BRANCH   9  10
ATOM     10  N   UNL     1       1.516  -7.704   6.451  1.00  0.00    -0.338 N 
ATOM     11  N   UNL     1       2.976  -8.696   4.841  1.00  0.00    -0.291 N 
ATOM     12  C   UNL     1       2.454  -8.608   6.087  1.00  0.00     0.320 C 
ATOM     13  H   UNL     1       3.398  -9.565   4.650  1.00  0.00     0.173 HD
ATOM     14  O   UNL     1       2.741  -9.474   6.920  1.00  0.00    -0.248 OA
ATOM     15  H   UNL     1       1.235  -7.740   7.394  1.00  0.00     0.165 HD
BRANCH  11  16
ATOM     16  C   UNL     1       3.034  -7.808   3.787  1.00  0.00     0.157 A 
ATOM     17  N   UNL     1       2.758  -6.048   2.625  1.00  0.00    -0.231 N 
ATOM     18  N   UNL     1       2.974  -6.479   3.881  1.00  0.00    -0.149 NA
ATOM     19  C   UNL     1       3.037  -7.034   1.689  1.00  0.00     0.076 A 
ATOM     20  C   UNL     1       3.201  -8.190   2.433  1.00  0.00     0.078 A 
BRANCH  17  21
ATOM     21  C   UNL     1       2.202  -4.757   2.404  1.00  0.00     0.065 A 
ATOM     22  C   UNL     1       1.151  -2.218   1.945  1.00  0.00     0.082 A 
ATOM     23  C   UNL     1       0.663  -3.306   1.217  1.00  0.00     0.024 A 
ATOM     24  C   UNL     1       2.133  -2.395   2.925  1.00  0.00     0.024 A 
ATOM     25  C   UNL     1       1.199  -4.575   1.438  1.00  0.00     0.030 A 
ATOM     26  C   UNL     1       2.647  -3.672   3.168  1.00  0.00     0.030 A 
BRANCH  22  27
ATOM     27  S   UNL     1       0.486  -0.610   1.637  1.00  0.00     0.238 S 
ATOM     28  O   UNL     1       0.988   0.327   2.609  1.00  0.00    -0.207 OA
ATOM     29  O   UNL     1      -0.926  -0.736   1.341  1.00  0.00    -0.207 OA
BRANCH  27  30
ATOM     30  N   UNL     1       1.228  -0.208   0.184  1.00  0.00    -0.225 NA
ATOM     31  H   UNL     1       0.921   0.719  -0.110  1.00  0.00     0.137 HD
ATOM     32  H   UNL     1       0.973  -0.892  -0.529  1.00  0.00     0.137 HD
ENDBRANCH  27  30
ENDBRANCH  22  27
ENDBRANCH  17  21
BRANCH  19  33
ATOM     33  C   UNL     1       3.158  -6.772   0.258  1.00  0.00     0.000 A 
ATOM     34  C   UNL     1       3.974  -5.717  -0.182  1.00  0.00     0.010 A 
ATOM     35  C   UNL     1       2.415  -7.494  -0.680  1.00  0.00     0.010 A 
ATOM     36  C   UNL     1       4.011  -5.356  -1.526  1.00  0.00     0.001 A 
ATOM     37  C   UNL     1       2.458  -7.135  -2.031  1.00  0.00     0.001 A 
ATOM     38  C   UNL     1       3.247  -6.063  -2.451  1.00  0.00     0.000 A 
ENDBRANCH  19  33
ENDBRANCH  11  16
ENDBRANCH   9  10
ENDBRANCH   8   9
ENDBRANCH   7   8
ENDBRANCH   6   7
ENDBRANCH   5   6
ENDBRANCH   4   5
ENDBRANCH   3   4
ENDBRANCH   2   3
ENDBRANCH   1   2
BRANCH   1  39
ATOM     39  C   UNL     1      -2.684   1.048   6.325  1.00  0.00     0.100 C 
BRANCH  39  40
ATOM     40  C   UNL     1      -2.969   1.781   7.623  1.00  0.00     0.219 C 
ATOM     41  O   UNL     1      -3.053   3.011   7.647  1.00  0.00    -0.275 OA
ATOM     42  N   UNL     1      -3.186   1.106   8.786  1.00  0.00    -0.356 N 
ATOM     43  H   UNL     1      -3.389   1.678   9.562  1.00  0.00     0.163 HD
BRANCH  42  44
ATOM     44  C   UNL     1      -3.168  -0.316   9.071  1.00  0.00     0.116 C 
BRANCH  44  45
ATOM     45  C   UNL     1      -2.027  -0.682  10.027  1.00  0.00     0.021 C 
BRANCH  45  46
ATOM     46  C   UNL     1      -2.413  -0.649  11.507  1.00  0.00     0.002 C 
BRANCH  46  47
ATOM     47  C   UNL     1      -3.467  -1.681  11.930  1.00  0.00     0.002 C 
BRANCH  47  48
ATOM     48  C   UNL     1      -3.119  -3.153  11.658  1.00  0.00     0.021 C 
BRANCH  48  49
ATOM     49  C   UNL     1      -1.911  -3.657  12.439  1.00  0.00     0.116 C 
BRANCH  49  50
ATOM     50  N   UNL     1      -2.144  -3.612  13.879  1.00  0.00    -0.352 N 
ATOM     51  C   UNL     1      -1.316  -3.989  14.909  1.00  0.00     0.251 C 
ATOM     52  H   UNL     1      -3.023  -3.260  14.151  1.00  0.00     0.163 HD
ATOM     53  O   UNL     1      -1.787  -4.198  16.023  1.00  0.00    -0.269 OA
BRANCH  51  54
ATOM     54  C   UNL     1       0.129  -4.154  14.671  1.00  0.00     0.039 A 
ATOM     55  C   UNL     1       0.823  -5.196  15.296  1.00  0.00     0.014 A 
ATOM     56  C   UNL     1       0.800  -3.253  13.844  1.00  0.00     0.014 A 
ATOM     57  C   UNL     1       2.176  -5.372  15.023  1.00  0.00     0.010 A 
ATOM     58  C   UNL     1       2.114  -3.481  13.500  1.00  0.00     0.010 A 
ATOM     59  C   UNL     1       2.813  -4.524  14.106  1.00  0.00    -0.014 A 
BRANCH  59  60
ATOM     60  C   UNL     1       4.170  -4.824  13.654  1.00  0.00     0.031 A 
ATOM     61  C   UNL     1       4.327  -6.169  13.027  1.00  0.00     0.074 A 
ATOM     62  C   UNL     1       5.146  -3.894  13.582  1.00  0.00     0.049 A 
ATOM     63  N   UNL     1       5.056  -7.153  13.439  1.00  0.00    -0.248 NA
ATOM     64  C   UNL     1       3.468  -6.511  11.881  1.00  0.00     0.031 C 
ATOM     65  C   UNL     1       5.049  -2.463  13.881  1.00  0.00     0.029 A 
ATOM     66  N   UNL     1       6.413  -4.012  13.097  1.00  0.00    -0.354 N 
ATOM     67  C   UNL     1       4.920  -8.163  12.488  1.00  0.00     0.074 A 
ATOM     68  C   UNL     1       3.800  -7.786  11.666  1.00  0.00     0.031 C 
ATOM     69  C   UNL     1       6.112  -1.821  13.349  1.00  0.00     0.029 A 
ATOM     70  C   UNL     1       7.030  -2.801  12.796  1.00  0.00     0.049 A 
ATOM     71  H   UNL     1       6.856  -4.882  12.971  1.00  0.00     0.167 HD
ATOM     72  C   UNL     1       5.881  -9.115  12.319  1.00  0.00     0.037 A 
ATOM     73  C   UNL     1       8.186  -2.620  12.104  1.00  0.00     0.037 A 
ATOM     74  C   UNL     1       6.795  -9.125  13.436  1.00  0.00     0.049 A 
ATOM     75  C   UNL     1       8.921  -3.913  12.149  1.00  0.00     0.074 A 
ATOM     76  C   UNL     1       6.652  -9.299  14.800  1.00  0.00     0.029 A 
ATOM     77  N   UNL     1       8.028  -8.544  13.258  1.00  0.00    -0.354 N 
ATOM     78  N   UNL     1       9.448  -4.408  13.236  1.00  0.00    -0.248 NA
ATOM     79  C   UNL     1       8.675  -4.877  11.085  1.00  0.00     0.031 C 
ATOM     80  C   UNL     1       7.561  -8.370  15.383  1.00  0.00     0.029 A 
ATOM     81  C   UNL     1       8.261  -7.747  14.349  1.00  0.00     0.049 A 
ATOM     82  H   UNL     1       8.631  -8.675  12.490  1.00  0.00     0.167 HD
ATOM     83  C   UNL     1       9.181  -5.767  13.168  1.00  0.00     0.074 A 
ATOM     84  C   UNL     1       8.797  -6.012  11.779  1.00  0.00     0.031 C 
ATOM     85  C   UNL     1       9.010  -6.512  14.300  1.00  0.00     0.037 A 
BRANCH  72  86
ATOM     86  C   UNL     1       6.219  -9.794  11.009  1.00  0.00     0.058 A 
ATOM     87  C   UNL     1       7.161 -10.847  11.002  1.00  0.00     0.135 A 
ATOM     88  C   UNL     1       5.882  -9.278   9.738  1.00  0.00     0.135 A 
ATOM     89  F   UNL     1       7.559 -11.418  12.151  1.00  0.00    -0.206 F 
ATOM     90  C   UNL     1       7.787 -11.287   9.835  1.00  0.00     0.059 A 
ATOM     91  C   UNL     1       6.448  -9.746   8.556  1.00  0.00     0.059 A 
ATOM     92  F   UNL     1       5.074  -8.224   9.586  1.00  0.00    -0.206 F 
ATOM     93  C   UNL     1       7.436 -10.715   8.617  1.00  0.00     0.060 A 
BRANCH  93  94
ATOM     94  S   UNL     1       8.325 -11.196   7.126  1.00  0.00     0.124 S 
ATOM     95  O   UNL     1       9.631 -10.589   7.358  1.00  0.00    -0.237 OA
ATOM     96  O   UNL     1       8.278 -12.653   7.197  1.00  0.00    -0.237 OA
ATOM     97  O   UNL     1       7.535 -10.603   6.051  1.00  0.00    -0.744 OA
ENDBRANCH  93  94
ENDBRANCH  72  86
BRANCH  73  98
ATOM     98  C   UNL     1       8.585  -1.501  11.203  1.00  0.00     0.058 A 
ATOM     99  C   UNL     1       9.898  -1.407  10.700  1.00  0.00     0.135 A 
ATOM    100  C   UNL     1       7.634  -0.658  10.592  1.00  0.00     0.135 A 
ATOM    101  F   UNL     1      10.874  -2.174  11.209  1.00  0.00    -0.206 F 
ATOM    102  C   UNL     1      10.229  -0.587   9.614  1.00  0.00     0.059 A 
ATOM    103  C   UNL     1       7.945   0.180   9.521  1.00  0.00     0.059 A 
ATOM    104  F   UNL     1       6.343  -0.690  10.951  1.00  0.00    -0.206 F 
ATOM    105  C   UNL     1       9.237   0.185   9.012  1.00  0.00     0.060 A 
BRANCH 105 106
ATOM    106  S   UNL     1       9.601   1.071   7.478  1.00  0.00     0.124 S 
ATOM    107  O   UNL     1      10.460   2.153   7.947  1.00  0.00    -0.237 OA
ATOM    108  O   UNL     1      10.253   0.043   6.673  1.00  0.00    -0.237 OA
ATOM    109  O   UNL     1       8.282   1.482   7.002  1.00  0.00    -0.744 OA
ENDBRANCH 105 106
ENDBRANCH  73  98
BRANCH  85 110
ATOM    110  C   UNL     1       9.409  -5.918  15.627  1.00  0.00     0.058 A 
ATOM    111  C   UNL     1       8.835  -4.764  16.191  1.00  0.00     0.135 A 
ATOM    112  C   UNL     1      10.291  -6.652  16.434  1.00  0.00     0.135 A 
ATOM    113  F   UNL     1       7.901  -4.062  15.535  1.00  0.00    -0.206 F 
ATOM    114  C   UNL     1       9.158  -4.338  17.481  1.00  0.00     0.059 A 
ATOM    115  C   UNL     1      10.599  -6.266  17.735  1.00  0.00     0.059 A 
ATOM    116  F   UNL     1      10.825  -7.798  15.979  1.00  0.00    -0.206 F 
ATOM    117  C   UNL     1      10.040  -5.098  18.247  1.00  0.00     0.060 A 
BRANCH 117 118
ATOM    118  S   UNL     1      10.395  -4.592  19.943  1.00  0.00     0.124 S 
ATOM    119  O   UNL     1      11.255  -3.431  19.742  1.00  0.00    -0.237 OA
ATOM    120  O   UNL     1       9.065  -4.312  20.479  1.00  0.00    -0.237 OA
ATOM    121  O   UNL     1      11.052  -5.763  20.518  1.00  0.00    -0.744 OA
ENDBRANCH 117 118
ENDBRANCH  85 110
ENDBRANCH  59  60
ENDBRANCH  51  54
ENDBRANCH  49  50
ENDBRANCH  48  49
ENDBRANCH  47  48
ENDBRANCH  46  47
ENDBRANCH  45  46
ENDBRANCH  44  45
ENDBRANCH  42  44
ENDBRANCH  39  40
ENDBRANCH   1  39
TORSDOF 31
