REMARK SMILES C#CC[N@H+](CC(=O)NCCCCCCNC(=O)c1ccc(-c2c3nc(c(-c4c(F)cc(S(=O)(=O)[O-])cc4F)c4ccc([nH]4)c(-c4c(F)cc(S(=O)(=O)[O-])cc4F)c4nc(c(-c5c(F)cc(S(=O)(=O)[O-])cc5F)c5ccc2[nH]5)C=C4)C=C3)cc1)[C@H](C)C(=O)NCCC
REMARK SMILES IDX 10 1 9 2 8 3 6 4 7 5 5 7 4 8 3 10 2 11 1 12 84 13 85 14
REMARK SMILES IDX 86 15 87 16 88 17 89 19 90 20 91 21 11 22 12 23 13 24 14 25
REMARK SMILES IDX 15 26 16 27 17 29 18 30 19 31 83 32 20 33 82 34 21 35 22 36
REMARK SMILES IDX 23 37 76 38 24 39 81 40 75 41 77 42 25 43 80 44 74 45 73 46
REMARK SMILES IDX 26 48 60 49 39 50 59 51 40 52 43 53 58 54 78 55 41 56 42 57
REMARK SMILES IDX 57 59 79 60 44 61 27 62 28 63 37 64 29 65 30 66 36 67 38 68
REMARK SMILES IDX 31 69 32 70 33 71 34 72 35 73 61 74 62 75 71 76 63 77 64 78
REMARK SMILES IDX 70 79 72 80 65 81 66 82 67 83 68 84 69 85 45 86 46 87 55 88
REMARK SMILES IDX 47 89 48 90 54 91 56 92 49 93 50 94 51 95 52 96 53 97
REMARK H PARENT 8 6 4 9 88 18 15 28 77 47 43 58
REMARK Flexibility Score: inf
ROOT
ATOM      1  C   UNL     1      -2.398  -0.825  -4.391  1.00  0.00     0.021 C 
ENDROOT
BRANCH   1   2
ATOM      2  C   UNL     1      -3.608  -0.805  -3.446  1.00  0.00     0.116 C 
BRANCH   2   3
ATOM      3  N   UNL     1      -4.255  -2.108  -3.402  1.00  0.00    -0.351 N 
ATOM      4  C   UNL     1      -4.291  -3.050  -2.402  1.00  0.00     0.275 C 
ATOM      5  O   UNL     1      -4.814  -4.137  -2.651  1.00  0.00    -0.269 OA
ATOM      6  H   UNL     1      -4.745  -2.354  -4.220  1.00  0.00     0.163 HD
BRANCH   4   7
ATOM      7  C   UNL     1      -3.736  -2.708  -1.009  1.00  0.00     0.364 C 
BRANCH   7   8
ATOM      8  N   UNL     1      -2.285  -2.990  -0.771  1.00  0.00    -0.307 N 
ATOM      9  H   UNL     1      -2.140  -3.986  -0.610  1.00  0.00     0.350 HD
BRANCH   8  10
ATOM     10  C   UNL     1      -1.479  -2.786  -1.965  1.00  0.00     0.355 C 
BRANCH  10  11
ATOM     11  C   UNL     1      -0.060  -3.157  -1.994  1.00  0.00    -0.047 C 
ATOM     12  C   UNL     1       1.121  -3.268  -2.170  1.00  0.00     0.010 C 
ENDBRANCH  10  11
ENDBRANCH   8  10
BRANCH   8  13
ATOM     13  C   UNL     1      -1.822  -2.386   0.523  1.00  0.00     0.272 C 
ATOM     14  C   UNL     1      -2.627  -1.235   1.156  1.00  0.00     0.086 C 
BRANCH  13  15
ATOM     15  C   UNL     1      -0.310  -2.110   0.667  1.00  0.00     0.278 C 
ATOM     16  O   UNL     1       0.415  -2.896   1.287  1.00  0.00    -0.268 OA
ATOM     17  N   UNL     1       0.279  -0.978   0.176  1.00  0.00    -0.351 N 
ATOM     18  H   UNL     1       1.192  -0.820   0.509  1.00  0.00     0.163 HD
BRANCH  17  19
ATOM     19  C   UNL     1      -0.203   0.033  -0.749  1.00  0.00     0.116 C 
BRANCH  19  20
ATOM     20  C   UNL     1       0.362   1.417  -0.455  1.00  0.00     0.018 C 
ATOM     21  C   UNL     1       1.828   1.534  -0.847  1.00  0.00     0.006 C 
ENDBRANCH  19  20
ENDBRANCH  17  19
ENDBRANCH  13  15
ENDBRANCH   8  13
ENDBRANCH   7   8
ENDBRANCH   4   7
ENDBRANCH   2   3
ENDBRANCH   1   2
BRANCH   1  22
ATOM     22  C   UNL     1      -2.750  -0.742  -5.872  1.00  0.00     0.002 C 
BRANCH  22  23
ATOM     23  C   UNL     1      -3.358   0.593  -6.291  1.00  0.00     0.002 C 
BRANCH  23  24
ATOM     24  C   UNL     1      -2.509   1.816  -5.934  1.00  0.00     0.021 C 
BRANCH  24  25
ATOM     25  C   UNL     1      -1.086   1.769  -6.479  1.00  0.00     0.116 C 
BRANCH  25  26
ATOM     26  N   UNL     1      -1.078   1.704  -7.932  1.00  0.00    -0.352 N 
ATOM     27  C   UNL     1      -0.584   2.617  -8.828  1.00  0.00     0.251 C 
ATOM     28  H   UNL     1      -1.481   0.897  -8.324  1.00  0.00     0.163 HD
ATOM     29  O   UNL     1      -0.916   2.564 -10.008  1.00  0.00    -0.269 OA
BRANCH  27  30
ATOM     30  C   UNL     1       0.346   3.663  -8.356  1.00  0.00     0.039 A 
ATOM     31  C   UNL     1       0.197   4.971  -8.817  1.00  0.00     0.014 A 
ATOM     32  C   UNL     1       1.372   3.341  -7.462  1.00  0.00     0.014 A 
ATOM     33  C   UNL     1       1.059   5.965  -8.352  1.00  0.00     0.010 A 
ATOM     34  C   UNL     1       2.167   4.348  -6.929  1.00  0.00     0.010 A 
ATOM     35  C   UNL     1       2.036   5.667  -7.387  1.00  0.00    -0.014 A 
BRANCH  35  36
ATOM     36  C   UNL     1       2.962   6.712  -6.879  1.00  0.00     0.031 A 
ATOM     37  C   UNL     1       4.444   6.572  -7.109  1.00  0.00     0.074 A 
ATOM     38  C   UNL     1       2.477   7.758  -6.182  1.00  0.00     0.049 A 
ATOM     39  N   UNL     1       5.419   7.343  -6.702  1.00  0.00    -0.248 NA
ATOM     40  C   UNL     1       4.894   5.396  -7.874  1.00  0.00     0.031 C 
ATOM     41  C   UNL     1       1.065   7.983  -5.865  1.00  0.00     0.029 A 
ATOM     42  N   UNL     1       3.118   8.828  -5.611  1.00  0.00    -0.354 N 
ATOM     43  C   UNL     1       6.589   6.746  -7.156  1.00  0.00     0.074 A 
ATOM     44  C   UNL     1       6.211   5.510  -7.803  1.00  0.00     0.031 C 
ATOM     45  C   UNL     1       0.944   9.135  -5.187  1.00  0.00     0.029 A 
ATOM     46  C   UNL     1       2.270   9.707  -4.978  1.00  0.00     0.049 A 
ATOM     47  H   UNL     1       4.093   8.956  -5.651  1.00  0.00     0.167 HD
ATOM     48  C   UNL     1       7.862   7.201  -7.072  1.00  0.00     0.037 A 
ATOM     49  C   UNL     1       2.534  10.840  -4.298  1.00  0.00     0.037 A 
ATOM     50  C   UNL     1       8.228   8.441  -6.438  1.00  0.00     0.049 A 
ATOM     51  C   UNL     1       3.963  11.305  -4.182  1.00  0.00     0.074 A 
ATOM     52  C   UNL     1       9.484   9.011  -6.326  1.00  0.00     0.029 A 
ATOM     53  N   UNL     1       7.341   9.301  -5.806  1.00  0.00    -0.354 N 
ATOM     54  N   UNL     1       5.052  10.753  -4.663  1.00  0.00    -0.248 NA
ATOM     55  C   UNL     1       4.198  12.551  -3.440  1.00  0.00     0.031 C 
ATOM     56  C   UNL     1       9.366  10.182  -5.573  1.00  0.00     0.029 A 
ATOM     57  C   UNL     1       8.026  10.384  -5.282  1.00  0.00     0.049 A 
ATOM     58  H   UNL     1       6.369   9.162  -5.740  1.00  0.00     0.167 HD
ATOM     59  C   UNL     1       6.095  11.608  -4.319  1.00  0.00     0.074 A 
ATOM     60  C   UNL     1       5.503  12.716  -3.599  1.00  0.00     0.031 C 
ATOM     61  C   UNL     1       7.420  11.491  -4.582  1.00  0.00     0.037 A 
BRANCH  48  62
ATOM     62  C   UNL     1       8.951   6.359  -7.682  1.00  0.00     0.058 A 
ATOM     63  C   UNL     1       9.051   6.172  -9.071  1.00  0.00     0.135 A 
ATOM     64  C   UNL     1       9.933   5.764  -6.872  1.00  0.00     0.135 A 
ATOM     65  F   UNL     1       8.131   6.701  -9.893  1.00  0.00    -0.206 F 
ATOM     66  C   UNL     1      10.067   5.405  -9.632  1.00  0.00     0.059 A 
ATOM     67  C   UNL     1      10.979   5.023  -7.415  1.00  0.00     0.059 A 
ATOM     68  F   UNL     1       9.886   5.905  -5.538  1.00  0.00    -0.206 F 
ATOM     69  C   UNL     1      11.029   4.839  -8.795  1.00  0.00     0.060 A 
BRANCH  69  70
ATOM     70  S   UNL     1      12.350   3.863  -9.544  1.00  0.00     0.124 S 
ATOM     71  O   UNL     1      11.617   2.688 -10.007  1.00  0.00    -0.237 OA
ATOM     72  O   UNL     1      12.840   4.756 -10.589  1.00  0.00    -0.237 OA
ATOM     73  O   UNL     1      13.272   3.630  -8.437  1.00  0.00    -0.744 OA
ENDBRANCH  69  70
ENDBRANCH  48  62
BRANCH  49  74
ATOM     74  C   UNL     1       1.426  11.626  -3.687  1.00  0.00     0.058 A 
ATOM     75  C   UNL     1       1.105  12.910  -4.154  1.00  0.00     0.135 A 
ATOM     76  C   UNL     1       0.675  11.117  -2.616  1.00  0.00     0.135 A 
ATOM     77  F   UNL     1       1.795  13.445  -5.173  1.00  0.00    -0.206 F 
ATOM     78  C   UNL     1       0.103  13.673  -3.563  1.00  0.00     0.059 A 
ATOM     79  C   UNL     1      -0.355  11.847  -2.031  1.00  0.00     0.059 A 
ATOM     80  F   UNL     1       0.926   9.887  -2.141  1.00  0.00    -0.206 F 
ATOM     81  C   UNL     1      -0.623  13.131  -2.502  1.00  0.00     0.060 A 
BRANCH  81  82
ATOM     82  S   UNL     1      -1.940  14.119  -1.760  1.00  0.00     0.124 S 
ATOM     83  O   UNL     1      -1.179  15.164  -1.085  1.00  0.00    -0.237 OA
ATOM     84  O   UNL     1      -2.701  14.539  -2.933  1.00  0.00    -0.237 OA
ATOM     85  O   UNL     1      -2.621  13.169  -0.886  1.00  0.00    -0.744 OA
ENDBRANCH  81  82
ENDBRANCH  49  74
BRANCH  61  86
ATOM     86  C   UNL     1       8.321  12.616  -4.146  1.00  0.00     0.058 A 
ATOM     87  C   UNL     1       8.598  12.874  -2.795  1.00  0.00     0.135 A 
ATOM     88  C   UNL     1       8.959  13.418  -5.109  1.00  0.00     0.135 A 
ATOM     89  F   UNL     1       8.013  12.143  -1.833  1.00  0.00    -0.206 F 
ATOM     90  C   UNL     1       9.450  13.905  -2.412  1.00  0.00     0.059 A 
ATOM     91  C   UNL     1       9.844  14.429  -4.750  1.00  0.00     0.059 A 
ATOM     92  F   UNL     1       8.741  13.209  -6.417  1.00  0.00    -0.206 F 
ATOM     93  C   UNL     1      10.072  14.674  -3.397  1.00  0.00     0.060 A 
BRANCH  93  94
ATOM     94  S   UNL     1      11.199  15.987  -2.885  1.00  0.00     0.124 S 
ATOM     95  O   UNL     1      10.276  16.963  -2.317  1.00  0.00    -0.237 OA
ATOM     96  O   UNL     1      12.062  15.299  -1.929  1.00  0.00    -0.237 OA
ATOM     97  O   UNL     1      11.846  16.387  -4.131  1.00  0.00    -0.744 OA
ENDBRANCH  93  94
ENDBRANCH  61  86
ENDBRANCH  35  36
ENDBRANCH  27  30
ENDBRANCH  25  26
ENDBRANCH  24  25
ENDBRANCH  23  24
ENDBRANCH  22  23
ENDBRANCH   1  22
TORSDOF 23
