REMARK SMILES O=C(NCCCCCCNC(=O)c1ccc(S(=O)(=O)[O-])cc1N1C(=O)/C(=C\C=C\c2ccccc2)[NH+]=C1c1ccccc1)c1ccc(-c2c3nc(c(-c4c(F)cc(S(=O)(=O)[O-])cc4F)c4ccc([nH]4)c(-c4c(F)cc(S(=O)(=O)[O-])cc4F)c4nc(c(-c5c(F)cc(S(=O)(=O)[O-])cc5F)c5ccc2[nH]5)C=C4)C=C3)cc1
REMARK SMILES IDX 6 1 5 2 4 3 3 4 1 5 2 6 44 8 45 9 109 10 46 11 108 12 47 13
REMARK SMILES IDX 48 14 49 15 102 16 50 17 107 18 101 19 103 20 51 21 106 22
REMARK SMILES IDX 100 23 99 24 52 26 86 27 65 28 85 29 66 30 69 31 84 32
REMARK SMILES IDX 104 33 67 34 68 35 83 37 105 38 70 39 53 40 54 41 63 42
REMARK SMILES IDX 55 43 56 44 62 45 64 46 57 47 58 48 59 49 60 50 61 51 87 52
REMARK SMILES IDX 88 53 97 54 89 55 90 56 96 57 98 58 91 59 92 60 93 61 94 62
REMARK SMILES IDX 95 63 71 64 72 65 81 66 73 67 74 68 80 69 82 70 75 71 76 72
REMARK SMILES IDX 77 73 78 74 79 75 7 76 8 77 9 78 10 79 11 80 12 82 13 83
REMARK SMILES IDX 14 84 22 85 15 86 21 87 16 88 23 89 24 90 37 91 25 92 26 93
REMARK SMILES IDX 36 94 27 95 38 97 39 98 43 99 40 100 42 101 41 102 28 103
REMARK SMILES IDX 29 104 30 105 31 106 35 107 32 108 34 109 33 110 17 111
REMARK SMILES IDX 18 112 19 113 20 114
REMARK H PARENT 3 7 103 25 69 36 10 81 36 96
REMARK Flexibility Score: inf
ROOT
ATOM      1  C   UNL     1       3.910  -3.752   0.754  1.00  0.00     0.002 C 
ENDROOT
BRANCH   1   2
ATOM      2  C   UNL     1       4.558  -2.398   1.058  1.00  0.00     0.021 C 
BRANCH   2   3
ATOM      3  C   UNL     1       4.321  -1.321   0.006  1.00  0.00     0.116 C 
BRANCH   3   4
ATOM      4  N   UNL     1       2.906  -1.067  -0.218  1.00  0.00    -0.352 N 
ATOM      5  O   UNL     1       0.976   0.094  -0.161  1.00  0.00    -0.269 OA
ATOM      6  C   UNL     1       2.202   0.107  -0.115  1.00  0.00     0.251 C 
ATOM      7  H   UNL     1       2.375  -1.852  -0.483  1.00  0.00     0.163 HD
BRANCH   6   8
ATOM      8  C   UNL     1       2.928   1.382   0.066  1.00  0.00     0.039 A 
ATOM      9  C   UNL     1       4.067   1.659  -0.693  1.00  0.00     0.014 A 
ATOM     10  C   UNL     1       2.457   2.314   0.994  1.00  0.00     0.014 A 
ATOM     11  C   UNL     1       4.814   2.798  -0.424  1.00  0.00     0.010 A 
ATOM     12  C   UNL     1       3.158   3.506   1.195  1.00  0.00     0.010 A 
ATOM     13  C   UNL     1       4.356   3.747   0.505  1.00  0.00    -0.014 A 
BRANCH  13  14
ATOM     14  C   UNL     1       5.108   5.016   0.675  1.00  0.00     0.031 A 
ATOM     15  C   UNL     1       5.749   5.375   1.986  1.00  0.00     0.074 A 
ATOM     16  C   UNL     1       5.219   5.841  -0.385  1.00  0.00     0.049 A 
ATOM     17  N   UNL     1       6.447   6.438   2.295  1.00  0.00    -0.248 NA
ATOM     18  C   UNL     1       5.580   4.425   3.096  1.00  0.00     0.031 C 
ATOM     19  C   UNL     1       4.627   5.597  -1.704  1.00  0.00     0.029 A 
ATOM     20  N   UNL     1       5.872   7.036  -0.532  1.00  0.00    -0.354 N 
ATOM     21  C   UNL     1       6.786   6.297   3.636  1.00  0.00     0.074 A 
ATOM     22  C   UNL     1       6.189   5.058   4.089  1.00  0.00     0.031 C 
ATOM     23  C   UNL     1       4.983   6.585  -2.536  1.00  0.00     0.029 A 
ATOM     24  C   UNL     1       5.763   7.568  -1.794  1.00  0.00     0.049 A 
ATOM     25  H   UNL     1       6.371   7.472   0.196  1.00  0.00     0.167 HD
ATOM     26  C   UNL     1       7.532   7.123   4.410  1.00  0.00     0.037 A 
ATOM     27  C   UNL     1       6.218   8.730  -2.299  1.00  0.00     0.037 A 
ATOM     28  C   UNL     1       8.116   8.356   3.942  1.00  0.00     0.049 A 
ATOM     29  C   UNL     1       7.003   9.648  -1.408  1.00  0.00     0.074 A 
ATOM     30  C   UNL     1       8.915   9.248   4.636  1.00  0.00     0.029 A 
ATOM     31  N   UNL     1       7.952   8.881   2.667  1.00  0.00    -0.354 N 
ATOM     32  N   UNL     1       7.351   9.479  -0.154  1.00  0.00    -0.248 NA
ATOM     33  C   UNL     1       7.457  10.913  -1.997  1.00  0.00     0.031 C 
ATOM     34  C   UNL     1       9.182  10.339   3.802  1.00  0.00     0.029 A 
ATOM     35  C   UNL     1       8.608  10.098   2.564  1.00  0.00     0.049 A 
ATOM     36  H   UNL     1       7.443   8.452   1.941  1.00  0.00     0.167 HD
ATOM     37  C   UNL     1       8.083  10.608   0.191  1.00  0.00     0.074 A 
ATOM     38  C   UNL     1       8.142  11.443  -0.993  1.00  0.00     0.031 C 
ATOM     39  C   UNL     1       8.656  10.923   1.379  1.00  0.00     0.037 A 
BRANCH  26  40
ATOM     40  C   UNL     1       7.732   6.737   5.854  1.00  0.00     0.058 A 
ATOM     41  C   UNL     1       8.510   5.629   6.227  1.00  0.00     0.135 A 
ATOM     42  C   UNL     1       7.157   7.504   6.882  1.00  0.00     0.135 A 
ATOM     43  F   UNL     1       9.077   4.853   5.290  1.00  0.00    -0.206 F 
ATOM     44  C   UNL     1       8.675   5.270   7.562  1.00  0.00     0.059 A 
ATOM     45  C   UNL     1       7.336   7.183   8.225  1.00  0.00     0.059 A 
ATOM     46  F   UNL     1       6.409   8.578   6.587  1.00  0.00    -0.206 F 
ATOM     47  C   UNL     1       8.081   6.052   8.554  1.00  0.00     0.060 A 
BRANCH  47  48
ATOM     48  S   UNL     1       8.290   5.560  10.279  1.00  0.00     0.124 S 
ATOM     49  O   UNL     1       7.455   4.364  10.342  1.00  0.00    -0.237 OA
ATOM     50  O   UNL     1       9.728   5.333  10.366  1.00  0.00    -0.237 OA
ATOM     51  O   UNL     1       7.793   6.712  11.025  1.00  0.00    -0.744 OA
ENDBRANCH  47  48
ENDBRANCH  26  40
BRANCH  27  52
ATOM     52  C   UNL     1       5.936   9.075  -3.717  1.00  0.00     0.058 A 
ATOM     53  C   UNL     1       6.961   9.097  -4.672  1.00  0.00     0.135 A 
ATOM     54  C   UNL     1       4.628   9.339  -4.154  1.00  0.00     0.135 A 
ATOM     55  F   UNL     1       8.228   8.854  -4.303  1.00  0.00    -0.206 F 
ATOM     56  C   UNL     1       6.702   9.375  -6.010  1.00  0.00     0.059 A 
ATOM     57  C   UNL     1       4.339   9.588  -5.490  1.00  0.00     0.059 A 
ATOM     58  F   UNL     1       3.608   9.311  -3.281  1.00  0.00    -0.206 F 
ATOM     59  C   UNL     1       5.386   9.610  -6.411  1.00  0.00     0.060 A 
BRANCH  59  60
ATOM     60  S   UNL     1       5.055   9.901  -8.161  1.00  0.00     0.124 S 
ATOM     61  O   UNL     1       5.631  11.227  -8.352  1.00  0.00    -0.237 OA
ATOM     62  O   UNL     1       5.771   8.797  -8.793  1.00  0.00    -0.237 OA
ATOM     63  O   UNL     1       3.600   9.826  -8.246  1.00  0.00    -0.744 OA
ENDBRANCH  59  60
ENDBRANCH  27  52
BRANCH  39  64
ATOM     64  C   UNL     1       9.429  12.212   1.451  1.00  0.00     0.058 A 
ATOM     65  C   UNL     1       8.791  13.463   1.423  1.00  0.00     0.135 A 
ATOM     66  C   UNL     1      10.826  12.194   1.590  1.00  0.00     0.135 A 
ATOM     67  F   UNL     1       7.458  13.539   1.280  1.00  0.00    -0.206 F 
ATOM     68  C   UNL     1       9.513  14.649   1.504  1.00  0.00     0.059 A 
ATOM     69  C   UNL     1      11.565  13.366   1.706  1.00  0.00     0.059 A 
ATOM     70  F   UNL     1      11.487  11.026   1.629  1.00  0.00    -0.206 F 
ATOM     71  C   UNL     1      10.901  14.590   1.649  1.00  0.00     0.060 A 
BRANCH  71  72
ATOM     72  S   UNL     1      11.822  16.136   1.787  1.00  0.00     0.124 S 
ATOM     73  O   UNL     1      11.739  16.651   0.424  1.00  0.00    -0.237 OA
ATOM     74  O   UNL     1      11.053  16.868   2.789  1.00  0.00    -0.237 OA
ATOM     75  O   UNL     1      13.149  15.704   2.216  1.00  0.00    -0.744 OA
ENDBRANCH  71  72
ENDBRANCH  39  64
ENDBRANCH  13  14
ENDBRANCH   6   8
ENDBRANCH   3   4
ENDBRANCH   2   3
ENDBRANCH   1   2
BRANCH   1  76
ATOM     76  C   UNL     1       4.282  -4.390  -0.591  1.00  0.00     0.002 C 
BRANCH  76  77
ATOM     77  C   UNL     1       5.776  -4.538  -0.867  1.00  0.00     0.021 C 
BRANCH  77  78
ATOM     78  C   UNL     1       6.551  -5.266   0.217  1.00  0.00     0.116 C 
BRANCH  78  79
ATOM     79  N   UNL     1       6.472  -6.702   0.209  1.00  0.00    -0.352 N 
ATOM     80  C   UNL     1       7.483  -7.631   0.330  1.00  0.00     0.255 C 
ATOM     81  H   UNL     1       5.567  -7.074   0.102  1.00  0.00     0.163 HD
ATOM     82  O   UNL     1       7.189  -8.823   0.228  1.00  0.00    -0.269 OA
BRANCH  80  83
ATOM     83  C   UNL     1       8.933  -7.265   0.464  1.00  0.00     0.087 A 
ATOM     84  C   UNL     1       9.790  -7.981  -0.399  1.00  0.00     0.019 A 
ATOM     85  C   UNL     1       9.504  -6.305   1.333  1.00  0.00     0.150 A 
ATOM     86  C   UNL     1      11.170  -7.763  -0.405  1.00  0.00     0.020 A 
ATOM     87  C   UNL     1      10.897  -6.105   1.333  1.00  0.00     0.072 A 
ATOM     88  C   UNL     1      11.716  -6.830   0.471  1.00  0.00     0.059 A 
BRANCH  85  89
ATOM     89  N   UNL     1       8.752  -5.538   2.243  1.00  0.00    -0.153 N 
ATOM     90  C   UNL     1       7.891  -6.101   3.150  1.00  0.00     0.385 C 
ATOM     91  C   UNL     1       8.788  -4.180   2.466  1.00  0.00     0.295 C 
ATOM     92  O   UNL     1       7.677  -7.280   3.375  1.00  0.00    -0.236 OA
ATOM     93  C   UNL     1       7.341  -4.905   3.863  1.00  0.00     0.215 C 
ATOM     94  N   UNL     1       7.987  -3.766   3.409  1.00  0.00    -0.233 N 
ATOM     95  C   UNL     1       6.344  -4.908   4.762  1.00  0.00     0.060 C 
ATOM     96  H   UNL     1       7.867  -2.843   3.728  1.00  0.00     0.312 HD
BRANCH  91  97
ATOM     97  C   UNL     1       9.611  -3.236   1.652  1.00  0.00     0.065 A 
ATOM     98  C   UNL     1      10.362  -2.261   2.313  1.00  0.00     0.017 A 
ATOM     99  C   UNL     1       9.628  -3.258   0.248  1.00  0.00     0.017 A 
ATOM    100  C   UNL     1      11.124  -1.343   1.579  1.00  0.00     0.001 A 
ATOM    101  C   UNL     1      10.365  -2.325  -0.483  1.00  0.00     0.001 A 
ATOM    102  C   UNL     1      11.118  -1.369   0.184  1.00  0.00     0.000 A 
ENDBRANCH  91  97
BRANCH  95 103
ATOM    103  C   UNL     1       5.632  -6.077   5.244  1.00  0.00     0.005 C 
ATOM    104  C   UNL     1       4.682  -6.059   6.193  1.00  0.00     0.008 C 
BRANCH 104 105
ATOM    105  C   UNL     1       4.063  -7.288   6.726  1.00  0.00    -0.026 A 
ATOM    106  C   UNL     1       2.724  -7.274   7.136  1.00  0.00     0.008 A 
ATOM    107  C   UNL     1       4.806  -8.465   6.912  1.00  0.00     0.008 A 
ATOM    108  C   UNL     1       2.139  -8.414   7.700  1.00  0.00     0.001 A 
ATOM    109  C   UNL     1       4.222  -9.603   7.475  1.00  0.00     0.001 A 
ATOM    110  C   UNL     1       2.888  -9.577   7.869  1.00  0.00     0.000 A 
ENDBRANCH 104 105
ENDBRANCH  95 103
ENDBRANCH  85  89
BRANCH  88 111
ATOM    111  S   UNL     1      13.470  -6.597   0.507  1.00  0.00     0.124 S 
ATOM    112  O   UNL     1      14.071  -7.847   0.915  1.00  0.00    -0.237 OA
ATOM    113  O   UNL     1      13.847  -5.934  -0.721  1.00  0.00    -0.237 OA
ATOM    114  O   UNL     1      13.746  -5.538   1.693  1.00  0.00    -0.744 OA
ENDBRANCH  88 111
ENDBRANCH  80  83
ENDBRANCH  78  79
ENDBRANCH  77  78
ENDBRANCH  76  77
ENDBRANCH   1  76
TORSDOF 21
