REMARK SMILES O=C(C[C@H](c1ccsc1)n1cccc1)NCCCCCCNC(=O)c1ccc(-c2c3nc(c(-c4c(F)cc(S(=O)(=O)[O-])cc4F)c4ccc([nH]4)c(-c4c(F)cc(S(=O)(=O)[O-])cc4F)c4nc(c(-c5c(F)cc(S(=O)(=O)[O-])cc5F)c5ccc2[nH]5)C=C4)C=C3)cc1
REMARK SMILES IDX 19 1 18 2 17 3 16 4 15 5 1 6 2 7 3 9 4 10 10 11 11 12 14 13
REMARK SMILES IDX 12 14 13 15 5 16 6 17 9 18 7 19 8 20 20 21 21 22 22 23 23 24
REMARK SMILES IDX 24 26 25 27 26 28 90 29 27 30 89 31 28 32 29 33 30 34 83 35
REMARK SMILES IDX 31 36 88 37 82 38 84 39 32 40 87 41 81 42 80 43 33 45 67 46
REMARK SMILES IDX 46 47 66 48 47 49 50 50 65 51 85 52 48 53 49 54 64 56 86 57
REMARK SMILES IDX 51 58 34 59 35 60 44 61 36 62 37 63 43 64 45 65 38 66 39 67
REMARK SMILES IDX 40 68 41 69 42 70 68 71 69 72 78 73 70 74 71 75 77 76 79 77
REMARK SMILES IDX 72 78 73 79 74 80 75 81 76 82 52 83 53 84 62 85 54 86 55 87
REMARK SMILES IDX 61 88 63 89 56 90 57 91 58 92 59 93 60 94
REMARK H PARENT 15 8 22 25 84 44 50 55
REMARK Flexibility Score: inf
ROOT
ATOM      1  C   UNL     1       1.058   3.562   3.921  1.00  0.00     0.002 C 
ENDROOT
BRANCH   1   2
ATOM      2  C   UNL     1       2.519   3.307   4.307  1.00  0.00     0.002 C 
BRANCH   2   3
ATOM      3  C   UNL     1       2.905   1.835   4.511  1.00  0.00     0.021 C 
BRANCH   3   4
ATOM      4  C   UNL     1       2.637   0.925   3.312  1.00  0.00     0.116 C 
BRANCH   4   5
ATOM      5  N   UNL     1       3.391   1.343   2.144  1.00  0.00    -0.356 N 
ATOM      6  O   UNL     1       4.206  -0.740   1.613  1.00  0.00    -0.275 OA
ATOM      7  C   UNL     1       4.124   0.462   1.383  1.00  0.00     0.222 C 
ATOM      8  H   UNL     1       3.377   2.293   1.887  1.00  0.00     0.163 HD
BRANCH   7   9
ATOM      9  C   UNL     1       4.855   1.095   0.223  1.00  0.00     0.130 C 
BRANCH   9  10
ATOM     10  C   UNL     1       3.884   1.614  -0.837  1.00  0.00     0.127 C 
BRANCH  10  11
ATOM     11  N   UNL     1       4.595   2.308  -1.924  1.00  0.00    -0.346 N 
ATOM     12  C   UNL     1       4.479   3.650  -2.203  1.00  0.00     0.086 A 
ATOM     13  C   UNL     1       5.491   1.750  -2.803  1.00  0.00     0.086 A 
ATOM     14  C   UNL     1       5.272   3.933  -3.293  1.00  0.00     0.019 A 
ATOM     15  C   UNL     1       5.907   2.730  -3.677  1.00  0.00     0.019 A 
ENDBRANCH  10  11
BRANCH  10  16
ATOM     16  C   UNL     1       2.938   0.575  -1.409  1.00  0.00    -0.014 A 
ATOM     17  C   UNL     1       3.307  -0.725  -1.898  1.00  0.00     0.017 A 
ATOM     18  C   UNL     1       1.567   0.750  -1.506  1.00  0.00     0.070 A 
ATOM     19  C   UNL     1       2.232  -1.448  -2.365  1.00  0.00     0.065 A 
ATOM     20  S   UNL     1       0.765  -0.592  -2.197  1.00  0.00    -0.152 S 
ENDBRANCH  10  16
ENDBRANCH   9  10
ENDBRANCH   7   9
ENDBRANCH   4   5
ENDBRANCH   3   4
ENDBRANCH   2   3
ENDBRANCH   1   2
BRANCH   1  21
ATOM     21  C   UNL     1       0.012   3.019   4.904  1.00  0.00     0.021 C 
BRANCH  21  22
ATOM     22  C   UNL     1       0.072   3.657   6.290  1.00  0.00     0.116 C 
BRANCH  22  23
ATOM     23  N   UNL     1      -0.282   5.067   6.237  1.00  0.00    -0.352 N 
ATOM     24  C   UNL     1      -0.308   5.994   7.248  1.00  0.00     0.251 C 
ATOM     25  H   UNL     1      -0.539   5.405   5.348  1.00  0.00     0.163 HD
ATOM     26  O   UNL     1      -0.963   7.024   7.103  1.00  0.00    -0.269 OA
BRANCH  24  27
ATOM     27  C   UNL     1       0.422   5.761   8.510  1.00  0.00     0.039 A 
ATOM     28  C   UNL     1      -0.191   6.136   9.711  1.00  0.00     0.014 A 
ATOM     29  C   UNL     1       1.725   5.250   8.508  1.00  0.00     0.014 A 
ATOM     30  C   UNL     1       0.477   5.941  10.915  1.00  0.00     0.010 A 
ATOM     31  C   UNL     1       2.381   5.021   9.710  1.00  0.00     0.010 A 
ATOM     32  C   UNL     1       1.753   5.362  10.914  1.00  0.00    -0.014 A 
BRANCH  32  33
ATOM     33  C   UNL     1       2.387   5.016  12.205  1.00  0.00     0.031 A 
ATOM     34  C   UNL     1       1.759   3.748  12.827  1.00  0.00     0.074 A 
ATOM     35  C   UNL     1       3.382   5.854  12.630  1.00  0.00     0.049 A 
ATOM     36  N   UNL     1       1.579   3.419  14.070  1.00  0.00    -0.248 NA
ATOM     37  C   UNL     1       1.149   2.735  11.919  1.00  0.00     0.031 C 
ATOM     38  C   UNL     1       3.873   7.026  11.868  1.00  0.00     0.029 A 
ATOM     39  N   UNL     1       4.186   5.912  13.751  1.00  0.00    -0.354 N 
ATOM     40  C   UNL     1       1.044   2.106  14.097  1.00  0.00     0.074 A 
ATOM     41  C   UNL     1       0.675   1.800  12.748  1.00  0.00     0.031 C 
ATOM     42  C   UNL     1       4.814   7.700  12.563  1.00  0.00     0.029 A 
ATOM     43  C   UNL     1       5.041   7.048  13.836  1.00  0.00     0.049 A 
ATOM     44  H   UNL     1       4.170   5.215  14.445  1.00  0.00     0.167 HD
ATOM     45  C   UNL     1       1.074   1.299  15.203  1.00  0.00     0.037 A 
ATOM     46  C   UNL     1       5.829   7.462  14.880  1.00  0.00     0.037 A 
ATOM     47  C   UNL     1       1.735   1.978  16.267  1.00  0.00     0.049 A 
ATOM     48  C   UNL     1       5.712   6.395  15.886  1.00  0.00     0.074 A 
ATOM     49  C   UNL     1       1.370   3.019  17.077  1.00  0.00     0.029 A 
ATOM     50  N   UNL     1       3.094   1.794  16.353  1.00  0.00    -0.354 N 
ATOM     51  N   UNL     1       6.245   5.214  15.789  1.00  0.00    -0.248 NA
ATOM     52  C   UNL     1       4.836   6.624  17.042  1.00  0.00     0.031 C 
ATOM     53  C   UNL     1       2.572   3.737  17.243  1.00  0.00     0.029 A 
ATOM     54  C   UNL     1       3.639   3.000  16.714  1.00  0.00     0.049 A 
ATOM     55  H   UNL     1       3.584   0.956  16.186  1.00  0.00     0.167 HD
ATOM     56  C   UNL     1       5.505   4.481  16.684  1.00  0.00     0.074 A 
ATOM     57  C   UNL     1       4.908   5.423  17.605  1.00  0.00     0.031 C 
ATOM     58  C   UNL     1       5.001   3.277  16.315  1.00  0.00     0.037 A 
BRANCH  45  59
ATOM     59  C   UNL     1       0.812  -0.173  15.422  1.00  0.00     0.058 A 
ATOM     60  C   UNL     1       0.587  -0.613  16.754  1.00  0.00     0.135 A 
ATOM     61  C   UNL     1       1.117  -1.175  14.491  1.00  0.00     0.135 A 
ATOM     62  F   UNL     1       0.215   0.255  17.711  1.00  0.00    -0.206 F 
ATOM     63  C   UNL     1       0.810  -1.924  17.164  1.00  0.00     0.059 A 
ATOM     64  C   UNL     1       1.302  -2.510  14.874  1.00  0.00     0.059 A 
ATOM     65  F   UNL     1       1.324  -0.878  13.202  1.00  0.00    -0.206 F 
ATOM     66  C   UNL     1       1.208  -2.861  16.220  1.00  0.00     0.060 A 
BRANCH  66  67
ATOM     67  S   UNL     1       1.643  -4.518  16.793  1.00  0.00     0.124 S 
ATOM     68  O   UNL     1       2.922  -4.280  17.450  1.00  0.00    -0.237 OA
ATOM     69  O   UNL     1       0.528  -4.842  17.679  1.00  0.00    -0.237 OA
ATOM     70  O   UNL     1       1.696  -5.296  15.558  1.00  0.00    -0.744 OA
ENDBRANCH  66  67
ENDBRANCH  45  59
BRANCH  46  71
ATOM     71  C   UNL     1       6.588   8.710  15.305  1.00  0.00     0.058 A 
ATOM     72  C   UNL     1       6.796   9.865  14.540  1.00  0.00     0.135 A 
ATOM     73  C   UNL     1       7.036   8.829  16.654  1.00  0.00     0.135 A 
ATOM     74  F   UNL     1       6.590   9.869  13.218  1.00  0.00    -0.206 F 
ATOM     75  C   UNL     1       7.228  11.081  15.106  1.00  0.00     0.059 A 
ATOM     76  C   UNL     1       7.415  10.030  17.250  1.00  0.00     0.059 A 
ATOM     77  F   UNL     1       7.087   7.773  17.478  1.00  0.00    -0.206 F 
ATOM     78  C   UNL     1       7.471  11.168  16.475  1.00  0.00     0.060 A 
BRANCH  78  79
ATOM     79  S   UNL     1       7.728  12.768  17.274  1.00  0.00     0.124 S 
ATOM     80  O   UNL     1       9.158  12.978  17.084  1.00  0.00    -0.237 OA
ATOM     81  O   UNL     1       6.847  13.646  16.509  1.00  0.00    -0.237 OA
ATOM     82  O   UNL     1       7.302  12.524  18.650  1.00  0.00    -0.744 OA
ENDBRANCH  78  79
ENDBRANCH  46  71
BRANCH  58  83
ATOM     83  C   UNL     1       5.780   2.564  15.223  1.00  0.00     0.058 A 
ATOM     84  C   UNL     1       7.097   2.140  15.461  1.00  0.00     0.135 A 
ATOM     85  C   UNL     1       5.297   2.348  13.920  1.00  0.00     0.135 A 
ATOM     86  F   UNL     1       7.642   2.311  16.676  1.00  0.00    -0.206 F 
ATOM     87  C   UNL     1       7.877   1.531  14.473  1.00  0.00     0.059 A 
ATOM     88  C   UNL     1       6.048   1.732  12.915  1.00  0.00     0.059 A 
ATOM     89  F   UNL     1       4.071   2.745  13.582  1.00  0.00    -0.206 F 
ATOM     90  C   UNL     1       7.343   1.323  13.202  1.00  0.00     0.060 A 
BRANCH  90  91
ATOM     91  S   UNL     1       8.350   0.499  11.947  1.00  0.00     0.124 S 
ATOM     92  O   UNL     1       9.495   1.396  11.826  1.00  0.00    -0.237 OA
ATOM     93  O   UNL     1       8.621  -0.791  12.572  1.00  0.00    -0.237 OA
ATOM     94  O   UNL     1       7.476   0.453  10.777  1.00  0.00    -0.744 OA
ENDBRANCH  90  91
ENDBRANCH  58  83
ENDBRANCH  32  33
ENDBRANCH  24  27
ENDBRANCH  22  23
ENDBRANCH  21  22
ENDBRANCH   1  21
TORSDOF 19
