REMARK SMILES CCNC(=O)NC(=O)[C@@H](C)[NH2+][C@](C)(C(=O)NCCCCCCNC(=O)c1ccc(-c2c3nc(c(-c4c(F)cc(S(=O)(=O)[O-])cc4F)c4ccc([nH]4)c(-c4c(F)cc(S(=O)(=O)[O-])cc4F)c4nc(c(-c5c(F)cc(S(=O)(=O)[O-])cc5F)c5ccc2[nH]5)C=C4)C=C3)cc1)C(F)(F)F
REMARK SMILES IDX 19 1 18 2 17 3 16 4 14 5 15 6 12 8 13 9 11 10 9 13 10 14
REMARK SMILES IDX 7 15 3 16 4 17 5 19 6 20 8 22 2 23 1 24 92 25 93 26 94 27
REMARK SMILES IDX 95 28 20 29 21 30 22 31 23 32 24 33 25 35 26 36 27 37 91 38
REMARK SMILES IDX 28 39 90 40 29 41 30 42 31 43 84 44 32 45 89 46 83 47 85 48
REMARK SMILES IDX 33 49 88 50 82 51 81 52 34 54 68 55 47 56 67 57 48 58 51 59
REMARK SMILES IDX 66 60 86 61 49 62 50 63 65 65 87 66 52 67 35 68 36 69 45 70
REMARK SMILES IDX 37 71 38 72 44 73 46 74 39 75 40 76 41 77 42 78 43 79 69 80
REMARK SMILES IDX 70 81 79 82 71 83 72 84 78 85 80 86 73 87 74 88 75 89 76 90
REMARK SMILES IDX 77 91 53 92 54 93 63 94 55 95 56 96 62 97 64 98 57 99 58 100
REMARK SMILES IDX 59 101 60 102 61 103
REMARK H PARENT 16 7 11 11 11 12 3 18 6 21 23 34 85 53 51 64
REMARK Flexibility Score: inf
ROOT
ATOM      1  C   UNL     1       3.081   4.010  -4.257  1.00  0.00     0.002 C 
ENDROOT
BRANCH   1   2
ATOM      2  C   UNL     1       2.135   2.914  -3.748  1.00  0.00     0.021 C 
BRANCH   2   3
ATOM      3  C   UNL     1       2.461   2.468  -2.325  1.00  0.00     0.116 C 
BRANCH   3   4
ATOM      4  N   UNL     1       2.020   3.497  -1.395  1.00  0.00    -0.350 N 
ATOM      5  C   UNL     1       0.919   3.554  -0.579  1.00  0.00     0.290 C 
ATOM      6  O   UNL     1       0.615   4.674  -0.165  1.00  0.00    -0.267 OA
ATOM      7  H   UNL     1       2.610   4.284  -1.343  1.00  0.00     0.163 HD
BRANCH   5   8
ATOM      8  C   UNL     1       0.231   2.241  -0.090  1.00  0.00     0.269 C 
ATOM      9  C   UNL     1      -0.567   1.599  -1.242  1.00  0.00     0.101 C 
BRANCH   8  10
ATOM     10  N   UNL     1       1.369   1.351   0.306  1.00  0.00    -0.316 N 
ATOM     11  H   UNL     1       1.598   0.820  -0.534  1.00  0.00     0.348 HD
ATOM     12  H   UNL     1       2.001   2.044   0.708  1.00  0.00     0.348 HD
BRANCH  10  13
ATOM     13  C   UNL     1       1.353   0.371   1.387  1.00  0.00     0.271 C 
ATOM     14  C   UNL     1       0.913   0.649   2.827  1.00  0.00     0.086 C 
BRANCH  13  15
ATOM     15  C   UNL     1       2.787  -0.182   1.517  1.00  0.00     0.285 C 
ATOM     16  N   UNL     1       3.920   3.047   1.872  1.00  0.00    -0.338 N 
ATOM     17  C   UNL     1       4.507   1.879   1.611  1.00  0.00     0.321 C 
ATOM     18  H   UNL     1       4.533   3.798   1.699  1.00  0.00     0.165 HD
ATOM     19  O   UNL     1       5.715   1.930   1.350  1.00  0.00    -0.248 OA
ATOM     20  N   UNL     1       3.924   0.639   1.586  1.00  0.00    -0.273 N 
ATOM     21  H   UNL     1       4.679   0.010   1.649  1.00  0.00     0.175 HD
ATOM     22  O   UNL     1       2.977  -1.401   1.601  1.00  0.00    -0.268 OA
BRANCH  16  23
ATOM     23  C   UNL     1       2.638   3.519   2.336  1.00  0.00     0.114 C 
ATOM     24  C   UNL     1       2.619   3.915   3.797  1.00  0.00     0.027 C 
ENDBRANCH  16  23
ENDBRANCH  13  15
ENDBRANCH  10  13
ENDBRANCH   8  10
BRANCH   8  25
ATOM     25  C   UNL     1      -0.838   2.713   0.940  1.00  0.00     0.453 C 
ATOM     26  F   UNL     1      -1.750   3.554   0.397  1.00  0.00    -0.164 F 
ATOM     27  F   UNL     1      -1.549   1.653   1.408  1.00  0.00    -0.164 F 
ATOM     28  F   UNL     1      -0.302   3.328   2.018  1.00  0.00    -0.164 F 
ENDBRANCH   8  25
ENDBRANCH   5   8
ENDBRANCH   3   4
ENDBRANCH   2   3
ENDBRANCH   1   2
BRANCH   1  29
ATOM     29  C   UNL     1       4.553   3.590  -4.354  1.00  0.00     0.002 C 
BRANCH  29  30
ATOM     30  C   UNL     1       4.801   2.305  -5.146  1.00  0.00     0.021 C 
BRANCH  30  31
ATOM     31  C   UNL     1       4.279   2.345  -6.577  1.00  0.00     0.116 C 
BRANCH  31  32
ATOM     32  N   UNL     1       4.992   3.318  -7.388  1.00  0.00    -0.352 N 
ATOM     33  C   UNL     1       5.582   3.137  -8.618  1.00  0.00     0.251 C 
ATOM     34  H   UNL     1       5.063   4.223  -7.008  1.00  0.00     0.163 HD
ATOM     35  O   UNL     1       6.314   3.992  -9.089  1.00  0.00    -0.269 OA
BRANCH  33  36
ATOM     36  C   UNL     1       5.327   1.875  -9.348  1.00  0.00     0.039 A 
ATOM     37  C   UNL     1       6.407   1.155  -9.863  1.00  0.00     0.014 A 
ATOM     38  C   UNL     1       4.022   1.396  -9.486  1.00  0.00     0.014 A 
ATOM     39  C   UNL     1       6.181  -0.084 -10.468  1.00  0.00     0.010 A 
ATOM     40  C   UNL     1       3.808   0.132 -10.024  1.00  0.00     0.010 A 
ATOM     41  C   UNL     1       4.884  -0.620 -10.523  1.00  0.00    -0.014 A 
BRANCH  41  42
ATOM     42  C   UNL     1       4.606  -1.952 -11.118  1.00  0.00     0.031 A 
ATOM     43  C   UNL     1       3.723  -2.046 -12.333  1.00  0.00     0.074 A 
ATOM     44  C   UNL     1       5.068  -3.070 -10.524  1.00  0.00     0.049 A 
ATOM     45  N   UNL     1       3.211  -3.104 -12.904  1.00  0.00    -0.248 NA
ATOM     46  C   UNL     1       3.341  -0.774 -12.972  1.00  0.00     0.031 C 
ATOM     47  C   UNL     1       5.919  -3.110  -9.332  1.00  0.00     0.029 A 
ATOM     48  N   UNL     1       4.867  -4.394 -10.829  1.00  0.00    -0.354 N 
ATOM     49  C   UNL     1       2.437  -2.628 -13.956  1.00  0.00     0.074 A 
ATOM     50  C   UNL     1       2.503  -1.184 -13.913  1.00  0.00     0.031 C 
ATOM     51  C   UNL     1       6.172  -4.390  -9.014  1.00  0.00     0.029 A 
ATOM     52  C   UNL     1       5.463  -5.263  -9.944  1.00  0.00     0.049 A 
ATOM     53  H   UNL     1       4.344  -4.693 -11.607  1.00  0.00     0.167 HD
ATOM     54  C   UNL     1       1.753  -3.333 -14.888  1.00  0.00     0.037 A 
ATOM     55  C   UNL     1       5.423  -6.609  -9.879  1.00  0.00     0.037 A 
ATOM     56  C   UNL     1       1.714  -4.770 -14.939  1.00  0.00     0.049 A 
ATOM     57  C   UNL     1       4.625  -7.369 -10.909  1.00  0.00     0.074 A 
ATOM     58  C   UNL     1       1.066  -5.581 -15.855  1.00  0.00     0.029 A 
ATOM     59  N   UNL     1       2.358  -5.612 -14.044  1.00  0.00    -0.354 N 
ATOM     60  N   UNL     1       3.917  -6.904 -11.910  1.00  0.00    -0.248 NA
ATOM     61  C   UNL     1       4.622  -8.835 -10.803  1.00  0.00     0.031 C 
ATOM     62  C   UNL     1       1.288  -6.912 -15.492  1.00  0.00     0.029 A 
ATOM     63  C   UNL     1       2.119  -6.932 -14.384  1.00  0.00     0.049 A 
ATOM     64  H   UNL     1       2.904  -5.314 -13.280  1.00  0.00     0.167 HD
ATOM     65  C   UNL     1       3.429  -8.020 -12.581  1.00  0.00     0.074 A 
ATOM     66  C   UNL     1       3.915  -9.183 -11.870  1.00  0.00     0.031 C 
ATOM     67  C   UNL     1       2.652  -8.077 -13.690  1.00  0.00     0.037 A 
BRANCH  54  68
ATOM     68  C   UNL     1       1.002  -2.564 -15.940  1.00  0.00     0.058 A 
ATOM     69  C   UNL     1       1.673  -1.861 -16.953  1.00  0.00     0.135 A 
ATOM     70  C   UNL     1      -0.402  -2.579 -15.973  1.00  0.00     0.135 A 
ATOM     71  F   UNL     1       3.015  -1.798 -16.957  1.00  0.00    -0.206 F 
ATOM     72  C   UNL     1       0.981  -1.187 -17.952  1.00  0.00     0.059 A 
ATOM     73  C   UNL     1      -1.115  -1.936 -16.980  1.00  0.00     0.059 A 
ATOM     74  F   UNL     1      -1.094  -3.233 -15.027  1.00  0.00    -0.206 F 
ATOM     75  C   UNL     1      -0.414  -1.234 -17.960  1.00  0.00     0.060 A 
BRANCH  75  76
ATOM     76  S   UNL     1      -1.295  -0.378 -19.282  1.00  0.00     0.124 S 
ATOM     77  O   UNL     1      -1.085   1.019 -18.915  1.00  0.00    -0.237 OA
ATOM     78  O   UNL     1      -0.585  -0.833 -20.474  1.00  0.00    -0.237 OA
ATOM     79  O   UNL     1      -2.665  -0.862 -19.149  1.00  0.00    -0.744 OA
ENDBRANCH  75  76
ENDBRANCH  54  68
BRANCH  55  80
ATOM     80  C   UNL     1       6.160  -7.337  -8.809  1.00  0.00     0.058 A 
ATOM     81  C   UNL     1       7.261  -8.150  -9.119  1.00  0.00     0.135 A 
ATOM     82  C   UNL     1       5.764  -7.261  -7.465  1.00  0.00     0.135 A 
ATOM     83  F   UNL     1       7.677  -8.259 -10.390  1.00  0.00    -0.206 F 
ATOM     84  C   UNL     1       7.918  -8.893  -8.144  1.00  0.00     0.059 A 
ATOM     85  C   UNL     1       6.425  -7.971  -6.466  1.00  0.00     0.059 A 
ATOM     86  F   UNL     1       4.730  -6.483  -7.110  1.00  0.00    -0.206 F 
ATOM     87  C   UNL     1       7.488  -8.800  -6.819  1.00  0.00     0.060 A 
BRANCH  87  88
ATOM     88  S   UNL     1       8.348  -9.768  -5.560  1.00  0.00     0.124 S 
ATOM     89  O   UNL     1       7.876 -11.116  -5.854  1.00  0.00    -0.237 OA
ATOM     90  O   UNL     1       9.749  -9.500  -5.871  1.00  0.00    -0.237 OA
ATOM     91  O   UNL     1       7.870  -9.189  -4.309  1.00  0.00    -0.744 OA
ENDBRANCH  87  88
ENDBRANCH  55  80
BRANCH  67  92
ATOM     92  C   UNL     1       2.343  -9.431 -14.266  1.00  0.00     0.058 A 
ATOM     93  C   UNL     1       1.422 -10.303 -13.668  1.00  0.00     0.135 A 
ATOM     94  C   UNL     1       2.913  -9.816 -15.492  1.00  0.00     0.135 A 
ATOM     95  F   UNL     1       0.856  -9.986 -12.493  1.00  0.00    -0.206 F 
ATOM     96  C   UNL     1       1.079 -11.513 -14.262  1.00  0.00     0.059 A 
ATOM     97  C   UNL     1       2.564 -11.008 -16.117  1.00  0.00     0.059 A 
ATOM     98  F   UNL     1       3.794  -9.012 -16.109  1.00  0.00    -0.206 F 
ATOM     99  C   UNL     1       1.648 -11.852 -15.492  1.00  0.00     0.060 A 
BRANCH  99 100
ATOM    100  S   UNL     1       1.137 -13.390 -16.288  1.00  0.00     0.124 S 
ATOM    101  O   UNL     1       1.801 -14.387 -15.454  1.00  0.00    -0.237 OA
ATOM    102  O   UNL     1      -0.317 -13.332 -16.171  1.00  0.00    -0.237 OA
ATOM    103  O   UNL     1       1.657 -13.261 -17.646  1.00  0.00    -0.744 OA
ENDBRANCH  99 100
ENDBRANCH  67  92
ENDBRANCH  41  42
ENDBRANCH  33  36
ENDBRANCH  31  32
ENDBRANCH  30  31
ENDBRANCH  29  30
ENDBRANCH   1  29
TORSDOF 21
