REMARK SMILES COC[C@H]1CC[N@@H+](Cc2ccc(C(=O)NCCCCCCNC(=O)c3ccc(-c4c5nc(c(-c6c(F)cc(S(=O)(=O)[O-])cc6F)c6ccc([nH]6)c(-c6c(F)cc(S(=O)(=O)[O-])cc6F)c6nc(c(-c7c(F)cc(S(=O)(=O)[O-])cc7F)c7ccc4[nH]7)C=C6)C=C5)cc3)cn2)C1
REMARK SMILES IDX 18 1 17 2 16 3 15 4 13 5 14 6 12 8 9 9 10 10 92 11 11 12
REMARK SMILES IDX 91 13 8 14 7 15 4 16 5 17 93 18 6 19 3 21 2 22 1 23 19 24
REMARK SMILES IDX 20 25 21 26 22 27 23 28 24 30 25 31 26 32 90 33 27 34 89 35
REMARK SMILES IDX 28 36 29 37 30 38 83 39 31 40 88 41 82 42 84 43 32 44 87 45
REMARK SMILES IDX 81 46 80 47 33 49 67 50 46 51 66 52 47 53 50 54 65 55 85 56
REMARK SMILES IDX 48 57 49 58 64 60 86 61 51 62 34 63 35 64 44 65 36 66 37 67
REMARK SMILES IDX 43 68 45 69 38 70 39 71 40 72 41 73 42 74 68 75 69 76 78 77
REMARK SMILES IDX 70 78 71 79 77 80 79 81 72 82 73 83 74 84 75 85 76 86 52 87
REMARK SMILES IDX 53 88 62 89 54 90 55 91 61 92 63 93 56 94 57 95 58 96 59 97
REMARK SMILES IDX 60 98
REMARK H PARENT 15 7 7 20 22 29 84 48 50 59
REMARK Flexibility Score: inf
ROOT
ATOM      1  C   UNL     1      -6.544  -3.961  -4.200  1.00  0.00     0.002 C 
ENDROOT
BRANCH   1   2
ATOM      2  C   UNL     1      -5.324  -3.042  -4.064  1.00  0.00     0.021 C 
BRANCH   2   3
ATOM      3  C   UNL     1      -4.002  -3.799  -3.938  1.00  0.00     0.116 C 
BRANCH   3   4
ATOM      4  N   UNL     1      -3.619  -4.363  -5.222  1.00  0.00    -0.352 N 
ATOM      5  C   UNL     1      -2.648  -4.002  -6.120  1.00  0.00     0.252 C 
ATOM      6  O   UNL     1      -2.496  -4.676  -7.136  1.00  0.00    -0.269 OA
ATOM      7  H   UNL     1      -4.153  -5.144  -5.496  1.00  0.00     0.163 HD
BRANCH   5   8
ATOM      8  C   UNL     1      -1.722  -2.883  -5.857  1.00  0.00     0.058 A 
ATOM      9  C   UNL     1       0.254  -1.077  -5.204  1.00  0.00     0.095 A 
ATOM     10  C   UNL     1      -1.076  -0.758  -4.931  1.00  0.00     0.030 A 
ATOM     11  N   UNL     1       0.600  -2.199  -5.885  1.00  0.00    -0.255 NA
ATOM     12  C   UNL     1      -2.076  -1.668  -5.276  1.00  0.00     0.017 A 
ATOM     13  C   UNL     1      -0.391  -3.069  -6.199  1.00  0.00     0.125 A 
BRANCH   9  14
ATOM     14  C   UNL     1       1.384  -0.226  -4.649  1.00  0.00     0.319 C 
BRANCH  14  15
ATOM     15  N   UNL     1       1.921  -0.601  -3.324  1.00  0.00    -0.330 N 
ATOM     16  C   UNL     1       0.653  -1.887  -1.694  1.00  0.00     0.076 C 
ATOM     17  C   UNL     1       1.401  -2.824  -2.642  1.00  0.00     0.073 C 
ATOM     18  C   UNL     1       0.970  -0.477  -2.216  1.00  0.00     0.268 C 
ATOM     19  C   UNL     1       2.482  -1.952  -3.257  1.00  0.00     0.263 C 
ATOM     20  H   UNL     1       2.664   0.089  -3.213  1.00  0.00     0.348 HD
BRANCH  16  21
ATOM     21  C   UNL     1      -0.851  -2.186  -1.633  1.00  0.00     0.169 C 
BRANCH  21  22
ATOM     22  O   UNL     1      -1.239  -2.766  -0.388  1.00  0.00    -0.384 OA
ATOM     23  C   UNL     1      -0.871  -4.130  -0.249  1.00  0.00     0.194 C 
ENDBRANCH  21  22
ENDBRANCH  16  21
ENDBRANCH  14  15
ENDBRANCH   9  14
ENDBRANCH   5   8
ENDBRANCH   3   4
ENDBRANCH   2   3
ENDBRANCH   1   2
BRANCH   1  24
ATOM     24  C   UNL     1      -6.809  -4.863  -2.990  1.00  0.00     0.002 C 
BRANCH  24  25
ATOM     25  C   UNL     1      -6.955  -4.129  -1.654  1.00  0.00     0.021 C 
BRANCH  25  26
ATOM     26  C   UNL     1      -8.084  -3.103  -1.615  1.00  0.00     0.116 C 
BRANCH  26  27
ATOM     27  N   UNL     1      -9.386  -3.727  -1.789  1.00  0.00    -0.352 N 
ATOM     28  C   UNL     1     -10.488  -3.686  -0.970  1.00  0.00     0.251 C 
ATOM     29  H   UNL     1      -9.494  -4.254  -2.613  1.00  0.00     0.163 HD
ATOM     30  O   UNL     1     -11.422  -4.456  -1.164  1.00  0.00    -0.269 OA
BRANCH  28  31
ATOM     31  C   UNL     1     -10.538  -2.722   0.152  1.00  0.00     0.039 A 
ATOM     32  C   UNL     1     -11.011  -3.152   1.393  1.00  0.00     0.014 A 
ATOM     33  C   UNL     1     -10.136  -1.395  -0.025  1.00  0.00     0.014 A 
ATOM     34  C   UNL     1     -11.030  -2.265   2.472  1.00  0.00     0.010 A 
ATOM     35  C   UNL     1     -10.087  -0.533   1.068  1.00  0.00     0.010 A 
ATOM     36  C   UNL     1     -10.539  -0.956   2.326  1.00  0.00    -0.014 A 
BRANCH  36  37
ATOM     37  C   UNL     1     -10.494  -0.020   3.480  1.00  0.00     0.031 A 
ATOM     38  C   UNL     1     -11.321   1.238   3.466  1.00  0.00     0.074 A 
ATOM     39  C   UNL     1      -9.674  -0.281   4.518  1.00  0.00     0.049 A 
ATOM     40  N   UNL     1     -11.375   2.199   4.352  1.00  0.00    -0.248 NA
ATOM     41  C   UNL     1     -12.182   1.456   2.293  1.00  0.00     0.031 C 
ATOM     42  C   UNL     1      -8.794  -1.448   4.628  1.00  0.00     0.029 A 
ATOM     43  N   UNL     1      -9.442   0.417   5.676  1.00  0.00    -0.354 N 
ATOM     44  C   UNL     1     -12.272   3.133   3.845  1.00  0.00     0.074 A 
ATOM     45  C   UNL     1     -12.690   2.654   2.545  1.00  0.00     0.031 C 
ATOM     46  C   UNL     1      -8.141  -1.398   5.800  1.00  0.00     0.029 A 
ATOM     47  C   UNL     1      -8.523  -0.180   6.507  1.00  0.00     0.049 A 
ATOM     48  H   UNL     1      -9.892   1.266   5.892  1.00  0.00     0.167 HD
ATOM     49  C   UNL     1     -12.729   4.270   4.422  1.00  0.00     0.037 A 
ATOM     50  C   UNL     1      -8.038   0.214   7.701  1.00  0.00     0.037 A 
ATOM     51  C   UNL     1     -12.322   4.733   5.724  1.00  0.00     0.049 A 
ATOM     52  C   UNL     1      -8.541   1.497   8.308  1.00  0.00     0.074 A 
ATOM     53  C   UNL     1     -12.750   5.855   6.411  1.00  0.00     0.029 A 
ATOM     54  N   UNL     1     -11.393   4.098   6.536  1.00  0.00    -0.354 N 
ATOM     55  N   UNL     1      -9.428   2.341   7.836  1.00  0.00    -0.248 NA
ATOM     56  C   UNL     1      -7.982   1.880   9.612  1.00  0.00     0.031 C 
ATOM     57  C   UNL     1     -12.050   5.922   7.620  1.00  0.00     0.029 A 
ATOM     58  C   UNL     1     -11.224   4.814   7.710  1.00  0.00     0.049 A 
ATOM     59  H   UNL     1     -10.924   3.262   6.311  1.00  0.00     0.167 HD
ATOM     60  C   UNL     1      -9.559   3.334   8.801  1.00  0.00     0.074 A 
ATOM     61  C   UNL     1      -8.668   2.980   9.886  1.00  0.00     0.031 C 
ATOM     62  C   UNL     1     -10.345   4.439   8.789  1.00  0.00     0.037 A 
BRANCH  49  63
ATOM     63  C   UNL     1     -13.734   5.088   3.657  1.00  0.00     0.058 A 
ATOM     64  C   UNL     1     -15.049   4.635   3.457  1.00  0.00     0.135 A 
ATOM     65  C   UNL     1     -13.398   6.357   3.158  1.00  0.00     0.135 A 
ATOM     66  F   UNL     1     -15.420   3.423   3.898  1.00  0.00    -0.206 F 
ATOM     67  C   UNL     1     -15.986   5.399   2.770  1.00  0.00     0.059 A 
ATOM     68  C   UNL     1     -14.329   7.152   2.493  1.00  0.00     0.059 A 
ATOM     69  F   UNL     1     -12.156   6.840   3.319  1.00  0.00    -0.206 F 
ATOM     70  C   UNL     1     -15.617   6.658   2.293  1.00  0.00     0.060 A 
BRANCH  70  71
ATOM     71  S   UNL     1     -16.851   7.641   1.417  1.00  0.00     0.124 S 
ATOM     72  O   UNL     1     -16.962   6.912   0.156  1.00  0.00    -0.237 OA
ATOM     73  O   UNL     1     -18.007   7.552   2.303  1.00  0.00    -0.237 OA
ATOM     74  O   UNL     1     -16.234   8.960   1.325  1.00  0.00    -0.744 OA
ENDBRANCH  70  71
ENDBRANCH  49  63
BRANCH  50  75
ATOM     75  C   UNL     1      -7.035  -0.621   8.417  1.00  0.00     0.058 A 
ATOM     76  C   UNL     1      -7.364  -1.277   9.613  1.00  0.00     0.135 A 
ATOM     77  C   UNL     1      -5.726  -0.768   7.932  1.00  0.00     0.135 A 
ATOM     78  F   UNL     1      -8.601  -1.165  10.120  1.00  0.00    -0.206 F 
ATOM     79  C   UNL     1      -6.426  -2.023  10.319  1.00  0.00     0.059 A 
ATOM     80  C   UNL     1      -4.777  -1.532   8.605  1.00  0.00     0.059 A 
ATOM     81  F   UNL     1      -5.363  -0.176   6.783  1.00  0.00    -0.206 F 
ATOM     82  C   UNL     1      -5.133  -2.142   9.807  1.00  0.00     0.060 A 
BRANCH  82  83
ATOM     83  S   UNL     1      -3.927  -3.127  10.722  1.00  0.00     0.124 S 
ATOM     84  O   UNL     1      -3.637  -2.257  11.855  1.00  0.00    -0.237 OA
ATOM     85  O   UNL     1      -4.685  -4.338  11.022  1.00  0.00    -0.237 OA
ATOM     86  O   UNL     1      -2.840  -3.300   9.763  1.00  0.00    -0.744 OA
ENDBRANCH  82  83
ENDBRANCH  50  75
BRANCH  62  87
ATOM     87  C   UNL     1     -10.315   5.323  10.006  1.00  0.00     0.058 A 
ATOM     88  C   UNL     1      -9.210   6.137  10.303  1.00  0.00     0.135 A 
ATOM     89  C   UNL     1     -11.429   5.394  10.858  1.00  0.00     0.135 A 
ATOM     90  F   UNL     1      -8.117   6.103   9.525  1.00  0.00    -0.206 F 
ATOM     91  C   UNL     1      -9.202   6.971  11.416  1.00  0.00     0.059 A 
ATOM     92  C   UNL     1     -11.454   6.243  11.959  1.00  0.00     0.059 A 
ATOM     93  F   UNL     1     -12.516   4.644  10.613  1.00  0.00    -0.206 F 
ATOM     94  C   UNL     1     -10.331   7.019  12.237  1.00  0.00     0.060 A 
BRANCH  94  95
ATOM     95  S   UNL     1     -10.319   8.134  13.657  1.00  0.00     0.124 S 
ATOM     96  O   UNL     1      -9.418   7.438  14.569  1.00  0.00    -0.237 OA
ATOM     97  O   UNL     1      -9.805   9.371  13.078  1.00  0.00    -0.237 OA
ATOM     98  O   UNL     1     -11.720   8.176  14.068  1.00  0.00    -0.744 OA
ENDBRANCH  94  95
ENDBRANCH  62  87
ENDBRANCH  36  37
ENDBRANCH  28  31
ENDBRANCH  26  27
ENDBRANCH  25  26
ENDBRANCH  24  25
ENDBRANCH   1  24
TORSDOF 20
