REMARK SMILES C[C@@H]1CCC[C@H](C)[N@H+]1Cc1cc2c(cc1Cl)C=C(C(=O)NCCCCCCNC(=O)c1ccc(-c3c4nc(c(-c5c(F)cc(S(=O)(=O)[O-])cc5F)c5ccc([nH]5)c(-c5c(F)cc(S(=O)(=O)[O-])cc5F)c5nc(c(-c6c(F)cc(S(=O)(=O)[O-])cc6F)c6ccc3[nH]6)C=C5)C=C4)cc1)[C@@H](C(F)(F)F)O2
REMARK SMILES IDX 25 1 24 2 23 3 22 4 21 5 19 6 20 7 18 9 10 10 11 11 15 12
REMARK SMILES IDX 12 13 14 14 16 15 13 16 102 17 17 18 97 19 9 20 8 21 7 22
REMARK SMILES IDX 6 23 5 24 4 25 2 26 3 28 1 29 98 30 99 31 100 32 101 33
REMARK SMILES IDX 26 34 27 35 28 36 29 37 30 39 31 40 32 41 96 42 33 43 95 44
REMARK SMILES IDX 34 45 35 46 36 47 89 48 37 49 94 50 88 51 90 52 38 53 93 54
REMARK SMILES IDX 87 55 86 56 39 58 73 59 52 60 72 61 53 62 56 63 71 64 91 65
REMARK SMILES IDX 54 66 55 67 70 69 92 70 57 71 40 72 41 73 50 74 42 75 43 76
REMARK SMILES IDX 49 77 51 78 44 79 45 80 46 81 47 82 48 83 74 84 75 85 84 86
REMARK SMILES IDX 76 87 77 88 83 89 85 90 78 91 79 92 80 93 81 94 82 95 58 96
REMARK SMILES IDX 59 97 68 98 60 99 61 100 67 101 69 102 62 103 63 104 64 105
REMARK SMILES IDX 65 106 66 107
REMARK H PARENT 21 8 8 27 28 38 90 57 56 68
REMARK Flexibility Score: inf
ROOT
ATOM      1  C   UNL     1      -5.355   6.835   9.499  1.00  0.00     0.002 C 
ENDROOT
BRANCH   1   2
ATOM      2  C   UNL     1      -4.979   7.064   8.029  1.00  0.00     0.002 C 
BRANCH   2   3
ATOM      3  C   UNL     1      -3.990   6.053   7.442  1.00  0.00     0.021 C 
BRANCH   3   4
ATOM      4  C   UNL     1      -4.451   4.602   7.544  1.00  0.00     0.116 C 
BRANCH   4   5
ATOM      5  N   UNL     1      -5.326   4.245   6.441  1.00  0.00    -0.352 N 
ATOM      6  C   UNL     1      -5.415   3.242   5.538  1.00  0.00     0.251 C 
ATOM      7  O   UNL     1      -6.398   3.292   4.791  1.00  0.00    -0.270 OA
ATOM      8  H   UNL     1      -6.043   4.908   6.317  1.00  0.00     0.163 HD
BRANCH   6   9
ATOM      9  C   UNL     1      -4.428   2.136   5.380  1.00  0.00     0.067 C 
ATOM     10  C   UNL     1      -1.744  -1.543   3.228  1.00  0.00     0.029 A 
ATOM     11  C   UNL     1      -1.442  -0.494   4.111  1.00  0.00     0.058 A 
ATOM     12  C   UNL     1      -3.098  -1.864   3.029  1.00  0.00     0.050 A 
ATOM     13  C   UNL     1      -2.451   0.332   4.593  1.00  0.00     0.128 A 
ATOM     14  C   UNL     1      -4.107  -1.008   3.485  1.00  0.00     0.033 A 
ATOM     15  Cl  UNL     1      -3.604  -3.282   2.180  1.00  0.00    -0.084 Cl
ATOM     16  C   UNL     1      -3.776   0.132   4.213  1.00  0.00     0.019 A 
ATOM     17  O   UNL     1      -2.060   1.392   5.358  1.00  0.00    -0.475 OA
ATOM     18  C   UNL     1      -4.752   1.179   4.490  1.00  0.00     0.025 C 
ATOM     19  C   UNL     1      -3.122   2.033   6.117  1.00  0.00     0.314 C 
BRANCH  10  20
ATOM     20  C   UNL     1      -0.607  -2.174   2.450  1.00  0.00     0.301 C 
BRANCH  20  21
ATOM     21  N   UNL     1      -0.218  -1.494   1.189  1.00  0.00    -0.327 N 
ATOM     22  C   UNL     1       1.635  -0.082   0.343  1.00  0.00     0.075 C 
ATOM     23  C   UNL     1       0.476  -0.204   1.347  1.00  0.00     0.181 C 
ATOM     24  C   UNL     1      -0.434   1.034   1.248  1.00  0.00     0.065 C 
ATOM     25  C   UNL     1      -1.401   0.984   0.072  1.00  0.00     0.012 C 
ATOM     26  C   UNL     1      -1.215  -1.567   0.112  1.00  0.00     0.181 C 
ATOM     27  H   UNL     1       0.534  -2.082   0.830  1.00  0.00     0.348 HD
ATOM     28  C   UNL     1      -2.143  -0.344   0.024  1.00  0.00     0.065 C 
ATOM     29  C   UNL     1      -0.549  -1.843  -1.243  1.00  0.00     0.075 C 
ENDBRANCH  20  21
ENDBRANCH  10  20
BRANCH  19  30
ATOM     30  C   UNL     1      -3.304   1.340   7.482  1.00  0.00     0.429 C 
ATOM     31  F   UNL     1      -2.219   1.532   8.268  1.00  0.00    -0.167 F 
ATOM     32  F   UNL     1      -4.368   1.833   8.162  1.00  0.00    -0.167 F 
ATOM     33  F   UNL     1      -3.499   0.006   7.369  1.00  0.00    -0.167 F 
ENDBRANCH  19  30
ENDBRANCH   6   9
ENDBRANCH   4   5
ENDBRANCH   3   4
ENDBRANCH   2   3
ENDBRANCH   1   2
BRANCH   1  34
ATOM     34  C   UNL     1      -4.179   6.616  10.454  1.00  0.00     0.021 C 
BRANCH  34  35
ATOM     35  C   UNL     1      -3.154   7.744  10.476  1.00  0.00     0.116 C 
BRANCH  35  36
ATOM     36  N   UNL     1      -3.720   9.001  10.938  1.00  0.00    -0.352 N 
ATOM     37  C   UNL     1      -3.265   9.843  11.924  1.00  0.00     0.251 C 
ATOM     38  H   UNL     1      -4.544   9.288  10.481  1.00  0.00     0.163 HD
ATOM     39  O   UNL     1      -3.956  10.786  12.298  1.00  0.00    -0.269 OA
BRANCH  37  40
ATOM     40  C   UNL     1      -1.950   9.585  12.548  1.00  0.00     0.039 A 
ATOM     41  C   UNL     1      -0.838   9.292  11.757  1.00  0.00     0.014 A 
ATOM     42  C   UNL     1      -1.839   9.601  13.941  1.00  0.00     0.014 A 
ATOM     43  C   UNL     1       0.339   8.861  12.358  1.00  0.00     0.010 A 
ATOM     44  C   UNL     1      -0.628   9.248  14.543  1.00  0.00     0.010 A 
ATOM     45  C   UNL     1       0.458   8.830  13.758  1.00  0.00    -0.014 A 
BRANCH  45  46
ATOM     46  C   UNL     1       1.724   8.347  14.371  1.00  0.00     0.031 A 
ATOM     47  C   UNL     1       1.746   7.082  15.190  1.00  0.00     0.074 A 
ATOM     48  C   UNL     1       2.869   9.013  14.123  1.00  0.00     0.049 A 
ATOM     49  N   UNL     1       2.759   6.504  15.784  1.00  0.00    -0.248 NA
ATOM     50  C   UNL     1       0.469   6.371  15.364  1.00  0.00     0.031 C 
ATOM     51  C   UNL     1       2.977  10.234  13.319  1.00  0.00     0.029 A 
ATOM     52  N   UNL     1       4.164   8.742  14.485  1.00  0.00    -0.354 N 
ATOM     53  C   UNL     1       2.245   5.369  16.401  1.00  0.00     0.074 A 
ATOM     54  C   UNL     1       0.822   5.357  16.144  1.00  0.00     0.031 C 
ATOM     55  C   UNL     1       4.271  10.567  13.195  1.00  0.00     0.029 A 
ATOM     56  C   UNL     1       5.079   9.627  13.964  1.00  0.00     0.049 A 
ATOM     57  H   UNL     1       4.415   7.986  15.064  1.00  0.00     0.167 HD
ATOM     58  C   UNL     1       2.904   4.413  17.100  1.00  0.00     0.037 A 
ATOM     59  C   UNL     1       6.418   9.683  14.097  1.00  0.00     0.037 A 
ATOM     60  C   UNL     1       4.324   4.421  17.340  1.00  0.00     0.049 A 
ATOM     61  C   UNL     1       7.110   8.652  14.944  1.00  0.00     0.074 A 
ATOM     62  C   UNL     1       5.081   3.509  18.056  1.00  0.00     0.029 A 
ATOM     63  N   UNL     1       5.205   5.380  16.861  1.00  0.00    -0.354 N 
ATOM     64  N   UNL     1       6.601   7.604  15.546  1.00  0.00    -0.248 NA
ATOM     65  C   UNL     1       8.556   8.820  15.145  1.00  0.00     0.031 C 
ATOM     66  C   UNL     1       6.413   3.932  18.035  1.00  0.00     0.029 A 
ATOM     67  C   UNL     1       6.494   5.085  17.272  1.00  0.00     0.049 A 
ATOM     68  H   UNL     1       4.951   6.155  16.309  1.00  0.00     0.167 HD
ATOM     69  C   UNL     1       7.667   6.978  16.180  1.00  0.00     0.074 A 
ATOM     70  C   UNL     1       8.851   7.754  15.876  1.00  0.00     0.031 C 
ATOM     71  C   UNL     1       7.664   5.862  16.950  1.00  0.00     0.037 A 
BRANCH  58  72
ATOM     72  C   UNL     1       2.106   3.264  17.652  1.00  0.00     0.058 A 
ATOM     73  C   UNL     1       1.623   2.245  16.817  1.00  0.00     0.135 A 
ATOM     74  C   UNL     1       1.893   3.134  19.034  1.00  0.00     0.135 A 
ATOM     75  F   UNL     1       1.782   2.328  15.486  1.00  0.00    -0.206 F 
ATOM     76  C   UNL     1       0.952   1.140  17.331  1.00  0.00     0.059 A 
ATOM     77  C   UNL     1       1.245   2.026  19.573  1.00  0.00     0.059 A 
ATOM     78  F   UNL     1       2.333   4.082  19.877  1.00  0.00    -0.206 F 
ATOM     79  C   UNL     1       0.774   1.036  18.712  1.00  0.00     0.060 A 
BRANCH  79  80
ATOM     80  S   UNL     1      -0.069  -0.423  19.361  1.00  0.00     0.124 S 
ATOM     81  O   UNL     1      -1.436  -0.198  18.902  1.00  0.00    -0.237 OA
ATOM     82  O   UNL     1       0.648  -1.512  18.706  1.00  0.00    -0.237 OA
ATOM     83  O   UNL     1       0.132  -0.320  20.803  1.00  0.00    -0.744 OA
ENDBRANCH  79  80
ENDBRANCH  58  72
BRANCH  59  84
ATOM     84  C   UNL     1       7.194  10.751  13.414  1.00  0.00     0.058 A 
ATOM     85  C   UNL     1       8.072  10.441  12.365  1.00  0.00     0.135 A 
ATOM     86  C   UNL     1       7.079  12.097  13.795  1.00  0.00     0.135 A 
ATOM     87  F   UNL     1       8.221   9.168  11.969  1.00  0.00    -0.206 F 
ATOM     88  C   UNL     1       8.822  11.425  11.729  1.00  0.00     0.059 A 
ATOM     89  C   UNL     1       7.796  13.102  13.155  1.00  0.00     0.059 A 
ATOM     90  F   UNL     1       6.242  12.447  14.784  1.00  0.00    -0.206 F 
ATOM     91  C   UNL     1       8.677  12.753  12.132  1.00  0.00     0.060 A 
BRANCH  91  92
ATOM     92  S   UNL     1       9.634  14.025  11.280  1.00  0.00     0.124 S 
ATOM     93  O   UNL     1      10.975  13.775  11.794  1.00  0.00    -0.237 OA
ATOM     94  O   UNL     1       9.413  13.687   9.878  1.00  0.00    -0.237 OA
ATOM     95  O   UNL     1       9.009  15.268  11.724  1.00  0.00    -0.744 OA
ENDBRANCH  91  92
ENDBRANCH  59  84
BRANCH  71  96
ATOM     96  C   UNL     1       8.982   5.394  17.497  1.00  0.00     0.058 A 
ATOM     97  C   UNL     1       9.607   6.055  18.566  1.00  0.00     0.135 A 
ATOM     98  C   UNL     1       9.590   4.234  16.993  1.00  0.00     0.135 A 
ATOM     99  F   UNL     1       9.069   7.174  19.076  1.00  0.00    -0.206 F 
ATOM    100  C   UNL     1      10.797   5.586  19.110  1.00  0.00     0.059 A 
ATOM    101  C   UNL     1      10.768   3.733  17.538  1.00  0.00     0.059 A 
ATOM    102  F   UNL     1       9.027   3.562  15.976  1.00  0.00    -0.206 F 
ATOM    103  C   UNL     1      11.367   4.421  18.593  1.00  0.00     0.060 A 
BRANCH 103 104
ATOM    104  S   UNL     1      12.885   3.798  19.345  1.00  0.00     0.124 S 
ATOM    105  O   UNL     1      13.866   4.774  18.883  1.00  0.00    -0.237 OA
ATOM    106  O   UNL     1      12.568   3.844  20.769  1.00  0.00    -0.237 OA
ATOM    107  O   UNL     1      13.020   2.458  18.782  1.00  0.00    -0.744 OA
ENDBRANCH 103 104
ENDBRANCH  71  96
ENDBRANCH  45  46
ENDBRANCH  37  40
ENDBRANCH  35  36
ENDBRANCH  34  35
ENDBRANCH   1  34
TORSDOF 19
