REMARK SMILES O=C(NCCCCCCNC(=O)c1ccc(-c2c3nc(c(-c4c(F)cc(S(=O)(=O)[O-])cc4F)c4ccc([nH]4)c(-c4c(F)cc(S(=O)(=O)[O-])cc4F)c4nc(c(-c5c(F)cc(S(=O)(=O)[O-])cc5F)c5ccc2[nH]5)C=C4)C=C3)cc1)C1=Cc2cc(Cl)cc(-c3ccc(O)cc3)c2O[C@@H]1C(F)(F)F
REMARK SMILES IDX 7 1 6 2 5 3 4 4 3 5 1 6 2 7 79 9 80 10 96 11 81 12 95 13
REMARK SMILES IDX 82 14 94 15 83 16 86 17 84 18 85 19 97 20 98 21 99 22 100 23
REMARK SMILES IDX 87 24 88 25 93 26 89 27 92 28 90 29 91 30 8 32 9 33 10 34
REMARK SMILES IDX 11 35 12 37 13 38 14 39 78 40 15 41 77 42 16 43 17 44 18 45
REMARK SMILES IDX 71 46 19 47 76 48 70 49 72 50 20 51 75 52 69 53 68 54 21 56
REMARK SMILES IDX 55 57 34 58 54 59 35 60 38 61 53 62 73 63 36 64 37 65 52 67
REMARK SMILES IDX 74 68 39 69 22 70 23 71 32 72 24 73 25 74 31 75 33 76 26 77
REMARK SMILES IDX 27 78 28 79 29 80 30 81 56 82 57 83 66 84 58 85 59 86 65 87
REMARK SMILES IDX 67 88 60 89 61 90 62 91 63 92 64 93 40 94 41 95 50 96 42 97
REMARK SMILES IDX 43 98 49 99 51 100 44 101 45 102 46 103 47 104 48 105
REMARK H PARENT 3 8 91 31 10 36 72 55 38 66
REMARK Flexibility Score: inf
ROOT
ATOM      1  C   UNL     1       4.572   2.791  -3.868  1.00  0.00     0.002 C 
ENDROOT
BRANCH   1   2
ATOM      2  C   UNL     1       3.938   1.503  -4.400  1.00  0.00     0.002 C 
BRANCH   2   3
ATOM      3  C   UNL     1       4.241   0.206  -3.644  1.00  0.00     0.021 C 
BRANCH   3   4
ATOM      4  C   UNL     1       3.964   0.189  -2.143  1.00  0.00     0.116 C 
BRANCH   4   5
ATOM      5  N   UNL     1       2.618  -0.175  -1.736  1.00  0.00    -0.352 N 
ATOM      6  O   UNL     1       0.934  -0.723  -0.364  1.00  0.00    -0.270 OA
ATOM      7  C   UNL     1       2.148  -0.572  -0.513  1.00  0.00     0.251 C 
ATOM      8  H   UNL     1       1.940  -0.128  -2.448  1.00  0.00     0.163 HD
BRANCH   7   9
ATOM      9  C   UNL     1       3.026  -0.775   0.688  1.00  0.00     0.067 C 
ATOM     10  C   UNL     1       4.311  -1.168   0.615  1.00  0.00     0.025 C 
ATOM     11  C   UNL     1       2.685   0.201   1.800  1.00  0.00     0.314 C 
ATOM     12  C   UNL     1       5.226   0.005   0.730  1.00  0.00     0.019 A 
ATOM     13  O   UNL     1       3.451   1.425   1.623  1.00  0.00    -0.475 OA
ATOM     14  C   UNL     1       6.514  -0.127   0.204  1.00  0.00     0.032 A 
ATOM     15  C   UNL     1       4.710   1.275   1.077  1.00  0.00     0.135 A 
ATOM     16  C   UNL     1       7.248   1.017  -0.077  1.00  0.00     0.042 A 
ATOM     17  C   UNL     1       5.428   2.434   0.741  1.00  0.00     0.026 A 
ATOM     18  Cl  UNL     1       8.754   0.876  -0.896  1.00  0.00    -0.084 Cl
ATOM     19  C   UNL     1       6.709   2.280   0.169  1.00  0.00     0.033 A 
BRANCH  11  20
ATOM     20  C   UNL     1       2.846  -0.404   3.208  1.00  0.00     0.429 C 
ATOM     21  F   UNL     1       2.417   0.446   4.171  1.00  0.00    -0.167 F 
ATOM     22  F   UNL     1       2.115  -1.541   3.339  1.00  0.00    -0.167 F 
ATOM     23  F   UNL     1       4.127  -0.728   3.504  1.00  0.00    -0.167 F 
ENDBRANCH  11  20
BRANCH  17  24
ATOM     24  C   UNL     1       4.837   3.783   0.724  1.00  0.00    -0.014 A 
ATOM     25  C   UNL     1       3.977   4.145  -0.327  1.00  0.00     0.012 A 
ATOM     26  C   UNL     1       5.242   4.780   1.617  1.00  0.00     0.012 A 
ATOM     27  C   UNL     1       3.632   5.476  -0.560  1.00  0.00     0.047 A 
ATOM     28  C   UNL     1       4.862   6.114   1.414  1.00  0.00     0.047 A 
ATOM     29  C   UNL     1       4.091   6.454   0.306  1.00  0.00     0.115 A 
BRANCH  29  30
ATOM     30  O   UNL     1       3.769   7.748   0.029  1.00  0.00    -0.508 OA
ATOM     31  H   UNL     1       3.248   7.951  -0.723  1.00  0.00     0.293 HD
ENDBRANCH  29  30
ENDBRANCH  17  24
ENDBRANCH   7   9
ENDBRANCH   4   5
ENDBRANCH   3   4
ENDBRANCH   2   3
ENDBRANCH   1   2
BRANCH   1  32
ATOM     32  C   UNL     1       6.082   2.782  -3.631  1.00  0.00     0.021 C 
BRANCH  32  33
ATOM     33  C   UNL     1       6.934   2.608  -4.881  1.00  0.00     0.116 C 
BRANCH  33  34
ATOM     34  N   UNL     1       6.711   3.657  -5.866  1.00  0.00    -0.352 N 
ATOM     35  C   UNL     1       7.596   4.510  -6.483  1.00  0.00     0.251 C 
ATOM     36  H   UNL     1       5.771   3.775  -6.135  1.00  0.00     0.163 HD
ATOM     37  O   UNL     1       7.167   5.432  -7.165  1.00  0.00    -0.269 OA
BRANCH  35  38
ATOM     38  C   UNL     1       9.058   4.334  -6.311  1.00  0.00     0.039 A 
ATOM     39  C   UNL     1       9.870   5.468  -6.211  1.00  0.00     0.014 A 
ATOM     40  C   UNL     1       9.635   3.064  -6.269  1.00  0.00     0.014 A 
ATOM     41  C   UNL     1      11.245   5.323  -6.009  1.00  0.00     0.010 A 
ATOM     42  C   UNL     1      10.983   2.921  -5.958  1.00  0.00     0.010 A 
ATOM     43  C   UNL     1      11.809   4.048  -5.844  1.00  0.00    -0.014 A 
BRANCH  43  44
ATOM     44  C   UNL     1      13.263   3.866  -5.591  1.00  0.00     0.031 A 
ATOM     45  C   UNL     1      14.099   3.070  -6.562  1.00  0.00     0.074 A 
ATOM     46  C   UNL     1      13.817   4.364  -4.468  1.00  0.00     0.049 A 
ATOM     47  N   UNL     1      15.359   2.728  -6.480  1.00  0.00    -0.248 NA
ATOM     48  C   UNL     1      13.421   2.562  -7.767  1.00  0.00     0.031 C 
ATOM     49  C   UNL     1      13.099   5.099  -3.423  1.00  0.00     0.029 A 
ATOM     50  N   UNL     1      15.110   4.318  -4.008  1.00  0.00    -0.354 N 
ATOM     51  C   UNL     1      15.617   1.959  -7.610  1.00  0.00     0.074 A 
ATOM     52  C   UNL     1      14.367   1.821  -8.323  1.00  0.00     0.031 C 
ATOM     53  C   UNL     1      13.964   5.456  -2.461  1.00  0.00     0.029 A 
ATOM     54  C   UNL     1      15.288   4.940  -2.794  1.00  0.00     0.049 A 
ATOM     55  H   UNL     1      15.841   3.880  -4.501  1.00  0.00     0.167 HD
ATOM     56  C   UNL     1      16.794   1.445  -8.037  1.00  0.00     0.037 A 
ATOM     57  C   UNL     1      16.391   5.069  -2.030  1.00  0.00     0.037 A 
ATOM     58  C   UNL     1      18.041   1.613  -7.337  1.00  0.00     0.049 A 
ATOM     59  C   UNL     1      17.690   4.492  -2.525  1.00  0.00     0.074 A 
ATOM     60  C   UNL     1      19.300   1.173  -7.704  1.00  0.00     0.029 A 
ATOM     61  N   UNL     1      18.186   2.280  -6.128  1.00  0.00    -0.354 N 
ATOM     62  N   UNL     1      17.926   3.817  -3.626  1.00  0.00    -0.248 NA
ATOM     63  C   UNL     1      18.875   4.699  -1.683  1.00  0.00     0.031 C 
ATOM     64  C   UNL     1      20.199   1.534  -6.696  1.00  0.00     0.029 A 
ATOM     65  C   UNL     1      19.511   2.250  -5.728  1.00  0.00     0.049 A 
ATOM     66  H   UNL     1      17.454   2.710  -5.629  1.00  0.00     0.167 HD
ATOM     67  C   UNL     1      19.289   3.544  -3.621  1.00  0.00     0.074 A 
ATOM     68  C   UNL     1      19.828   4.141  -2.417  1.00  0.00     0.031 C 
ATOM     69  C   UNL     1      20.029   2.861  -4.529  1.00  0.00     0.037 A 
BRANCH  56  70
ATOM     70  C   UNL     1      16.795   0.673  -9.329  1.00  0.00     0.058 A 
ATOM     71  C   UNL     1      16.574   1.306 -10.564  1.00  0.00     0.135 A 
ATOM     72  C   UNL     1      17.058  -0.707  -9.341  1.00  0.00     0.135 A 
ATOM     73  F   UNL     1      16.300   2.619 -10.611  1.00  0.00    -0.206 F 
ATOM     74  C   UNL     1      16.586   0.596 -11.759  1.00  0.00     0.059 A 
ATOM     75  C   UNL     1      17.107  -1.431 -10.530  1.00  0.00     0.059 A 
ATOM     76  F   UNL     1      17.273  -1.365  -8.192  1.00  0.00    -0.206 F 
ATOM     77  C   UNL     1      16.857  -0.773 -11.732  1.00  0.00     0.060 A 
BRANCH  77  78
ATOM     78  S   UNL     1      16.888  -1.673 -13.297  1.00  0.00     0.124 S 
ATOM     79  O   UNL     1      15.472  -1.688 -13.652  1.00  0.00    -0.237 OA
ATOM     80  O   UNL     1      17.740  -0.826 -14.126  1.00  0.00    -0.237 OA
ATOM     81  O   UNL     1      17.457  -2.967 -12.935  1.00  0.00    -0.744 OA
ENDBRANCH  77  78
ENDBRANCH  56  70
BRANCH  57  82
ATOM     82  C   UNL     1      16.316   5.782  -0.725  1.00  0.00     0.058 A 
ATOM     83  C   UNL     1      16.950   7.020  -0.534  1.00  0.00     0.135 A 
ATOM     84  C   UNL     1      15.606   5.241   0.359  1.00  0.00     0.135 A 
ATOM     85  F   UNL     1      17.645   7.579  -1.537  1.00  0.00    -0.206 F 
ATOM     86  C   UNL     1      16.904   7.683   0.688  1.00  0.00     0.059 A 
ATOM     87  C   UNL     1      15.521   5.899   1.581  1.00  0.00     0.059 A 
ATOM     88  F   UNL     1      14.966   4.069   0.226  1.00  0.00    -0.206 F 
ATOM     89  C   UNL     1      16.186   7.114   1.741  1.00  0.00     0.060 A 
BRANCH  89  90
ATOM     90  S   UNL     1      16.103   7.999   3.314  1.00  0.00     0.124 S 
ATOM     91  O   UNL     1      17.456   7.814   3.826  1.00  0.00    -0.237 OA
ATOM     92  O   UNL     1      15.760   9.352   2.886  1.00  0.00    -0.237 OA
ATOM     93  O   UNL     1      15.051   7.294   4.040  1.00  0.00    -0.744 OA
ENDBRANCH  89  90
ENDBRANCH  57  82
BRANCH  69  94
ATOM     94  C   UNL     1      21.508   2.753  -4.279  1.00  0.00     0.058 A 
ATOM     95  C   UNL     1      22.029   1.937  -3.263  1.00  0.00     0.135 A 
ATOM     96  C   UNL     1      22.418   3.432  -5.107  1.00  0.00     0.135 A 
ATOM     97  F   UNL     1      21.203   1.271  -2.441  1.00  0.00    -0.206 F 
ATOM     98  C   UNL     1      23.400   1.818  -3.060  1.00  0.00     0.059 A 
ATOM     99  C   UNL     1      23.792   3.301  -4.943  1.00  0.00     0.059 A 
ATOM    100  F   UNL     1      21.972   4.215  -6.102  1.00  0.00    -0.206 F 
ATOM    101  C   UNL     1      24.274   2.501  -3.908  1.00  0.00     0.060 A 
BRANCH 101 102
ATOM    102  S   UNL     1      26.050   2.308  -3.655  1.00  0.00     0.124 S 
ATOM    103  O   UNL     1      26.258   3.078  -2.433  1.00  0.00    -0.237 OA
ATOM    104  O   UNL     1      26.190   0.861  -3.524  1.00  0.00    -0.237 OA
ATOM    105  O   UNL     1      26.631   2.881  -4.865  1.00  0.00    -0.744 OA
ENDBRANCH 101 102
ENDBRANCH  69  94
ENDBRANCH  43  44
ENDBRANCH  35  38
ENDBRANCH  33  34
ENDBRANCH  32  33
ENDBRANCH   1  32
TORSDOF 19
