REMARK SMILES O=C(NCCCCCCNC(=O)c1ccccc1C(=O)Nc1ccc(N2C(=O)[C@H]3[C@@H]4CC[C@@H](C4)[C@@H]3C2=O)cc1)c1ccc(-c2c3nc(c(-c4c(F)cc(S(=O)(=O)[O-])cc4F)c4ccc([nH]4)c(-c4c(F)cc(S(=O)(=O)[O-])cc4F)c4nc(c(-c5c(F)cc(S(=O)(=O)[O-])cc5F)c5ccc2[nH]5)C=C4)C=C3)cc1
REMARK SMILES IDX 6 1 5 2 4 3 3 4 1 5 2 6 40 8 41 9 105 10 42 11 104 12 43 13
REMARK SMILES IDX 44 14 45 15 98 16 46 17 103 18 97 19 99 20 47 21 102 22
REMARK SMILES IDX 96 23 95 24 48 26 82 27 61 28 81 29 62 30 65 31 80 32 100 33
REMARK SMILES IDX 63 34 64 35 79 37 101 38 66 39 49 40 50 41 59 42 51 43 52 44
REMARK SMILES IDX 58 45 60 46 53 47 54 48 55 49 56 50 57 51 83 52 84 53 93 54
REMARK SMILES IDX 85 55 86 56 92 57 94 58 87 59 88 60 89 61 90 62 91 63 67 64
REMARK SMILES IDX 68 65 77 66 69 67 70 68 76 69 78 70 71 71 72 72 73 73 74 74
REMARK SMILES IDX 75 75 7 76 8 77 9 78 10 79 11 80 12 82 13 83 14 84 18 85
REMARK SMILES IDX 15 86 17 87 16 88 19 89 20 90 21 91 22 93 23 94 39 95 24 96
REMARK SMILES IDX 38 97 25 98 26 99 27 100 36 101 28 102 29 103 35 104 37 105
REMARK SMILES IDX 30 106 33 107 31 108 34 109 32 110
REMARK H PARENT 3 7 99 25 65 36 10 81 21 92
REMARK Flexibility Score: inf
ROOT
ATOM      1  C   UNL     1       4.673  -3.426  -1.235  1.00  0.00     0.002 C 
ENDROOT
BRANCH   1   2
ATOM      2  C   UNL     1       4.979  -2.410  -0.147  1.00  0.00     0.021 C 
BRANCH   2   3
ATOM      3  C   UNL     1       4.562  -0.988  -0.464  1.00  0.00     0.116 C 
BRANCH   3   4
ATOM      4  N   UNL     1       3.125  -0.820  -0.629  1.00  0.00    -0.352 N 
ATOM      5  O   UNL     1       1.107   0.139  -0.248  1.00  0.00    -0.269 OA
ATOM      6  C   UNL     1       2.323   0.169  -0.101  1.00  0.00     0.251 C 
ATOM      7  H   UNL     1       2.672  -1.494  -1.185  1.00  0.00     0.163 HD
BRANCH   6   8
ATOM      8  C   UNL     1       2.965   1.241   0.691  1.00  0.00     0.039 A 
ATOM      9  C   UNL     1       4.118   1.861   0.209  1.00  0.00     0.014 A 
ATOM     10  C   UNL     1       2.487   1.531   1.970  1.00  0.00     0.014 A 
ATOM     11  C   UNL     1       4.910   2.591   1.081  1.00  0.00     0.010 A 
ATOM     12  C   UNL     1       3.223   2.381   2.801  1.00  0.00     0.010 A 
ATOM     13  C   UNL     1       4.470   2.874   2.385  1.00  0.00    -0.014 A 
BRANCH  13  14
ATOM     14  C   UNL     1       5.322   3.715   3.267  1.00  0.00     0.031 A 
ATOM     15  C   UNL     1       5.852   3.195   4.579  1.00  0.00     0.074 A 
ATOM     16  C   UNL     1       5.653   4.952   2.846  1.00  0.00     0.049 A 
ATOM     17  N   UNL     1       6.622   3.796   5.450  1.00  0.00    -0.248 NA
ATOM     18  C   UNL     1       5.461   1.832   4.972  1.00  0.00     0.031 C 
ATOM     19  C   UNL     1       5.197   5.565   1.594  1.00  0.00     0.029 A 
ATOM     20  N   UNL     1       6.465   5.907   3.400  1.00  0.00    -0.354 N 
ATOM     21  C   UNL     1       6.782   2.904   6.506  1.00  0.00     0.074 A 
ATOM     22  C   UNL     1       6.008   1.727   6.176  1.00  0.00     0.031 C 
ATOM     23  C   UNL     1       5.785   6.758   1.445  1.00  0.00     0.029 A 
ATOM     24  C   UNL     1       6.590   7.036   2.627  1.00  0.00     0.049 A 
ATOM     25  H   UNL     1       6.916   5.794   4.268  1.00  0.00     0.167 HD
ATOM     26  C   UNL     1       7.509   3.055   7.640  1.00  0.00     0.037 A 
ATOM     27  C   UNL     1       7.260   8.182   2.848  1.00  0.00     0.037 A 
ATOM     28  C   UNL     1       8.293   4.228   7.945  1.00  0.00     0.049 A 
ATOM     29  C   UNL     1       8.040   8.328   4.122  1.00  0.00     0.074 A 
ATOM     30  C   UNL     1       9.097   4.464   9.047  1.00  0.00     0.029 A 
ATOM     31  N   UNL     1       8.367   5.364   7.150  1.00  0.00    -0.354 N 
ATOM     32  N   UNL     1       8.198   7.464   5.095  1.00  0.00    -0.248 NA
ATOM     33  C   UNL     1       8.733   9.605   4.327  1.00  0.00     0.031 C 
ATOM     34  C   UNL     1       9.607   5.762   8.950  1.00  0.00     0.029 A 
ATOM     35  C   UNL     1       9.182   6.312   7.751  1.00  0.00     0.049 A 
ATOM     36  H   UNL     1       7.909   5.480   6.287  1.00  0.00     0.167 HD
ATOM     37  C   UNL     1       9.038   8.080   6.015  1.00  0.00     0.074 A 
ATOM     38  C   UNL     1       9.361   9.384   5.473  1.00  0.00     0.031 C 
ATOM     39  C   UNL     1       9.503   7.605   7.197  1.00  0.00     0.037 A 
BRANCH  26  40
ATOM     40  C   UNL     1       7.471   1.944   8.659  1.00  0.00     0.058 A 
ATOM     41  C   UNL     1       8.070   0.695   8.429  1.00  0.00     0.135 A 
ATOM     42  C   UNL     1       6.860   2.150   9.908  1.00  0.00     0.135 A 
ATOM     43  F   UNL     1       8.660   0.434   7.251  1.00  0.00    -0.206 F 
ATOM     44  C   UNL     1       8.038  -0.318   9.385  1.00  0.00     0.059 A 
ATOM     45  C   UNL     1       6.843   1.163  10.890  1.00  0.00     0.059 A 
ATOM     46  F   UNL     1       6.274   3.324  10.188  1.00  0.00    -0.206 F 
ATOM     47  C   UNL     1       7.420  -0.074  10.613  1.00  0.00     0.060 A 
BRANCH  47  48
ATOM     48  S   UNL     1       7.384  -1.399  11.840  1.00  0.00     0.124 S 
ATOM     49  O   UNL     1       6.429  -2.325  11.240  1.00  0.00    -0.237 OA
ATOM     50  O   UNL     1       8.773  -1.845  11.858  1.00  0.00    -0.237 OA
ATOM     51  O   UNL     1       6.928  -0.728  13.053  1.00  0.00    -0.744 OA
ENDBRANCH  47  48
ENDBRANCH  26  40
BRANCH  27  52
ATOM     52  C   UNL     1       7.217   9.271   1.837  1.00  0.00     0.058 A 
ATOM     53  C   UNL     1       8.362   9.627   1.111  1.00  0.00     0.135 A 
ATOM     54  C   UNL     1       6.026   9.960   1.559  1.00  0.00     0.135 A 
ATOM     55  F   UNL     1       9.525   8.999   1.340  1.00  0.00    -0.206 F 
ATOM     56  C   UNL     1       8.335  10.642   0.160  1.00  0.00     0.059 A 
ATOM     57  C   UNL     1       5.964  10.954   0.589  1.00  0.00     0.059 A 
ATOM     58  F   UNL     1       4.896   9.642   2.211  1.00  0.00    -0.206 F 
ATOM     59  C   UNL     1       7.128  11.297  -0.096  1.00  0.00     0.060 A 
BRANCH  59  60
ATOM     60  S   UNL     1       7.095  12.583  -1.362  1.00  0.00     0.124 S 
ATOM     61  O   UNL     1       7.833  13.657  -0.707  1.00  0.00    -0.237 OA
ATOM     62  O   UNL     1       7.772  11.931  -2.478  1.00  0.00    -0.237 OA
ATOM     63  O   UNL     1       5.669  12.825  -1.558  1.00  0.00    -0.744 OA
ENDBRANCH  59  60
ENDBRANCH  27  52
BRANCH  39  64
ATOM     64  C   UNL     1      10.464   8.480   7.956  1.00  0.00     0.058 A 
ATOM     65  C   UNL     1      10.061   9.674   8.575  1.00  0.00     0.135 A 
ATOM     66  C   UNL     1      11.812   8.101   8.081  1.00  0.00     0.135 A 
ATOM     67  F   UNL     1       8.787  10.087   8.481  1.00  0.00    -0.206 F 
ATOM     68  C   UNL     1      10.967  10.481   9.255  1.00  0.00     0.059 A 
ATOM     69  C   UNL     1      12.726   8.874   8.786  1.00  0.00     0.059 A 
ATOM     70  F   UNL     1      12.250   6.963   7.518  1.00  0.00    -0.206 F 
ATOM     71  C   UNL     1      12.299  10.073   9.355  1.00  0.00     0.060 A 
BRANCH  71  72
ATOM     72  S   UNL     1      13.462  11.123  10.248  1.00  0.00     0.124 S 
ATOM     73  O   UNL     1      13.635  12.231   9.315  1.00  0.00    -0.237 OA
ATOM     74  O   UNL     1      12.727  11.433  11.471  1.00  0.00    -0.237 OA
ATOM     75  O   UNL     1      14.629  10.264  10.426  1.00  0.00    -0.744 OA
ENDBRANCH  71  72
ENDBRANCH  39  64
ENDBRANCH  13  14
ENDBRANCH   6   8
ENDBRANCH   3   4
ENDBRANCH   2   3
ENDBRANCH   1   2
BRANCH   1  76
ATOM     76  C   UNL     1       5.089  -3.044  -2.659  1.00  0.00     0.002 C 
BRANCH  76  77
ATOM     77  C   UNL     1       6.577  -2.713  -2.849  1.00  0.00     0.021 C 
BRANCH  77  78
ATOM     78  C   UNL     1       7.508  -3.911  -2.690  1.00  0.00     0.116 C 
BRANCH  78  79
ATOM     79  N   UNL     1       7.321  -4.874  -3.758  1.00  0.00    -0.352 N 
ATOM     80  C   UNL     1       8.097  -5.937  -4.122  1.00  0.00     0.252 C 
ATOM     81  H   UNL     1       6.512  -4.742  -4.303  1.00  0.00     0.163 HD
ATOM     82  O   UNL     1       7.864  -6.526  -5.180  1.00  0.00    -0.269 OA
BRANCH  80  83
ATOM     83  C   UNL     1       9.296  -6.327  -3.358  1.00  0.00     0.052 A 
ATOM     84  C   UNL     1      10.446  -6.390  -4.183  1.00  0.00     0.014 A 
ATOM     85  C   UNL     1       9.405  -6.594  -1.985  1.00  0.00     0.052 A 
ATOM     86  C   UNL     1      11.714  -6.603  -3.654  1.00  0.00     0.001 A 
ATOM     87  C   UNL     1      10.716  -6.766  -1.470  1.00  0.00     0.014 A 
ATOM     88  C   UNL     1      11.853  -6.757  -2.286  1.00  0.00     0.001 A 
BRANCH  85  89
ATOM     89  C   UNL     1       8.347  -6.616  -0.926  1.00  0.00     0.256 C 
ATOM     90  O   UNL     1       8.671  -6.203   0.195  1.00  0.00    -0.269 OA
ATOM     91  N   UNL     1       7.023  -6.961  -1.065  1.00  0.00    -0.322 N 
ATOM     92  H   UNL     1       6.487  -6.809  -0.254  1.00  0.00     0.170 HD
BRANCH  91  93
ATOM     93  C   UNL     1       6.291  -7.483  -2.129  1.00  0.00     0.041 A 
ATOM     94  C   UNL     1       5.069  -6.864  -2.405  1.00  0.00     0.028 A 
ATOM     95  C   UNL     1       6.754  -8.496  -2.955  1.00  0.00     0.028 A 
ATOM     96  C   UNL     1       4.491  -7.004  -3.661  1.00  0.00     0.029 A 
ATOM     97  C   UNL     1       6.080  -8.757  -4.151  1.00  0.00     0.029 A 
ATOM     98  C   UNL     1       5.027  -7.922  -4.557  1.00  0.00     0.052 A 
BRANCH  98  99
ATOM     99  N   UNL     1       4.658  -7.894  -5.911  1.00  0.00    -0.250 N 
ATOM    100  C   UNL     1       4.473  -9.048  -6.678  1.00  0.00     0.237 C 
ATOM    101  C   UNL     1       4.718  -6.724  -6.699  1.00  0.00     0.237 C 
ATOM    102  O   UNL     1       4.206 -10.183  -6.343  1.00  0.00    -0.274 OA
ATOM    103  C   UNL     1       4.855  -8.591  -8.040  1.00  0.00     0.095 C 
ATOM    104  C   UNL     1       4.246  -7.200  -8.041  1.00  0.00     0.095 C 
ATOM    105  O   UNL     1       4.969  -5.571  -6.392  1.00  0.00    -0.274 OA
ATOM    106  C   UNL     1       4.559  -9.084  -9.455  1.00  0.00     0.002 C 
ATOM    107  C   UNL     1       4.424  -6.821  -9.508  1.00  0.00     0.002 C 
ATOM    108  C   UNL     1       5.826  -8.699 -10.249  1.00  0.00     0.005 C 
ATOM    109  C   UNL     1       3.614  -8.022 -10.064  1.00  0.00     0.009 C 
ATOM    110  C   UNL     1       5.820  -7.148 -10.112  1.00  0.00     0.005 C 
ENDBRANCH  98  99
ENDBRANCH  91  93
ENDBRANCH  85  89
ENDBRANCH  80  83
ENDBRANCH  78  79
ENDBRANCH  77  78
ENDBRANCH  76  77
ENDBRANCH   1  76
TORSDOF 19
