REMARK SMILES CC(C)(C[N@H+]1C[C@@H]2C[NH2+]C[C@H]2C1(C)C)C(=O)NCCCCCCNC(=O)c1ccc(-c2c3nc(c(-c4c(F)cc(S(=O)(=O)[O-])cc4F)c4ccc([nH]4)c(-c4c(F)cc(S(=O)(=O)[O-])cc4F)c4nc(c(-c5c(F)cc(S(=O)(=O)[O-])cc5F)c5ccc2[nH]5)C=C4)C=C3)cc1
REMARK SMILES IDX 21 1 20 2 19 3 18 4 17 5 15 6 16 7 2 9 1 10 3 11 4 12 5 13
REMARK SMILES IDX 6 14 12 15 7 17 11 18 13 19 14 20 8 21 10 22 9 23 22 26
REMARK SMILES IDX 23 27 24 28 25 29 26 31 27 32 28 33 92 34 29 35 91 36 30 37
REMARK SMILES IDX 31 38 32 39 85 40 33 41 90 42 84 43 86 44 34 45 89 46 83 47
REMARK SMILES IDX 82 48 35 50 69 51 48 52 68 53 49 54 52 55 67 56 87 57 50 58
REMARK SMILES IDX 51 59 66 61 88 62 53 63 36 64 37 65 46 66 38 67 39 68 45 69
REMARK SMILES IDX 47 70 40 71 41 72 42 73 43 74 44 75 70 76 71 77 80 78 72 79
REMARK SMILES IDX 73 80 79 81 81 82 74 83 75 84 76 85 77 86 78 87 54 88 55 89
REMARK SMILES IDX 64 90 56 91 57 92 63 93 65 94 58 95 59 96 60 97 61 98 62 99
REMARK H PARENT 17 8 5 16 9 24 9 25 24 30 86 49 52 60
REMARK Flexibility Score: inf
ROOT
ATOM      1  C   UNL     1      -0.256   5.883   4.584  1.00  0.00     0.002 C 
ENDROOT
BRANCH   1   2
ATOM      2  C   UNL     1      -1.014   4.552   4.572  1.00  0.00     0.002 C 
BRANCH   2   3
ATOM      3  C   UNL     1      -1.463   4.072   3.188  1.00  0.00     0.021 C 
BRANCH   3   4
ATOM      4  C   UNL     1      -0.351   4.021   2.147  1.00  0.00     0.116 C 
BRANCH   4   5
ATOM      5  N   UNL     1       0.675   3.080   2.535  1.00  0.00    -0.355 N 
ATOM      6  C   UNL     1       1.243   2.026   1.906  1.00  0.00     0.231 C 
ATOM      7  O   UNL     1       2.074   1.405   2.582  1.00  0.00    -0.274 OA
ATOM      8  H   UNL     1       1.031   3.237   3.439  1.00  0.00     0.163 HD
BRANCH   6   9
ATOM      9  C   UNL     1       0.943   1.641   0.445  1.00  0.00     0.092 C 
ATOM     10  C   UNL     1       2.046   0.638   0.030  1.00  0.00     0.027 C 
ATOM     11  C   UNL     1       1.197   2.847  -0.499  1.00  0.00     0.027 C 
BRANCH   9  12
ATOM     12  C   UNL     1      -0.529   1.127   0.211  1.00  0.00     0.279 C 
BRANCH  12  13
ATOM     13  N   UNL     1      -1.185   0.110   1.062  1.00  0.00    -0.329 N 
ATOM     14  C   UNL     1      -2.687   0.164   0.933  1.00  0.00     0.272 C 
ATOM     15  C   UNL     1      -0.773  -1.336   0.941  1.00  0.00     0.101 C 
ATOM     16  H   UNL     1      -0.841   0.402   1.977  1.00  0.00     0.348 HD
ATOM     17  C   UNL     1      -3.036  -1.159   0.305  1.00  0.00     0.114 C 
ATOM     18  C   UNL     1      -2.117  -2.065   1.078  1.00  0.00     0.119 C 
ATOM     19  C   UNL     1      -0.102  -1.780  -0.372  1.00  0.00     0.079 C 
ATOM     20  C   UNL     1       0.087  -1.680   2.169  1.00  0.00     0.079 C 
ATOM     21  C   UNL     1      -4.339  -1.898   0.448  1.00  0.00     0.270 C 
ATOM     22  C   UNL     1      -2.470  -3.416   0.497  1.00  0.00     0.271 C 
ATOM     23  N   UNL     1      -3.927  -3.312   0.224  1.00  0.00    -0.345 N 
ATOM     24  H   UNL     1      -4.118  -3.579  -0.742  1.00  0.00     0.346 HD
ATOM     25  H   UNL     1      -4.448  -3.934   0.842  1.00  0.00     0.346 HD
ENDBRANCH  12  13
ENDBRANCH   9  12
ENDBRANCH   6   9
ENDBRANCH   4   5
ENDBRANCH   3   4
ENDBRANCH   2   3
ENDBRANCH   1   2
BRANCH   1  26
ATOM     26  C   UNL     1      -0.969   7.040   3.880  1.00  0.00     0.021 C 
BRANCH  26  27
ATOM     27  C   UNL     1      -2.372   7.326   4.400  1.00  0.00     0.116 C 
BRANCH  27  28
ATOM     28  N   UNL     1      -2.362   7.717   5.800  1.00  0.00    -0.352 N 
ATOM     29  C   UNL     1      -2.840   8.867   6.381  1.00  0.00     0.251 C 
ATOM     30  H   UNL     1      -1.955   7.068   6.418  1.00  0.00     0.163 HD
ATOM     31  O   UNL     1      -2.561   9.135   7.541  1.00  0.00    -0.269 OA
BRANCH  29  32
ATOM     32  C   UNL     1      -3.676   9.786   5.579  1.00  0.00     0.039 A 
ATOM     33  C   UNL     1      -3.378  11.149   5.586  1.00  0.00     0.014 A 
ATOM     34  C   UNL     1      -4.729   9.294   4.802  1.00  0.00     0.014 A 
ATOM     35  C   UNL     1      -4.089  12.012   4.750  1.00  0.00     0.010 A 
ATOM     36  C   UNL     1      -5.388  10.143   3.918  1.00  0.00     0.010 A 
ATOM     37  C   UNL     1      -5.066  11.508   3.874  1.00  0.00    -0.014 A 
BRANCH  37  38
ATOM     38  C   UNL     1      -5.723  12.381   2.869  1.00  0.00     0.031 A 
ATOM     39  C   UNL     1      -7.205  12.623   2.924  1.00  0.00     0.074 A 
ATOM     40  C   UNL     1      -4.988  12.888   1.859  1.00  0.00     0.049 A 
ATOM     41  N   UNL     1      -7.963  13.282   2.086  1.00  0.00    -0.248 NA
ATOM     42  C   UNL     1      -7.934  12.030   4.056  1.00  0.00     0.031 C 
ATOM     43  C   UNL     1      -3.549  12.685   1.677  1.00  0.00     0.029 A 
ATOM     44  N   UNL     1      -5.350  13.663   0.785  1.00  0.00    -0.354 N 
ATOM     45  C   UNL     1      -9.257  13.177   2.582  1.00  0.00     0.074 A 
ATOM     46  C   UNL     1      -9.188  12.351   3.768  1.00  0.00     0.031 C 
ATOM     47  C   UNL     1      -3.148  13.331   0.571  1.00  0.00     0.029 A 
ATOM     48  C   UNL     1      -4.306  13.953  -0.063  1.00  0.00     0.049 A 
ATOM     49  H   UNL     1      -6.269  13.982   0.636  1.00  0.00     0.167 HD
ATOM     50  C   UNL     1     -10.393  13.736   2.101  1.00  0.00     0.037 A 
ATOM     51  C   UNL     1      -4.285  14.624  -1.232  1.00  0.00     0.037 A 
ATOM     52  C   UNL     1     -10.447  14.566   0.925  1.00  0.00     0.049 A 
ATOM     53  C   UNL     1      -5.568  15.201  -1.765  1.00  0.00     0.074 A 
ATOM     54  C   UNL     1     -11.537  15.231   0.392  1.00  0.00     0.029 A 
ATOM     55  N   UNL     1      -9.370  14.834   0.091  1.00  0.00    -0.354 N 
ATOM     56  N   UNL     1      -6.770  15.159  -1.241  1.00  0.00    -0.248 NA
ATOM     57  C   UNL     1      -5.495  15.913  -3.048  1.00  0.00     0.031 C 
ATOM     58  C   UNL     1     -11.135  15.850  -0.795  1.00  0.00     0.029 A 
ATOM     59  C   UNL     1      -9.780  15.620  -0.974  1.00  0.00     0.049 A 
ATOM     60  H   UNL     1      -8.451  14.512   0.234  1.00  0.00     0.167 HD
ATOM     61  C   UNL     1      -7.593  15.852  -2.122  1.00  0.00     0.074 A 
ATOM     62  C   UNL     1      -6.748  16.320  -3.202  1.00  0.00     0.031 C 
ATOM     63  C   UNL     1      -8.928  16.076  -2.045  1.00  0.00     0.037 A 
BRANCH  50  64
ATOM     64  C   UNL     1     -11.676  13.467   2.841  1.00  0.00     0.058 A 
ATOM     65  C   UNL     1     -11.922  14.011   4.112  1.00  0.00     0.135 A 
ATOM     66  C   UNL     1     -12.692  12.697   2.253  1.00  0.00     0.135 A 
ATOM     67  F   UNL     1     -10.982  14.745   4.729  1.00  0.00    -0.206 F 
ATOM     68  C   UNL     1     -13.118  13.778   4.785  1.00  0.00     0.059 A 
ATOM     69  C   UNL     1     -13.907  12.475   2.894  1.00  0.00     0.059 A 
ATOM     70  F   UNL     1     -12.510  12.152   1.039  1.00  0.00    -0.206 F 
ATOM     71  C   UNL     1     -14.105  13.009   4.166  1.00  0.00     0.060 A 
BRANCH  71  72
ATOM     72  S   UNL     1     -15.653  12.724   5.050  1.00  0.00     0.124 S 
ATOM     73  O   UNL     1     -15.221  11.812   6.106  1.00  0.00    -0.237 OA
ATOM     74  O   UNL     1     -16.016  14.069   5.485  1.00  0.00    -0.237 OA
ATOM     75  O   UNL     1     -16.523  12.139   4.035  1.00  0.00    -0.744 OA
ENDBRANCH  71  72
ENDBRANCH  50  64
BRANCH  51  76
ATOM     76  C   UNL     1      -3.006  14.780  -1.975  1.00  0.00     0.058 A 
ATOM     77  C   UNL     1      -2.387  16.032  -2.093  1.00  0.00     0.135 A 
ATOM     78  C   UNL     1      -2.368  13.678  -2.567  1.00  0.00     0.135 A 
ATOM     79  F   UNL     1      -2.962  17.118  -1.553  1.00  0.00    -0.206 F 
ATOM     80  C   UNL     1      -1.188  16.191  -2.780  1.00  0.00     0.059 A 
ATOM     81  C   UNL     1      -1.155  13.806  -3.235  1.00  0.00     0.059 A 
ATOM     82  F   UNL     1      -2.910  12.454  -2.470  1.00  0.00    -0.206 F 
ATOM     83  C   UNL     1      -0.577  15.070  -3.344  1.00  0.00     0.060 A 
BRANCH  83  84
ATOM     84  S   UNL     1       1.006  15.279  -4.189  1.00  0.00     0.124 S 
ATOM     85  O   UNL     1       0.600  15.978  -5.403  1.00  0.00    -0.237 OA
ATOM     86  O   UNL     1       1.766  16.064  -3.222  1.00  0.00    -0.237 OA
ATOM     87  O   UNL     1       1.470  13.907  -4.375  1.00  0.00    -0.744 OA
ENDBRANCH  83  84
ENDBRANCH  51  76
BRANCH  63  88
ATOM     88  C   UNL     1      -9.566  16.868  -3.153  1.00  0.00     0.058 A 
ATOM     89  C   UNL     1      -9.759  16.318  -4.430  1.00  0.00     0.135 A 
ATOM     90  C   UNL     1     -10.056  18.163  -2.916  1.00  0.00     0.135 A 
ATOM     91  F   UNL     1      -9.299  15.089  -4.713  1.00  0.00    -0.206 F 
ATOM     92  C   UNL     1     -10.410  17.026  -5.434  1.00  0.00     0.059 A 
ATOM     93  C   UNL     1     -10.736  18.878  -3.897  1.00  0.00     0.059 A 
ATOM     94  F   UNL     1      -9.903  18.733  -1.710  1.00  0.00    -0.206 F 
ATOM     95  C   UNL     1     -10.904  18.302  -5.155  1.00  0.00     0.060 A 
BRANCH  95  96
ATOM     96  S   UNL     1     -11.801  19.181  -6.451  1.00  0.00     0.124 S 
ATOM     97  O   UNL     1     -10.727  19.517  -7.380  1.00  0.00    -0.237 OA
ATOM     98  O   UNL     1     -12.746  18.170  -6.915  1.00  0.00    -0.237 OA
ATOM     99  O   UNL     1     -12.397  20.312  -5.746  1.00  0.00    -0.744 OA
ENDBRANCH  95  96
ENDBRANCH  63  88
ENDBRANCH  37  38
ENDBRANCH  29  32
ENDBRANCH  27  28
ENDBRANCH  26  27
ENDBRANCH   1  26
TORSDOF 18
