REMARK SMILES C[C@H]1[C@@H](C(=O)NCCCCCCNC(=O)c2ccc(-c3c4nc(c(-c5c(F)cc(S(=O)(=O)[O-])cc5F)c5ccc([nH]5)c(-c5c(F)cc(S(=O)(=O)[O-])cc5F)c5nc(c(-c6c(F)cc(S(=O)(=O)[O-])cc6F)c6ccc3[nH]6)C=C5)C=C4)cc2)CC[N@@H+]1CC(F)(F)F
REMARK SMILES IDX 10 1 9 2 8 3 7 4 6 5 4 6 5 7 3 9 1 10 2 11 84 12 82 13 83 14
REMARK SMILES IDX 85 16 86 17 87 18 88 19 89 20 11 21 12 22 13 23 14 24 15 26
REMARK SMILES IDX 16 27 17 28 81 29 18 30 80 31 19 32 20 33 21 34 74 35 22 36
REMARK SMILES IDX 79 37 73 38 75 39 23 40 78 41 72 42 71 43 24 45 58 46 37 47
REMARK SMILES IDX 57 48 38 49 41 50 56 51 76 52 39 53 40 54 55 56 77 57 42 58
REMARK SMILES IDX 25 59 26 60 35 61 27 62 28 63 34 64 36 65 29 66 30 67 31 68
REMARK SMILES IDX 32 69 33 70 59 71 60 72 69 73 61 74 62 75 68 76 70 77 63 78
REMARK SMILES IDX 64 79 65 80 66 81 67 82 43 83 44 84 53 85 45 86 46 87 52 88
REMARK SMILES IDX 54 89 47 90 48 91 49 92 50 93 51 94
REMARK H PARENT 6 8 84 15 13 25 75 44 41 55
REMARK Flexibility Score: inf
ROOT
ATOM      1  C   UNL     1       5.647   1.950  -2.762  1.00  0.00     0.002 C 
ENDROOT
BRANCH   1   2
ATOM      2  C   UNL     1       4.361   1.227  -3.166  1.00  0.00     0.002 C 
BRANCH   2   3
ATOM      3  C   UNL     1       3.557   0.672  -1.988  1.00  0.00     0.021 C 
BRANCH   3   4
ATOM      4  C   UNL     1       2.831   1.744  -1.166  1.00  0.00     0.116 C 
BRANCH   4   5
ATOM      5  N   UNL     1       1.536   1.977  -1.765  1.00  0.00    -0.356 N 
ATOM      6  C   UNL     1       0.327   1.429  -1.457  1.00  0.00     0.229 C 
ATOM      7  O   UNL     1      -0.521   1.449  -2.353  1.00  0.00    -0.275 OA
ATOM      8  H   UNL     1       1.526   2.627  -2.504  1.00  0.00     0.163 HD
BRANCH   6   9
ATOM      9  C   UNL     1       0.001   0.982  -0.026  1.00  0.00     0.142 C 
ATOM     10  C   UNL     1       1.601  -1.139  -0.133  1.00  0.00     0.076 C 
ATOM     11  C   UNL     1       0.477  -0.375   0.542  1.00  0.00     0.193 C 
ATOM     12  N   UNL     1      -0.687  -1.292   0.562  1.00  0.00    -0.325 N 
ATOM     13  C   UNL     1      -1.526   0.873   0.126  1.00  0.00     0.081 C 
ATOM     14  C   UNL     1      -1.796  -0.602  -0.093  1.00  0.00     0.263 C 
ATOM     15  H   UNL     1      -0.476  -2.145   0.044  1.00  0.00     0.348 HD
BRANCH  12  16
ATOM     16  C   UNL     1      -1.000  -1.807   1.921  1.00  0.00     0.379 C 
BRANCH  16  17
ATOM     17  C   UNL     1      -1.604  -0.897   3.009  1.00  0.00     0.438 C 
ATOM     18  F   UNL     1      -2.855  -0.495   2.687  1.00  0.00    -0.165 F 
ATOM     19  F   UNL     1      -1.688  -1.558   4.187  1.00  0.00    -0.165 F 
ATOM     20  F   UNL     1      -0.857   0.210   3.221  1.00  0.00    -0.165 F 
ENDBRANCH  16  17
ENDBRANCH  12  16
ENDBRANCH   6   9
ENDBRANCH   4   5
ENDBRANCH   3   4
ENDBRANCH   2   3
ENDBRANCH   1   2
BRANCH   1  21
ATOM     21  C   UNL     1       6.588   1.148  -1.857  1.00  0.00     0.021 C 
BRANCH  21  22
ATOM     22  C   UNL     1       6.956  -0.240  -2.378  1.00  0.00     0.116 C 
BRANCH  22  23
ATOM     23  N   UNL     1       7.648  -0.170  -3.655  1.00  0.00    -0.352 N 
ATOM     24  C   UNL     1       8.942  -0.501  -3.958  1.00  0.00     0.251 C 
ATOM     25  H   UNL     1       7.110   0.163  -4.409  1.00  0.00     0.163 HD
ATOM     26  O   UNL     1       9.433  -0.139  -5.028  1.00  0.00    -0.269 OA
BRANCH  24  27
ATOM     27  C   UNL     1       9.750  -1.282  -2.999  1.00  0.00     0.039 A 
ATOM     28  C   UNL     1      11.063  -0.885  -2.735  1.00  0.00     0.014 A 
ATOM     29  C   UNL     1       9.220  -2.418  -2.380  1.00  0.00     0.014 A 
ATOM     30  C   UNL     1      11.828  -1.599  -1.810  1.00  0.00     0.010 A 
ATOM     31  C   UNL     1       9.960  -3.089  -1.410  1.00  0.00     0.010 A 
ATOM     32  C   UNL     1      11.274  -2.691  -1.121  1.00  0.00    -0.014 A 
BRANCH  32  33
ATOM     33  C   UNL     1      12.056  -3.430  -0.098  1.00  0.00     0.031 A 
ATOM     34  C   UNL     1      12.421  -4.872  -0.322  1.00  0.00     0.074 A 
ATOM     35  C   UNL     1      12.386  -2.819   1.057  1.00  0.00     0.049 A 
ATOM     36  N   UNL     1      13.044  -5.700   0.477  1.00  0.00    -0.248 NA
ATOM     37  C   UNL     1      12.009  -5.470  -1.602  1.00  0.00     0.031 C 
ATOM     38  C   UNL     1      12.048  -1.438   1.410  1.00  0.00     0.029 A 
ATOM     39  N   UNL     1      13.069  -3.283   2.153  1.00  0.00    -0.354 N 
ATOM     40  C   UNL     1      13.088  -6.916  -0.196  1.00  0.00     0.074 A 
ATOM     41  C   UNL     1      12.383  -6.731  -1.446  1.00  0.00     0.031 C 
ATOM     42  C   UNL     1      12.543  -1.161   2.627  1.00  0.00     0.029 A 
ATOM     43  C   UNL     1      13.200  -2.352   3.157  1.00  0.00     0.049 A 
ATOM     44  H   UNL     1      13.432  -4.196   2.215  1.00  0.00     0.167 HD
ATOM     45  C   UNL     1      13.681  -8.073   0.183  1.00  0.00     0.037 A 
ATOM     46  C   UNL     1      13.779  -2.449   4.370  1.00  0.00     0.037 A 
ATOM     47  C   UNL     1      14.401  -8.242   1.419  1.00  0.00     0.049 A 
ATOM     48  C   UNL     1      14.431  -3.744   4.769  1.00  0.00     0.074 A 
ATOM     49  C   UNL     1      15.088  -9.356   1.869  1.00  0.00     0.029 A 
ATOM     50  N   UNL     1      14.526  -7.271   2.402  1.00  0.00    -0.354 N 
ATOM     51  N   UNL     1      14.517  -4.865   4.094  1.00  0.00    -0.248 NA
ATOM     52  C   UNL     1      15.067  -3.788   6.093  1.00  0.00     0.031 C 
ATOM     53  C   UNL     1      15.593  -9.072   3.143  1.00  0.00     0.029 A 
ATOM     54  C   UNL     1      15.261  -7.766   3.467  1.00  0.00     0.049 A 
ATOM     55  H   UNL     1      14.148  -6.364   2.350  1.00  0.00     0.167 HD
ATOM     56  C   UNL     1      15.237  -5.740   4.900  1.00  0.00     0.074 A 
ATOM     57  C   UNL     1      15.574  -5.013   6.107  1.00  0.00     0.031 C 
ATOM     58  C   UNL     1      15.588  -7.028   4.661  1.00  0.00     0.037 A 
BRANCH  45  59
ATOM     59  C   UNL     1      13.579  -9.247  -0.753  1.00  0.00     0.058 A 
ATOM     60  C   UNL     1      14.266  -9.275  -1.977  1.00  0.00     0.135 A 
ATOM     61  C   UNL     1      12.806 -10.369  -0.412  1.00  0.00     0.135 A 
ATOM     62  F   UNL     1      15.008  -8.224  -2.360  1.00  0.00    -0.206 F 
ATOM     63  C   UNL     1      14.164 -10.357  -2.845  1.00  0.00     0.059 A 
ATOM     64  C   UNL     1      12.712 -11.475  -1.252  1.00  0.00     0.059 A 
ATOM     65  F   UNL     1      12.128 -10.397   0.746  1.00  0.00    -0.206 F 
ATOM     66  C   UNL     1      13.382 -11.452  -2.475  1.00  0.00     0.060 A 
BRANCH  66  67
ATOM     67  S   UNL     1      13.257 -12.847  -3.614  1.00  0.00     0.124 S 
ATOM     68  O   UNL     1      12.382 -12.299  -4.647  1.00  0.00    -0.237 OA
ATOM     69  O   UNL     1      14.646 -13.056  -4.007  1.00  0.00    -0.237 OA
ATOM     70  O   UNL     1      12.674 -13.904  -2.795  1.00  0.00    -0.744 OA
ENDBRANCH  66  67
ENDBRANCH  45  59
BRANCH  46  71
ATOM     71  C   UNL     1      13.788  -1.274   5.282  1.00  0.00     0.058 A 
ATOM     72  C   UNL     1      14.975  -0.572   5.539  1.00  0.00     0.135 A 
ATOM     73  C   UNL     1      12.612  -0.819   5.896  1.00  0.00     0.135 A 
ATOM     74  F   UNL     1      16.126  -0.973   4.979  1.00  0.00    -0.206 F 
ATOM     75  C   UNL     1      14.999   0.534   6.383  1.00  0.00     0.059 A 
ATOM     76  C   UNL     1      12.606   0.299   6.725  1.00  0.00     0.059 A 
ATOM     77  F   UNL     1      11.447  -1.446   5.668  1.00  0.00    -0.206 F 
ATOM     78  C   UNL     1      13.807   0.963   6.969  1.00  0.00     0.060 A 
BRANCH  78  79
ATOM     79  S   UNL     1      13.838   2.433   8.019  1.00  0.00     0.124 S 
ATOM     80  O   UNL     1      14.480   1.919   9.224  1.00  0.00    -0.237 OA
ATOM     81  O   UNL     1      14.629   3.364   7.220  1.00  0.00    -0.237 OA
ATOM     82  O   UNL     1      12.426   2.778   8.153  1.00  0.00    -0.744 OA
ENDBRANCH  78  79
ENDBRANCH  46  71
BRANCH  58  83
ATOM     83  C   UNL     1      16.399  -7.729   5.716  1.00  0.00     0.058 A 
ATOM     84  C   UNL     1      15.826  -8.148   6.927  1.00  0.00     0.135 A 
ATOM     85  C   UNL     1      17.752  -8.030   5.490  1.00  0.00     0.135 A 
ATOM     86  F   UNL     1      14.539  -7.878   7.195  1.00  0.00    -0.206 F 
ATOM     87  C   UNL     1      16.573  -8.823   7.887  1.00  0.00     0.059 A 
ATOM     88  C   UNL     1      18.510  -8.728   6.425  1.00  0.00     0.059 A 
ATOM     89  F   UNL     1      18.345  -7.660   4.344  1.00  0.00    -0.206 F 
ATOM     90  C   UNL     1      17.914  -9.110   7.626  1.00  0.00     0.060 A 
BRANCH  90  91
ATOM     91  S   UNL     1      18.862 -10.019   8.865  1.00  0.00     0.124 S 
ATOM     92  O   UNL     1      19.083  -8.991   9.877  1.00  0.00    -0.237 OA
ATOM     93  O   UNL     1      17.944 -11.090   9.239  1.00  0.00    -0.237 OA
ATOM     94  O   UNL     1      20.051 -10.448   8.135  1.00  0.00    -0.744 OA
ENDBRANCH  90  91
ENDBRANCH  58  83
ENDBRANCH  32  33
ENDBRANCH  24  27
ENDBRANCH  22  23
ENDBRANCH  21  22
ENDBRANCH   1  21
TORSDOF 18
