REMARK SMILES Cc1ccccc1C(=O)Nc1cc(NC(=O)c2ccccc2C)cc(C(=O)NCCCCCCNC(=O)c2ccc(-c3c4nc(c(-c5c(F)cc(S(=O)(=O)[O-])cc5F)c5ccc([nH]5)c(-c5c(F)cc(S(=O)(=O)[O-])cc5F)c5nc(c(-c6c(F)cc(S(=O)(=O)[O-])cc6F)c6ccc3[nH]6)C=C5)C=C4)cc2)c1
REMARK SMILES IDX 32 1 31 2 30 3 29 4 28 5 26 6 27 7 25 9 11 10 12 11 104 12
REMARK SMILES IDX 13 13 24 14 10 15 8 16 9 17 7 19 1 20 2 21 3 22 4 23 6 24
REMARK SMILES IDX 5 25 14 26 15 27 16 29 17 30 18 31 22 32 19 33 21 34 23 35
REMARK SMILES IDX 20 36 33 37 34 38 35 39 36 40 37 42 38 43 39 44 103 45 40 46
REMARK SMILES IDX 102 47 41 48 42 49 43 50 96 51 44 52 101 53 95 54 97 55
REMARK SMILES IDX 45 56 100 57 94 58 93 59 46 61 80 62 59 63 79 64 60 65 63 66
REMARK SMILES IDX 78 67 98 68 61 69 62 70 77 72 99 73 64 74 47 75 48 76 57 77
REMARK SMILES IDX 49 78 50 79 56 80 58 81 51 82 52 83 53 84 54 85 55 86 81 87
REMARK SMILES IDX 82 88 91 89 83 90 84 91 90 92 92 93 85 94 86 95 87 96 88 97
REMARK SMILES IDX 89 98 65 99 66 100 75 101 67 102 68 103 74 104 76 105 69 106
REMARK SMILES IDX 70 107 71 108 72 109 73 110
REMARK H PARENT 28 8 10 18 14 28 35 41 97 60 63 71
REMARK Flexibility Score: inf
ROOT
ATOM      1  C   UNL     1       8.354  -4.729   2.855  1.00  0.00     0.002 C 
ENDROOT
BRANCH   1   2
ATOM      2  C   UNL     1       8.800  -3.443   2.015  1.00  0.00     0.002 C 
BRANCH   2   3
ATOM      3  C   UNL     1       8.152  -2.818   0.761  1.00  0.00     0.021 C 
BRANCH   3   4
ATOM      4  C   UNL     1       6.712  -2.463   0.894  1.00  0.00     0.116 C 
BRANCH   4   5
ATOM      5  N   UNL     1       6.563  -1.354   1.808  1.00  0.00    -0.352 N 
ATOM      6  C   UNL     1       5.834  -0.210   1.721  1.00  0.00     0.251 C 
ATOM      7  O   UNL     1       6.035   0.665   2.564  1.00  0.00    -0.269 OA
ATOM      8  H   UNL     1       7.081  -1.442   2.640  1.00  0.00     0.163 HD
BRANCH   6   9
ATOM      9  C   UNL     1       4.791  -0.000   0.681  1.00  0.00     0.043 A 
ATOM     10  C   UNL     1       3.030   1.437  -0.091  1.00  0.00     0.044 A 
ATOM     11  C   UNL     1       2.635   0.488  -1.033  1.00  0.00     0.052 A 
ATOM     12  C   UNL     1       4.204   1.265   0.637  1.00  0.00     0.040 A 
ATOM     13  C   UNL     1       3.275  -0.743  -1.074  1.00  0.00     0.044 A 
ATOM     14  C   UNL     1       4.250  -1.012  -0.118  1.00  0.00     0.040 A 
BRANCH  10  15
ATOM     15  N   UNL     1       2.191   2.476   0.326  1.00  0.00    -0.322 N 
ATOM     16  C   UNL     1       0.826   2.452   0.542  1.00  0.00     0.255 C 
ATOM     17  O   UNL     1       0.264   3.500   0.870  1.00  0.00    -0.269 OA
ATOM     18  H   UNL     1       2.633   3.341   0.487  1.00  0.00     0.170 HD
BRANCH  16  19
ATOM     19  C   UNL     1      -0.004   1.211   0.420  1.00  0.00     0.043 A 
ATOM     20  C   UNL     1       1.387  -0.363   1.942  1.00  0.00     0.045 C 
ATOM     21  C   UNL     1       0.286  -0.060   0.964  1.00  0.00    -0.038 A 
ATOM     22  C   UNL     1      -0.550  -1.147   0.634  1.00  0.00     0.004 A 
ATOM     23  C   UNL     1      -1.722  -0.961  -0.095  1.00  0.00     0.000 A 
ATOM     24  C   UNL     1      -1.216   1.387  -0.272  1.00  0.00     0.014 A 
ATOM     25  C   UNL     1      -2.077   0.315  -0.510  1.00  0.00     0.001 A 
ENDBRANCH  16  19
ENDBRANCH  10  15
BRANCH  13  26
ATOM     26  N   UNL     1       2.950  -1.788  -1.952  1.00  0.00    -0.322 N 
ATOM     27  C   UNL     1       2.332  -1.781  -3.178  1.00  0.00     0.255 C 
ATOM     28  H   UNL     1       3.212  -2.682  -1.634  1.00  0.00     0.170 HD
ATOM     29  O   UNL     1       1.931  -2.838  -3.663  1.00  0.00    -0.269 OA
BRANCH  27  30
ATOM     30  C   UNL     1       2.150  -0.526  -3.943  1.00  0.00     0.043 A 
ATOM     31  C   UNL     1       0.846  -0.291  -4.407  1.00  0.00     0.014 A 
ATOM     32  C   UNL     1       3.182   0.392  -4.223  1.00  0.00    -0.038 A 
ATOM     33  C   UNL     1       0.540   0.889  -5.079  1.00  0.00     0.001 A 
ATOM     34  C   UNL     1       2.842   1.594  -4.867  1.00  0.00     0.004 A 
ATOM     35  C   UNL     1       4.628   0.178  -3.865  1.00  0.00     0.045 C 
ATOM     36  C   UNL     1       1.533   1.841  -5.287  1.00  0.00     0.000 A 
ENDBRANCH  27  30
ENDBRANCH  13  26
ENDBRANCH   6   9
ENDBRANCH   4   5
ENDBRANCH   3   4
ENDBRANCH   2   3
ENDBRANCH   1   2
BRANCH   1  37
ATOM     37  C   UNL     1       8.303  -6.351   2.530  1.00  0.00     0.021 C 
BRANCH  37  38
ATOM     38  C   UNL     1       9.648  -7.200   2.269  1.00  0.00     0.116 C 
BRANCH  38  39
ATOM     39  N   UNL     1       9.741  -8.686   1.719  1.00  0.00    -0.352 N 
ATOM     40  C   UNL     1      10.729  -9.391   0.876  1.00  0.00     0.251 C 
ATOM     41  H   UNL     1       8.986  -9.253   1.995  1.00  0.00     0.163 HD
ATOM     42  O   UNL     1      11.519 -10.103   1.523  1.00  0.00    -0.269 OA
BRANCH  40  43
ATOM     43  C   UNL     1      10.943  -9.483  -0.734  1.00  0.00     0.039 A 
ATOM     44  C   UNL     1      12.255  -9.589  -1.280  1.00  0.00     0.014 A 
ATOM     45  C   UNL     1       9.997  -9.294  -1.735  1.00  0.00     0.014 A 
ATOM     46  C   UNL     1      12.610  -8.874  -2.500  1.00  0.00     0.010 A 
ATOM     47  C   UNL     1      10.334  -8.557  -2.923  1.00  0.00     0.010 A 
ATOM     48  C   UNL     1      11.640  -8.137  -3.197  1.00  0.00    -0.014 A 
BRANCH  48  49
ATOM     49  C   UNL     1      11.903  -6.884  -4.024  1.00  0.00     0.031 A 
ATOM     50  C   UNL     1      11.954  -6.924  -5.488  1.00  0.00     0.074 A 
ATOM     51  C   UNL     1      12.024  -5.583  -3.611  1.00  0.00     0.049 A 
ATOM     52  N   UNL     1      12.936  -6.468  -6.200  1.00  0.00    -0.248 NA
ATOM     53  C   UNL     1      10.786  -7.339  -6.247  1.00  0.00     0.031 C 
ATOM     54  C   UNL     1      12.156  -4.308  -4.346  1.00  0.00     0.029 A 
ATOM     55  N   UNL     1      12.017  -5.086  -2.326  1.00  0.00    -0.354 N 
ATOM     56  C   UNL     1      12.408  -6.249  -7.455  1.00  0.00     0.074 A 
ATOM     57  C   UNL     1      11.145  -6.968  -7.480  1.00  0.00     0.031 C 
ATOM     58  C   UNL     1      12.587  -3.337  -3.509  1.00  0.00     0.029 A 
ATOM     59  C   UNL     1      12.797  -3.935  -2.209  1.00  0.00     0.049 A 
ATOM     60  H   UNL     1      11.522  -5.494  -1.580  1.00  0.00     0.167 HD
ATOM     61  C   UNL     1      12.861  -5.254  -8.278  1.00  0.00     0.037 A 
ATOM     62  C   UNL     1      13.912  -3.943  -1.409  1.00  0.00     0.037 A 
ATOM     63  C   UNL     1      13.700  -4.277  -7.570  1.00  0.00     0.049 A 
ATOM     64  C   UNL     1      15.167  -3.889  -2.232  1.00  0.00     0.074 A 
ATOM     65  C   UNL     1      13.501  -2.952  -7.202  1.00  0.00     0.029 A 
ATOM     66  N   UNL     1      14.827  -4.679  -6.872  1.00  0.00    -0.354 N 
ATOM     67  N   UNL     1      15.178  -3.604  -3.498  1.00  0.00    -0.248 NA
ATOM     68  C   UNL     1      16.487  -4.266  -1.734  1.00  0.00     0.031 C 
ATOM     69  C   UNL     1      14.549  -2.552  -6.332  1.00  0.00     0.029 A 
ATOM     70  C   UNL     1      15.394  -3.631  -6.163  1.00  0.00     0.049 A 
ATOM     71  H   UNL     1      15.182  -5.597  -6.878  1.00  0.00     0.167 HD
ATOM     72  C   UNL     1      16.401  -3.908  -4.027  1.00  0.00     0.074 A 
ATOM     73  C   UNL     1      17.202  -4.280  -2.873  1.00  0.00     0.031 C 
ATOM     74  C   UNL     1      16.601  -3.866  -5.378  1.00  0.00     0.037 A 
BRANCH  61  75
ATOM     75  C   UNL     1      12.260  -5.001  -9.654  1.00  0.00     0.058 A 
ATOM     76  C   UNL     1      12.296  -3.735 -10.275  1.00  0.00     0.135 A 
ATOM     77  C   UNL     1      11.672  -6.019 -10.440  1.00  0.00     0.135 A 
ATOM     78  F   UNL     1      12.943  -2.697  -9.733  1.00  0.00    -0.206 F 
ATOM     79  C   UNL     1      11.691  -3.473 -11.505  1.00  0.00     0.059 A 
ATOM     80  C   UNL     1      11.017  -5.773 -11.651  1.00  0.00     0.059 A 
ATOM     81  F   UNL     1      11.748  -7.309 -10.071  1.00  0.00    -0.206 F 
ATOM     82  C   UNL     1      11.028  -4.490 -12.176  1.00  0.00     0.060 A 
BRANCH  82  83
ATOM     83  S   UNL     1      10.242  -4.114 -13.753  1.00  0.00     0.124 S 
ATOM     84  O   UNL     1       9.358  -3.007 -13.402  1.00  0.00    -0.237 OA
ATOM     85  O   UNL     1      11.388  -3.771 -14.588  1.00  0.00    -0.237 OA
ATOM     86  O   UNL     1       9.566  -5.361 -14.102  1.00  0.00    -0.744 OA
ENDBRANCH  82  83
ENDBRANCH  61  75
BRANCH  62  87
ATOM     87  C   UNL     1      13.811  -4.755  -0.121  1.00  0.00     0.058 A 
ATOM     88  C   UNL     1      12.883  -4.277   0.796  1.00  0.00     0.135 A 
ATOM     89  C   UNL     1      13.684  -6.119  -0.320  1.00  0.00     0.135 A 
ATOM     90  F   UNL     1      13.175  -3.247   1.600  1.00  0.00    -0.206 F 
ATOM     91  C   UNL     1      11.629  -4.867   0.885  1.00  0.00     0.059 A 
ATOM     92  C   UNL     1      12.397  -6.662  -0.274  1.00  0.00     0.059 A 
ATOM     93  F   UNL     1      14.666  -6.821  -0.906  1.00  0.00    -0.206 F 
ATOM     94  C   UNL     1      11.303  -5.907   0.051  1.00  0.00     0.060 A 
BRANCH  94  95
ATOM     95  S   UNL     1       9.512  -6.114  -0.681  1.00  0.00     0.124 S 
ATOM     96  O   UNL     1       8.757  -5.207   0.124  1.00  0.00    -0.237 OA
ATOM     97  O   UNL     1       9.610  -5.687  -2.076  1.00  0.00    -0.237 OA
ATOM     98  O   UNL     1       9.039  -7.451  -0.463  1.00  0.00    -0.744 OA
ENDBRANCH  94  95
ENDBRANCH  62  87
BRANCH  74  99
ATOM     99  C   UNL     1      17.919  -4.057  -6.089  1.00  0.00     0.058 A 
ATOM    100  C   UNL     1      19.167  -3.784  -5.506  1.00  0.00     0.135 A 
ATOM    101  C   UNL     1      17.967  -4.405  -7.463  1.00  0.00     0.135 A 
ATOM    102  F   UNL     1      19.266  -3.269  -4.272  1.00  0.00    -0.206 F 
ATOM    103  C   UNL     1      20.370  -3.964  -6.192  1.00  0.00     0.059 A 
ATOM    104  C   UNL     1      19.148  -4.548  -8.178  1.00  0.00     0.059 A 
ATOM    105  F   UNL     1      16.863  -4.608  -8.193  1.00  0.00    -0.206 F 
ATOM    106  C   UNL     1      20.350  -4.356  -7.526  1.00  0.00     0.060 A 
BRANCH 106 107
ATOM    107  S   UNL     1      21.900  -4.551  -8.413  1.00  0.00     0.124 S 
ATOM    108  O   UNL     1      22.594  -3.307  -8.097  1.00  0.00    -0.237 OA
ATOM    109  O   UNL     1      22.443  -5.755  -7.791  1.00  0.00    -0.237 OA
ATOM    110  O   UNL     1      21.486  -4.697  -9.805  1.00  0.00    -0.744 OA
ENDBRANCH 106 107
ENDBRANCH  74  99
ENDBRANCH  48  49
ENDBRANCH  40  43
ENDBRANCH  38  39
ENDBRANCH  37  38
ENDBRANCH   1  37
TORSDOF 20
