REMARK SMILES Cc1ccccc1-c1nc(CC(=O)NCCCCCCNC(=O)c2ccc(-c3c4nc(c(-c5c(F)cc(S(=O)(=O)[O-])cc5F)c5ccc([nH]5)c(-c5c(F)cc(S(=O)(=O)[O-])cc5F)c5nc(c(-c6c(F)cc(S(=O)(=O)[O-])cc6F)c6ccc3[nH]6)C=C5)C=C4)cc2)cs1
REMARK SMILES IDX 18 1 17 2 16 3 15 4 14 5 12 6 13 7 11 9 10 10 8 11 9 12
REMARK SMILES IDX 91 13 90 14 7 15 1 16 2 17 3 18 4 19 6 20 5 21 19 22 20 23
REMARK SMILES IDX 21 24 22 25 23 27 24 28 25 29 89 30 26 31 88 32 27 33 28 34
REMARK SMILES IDX 29 35 82 36 30 37 87 38 81 39 83 40 31 41 86 42 80 43 79 44
REMARK SMILES IDX 32 46 66 47 45 48 65 49 46 50 49 51 64 52 84 53 47 54 48 55
REMARK SMILES IDX 63 57 85 58 50 59 33 60 34 61 43 62 35 63 36 64 42 65 44 66
REMARK SMILES IDX 37 67 38 68 39 69 40 70 41 71 67 72 68 73 77 74 69 75 70 76
REMARK SMILES IDX 76 77 78 78 71 79 72 80 73 81 74 82 75 83 51 84 52 85 61 86
REMARK SMILES IDX 53 87 54 88 60 89 62 90 55 91 56 92 57 93 58 94 59 95
REMARK H PARENT 14 8 21 26 83 45 49 56
REMARK Flexibility Score: inf
ROOT
ATOM      1  C   UNL     1      -1.304   6.360  -4.914  1.00  0.00     0.002 C 
ENDROOT
BRANCH   1   2
ATOM      2  C   UNL     1      -1.213   6.182  -3.392  1.00  0.00     0.002 C 
BRANCH   2   3
ATOM      3  C   UNL     1      -0.374   5.001  -2.887  1.00  0.00     0.021 C 
BRANCH   3   4
ATOM      4  C   UNL     1       1.048   4.925  -3.445  1.00  0.00     0.116 C 
BRANCH   4   5
ATOM      5  N   UNL     1       1.873   6.034  -2.995  1.00  0.00    -0.356 N 
ATOM      6  C   UNL     1       2.924   6.022  -2.122  1.00  0.00     0.226 C 
ATOM      7  O   UNL     1       3.482   7.089  -1.853  1.00  0.00    -0.275 OA
ATOM      8  H   UNL     1       1.644   6.914  -3.370  1.00  0.00     0.163 HD
BRANCH   6   9
ATOM      9  C   UNL     1       3.421   4.713  -1.541  1.00  0.00     0.157 C 
BRANCH   9  10
ATOM     10  C   UNL     1       2.464   4.123  -0.561  1.00  0.00     0.061 A 
ATOM     11  C   UNL     1       1.102   2.499   0.112  1.00  0.00     0.123 A 
ATOM     12  N   UNL     1       1.974   2.849  -0.813  1.00  0.00    -0.241 NA
ATOM     13  S   UNL     1       0.882   3.651   1.373  1.00  0.00    -0.122 S 
ATOM     14  C   UNL     1       1.993   4.701   0.601  1.00  0.00     0.091 A 
BRANCH  11  15
ATOM     15  C   UNL     1       0.363   1.230   0.125  1.00  0.00     0.013 A 
ATOM     16  C   UNL     1       2.521  -0.156   0.074  1.00  0.00     0.045 C 
ATOM     17  C   UNL     1       1.022  -0.018   0.097  1.00  0.00    -0.041 A 
ATOM     18  C   UNL     1       0.257  -1.198   0.058  1.00  0.00     0.004 A 
ATOM     19  C   UNL     1      -1.137  -1.150   0.066  1.00  0.00     0.000 A 
ATOM     20  C   UNL     1      -1.045   1.258   0.127  1.00  0.00     0.011 A 
ATOM     21  C   UNL     1      -1.788   0.077   0.103  1.00  0.00     0.001 A 
ENDBRANCH  11  15
ENDBRANCH   9  10
ENDBRANCH   6   9
ENDBRANCH   4   5
ENDBRANCH   3   4
ENDBRANCH   2   3
ENDBRANCH   1   2
BRANCH   1  22
ATOM     22  C   UNL     1      -1.718   5.127  -5.720  1.00  0.00     0.021 C 
BRANCH  22  23
ATOM     23  C   UNL     1      -3.135   4.644  -5.423  1.00  0.00     0.116 C 
BRANCH  23  24
ATOM     24  N   UNL     1      -3.957   4.533  -6.622  1.00  0.00    -0.352 N 
ATOM     25  C   UNL     1      -5.240   4.029  -6.741  1.00  0.00     0.251 C 
ATOM     26  H   UNL     1      -3.546   4.859  -7.455  1.00  0.00     0.163 HD
ATOM     27  O   UNL     1      -5.770   3.883  -7.830  1.00  0.00    -0.269 OA
BRANCH  25  28
ATOM     28  C   UNL     1      -5.984   3.749  -5.496  1.00  0.00     0.039 A 
ATOM     29  C   UNL     1      -7.117   4.524  -5.224  1.00  0.00     0.014 A 
ATOM     30  C   UNL     1      -5.444   2.903  -4.530  1.00  0.00     0.014 A 
ATOM     31  C   UNL     1      -7.607   4.587  -3.922  1.00  0.00     0.010 A 
ATOM     32  C   UNL     1      -5.888   3.020  -3.226  1.00  0.00     0.010 A 
ATOM     33  C   UNL     1      -6.935   3.901  -2.912  1.00  0.00    -0.014 A 
BRANCH  33  34
ATOM     34  C   UNL     1      -7.167   4.122  -1.488  1.00  0.00     0.031 A 
ATOM     35  C   UNL     1      -7.796   3.075  -0.649  1.00  0.00     0.074 A 
ATOM     36  C   UNL     1      -6.694   5.244  -0.901  1.00  0.00     0.049 A 
ATOM     37  N   UNL     1      -8.210   3.266   0.560  1.00  0.00    -0.248 NA
ATOM     38  C   UNL     1      -8.096   1.733  -1.143  1.00  0.00     0.031 C 
ATOM     39  C   UNL     1      -6.427   5.447   0.520  1.00  0.00     0.029 A 
ATOM     40  N   UNL     1      -6.556   6.513  -1.458  1.00  0.00    -0.354 N 
ATOM     41  C   UNL     1      -8.507   2.037   1.099  1.00  0.00     0.074 A 
ATOM     42  C   UNL     1      -8.577   1.155  -0.036  1.00  0.00     0.031 C 
ATOM     43  C   UNL     1      -6.374   6.762   0.774  1.00  0.00     0.029 A 
ATOM     44  C   UNL     1      -6.773   7.454  -0.438  1.00  0.00     0.049 A 
ATOM     45  H   UNL     1      -6.345   6.714  -2.398  1.00  0.00     0.167 HD
ATOM     46  C   UNL     1      -8.490   1.895   2.456  1.00  0.00     0.037 A 
ATOM     47  C   UNL     1      -7.800   8.354  -0.502  1.00  0.00     0.037 A 
ATOM     48  C   UNL     1      -8.529   3.205   3.116  1.00  0.00     0.049 A 
ATOM     49  C   UNL     1      -8.815   8.232   0.613  1.00  0.00     0.074 A 
ATOM     50  C   UNL     1      -7.601   3.950   3.823  1.00  0.00     0.029 A 
ATOM     51  N   UNL     1      -9.617   4.048   2.890  1.00  0.00    -0.354 N 
ATOM     52  N   UNL     1      -8.892   7.212   1.423  1.00  0.00    -0.248 NA
ATOM     53  C   UNL     1      -9.840   9.235   0.890  1.00  0.00     0.031 C 
ATOM     54  C   UNL     1      -8.100   5.277   3.935  1.00  0.00     0.029 A 
ATOM     55  C   UNL     1      -9.348   5.327   3.334  1.00  0.00     0.049 A 
ATOM     56  H   UNL     1     -10.463   3.768   2.470  1.00  0.00     0.167 HD
ATOM     57  C   UNL     1      -9.963   7.367   2.264  1.00  0.00     0.074 A 
ATOM     58  C   UNL     1     -10.500   8.670   1.918  1.00  0.00     0.031 C 
ATOM     59  C   UNL     1     -10.324   6.397   3.157  1.00  0.00     0.037 A 
BRANCH  46  60
ATOM     60  C   UNL     1      -8.196   0.595   3.201  1.00  0.00     0.058 A 
ATOM     61  C   UNL     1      -8.088   0.590   4.614  1.00  0.00     0.135 A 
ATOM     62  C   UNL     1      -7.861  -0.641   2.601  1.00  0.00     0.135 A 
ATOM     63  F   UNL     1      -8.385   1.680   5.337  1.00  0.00    -0.206 F 
ATOM     64  C   UNL     1      -7.637  -0.516   5.349  1.00  0.00     0.059 A 
ATOM     65  C   UNL     1      -7.450  -1.768   3.316  1.00  0.00     0.059 A 
ATOM     66  F   UNL     1      -7.852  -0.825   1.279  1.00  0.00    -0.206 F 
ATOM     67  C   UNL     1      -7.306  -1.690   4.688  1.00  0.00     0.060 A 
BRANCH  67  68
ATOM     68  S   UNL     1      -6.663  -3.098   5.612  1.00  0.00     0.124 S 
ATOM     69  O   UNL     1      -5.341  -2.621   6.003  1.00  0.00    -0.237 OA
ATOM     70  O   UNL     1      -7.637  -3.239   6.688  1.00  0.00    -0.237 OA
ATOM     71  O   UNL     1      -6.667  -4.179   4.628  1.00  0.00    -0.744 OA
ENDBRANCH  67  68
ENDBRANCH  46  60
BRANCH  47  72
ATOM     72  C   UNL     1      -8.089   8.812  -1.887  1.00  0.00     0.058 A 
ATOM     73  C   UNL     1      -7.117   9.613  -2.516  1.00  0.00     0.135 A 
ATOM     74  C   UNL     1      -8.997   8.124  -2.703  1.00  0.00     0.135 A 
ATOM     75  F   UNL     1      -6.238  10.307  -1.776  1.00  0.00    -0.206 F 
ATOM     76  C   UNL     1      -6.935   9.587  -3.893  1.00  0.00     0.059 A 
ATOM     77  C   UNL     1      -8.838   8.092  -4.090  1.00  0.00     0.059 A 
ATOM     78  F   UNL     1      -9.948   7.351  -2.156  1.00  0.00    -0.206 F 
ATOM     79  C   UNL     1      -7.756   8.764  -4.661  1.00  0.00     0.060 A 
BRANCH  79  80
ATOM     80  S   UNL     1      -7.250   8.430  -6.364  1.00  0.00     0.124 S 
ATOM     81  O   UNL     1      -7.216   9.770  -6.941  1.00  0.00    -0.237 OA
ATOM     82  O   UNL     1      -5.949   7.796  -6.158  1.00  0.00    -0.237 OA
ATOM     83  O   UNL     1      -8.303   7.553  -6.862  1.00  0.00    -0.744 OA
ENDBRANCH  79  80
ENDBRANCH  47  72
BRANCH  59  84
ATOM     84  C   UNL     1     -11.584   6.390   3.995  1.00  0.00     0.058 A 
ATOM     85  C   UNL     1     -12.800   6.979   3.606  1.00  0.00     0.135 A 
ATOM     86  C   UNL     1     -11.630   5.649   5.202  1.00  0.00     0.135 A 
ATOM     87  F   UNL     1     -12.925   7.608   2.429  1.00  0.00    -0.206 F 
ATOM     88  C   UNL     1     -13.957   6.903   4.388  1.00  0.00     0.059 A 
ATOM     89  C   UNL     1     -12.786   5.515   5.970  1.00  0.00     0.059 A 
ATOM     90  F   UNL     1     -10.546   5.016   5.673  1.00  0.00    -0.206 F 
ATOM     91  C   UNL     1     -13.941   6.170   5.570  1.00  0.00     0.060 A 
BRANCH  91  92
ATOM     92  S   UNL     1     -15.440   6.011   6.560  1.00  0.00     0.124 S 
ATOM     93  O   UNL     1     -15.265   7.087   7.530  1.00  0.00    -0.237 OA
ATOM     94  O   UNL     1     -16.504   6.215   5.581  1.00  0.00    -0.237 OA
ATOM     95  O   UNL     1     -15.341   4.656   7.092  1.00  0.00    -0.744 OA
ENDBRANCH  91  92
ENDBRANCH  59  84
ENDBRANCH  33  34
ENDBRANCH  25  28
ENDBRANCH  23  24
ENDBRANCH  22  23
ENDBRANCH   1  22
TORSDOF 18
