REMARK SMILES C[C@@H](C(=O)NCCCCCCNC(=O)c1ccc(-c2c3nc(c(-c4c(F)cc(S(=O)(=O)[O-])cc4F)c4ccc([nH]4)c(-c4c(F)cc(S(=O)(=O)[O-])cc4F)c4nc(c(-c5c(F)cc(S(=O)(=O)[O-])cc5F)c5ccc2[nH]5)C=C4)C=C3)cc1)n1ccc(C(=O)N2CC[NH+](Cc3cccc(F)c3)CC2)n1
REMARK SMILES IDX 8 1 7 2 6 3 5 4 3 5 4 6 2 8 1 9 81 10 82 11 101 12 83 13
REMARK SMILES IDX 84 14 85 15 86 16 87 17 88 18 100 19 89 20 99 21 90 22 91 24
REMARK SMILES IDX 92 25 93 26 98 27 94 28 96 29 95 30 97 31 9 32 10 33 11 34
REMARK SMILES IDX 12 35 13 36 14 38 15 39 16 40 80 41 17 42 79 43 18 44 19 45
REMARK SMILES IDX 20 46 73 47 21 48 78 49 72 50 74 51 22 52 77 53 71 54 70 55
REMARK SMILES IDX 23 57 57 58 36 59 56 60 37 61 40 62 55 63 75 64 38 65 39 66
REMARK SMILES IDX 54 68 76 69 41 70 24 71 25 72 34 73 26 74 27 75 33 76 35 77
REMARK SMILES IDX 28 78 29 79 30 80 31 81 32 82 58 83 59 84 68 85 60 86 61 87
REMARK SMILES IDX 67 88 69 89 62 90 63 91 64 92 65 93 66 94 42 95 43 96 52 97
REMARK SMILES IDX 44 98 45 99 51 100 53 101 46 102 47 103 48 104 49 105 50 106
REMARK H PARENT 5 7 90 23 12 37 74 56 40 67
REMARK Flexibility Score: inf
ROOT
ATOM      1  C   UNL     1       5.052   2.719  -0.173  1.00  0.00     0.002 C 
ENDROOT
BRANCH   1   2
ATOM      2  C   UNL     1       4.353   1.372   0.058  1.00  0.00     0.021 C 
BRANCH   2   3
ATOM      3  C   UNL     1       3.406   1.348   1.262  1.00  0.00     0.116 C 
BRANCH   3   4
ATOM      4  N   UNL     1       2.301   2.263   1.045  1.00  0.00    -0.354 N 
ATOM      5  C   UNL     1       1.057   1.991   0.539  1.00  0.00     0.244 C 
ATOM      6  O   UNL     1       0.489   2.908  -0.061  1.00  0.00    -0.273 OA
ATOM      7  H   UNL     1       2.466   3.201   1.295  1.00  0.00     0.163 HD
BRANCH   5   8
ATOM      8  C   UNL     1       0.487   0.574   0.677  1.00  0.00     0.193 C 
ATOM      9  C   UNL     1       0.790  -0.189  -0.613  1.00  0.00     0.044 C 
BRANCH   8  10
ATOM     10  N   UNL     1      -0.943   0.574   1.007  1.00  0.00    -0.260 N 
ATOM     11  C   UNL     1      -1.807  -0.488   0.944  1.00  0.00     0.110 A 
ATOM     12  N   UNL     1      -1.511   1.652   1.573  1.00  0.00    -0.167 NA
ATOM     13  C   UNL     1      -3.037  -0.001   1.319  1.00  0.00     0.056 A 
ATOM     14  C   UNL     1      -2.823   1.365   1.633  1.00  0.00     0.150 A 
BRANCH  14  15
ATOM     15  C   UNL     1      -3.830   2.347   2.070  1.00  0.00     0.274 C 
ATOM     16  O   UNL     1      -4.792   1.988   2.755  1.00  0.00    -0.267 OA
ATOM     17  N   UNL     1      -3.677   3.684   1.669  1.00  0.00    -0.326 N 
ATOM     18  C   UNL     1      -4.610   4.654   2.223  1.00  0.00     0.181 C 
ATOM     19  C   UNL     1      -3.022   4.064   0.410  1.00  0.00     0.181 C 
ATOM     20  C   UNL     1      -4.132   6.113   2.119  1.00  0.00     0.284 C 
ATOM     21  C   UNL     1      -2.580   5.537   0.354  1.00  0.00     0.284 C 
ATOM     22  N   UNL     1      -3.558   6.522   0.833  1.00  0.00    -0.328 N 
ATOM     23  H   UNL     1      -3.031   7.375   1.023  1.00  0.00     0.348 HD
BRANCH  22  24
ATOM     24  C   UNL     1      -4.485   7.061  -0.161  1.00  0.00     0.299 C 
BRANCH  24  25
ATOM     25  C   UNL     1      -5.480   6.115  -0.791  1.00  0.00     0.009 A 
ATOM     26  C   UNL     1      -5.178   5.450  -1.992  1.00  0.00     0.010 A 
ATOM     27  C   UNL     1      -6.725   5.881  -0.191  1.00  0.00     0.048 A 
ATOM     28  C   UNL     1      -6.074   4.532  -2.547  1.00  0.00     0.004 A 
ATOM     29  C   UNL     1      -7.607   4.960  -0.748  1.00  0.00     0.123 A 
ATOM     30  C   UNL     1      -7.289   4.277  -1.915  1.00  0.00     0.039 A 
ATOM     31  F   UNL     1      -8.777   4.720  -0.140  1.00  0.00    -0.207 F 
ENDBRANCH  24  25
ENDBRANCH  22  24
ENDBRANCH  14  15
ENDBRANCH   8  10
ENDBRANCH   5   8
ENDBRANCH   3   4
ENDBRANCH   2   3
ENDBRANCH   1   2
BRANCH   1  32
ATOM     32  C   UNL     1       5.960   3.189   0.967  1.00  0.00     0.002 C 
BRANCH  32  33
ATOM     33  C   UNL     1       7.049   2.198   1.386  1.00  0.00     0.021 C 
BRANCH  33  34
ATOM     34  C   UNL     1       7.986   1.750   0.267  1.00  0.00     0.116 C 
BRANCH  34  35
ATOM     35  N   UNL     1       8.781   2.843  -0.265  1.00  0.00    -0.352 N 
ATOM     36  C   UNL     1      10.120   2.865  -0.568  1.00  0.00     0.251 C 
ATOM     37  H   UNL     1       8.294   3.683  -0.430  1.00  0.00     0.163 HD
ATOM     38  O   UNL     1      10.664   3.924  -0.870  1.00  0.00    -0.269 OA
BRANCH  36  39
ATOM     39  C   UNL     1      10.912   1.617  -0.505  1.00  0.00     0.039 A 
ATOM     40  C   UNL     1      12.136   1.629   0.171  1.00  0.00     0.014 A 
ATOM     41  C   UNL     1      10.458   0.443  -1.115  1.00  0.00     0.014 A 
ATOM     42  C   UNL     1      12.878   0.451   0.285  1.00  0.00     0.010 A 
ATOM     43  C   UNL     1      11.177  -0.741  -0.962  1.00  0.00     0.010 A 
ATOM     44  C   UNL     1      12.391  -0.749  -0.258  1.00  0.00    -0.014 A 
BRANCH  44  45
ATOM     45  C   UNL     1      13.137  -2.022  -0.097  1.00  0.00     0.031 A 
ATOM     46  C   UNL     1      13.772  -2.682  -1.289  1.00  0.00     0.074 A 
ATOM     47  C   UNL     1      13.186  -2.617   1.110  1.00  0.00     0.049 A 
ATOM     48  N   UNL     1      14.386  -3.834  -1.363  1.00  0.00    -0.248 NA
ATOM     49  C   UNL     1      13.683  -1.963  -2.569  1.00  0.00     0.031 C 
ATOM     50  C   UNL     1      12.574  -2.098   2.335  1.00  0.00     0.029 A 
ATOM     51  N   UNL     1      13.766  -3.796   1.502  1.00  0.00    -0.354 N 
ATOM     52  C   UNL     1      14.738  -3.991  -2.697  1.00  0.00     0.074 A 
ATOM     53  C   UNL     1      14.244  -2.827  -3.403  1.00  0.00     0.031 C 
ATOM     54  C   UNL     1      12.820  -2.951   3.344  1.00  0.00     0.029 A 
ATOM     55  C   UNL     1      13.584  -4.085   2.833  1.00  0.00     0.049 A 
ATOM     56  H   UNL     1      14.267  -4.381   0.888  1.00  0.00     0.167 HD
ATOM     57  C   UNL     1      15.421  -5.006  -3.280  1.00  0.00     0.037 A 
ATOM     58  C   UNL     1      13.982  -5.147   3.560  1.00  0.00     0.037 A 
ATOM     59  C   UNL     1      15.943  -6.145  -2.574  1.00  0.00     0.049 A 
ATOM     60  C   UNL     1      14.774  -6.240   2.900  1.00  0.00     0.074 A 
ATOM     61  C   UNL     1      16.692  -7.199  -3.070  1.00  0.00     0.029 A 
ATOM     62  N   UNL     1      15.778  -6.377  -1.217  1.00  0.00    -0.354 N 
ATOM     63  N   UNL     1      15.131  -6.352   1.643  1.00  0.00    -0.248 NA
ATOM     64  C   UNL     1      15.222  -7.347   3.756  1.00  0.00     0.031 C 
ATOM     65  C   UNL     1      16.966  -8.077  -2.014  1.00  0.00     0.029 A 
ATOM     66  C   UNL     1      16.406  -7.558  -0.858  1.00  0.00     0.049 A 
ATOM     67  H   UNL     1      15.286  -5.789  -0.599  1.00  0.00     0.167 HD
ATOM     68  C   UNL     1      15.860  -7.533   1.561  1.00  0.00     0.074 A 
ATOM     69  C   UNL     1      15.900  -8.095   2.895  1.00  0.00     0.031 C 
ATOM     70  C   UNL     1      16.442  -8.099   0.476  1.00  0.00     0.037 A 
BRANCH  57  71
ATOM     71  C   UNL     1      15.641  -4.922  -4.763  1.00  0.00     0.058 A 
ATOM     72  C   UNL     1      16.593  -4.049  -5.313  1.00  0.00     0.135 A 
ATOM     73  C   UNL     1      14.903  -5.729  -5.641  1.00  0.00     0.135 A 
ATOM     74  F   UNL     1      17.312  -3.244  -4.514  1.00  0.00    -0.206 F 
ATOM     75  C   UNL     1      16.784  -3.957  -6.687  1.00  0.00     0.059 A 
ATOM     76  C   UNL     1      15.091  -5.668  -7.019  1.00  0.00     0.059 A 
ATOM     77  F   UNL     1      13.979  -6.579  -5.165  1.00  0.00    -0.206 F 
ATOM     78  C   UNL     1      16.022  -4.765  -7.533  1.00  0.00     0.060 A 
BRANCH  78  79
ATOM     79  S   UNL     1      16.263  -4.630  -9.317  1.00  0.00     0.124 S 
ATOM     80  O   UNL     1      15.474  -3.441  -9.625  1.00  0.00    -0.237 OA
ATOM     81  O   UNL     1      17.710  -4.477  -9.432  1.00  0.00    -0.237 OA
ATOM     82  O   UNL     1      15.728  -5.889  -9.825  1.00  0.00    -0.744 OA
ENDBRANCH  78  79
ENDBRANCH  57  71
BRANCH  58  83
ATOM     83  C   UNL     1      13.658  -5.211   5.006  1.00  0.00     0.058 A 
ATOM     84  C   UNL     1      14.637  -4.939   5.973  1.00  0.00     0.135 A 
ATOM     85  C   UNL     1      12.363  -5.517   5.448  1.00  0.00     0.135 A 
ATOM     86  F   UNL     1      15.890  -4.646   5.593  1.00  0.00    -0.206 F 
ATOM     87  C   UNL     1      14.346  -4.974   7.332  1.00  0.00     0.059 A 
ATOM     88  C   UNL     1      12.043  -5.544   6.802  1.00  0.00     0.059 A 
ATOM     89  F   UNL     1      11.390  -5.769   4.558  1.00  0.00    -0.206 F 
ATOM     90  C   UNL     1      13.044  -5.277   7.737  1.00  0.00     0.060 A 
BRANCH  90  91
ATOM     91  S   UNL     1      12.651  -5.255   9.499  1.00  0.00     0.124 S 
ATOM     92  O   UNL     1      13.140  -6.561   9.924  1.00  0.00    -0.237 OA
ATOM     93  O   UNL     1      13.410  -4.103   9.975  1.00  0.00    -0.237 OA
ATOM     94  O   UNL     1      11.201  -5.086   9.511  1.00  0.00    -0.744 OA
ENDBRANCH  90  91
ENDBRANCH  58  83
BRANCH  70  95
ATOM     95  C   UNL     1      17.193  -9.380   0.692  1.00  0.00     0.058 A 
ATOM     96  C   UNL     1      16.524 -10.606   0.814  1.00  0.00     0.135 A 
ATOM     97  C   UNL     1      18.596  -9.385   0.729  1.00  0.00     0.135 A 
ATOM     98  F   UNL     1      15.182 -10.649   0.791  1.00  0.00    -0.206 F 
ATOM     99  C   UNL     1      17.221 -11.798   0.982  1.00  0.00     0.059 A 
ATOM    100  C   UNL     1      19.314 -10.567   0.881  1.00  0.00     0.059 A 
ATOM    101  F   UNL     1      19.280  -8.236   0.610  1.00  0.00    -0.206 F 
ATOM    102  C   UNL     1      18.617 -11.768   1.016  1.00  0.00     0.060 A 
BRANCH 102 103
ATOM    103  S   UNL     1      19.520 -13.321   1.196  1.00  0.00     0.124 S 
ATOM    104  O   UNL     1      19.439 -13.541   2.636  1.00  0.00    -0.237 OA
ATOM    105  O   UNL     1      18.742 -14.239   0.370  1.00  0.00    -0.237 OA
ATOM    106  O   UNL     1      20.848 -12.999   0.681  1.00  0.00    -0.744 OA
ENDBRANCH 102 103
ENDBRANCH  70  95
ENDBRANCH  44  45
ENDBRANCH  36  39
ENDBRANCH  34  35
ENDBRANCH  33  34
ENDBRANCH  32  33
ENDBRANCH   1  32
TORSDOF 20
