REMARK SMILES Cc1ccc(S(=O)(=O)n2cc(C(=O)C(=O)NCC(=O)N[C@H](Cc3c[nH]c4ccccc34)C(=O)NCCCCCCNC(=O)c3ccc(-c4c5nc(c(-c6c(F)cc(S(=O)(=O)[O-])cc6F)c6ccc([nH]6)c(-c6c(F)cc(S(=O)(=O)[O-])cc6F)c6nc(c(-c7c(F)cc(S(=O)(=O)[O-])cc7F)c7ccc4[nH]7)C=C6)C=C5)cc3)c3ccccc32)cc1
REMARK SMILES IDX 35 1 34 2 32 3 33 4 21 6 20 7 18 8 19 9 17 11 16 12 14 13
REMARK SMILES IDX 15 14 12 16 13 17 11 18 9 19 10 20 115 21 110 22 114 23
REMARK SMILES IDX 111 24 113 25 112 26 6 27 7 28 8 29 5 30 1 31 2 32 3 33
REMARK SMILES IDX 117 34 4 35 116 36 22 37 23 38 24 39 31 40 25 41 26 42 30 43
REMARK SMILES IDX 27 45 29 46 28 47 36 48 37 49 38 50 39 51 40 52 41 53 42 54
REMARK SMILES IDX 43 56 44 57 45 58 109 59 46 60 108 61 47 62 48 63 49 64
REMARK SMILES IDX 102 65 50 66 107 67 101 68 103 69 51 70 106 71 100 72 99 73
REMARK SMILES IDX 52 75 86 76 65 77 85 78 66 79 69 80 84 81 104 82 67 83 68 84
REMARK SMILES IDX 83 86 105 87 70 88 53 89 54 90 63 91 55 92 56 93 62 94 64 95
REMARK SMILES IDX 57 96 58 97 59 98 60 99 61 100 87 101 88 102 97 103 89 104
REMARK SMILES IDX 90 105 96 106 98 107 91 108 92 109 93 110 94 111 95 112
REMARK SMILES IDX 71 113 72 114 81 115 73 116 74 117 80 118 82 119 75 120
REMARK SMILES IDX 76 121 77 122 78 123 79 124
REMARK H PARENT 34 5 20 10 16 15 25 44 41 55 103 74 69 85
REMARK Flexibility Score: inf
ROOT
ATOM      1  C   UNL     1     -10.056   1.759   5.835  1.00  0.00     0.116 C 
ENDROOT
BRANCH   1   2
ATOM      2  N   UNL     1      -9.315   0.738   5.118  1.00  0.00    -0.354 N 
ATOM      3  C   UNL     1      -9.230   0.405   3.806  1.00  0.00     0.242 C 
ATOM      4  O   UNL     1      -8.655  -0.661   3.555  1.00  0.00    -0.273 OA
ATOM      5  H   UNL     1      -8.761   0.172   5.703  1.00  0.00     0.163 HD
BRANCH   3   6
ATOM      6  C   UNL     1      -9.806   1.244   2.653  1.00  0.00     0.175 C 
BRANCH   6   7
ATOM      7  N   UNL     1      -9.365   2.634   2.856  1.00  0.00    -0.342 N 
ATOM      8  C   UNL     1      -8.111   3.162   2.744  1.00  0.00     0.240 C 
ATOM      9  O   UNL     1      -7.964   4.334   3.103  1.00  0.00    -0.273 OA
ATOM     10  H   UNL     1     -10.072   3.271   3.108  1.00  0.00     0.164 HD
BRANCH   8  11
ATOM     11  C   UNL     1      -6.972   2.416   2.011  1.00  0.00     0.216 C 
BRANCH  11  12
ATOM     12  N   UNL     1      -6.712   1.020   2.352  1.00  0.00    -0.340 N 
ATOM     13  C   UNL     1      -6.393  -0.037   1.511  1.00  0.00     0.292 C 
ATOM     14  O   UNL     1      -6.085  -1.144   1.935  1.00  0.00    -0.265 OA
ATOM     15  H   UNL     1      -6.771   0.798   3.309  1.00  0.00     0.164 HD
BRANCH  13  16
ATOM     16  C   UNL     1      -6.375   0.199   0.005  1.00  0.00     0.252 C 
ATOM     17  O   UNL     1      -5.579   1.052  -0.392  1.00  0.00    -0.283 OA
BRANCH  16  18
ATOM     18  C   UNL     1      -7.360  -0.420  -0.894  1.00  0.00     0.054 A 
ATOM     19  N   UNL     1      -8.757  -1.794  -2.038  1.00  0.00    -0.240 N 
ATOM     20  C   UNL     1      -7.791  -1.748  -1.027  1.00  0.00     0.117 A 
ATOM     21  C   UNL     1      -9.103  -0.461  -2.334  1.00  0.00     0.065 A 
ATOM     22  C   UNL     1      -8.016   0.308  -1.930  1.00  0.00     0.012 A 
ATOM     23  C   UNL     1     -10.095   0.062  -3.186  1.00  0.00     0.028 A 
ATOM     24  C   UNL     1      -7.809   1.562  -2.543  1.00  0.00     0.011 A 
ATOM     25  C   UNL     1      -9.820   1.258  -3.847  1.00  0.00     0.002 A 
ATOM     26  C   UNL     1      -8.670   1.981  -3.560  1.00  0.00     0.001 A 
BRANCH  19  27
ATOM     27  S   UNL     1      -8.643  -2.735  -3.518  1.00  0.00     0.268 S 
ATOM     28  O   UNL     1      -7.435  -2.220  -4.143  1.00  0.00    -0.201 OA
ATOM     29  O   UNL     1      -9.950  -2.510  -4.123  1.00  0.00    -0.201 OA
BRANCH  27  30
ATOM     30  C   UNL     1      -8.520  -4.481  -3.672  1.00  0.00     0.088 A 
ATOM     31  C   UNL     1      -8.738  -8.584  -5.022  1.00  0.00     0.044 C 
ATOM     32  C   UNL     1      -8.603  -7.173  -4.524  1.00  0.00    -0.051 A 
ATOM     33  C   UNL     1      -8.743  -6.159  -5.458  1.00  0.00     0.005 A 
ATOM     34  C   UNL     1      -8.401  -6.829  -3.167  1.00  0.00     0.005 A 
ATOM     35  C   UNL     1      -8.687  -4.844  -5.035  1.00  0.00     0.022 A 
ATOM     36  C   UNL     1      -8.363  -5.477  -2.726  1.00  0.00     0.022 A 
ENDBRANCH  27  30
ENDBRANCH  19  27
ENDBRANCH  16  18
ENDBRANCH  13  16
ENDBRANCH  11  12
ENDBRANCH   8  11
ENDBRANCH   6   7
BRANCH   6  37
ATOM     37  C   UNL     1     -11.321   1.133   2.355  1.00  0.00     0.072 C 
BRANCH  37  38
ATOM     38  C   UNL     1     -12.157   0.010   2.924  1.00  0.00    -0.020 A 
ATOM     39  C   UNL     1     -11.788  -1.060   3.716  1.00  0.00     0.087 A 
ATOM     40  C   UNL     1     -13.586  -0.131   2.751  1.00  0.00     0.003 A 
ATOM     41  N   UNL     1     -12.913  -1.636   4.241  1.00  0.00    -0.361 N 
ATOM     42  C   UNL     1     -14.025  -1.105   3.649  1.00  0.00     0.046 A 
ATOM     43  C   UNL     1     -14.559   0.499   1.945  1.00  0.00     0.010 A 
ATOM     44  H   UNL     1     -12.921  -2.329   4.940  1.00  0.00     0.166 HD
ATOM     45  C   UNL     1     -15.371  -1.424   3.850  1.00  0.00     0.026 A 
ATOM     46  C   UNL     1     -15.909   0.137   2.079  1.00  0.00     0.001 A 
ATOM     47  C   UNL     1     -16.309  -0.791   3.037  1.00  0.00     0.002 A 
ENDBRANCH  37  38
ENDBRANCH   6  37
ENDBRANCH   3   6
ENDBRANCH   1   2
BRANCH   1  48
ATOM     48  C   UNL     1     -11.406   1.254   6.342  1.00  0.00     0.021 C 
BRANCH  48  49
ATOM     49  C   UNL     1     -11.352  -0.050   7.154  1.00  0.00     0.002 C 
BRANCH  49  50
ATOM     50  C   UNL     1     -10.600   0.006   8.493  1.00  0.00     0.002 C 
BRANCH  50  51
ATOM     51  C   UNL     1     -10.961   1.161   9.430  1.00  0.00     0.021 C 
BRANCH  51  52
ATOM     52  C   UNL     1     -12.430   1.232   9.802  1.00  0.00     0.116 C 
BRANCH  52  53
ATOM     53  N   UNL     1     -12.785   0.629  11.073  1.00  0.00    -0.352 N 
ATOM     54  C   UNL     1     -13.833   1.211  11.787  1.00  0.00     0.251 C 
ATOM     55  H   UNL     1     -12.306  -0.160  11.417  1.00  0.00     0.163 HD
ATOM     56  O   UNL     1     -13.721   2.124  12.581  1.00  0.00    -0.269 OA
BRANCH  54  57
ATOM     57  C   UNL     1     -15.156   0.847  11.236  1.00  0.00     0.039 A 
ATOM     58  C   UNL     1     -15.937  -0.169  11.784  1.00  0.00     0.014 A 
ATOM     59  C   UNL     1     -15.467   1.420  10.000  1.00  0.00     0.014 A 
ATOM     60  C   UNL     1     -16.970  -0.709  11.017  1.00  0.00     0.010 A 
ATOM     61  C   UNL     1     -16.412   0.823   9.208  1.00  0.00     0.010 A 
ATOM     62  C   UNL     1     -17.146  -0.256   9.708  1.00  0.00    -0.014 A 
BRANCH  62  63
ATOM     63  C   UNL     1     -18.055  -0.834   8.735  1.00  0.00     0.031 A 
ATOM     64  C   UNL     1     -19.326  -0.143   8.434  1.00  0.00     0.074 A 
ATOM     65  C   UNL     1     -17.606  -1.857   7.977  1.00  0.00     0.049 A 
ATOM     66  N   UNL     1     -20.307  -0.681   7.799  1.00  0.00    -0.248 NA
ATOM     67  C   UNL     1     -19.600   1.230   8.853  1.00  0.00     0.031 C 
ATOM     68  C   UNL     1     -18.145  -2.336   6.709  1.00  0.00     0.029 A 
ATOM     69  N   UNL     1     -16.638  -2.801   8.317  1.00  0.00    -0.354 N 
ATOM     70  C   UNL     1     -21.211   0.314   7.499  1.00  0.00     0.074 A 
ATOM     71  C   UNL     1     -20.750   1.478   8.216  1.00  0.00     0.031 C 
ATOM     72  C   UNL     1     -17.701  -3.586   6.492  1.00  0.00     0.029 A 
ATOM     73  C   UNL     1     -16.995  -4.008   7.692  1.00  0.00     0.049 A 
ATOM     74  H   UNL     1     -15.851  -2.650   8.888  1.00  0.00     0.167 HD
ATOM     75  C   UNL     1     -22.180   0.071   6.573  1.00  0.00     0.037 A 
ATOM     76  C   UNL     1     -17.357  -5.086   8.454  1.00  0.00     0.037 A 
ATOM     77  C   UNL     1     -22.112  -1.312   6.112  1.00  0.00     0.049 A 
ATOM     78  C   UNL     1     -18.808  -5.480   8.280  1.00  0.00     0.074 A 
ATOM     79  C   UNL     1     -21.464  -1.900   5.039  1.00  0.00     0.029 A 
ATOM     80  N   UNL     1     -22.439  -2.339   6.990  1.00  0.00    -0.354 N 
ATOM     81  N   UNL     1     -19.729  -4.689   7.801  1.00  0.00    -0.248 NA
ATOM     82  C   UNL     1     -19.328  -6.804   8.608  1.00  0.00     0.031 C 
ATOM     83  C   UNL     1     -21.314  -3.280   5.323  1.00  0.00     0.029 A 
ATOM     84  C   UNL     1     -21.899  -3.534   6.552  1.00  0.00     0.049 A 
ATOM     85  H   UNL     1     -22.978  -2.231   7.806  1.00  0.00     0.167 HD
ATOM     86  C   UNL     1     -20.930  -5.350   7.762  1.00  0.00     0.074 A 
ATOM     87  C   UNL     1     -20.622  -6.676   8.263  1.00  0.00     0.031 C 
ATOM     88  C   UNL     1     -22.079  -4.758   7.316  1.00  0.00     0.037 A 
BRANCH  75  89
ATOM     89  C   UNL     1     -22.990   1.152   5.901  1.00  0.00     0.058 A 
ATOM     90  C   UNL     1     -23.316   1.054   4.531  1.00  0.00     0.135 A 
ATOM     91  C   UNL     1     -23.448   2.320   6.541  1.00  0.00     0.135 A 
ATOM     92  F   UNL     1     -22.973  -0.017   3.803  1.00  0.00    -0.206 F 
ATOM     93  C   UNL     1     -23.986   2.059   3.835  1.00  0.00     0.059 A 
ATOM     94  C   UNL     1     -24.081   3.364   5.854  1.00  0.00     0.059 A 
ATOM     95  F   UNL     1     -23.321   2.476   7.867  1.00  0.00    -0.206 F 
ATOM     96  C   UNL     1     -24.347   3.223   4.498  1.00  0.00     0.060 A 
BRANCH  96  97
ATOM     97  S   UNL     1     -25.164   4.527   3.558  1.00  0.00     0.124 S 
ATOM     98  O   UNL     1     -24.238   4.733   2.448  1.00  0.00    -0.237 OA
ATOM     99  O   UNL     1     -26.436   3.901   3.214  1.00  0.00    -0.237 OA
ATOM    100  O   UNL     1     -25.245   5.632   4.508  1.00  0.00    -0.744 OA
ENDBRANCH  96  97
ENDBRANCH  75  89
BRANCH  76 101
ATOM    101  C   UNL     1     -16.560  -5.186   9.714  1.00  0.00     0.058 A 
ATOM    102  C   UNL     1     -15.184  -5.460   9.579  1.00  0.00     0.135 A 
ATOM    103  C   UNL     1     -16.978  -4.551  10.894  1.00  0.00     0.135 A 
ATOM    104  F   UNL     1     -14.732  -6.088   8.480  1.00  0.00    -0.206 F 
ATOM    105  C   UNL     1     -14.244  -4.948  10.467  1.00  0.00     0.059 A 
ATOM    106  C   UNL     1     -16.050  -4.041  11.807  1.00  0.00     0.059 A 
ATOM    107  F   UNL     1     -18.275  -4.274  11.091  1.00  0.00    -0.206 F 
ATOM    108  C   UNL     1     -14.687  -4.167  11.532  1.00  0.00     0.060 A 
BRANCH 108 109
ATOM    109  S   UNL     1     -13.462  -3.162  12.409  1.00  0.00     0.124 S 
ATOM    110  O   UNL     1     -12.499  -4.165  12.845  1.00  0.00    -0.237 OA
ATOM    111  O   UNL     1     -13.006  -2.255  11.351  1.00  0.00    -0.237 OA
ATOM    112  O   UNL     1     -14.238  -2.528  13.467  1.00  0.00    -0.744 OA
ENDBRANCH 108 109
ENDBRANCH  76 101
BRANCH  88 113
ATOM    113  C   UNL     1     -23.473  -5.322   7.459  1.00  0.00     0.058 A 
ATOM    114  C   UNL     1     -23.872  -6.159   8.514  1.00  0.00     0.135 A 
ATOM    115  C   UNL     1     -24.509  -4.899   6.589  1.00  0.00     0.135 A 
ATOM    116  F   UNL     1     -23.012  -6.532   9.473  1.00  0.00    -0.206 F 
ATOM    117  C   UNL     1     -25.184  -6.612   8.651  1.00  0.00     0.059 A 
ATOM    118  C   UNL     1     -25.836  -5.289   6.744  1.00  0.00     0.059 A 
ATOM    119  F   UNL     1     -24.268  -4.075   5.558  1.00  0.00    -0.206 F 
ATOM    120  C   UNL     1     -26.159  -6.175   7.760  1.00  0.00     0.060 A 
BRANCH 120 121
ATOM    121  S   UNL     1     -27.861  -6.728   7.955  1.00  0.00     0.124 S 
ATOM    122  O   UNL     1     -27.859  -7.953   7.162  1.00  0.00    -0.237 OA
ATOM    123  O   UNL     1     -27.978  -6.912   9.399  1.00  0.00    -0.237 OA
ATOM    124  O   UNL     1     -28.637  -5.620   7.408  1.00  0.00    -0.744 OA
ENDBRANCH 120 121
ENDBRANCH  88 113
ENDBRANCH  62  63
ENDBRANCH  54  57
ENDBRANCH  52  53
ENDBRANCH  51  52
ENDBRANCH  50  51
ENDBRANCH  49  50
ENDBRANCH  48  49
ENDBRANCH   1  48
TORSDOF 25
