REMARK SMILES CC(C)C[C@H](CNC(=O)c1cc(F)ccc1Br)C(=O)NCCCCCCNC(=O)c1ccc(-c2c3nc(c(-c4c(F)cc(S(=O)(=O)[O-])cc4F)c4ccc([nH]4)c(-c4c(F)cc(S(=O)(=O)[O-])cc4F)c4nc(c(-c5c(F)cc(S(=O)(=O)[O-])cc5F)c5ccc2[nH]5)C=C4)C=C3)cc1
REMARK SMILES IDX 23 1 22 2 21 3 20 4 18 5 19 6 5 8 4 9 2 10 1 11 3 12 6 13
REMARK SMILES IDX 7 14 8 15 9 17 10 18 11 19 16 20 12 21 15 22 17 23 13 24
REMARK SMILES IDX 14 25 24 26 25 27 26 28 27 29 28 30 29 32 30 33 31 34 95 35
REMARK SMILES IDX 32 36 94 37 33 38 34 39 35 40 88 41 36 42 93 43 87 44 89 45
REMARK SMILES IDX 37 46 92 47 86 48 85 49 38 51 72 52 51 53 71 54 52 55 55 56
REMARK SMILES IDX 70 57 90 58 53 59 54 60 69 62 91 63 56 64 39 65 40 66 49 67
REMARK SMILES IDX 41 68 42 69 48 70 50 71 43 72 44 73 45 74 46 75 47 76 73 77
REMARK SMILES IDX 74 78 83 79 75 80 76 81 82 82 84 83 77 84 78 85 79 86 80 87
REMARK SMILES IDX 81 88 57 89 58 90 67 91 59 92 60 93 66 94 68 95 61 96 62 97
REMARK SMILES IDX 63 98 64 99 65 100
REMARK H PARENT 20 7 7 16 27 31 89 50 55 61
REMARK Flexibility Score: inf
ROOT
ATOM      1  C   UNL     1      -5.232   4.342   0.244  1.00  0.00     0.002 C 
ENDROOT
BRANCH   1   2
ATOM      2  C   UNL     1      -3.736   4.016   0.274  1.00  0.00     0.021 C 
BRANCH   2   3
ATOM      3  C   UNL     1      -3.349   3.156   1.470  1.00  0.00     0.116 C 
BRANCH   3   4
ATOM      4  N   UNL     1      -3.768   1.789   1.262  1.00  0.00    -0.356 N 
ATOM      5  C   UNL     1      -3.025   0.665   1.114  1.00  0.00     0.224 C 
ATOM      6  O   UNL     1      -3.615  -0.382   0.836  1.00  0.00    -0.275 OA
ATOM      7  H   UNL     1      -4.742   1.653   1.222  1.00  0.00     0.163 HD
BRANCH   5   8
ATOM      8  C   UNL     1      -1.508   0.680   1.266  1.00  0.00     0.098 C 
BRANCH   8   9
ATOM      9  C   UNL     1      -0.970   1.160   2.631  1.00  0.00     0.018 C 
BRANCH   9  10
ATOM     10  C   UNL     1      -1.860   0.827   3.850  1.00  0.00    -0.017 C 
ATOM     11  C   UNL     1      -1.997  -0.676   4.089  1.00  0.00     0.007 C 
ATOM     12  C   UNL     1      -1.316   1.511   5.106  1.00  0.00     0.007 C 
ENDBRANCH   9  10
ENDBRANCH   8   9
BRANCH   8  13
ATOM     13  C   UNL     1      -0.856   1.285   0.005  1.00  0.00     0.129 C 
BRANCH  13  14
ATOM     14  N   UNL     1      -0.196   2.577   0.161  1.00  0.00    -0.351 N 
ATOM     15  C   UNL     1       1.112   2.928  -0.049  1.00  0.00     0.252 C 
ATOM     16  H   UNL     1      -0.780   3.310   0.463  1.00  0.00     0.163 HD
ATOM     17  O   UNL     1       1.487   4.077   0.161  1.00  0.00    -0.269 OA
BRANCH  15  18
ATOM     18  C   UNL     1       2.049   1.931  -0.585  1.00  0.00     0.056 A 
ATOM     19  C   UNL     1       1.793   1.427  -1.867  1.00  0.00     0.054 A 
ATOM     20  C   UNL     1       3.167   1.499   0.137  1.00  0.00     0.030 A 
ATOM     21  C   UNL     1       2.623   0.447  -2.389  1.00  0.00     0.124 A 
ATOM     22  C   UNL     1       4.008   0.526  -0.417  1.00  0.00     0.019 A 
ATOM     23  Br  UNL     1       3.579   2.131   1.877  1.00  0.00    -0.050 Br
ATOM     24  F   UNL     1       2.348  -0.078  -3.589  1.00  0.00    -0.207 F 
ATOM     25  C   UNL     1       3.726  -0.010  -1.676  1.00  0.00     0.040 A 
ENDBRANCH  15  18
ENDBRANCH  13  14
ENDBRANCH   8  13
ENDBRANCH   5   8
ENDBRANCH   3   4
ENDBRANCH   2   3
ENDBRANCH   1   2
BRANCH   1  26
ATOM     26  C   UNL     1      -5.738   5.082   1.488  1.00  0.00     0.002 C 
BRANCH  26  27
ATOM     27  C   UNL     1      -4.970   6.364   1.822  1.00  0.00     0.021 C 
BRANCH  27  28
ATOM     28  C   UNL     1      -4.974   7.396   0.701  1.00  0.00     0.116 C 
BRANCH  28  29
ATOM     29  N   UNL     1      -6.327   7.821   0.376  1.00  0.00    -0.352 N 
ATOM     30  C   UNL     1      -6.855   9.086   0.365  1.00  0.00     0.251 C 
ATOM     31  H   UNL     1      -6.950   7.099   0.131  1.00  0.00     0.163 HD
ATOM     32  O   UNL     1      -8.070   9.245   0.316  1.00  0.00    -0.269 OA
BRANCH  30  33
ATOM     33  C   UNL     1      -5.947  10.249   0.422  1.00  0.00     0.039 A 
ATOM     34  C   UNL     1      -6.258  11.311   1.272  1.00  0.00     0.014 A 
ATOM     35  C   UNL     1      -4.793  10.288  -0.368  1.00  0.00     0.014 A 
ATOM     36  C   UNL     1      -5.382  12.394   1.368  1.00  0.00     0.010 A 
ATOM     37  C   UNL     1      -3.886  11.331  -0.214  1.00  0.00     0.010 A 
ATOM     38  C   UNL     1      -4.175  12.398   0.648  1.00  0.00    -0.014 A 
BRANCH  38  39
ATOM     39  C   UNL     1      -3.206  13.515   0.781  1.00  0.00     0.031 A 
ATOM     40  C   UNL     1      -2.882  14.377  -0.409  1.00  0.00     0.074 A 
ATOM     41  C   UNL     1      -2.582  13.716   1.958  1.00  0.00     0.049 A 
ATOM     42  N   UNL     1      -2.018  15.352  -0.510  1.00  0.00    -0.248 NA
ATOM     43  C   UNL     1      -3.607  14.088  -1.659  1.00  0.00     0.031 C 
ATOM     44  C   UNL     1      -2.780  12.915   3.170  1.00  0.00     0.029 A 
ATOM     45  N   UNL     1      -1.645  14.648   2.329  1.00  0.00    -0.354 N 
ATOM     46  C   UNL     1      -2.090  15.789  -1.828  1.00  0.00     0.074 A 
ATOM     47  C   UNL     1      -3.039  14.935  -2.505  1.00  0.00     0.031 C 
ATOM     48  C   UNL     1      -2.005  13.403   4.152  1.00  0.00     0.029 A 
ATOM     49  C   UNL     1      -1.224  14.521   3.633  1.00  0.00     0.049 A 
ATOM     50  H   UNL     1      -1.306  15.342   1.719  1.00  0.00     0.167 HD
ATOM     51  C   UNL     1      -1.443  16.825  -2.412  1.00  0.00     0.037 A 
ATOM     52  C   UNL     1      -0.304  15.219   4.326  1.00  0.00     0.037 A 
ATOM     53  C   UNL     1      -0.514  17.684  -1.723  1.00  0.00     0.049 A 
ATOM     54  C   UNL     1       0.412  16.356   3.647  1.00  0.00     0.074 A 
ATOM     55  C   UNL     1       0.159  18.789  -2.213  1.00  0.00     0.029 A 
ATOM     56  N   UNL     1      -0.129  17.536  -0.399  1.00  0.00    -0.354 N 
ATOM     57  N   UNL     1       0.285  16.794   2.417  1.00  0.00    -0.248 NA
ATOM     58  C   UNL     1       1.391  17.100   4.452  1.00  0.00     0.031 C 
ATOM     59  C   UNL     1       0.988  19.281  -1.200  1.00  0.00     0.029 A 
ATOM     60  C   UNL     1       0.788  18.518  -0.061  1.00  0.00     0.049 A 
ATOM     61  H   UNL     1      -0.458  16.836   0.210  1.00  0.00     0.167 HD
ATOM     62  C   UNL     1       1.145  17.883   2.310  1.00  0.00     0.074 A 
ATOM     63  C   UNL     1       1.773  18.046   3.605  1.00  0.00     0.031 C 
ATOM     64  C   UNL     1       1.393  18.675   1.238  1.00  0.00     0.037 A 
BRANCH  51  65
ATOM     65  C   UNL     1      -1.724  17.102  -3.864  1.00  0.00     0.058 A 
ATOM     66  C   UNL     1      -2.959  17.619  -4.287  1.00  0.00     0.135 A 
ATOM     67  C   UNL     1      -0.728  16.910  -4.835  1.00  0.00     0.135 A 
ATOM     68  F   UNL     1      -3.953  17.805  -3.404  1.00  0.00    -0.206 F 
ATOM     69  C   UNL     1      -3.203  17.920  -5.623  1.00  0.00     0.059 A 
ATOM     70  C   UNL     1      -0.941  17.232  -6.173  1.00  0.00     0.059 A 
ATOM     71  F   UNL     1       0.470  16.416  -4.487  1.00  0.00    -0.206 F 
ATOM     72  C   UNL     1      -2.185  17.729  -6.558  1.00  0.00     0.060 A 
BRANCH  72  73
ATOM     73  S   UNL     1      -2.510  18.157  -8.281  1.00  0.00     0.124 S 
ATOM     74  O   UNL     1      -3.439  17.102  -8.674  1.00  0.00    -0.237 OA
ATOM     75  O   UNL     1      -3.083  19.494  -8.166  1.00  0.00    -0.237 OA
ATOM     76  O   UNL     1      -1.191  18.095  -8.903  1.00  0.00    -0.744 OA
ENDBRANCH  72  73
ENDBRANCH  51  65
BRANCH  52  77
ATOM     77  C   UNL     1      -0.009  14.871   5.743  1.00  0.00     0.058 A 
ATOM     78  C   UNL     1      -0.344  15.743   6.789  1.00  0.00     0.135 A 
ATOM     79  C   UNL     1       0.630  13.666   6.079  1.00  0.00     0.135 A 
ATOM     80  F   UNL     1      -0.953  16.908   6.521  1.00  0.00    -0.206 F 
ATOM     81  C   UNL     1      -0.029  15.452   8.112  1.00  0.00     0.059 A 
ATOM     82  C   UNL     1       0.929  13.338   7.397  1.00  0.00     0.059 A 
ATOM     83  F   UNL     1       0.956  12.787   5.119  1.00  0.00    -0.206 F 
ATOM     84  C   UNL     1       0.611  14.246   8.406  1.00  0.00     0.060 A 
BRANCH  84  85
ATOM     85  S   UNL     1       1.001  13.870  10.128  1.00  0.00     0.124 S 
ATOM     86  O   UNL     1       2.107  14.784  10.385  1.00  0.00    -0.237 OA
ATOM     87  O   UNL     1      -0.256  14.181  10.803  1.00  0.00    -0.237 OA
ATOM     88  O   UNL     1       1.348  12.452  10.091  1.00  0.00    -0.744 OA
ENDBRANCH  84  85
ENDBRANCH  52  77
BRANCH  64  89
ATOM     89  C   UNL     1       2.351  19.819   1.428  1.00  0.00     0.058 A 
ATOM     90  C   UNL     1       3.731  19.612   1.576  1.00  0.00     0.135 A 
ATOM     91  C   UNL     1       1.886  21.144   1.406  1.00  0.00     0.135 A 
ATOM     92  F   UNL     1       4.228  18.365   1.609  1.00  0.00    -0.206 F 
ATOM     93  C   UNL     1       4.614  20.677   1.723  1.00  0.00     0.059 A 
ATOM     94  C   UNL     1       2.753  22.225   1.520  1.00  0.00     0.059 A 
ATOM     95  F   UNL     1       0.576  21.399   1.256  1.00  0.00    -0.206 F 
ATOM     96  C   UNL     1       4.115  21.981   1.690  1.00  0.00     0.060 A 
BRANCH  96  97
ATOM     97  S   UNL     1       5.276  23.355   1.847  1.00  0.00     0.124 S 
ATOM     98  O   UNL     1       5.630  23.281   3.260  1.00  0.00    -0.237 OA
ATOM     99  O   UNL     1       6.330  22.980   0.909  1.00  0.00    -0.237 OA
ATOM    100  O   UNL     1       4.483  24.517   1.458  1.00  0.00    -0.744 OA
ENDBRANCH  96  97
ENDBRANCH  64  89
ENDBRANCH  38  39
ENDBRANCH  30  33
ENDBRANCH  28  29
ENDBRANCH  27  28
ENDBRANCH  26  27
ENDBRANCH   1  26
TORSDOF 21
