REMARK SMILES C[C@@H](C(=O)NCCCCCCNC(=O)c1ccc(-c2c3nc(c(-c4c(F)cc(S(=O)(=O)[O-])cc4F)c4ccc([nH]4)c(-c4c(F)cc(S(=O)(=O)[O-])cc4F)c4nc(c(-c5c(F)cc(S(=O)(=O)[O-])cc5F)c5ccc2[nH]5)C=C4)C=C3)cc1)c1ccc(C[C@H]2CCC[C@@H]2O)cc1Br
REMARK SMILES IDX 8 1 7 2 6 3 5 4 3 5 4 6 2 8 1 9 81 10 82 11 93 12 83 13
REMARK SMILES IDX 92 14 94 15 84 16 85 17 86 18 87 19 90 20 88 21 89 22 91 23
REMARK SMILES IDX 9 25 10 26 11 27 12 28 13 29 14 31 15 32 16 33 80 34 17 35
REMARK SMILES IDX 79 36 18 37 19 38 20 39 73 40 21 41 78 42 72 43 74 44 22 45
REMARK SMILES IDX 77 46 71 47 70 48 23 50 57 51 36 52 56 53 37 54 40 55 55 56
REMARK SMILES IDX 75 57 38 58 39 59 54 61 76 62 41 63 24 64 25 65 34 66 26 67
REMARK SMILES IDX 27 68 33 69 35 70 28 71 29 72 30 73 31 74 32 75 58 76 59 77
REMARK SMILES IDX 68 78 60 79 61 80 67 81 69 82 62 83 63 84 64 85 65 86 66 87
REMARK SMILES IDX 42 88 43 89 52 90 44 91 45 92 51 93 53 94 46 95 47 96 48 97
REMARK SMILES IDX 49 98 50 99
REMARK H PARENT 5 7 91 24 12 30 74 49 40 60
REMARK Flexibility Score: inf
ROOT
ATOM      1  C   UNL     1       5.043  -1.786  -2.085  1.00  0.00     0.002 C 
ENDROOT
BRANCH   1   2
ATOM      2  C   UNL     1       4.314  -0.820  -1.139  1.00  0.00     0.021 C 
BRANCH   2   3
ATOM      3  C   UNL     1       3.530   0.276  -1.863  1.00  0.00     0.116 C 
BRANCH   3   4
ATOM      4  N   UNL     1       2.487  -0.305  -2.678  1.00  0.00    -0.356 N 
ATOM      5  C   UNL     1       1.146  -0.406  -2.469  1.00  0.00     0.227 C 
ATOM      6  O   UNL     1       0.505  -0.999  -3.340  1.00  0.00    -0.274 OA
ATOM      7  H   UNL     1       2.799  -0.692  -3.528  1.00  0.00     0.163 HD
BRANCH   5   8
ATOM      8  C   UNL     1       0.491   0.301  -1.273  1.00  0.00     0.106 C 
ATOM      9  C   UNL     1       0.949  -0.131   0.126  1.00  0.00     0.023 C 
BRANCH   8  10
ATOM     10  C   UNL     1      -1.035   0.288  -1.362  1.00  0.00    -0.022 A 
ATOM     11  C   UNL     1      -1.673   1.514  -1.633  1.00  0.00     0.006 A 
ATOM     12  C   UNL     1      -1.845  -0.848  -1.179  1.00  0.00     0.022 A 
ATOM     13  C   UNL     1      -3.063   1.622  -1.634  1.00  0.00     0.004 A 
ATOM     14  C   UNL     1      -3.239  -0.725  -1.152  1.00  0.00     0.019 A 
ATOM     15  Br  UNL     1      -1.176  -2.614  -0.947  1.00  0.00    -0.051 Br
ATOM     16  C   UNL     1      -3.856   0.518  -1.326  1.00  0.00    -0.047 A 
BRANCH  16  17
ATOM     17  C   UNL     1      -5.343   0.662  -1.122  1.00  0.00     0.041 C 
BRANCH  17  18
ATOM     18  C   UNL     1      -5.759   1.211   0.256  1.00  0.00     0.022 C 
ATOM     19  C   UNL     1      -5.225   0.453   1.486  1.00  0.00     0.007 C 
ATOM     20  C   UNL     1      -5.380   2.670   0.523  1.00  0.00     0.117 C 
ATOM     21  C   UNL     1      -4.969   1.516   2.560  1.00  0.00     0.003 C 
ATOM     22  C   UNL     1      -5.584   2.799   2.024  1.00  0.00     0.032 C 
BRANCH  20  23
ATOM     23  O   UNL     1      -6.212   3.555  -0.201  1.00  0.00    -0.393 OA
ATOM     24  H   UNL     1      -7.140   3.388   0.029  1.00  0.00     0.210 HD
ENDBRANCH  20  23
ENDBRANCH  17  18
ENDBRANCH  16  17
ENDBRANCH   8  10
ENDBRANCH   5   8
ENDBRANCH   3   4
ENDBRANCH   2   3
ENDBRANCH   1   2
BRANCH   1  25
ATOM     25  C   UNL     1       5.975  -1.117  -3.100  1.00  0.00     0.002 C 
BRANCH  25  26
ATOM     26  C   UNL     1       7.024  -0.183  -2.492  1.00  0.00     0.021 C 
BRANCH  26  27
ATOM     27  C   UNL     1       7.961  -0.853  -1.495  1.00  0.00     0.116 C 
BRANCH  27  28
ATOM     28  N   UNL     1       8.777  -1.877  -2.124  1.00  0.00    -0.352 N 
ATOM     29  C   UNL     1      10.131  -2.070  -2.042  1.00  0.00     0.251 C 
ATOM     30  H   UNL     1       8.290  -2.521  -2.687  1.00  0.00     0.163 HD
ATOM     31  O   UNL     1      10.681  -2.864  -2.806  1.00  0.00    -0.269 OA
BRANCH  29  32
ATOM     32  C   UNL     1      10.930  -1.320  -1.050  1.00  0.00     0.039 A 
ATOM     33  C   UNL     1      12.174  -0.812  -1.430  1.00  0.00     0.014 A 
ATOM     34  C   UNL     1      10.473  -1.146   0.261  1.00  0.00     0.014 A 
ATOM     35  C   UNL     1      12.948  -0.109  -0.505  1.00  0.00     0.010 A 
ATOM     36  C   UNL     1      11.210  -0.380   1.159  1.00  0.00     0.010 A 
ATOM     37  C   UNL     1      12.467   0.124   0.794  1.00  0.00    -0.014 A 
BRANCH  37  38
ATOM     38  C   UNL     1      13.291   0.846   1.796  1.00  0.00     0.031 A 
ATOM     39  C   UNL     1      13.779   0.126   3.026  1.00  0.00     0.074 A 
ATOM     40  C   UNL     1      13.568   2.153   1.621  1.00  0.00     0.049 A 
ATOM     41  N   UNL     1      14.486   0.584   4.027  1.00  0.00    -0.248 NA
ATOM     42  C   UNL     1      13.397  -1.289   3.163  1.00  0.00     0.031 C 
ATOM     43  C   UNL     1      13.111   2.971   0.495  1.00  0.00     0.029 A 
ATOM     44  N   UNL     1      14.300   3.023   2.388  1.00  0.00    -0.354 N 
ATOM     45  C   UNL     1      14.614  -0.476   4.918  1.00  0.00     0.074 A 
ATOM     46  C   UNL     1      13.867  -1.584   4.366  1.00  0.00     0.031 C 
ATOM     47  C   UNL     1      13.600   4.215   0.630  1.00  0.00     0.029 A 
ATOM     48  C   UNL     1      14.378   4.292   1.863  1.00  0.00     0.049 A 
ATOM     49  H   UNL     1      14.730   2.764   3.235  1.00  0.00     0.167 HD
ATOM     50  C   UNL     1      15.312  -0.529   6.077  1.00  0.00     0.037 A 
ATOM     51  C   UNL     1      15.011   5.389   2.321  1.00  0.00     0.037 A 
ATOM     52  C   UNL     1      16.088   0.565   6.599  1.00  0.00     0.049 A 
ATOM     53  C   UNL     1      15.803   5.297   3.598  1.00  0.00     0.074 A 
ATOM     54  C   UNL     1      16.887   0.594   7.728  1.00  0.00     0.029 A 
ATOM     55  N   UNL     1      16.165   1.825   6.023  1.00  0.00    -0.354 N 
ATOM     56  N   UNL     1      15.969   4.267   4.394  1.00  0.00    -0.248 NA
ATOM     57  C   UNL     1      16.505   6.512   4.031  1.00  0.00     0.031 C 
ATOM     58  C   UNL     1      17.415   1.883   7.858  1.00  0.00     0.029 A 
ATOM     59  C   UNL     1      16.985   2.643   6.782  1.00  0.00     0.049 A 
ATOM     60  H   UNL     1      15.704   2.098   5.197  1.00  0.00     0.167 HD
ATOM     61  C   UNL     1      16.823   4.700   5.402  1.00  0.00     0.074 A 
ATOM     62  C   UNL     1      17.144   6.082   5.111  1.00  0.00     0.031 C 
ATOM     63  C   UNL     1      17.304   4.014   6.469  1.00  0.00     0.037 A 
BRANCH  50  64
ATOM     64  C   UNL     1      15.269  -1.815   6.859  1.00  0.00     0.058 A 
ATOM     65  C   UNL     1      15.900  -2.982   6.399  1.00  0.00     0.135 A 
ATOM     66  C   UNL     1      14.608  -1.875   8.096  1.00  0.00     0.135 A 
ATOM     67  F   UNL     1      16.534  -2.987   5.215  1.00  0.00    -0.206 F 
ATOM     68  C   UNL     1      15.846  -4.171   7.119  1.00  0.00     0.059 A 
ATOM     69  C   UNL     1      14.567  -3.045   8.848  1.00  0.00     0.059 A 
ATOM     70  F   UNL     1      13.988  -0.789   8.585  1.00  0.00    -0.206 F 
ATOM     71  C   UNL     1      15.175  -4.194   8.342  1.00  0.00     0.060 A 
BRANCH  71  72
ATOM     72  S   UNL     1      15.111  -5.744   9.264  1.00  0.00     0.124 S 
ATOM     73  O   UNL     1      14.142  -6.507   8.483  1.00  0.00    -0.237 OA
ATOM     74  O   UNL     1      16.492  -6.210   9.190  1.00  0.00    -0.237 OA
ATOM     75  O   UNL     1      14.662  -5.332  10.591  1.00  0.00    -0.744 OA
ENDBRANCH  71  72
ENDBRANCH  50  64
BRANCH  51  76
ATOM     76  C   UNL     1      14.962   6.655   1.544  1.00  0.00     0.058 A 
ATOM     77  C   UNL     1      16.098   7.132   0.873  1.00  0.00     0.135 A 
ATOM     78  C   UNL     1      13.782   7.409   1.446  1.00  0.00     0.135 A 
ATOM     79  F   UNL     1      17.251   6.449   0.940  1.00  0.00    -0.206 F 
ATOM     80  C   UNL     1      16.074   8.319   0.149  1.00  0.00     0.059 A 
ATOM     81  C   UNL     1      13.726   8.587   0.708  1.00  0.00     0.059 A 
ATOM     82  F   UNL     1      12.662   6.987   2.054  1.00  0.00    -0.206 F 
ATOM     83  C   UNL     1      14.882   9.040   0.072  1.00  0.00     0.060 A 
BRANCH  83  84
ATOM     84  S   UNL     1      14.849  10.558  -0.906  1.00  0.00     0.124 S 
ATOM     85  O   UNL     1      15.589  11.476  -0.049  1.00  0.00    -0.237 OA
ATOM     86  O   UNL     1      15.522  10.146  -2.134  1.00  0.00    -0.237 OA
ATOM     87  O   UNL     1      13.422  10.835  -1.046  1.00  0.00    -0.744 OA
ENDBRANCH  83  84
ENDBRANCH  51  76
BRANCH  63  88
ATOM     88  C   UNL     1      18.267   4.731   7.374  1.00  0.00     0.058 A 
ATOM     89  C   UNL     1      17.849   5.748   8.247  1.00  0.00     0.135 A 
ATOM     90  C   UNL     1      19.623   4.367   7.393  1.00  0.00     0.135 A 
ATOM     91  F   UNL     1      16.564   6.136   8.265  1.00  0.00    -0.206 F 
ATOM     92  C   UNL     1      18.748   6.401   9.084  1.00  0.00     0.059 A 
ATOM     93  C   UNL     1      20.534   4.987   8.242  1.00  0.00     0.059 A 
ATOM     94  F   UNL     1      20.073   3.392   6.587  1.00  0.00    -0.206 F 
ATOM     95  C   UNL     1      20.089   6.014   9.073  1.00  0.00     0.060 A 
BRANCH  95  96
ATOM     96  S   UNL     1      21.244   6.856  10.176  1.00  0.00     0.124 S 
ATOM     97  O   UNL     1      21.427   8.131   9.491  1.00  0.00    -0.237 OA
ATOM     98  O   UNL     1      20.497   6.910  11.429  1.00  0.00    -0.237 OA
ATOM     99  O   UNL     1      22.408   5.974  10.185  1.00  0.00    -0.744 OA
ENDBRANCH  95  96
ENDBRANCH  63  88
ENDBRANCH  37  38
ENDBRANCH  29  32
ENDBRANCH  27  28
ENDBRANCH  26  27
ENDBRANCH  25  26
ENDBRANCH   1  25
TORSDOF 20
