REMARK SMILES COCC[C@H]1CCC[C@@]1([NH3+])C(=O)NCCCCCCNC(=O)c1ccc(-c2c3nc(c(-c4c(F)cc(S(=O)(=O)[O-])cc4F)c4ccc([nH]4)c(-c4c(F)cc(S(=O)(=O)[O-])cc4F)c4nc(c(-c5c(F)cc(S(=O)(=O)[O-])cc5F)c5ccc2[nH]5)C=C4)C=C3)cc1
REMARK SMILES IDX 16 1 15 2 14 3 13 4 11 5 12 6 9 8 5 9 6 10 7 11 8 12 4 13
REMARK SMILES IDX 3 14 2 15 1 16 10 17 17 21 18 22 19 23 20 24 21 25 22 27
REMARK SMILES IDX 23 28 24 29 88 30 25 31 87 32 26 33 27 34 28 35 81 36 29 37
REMARK SMILES IDX 86 38 80 39 82 40 30 41 85 42 79 43 78 44 31 46 65 47 44 48
REMARK SMILES IDX 64 49 45 50 48 51 63 52 83 53 46 54 47 55 62 57 84 58 49 59
REMARK SMILES IDX 32 60 33 61 42 62 34 63 35 64 41 65 43 66 36 67 37 68 38 69
REMARK SMILES IDX 39 70 40 71 66 72 67 73 76 74 68 75 69 76 75 77 77 78 70 79
REMARK SMILES IDX 71 80 72 81 73 82 74 83 50 84 51 85 60 86 52 87 53 88 59 89
REMARK SMILES IDX 61 90 54 91 55 92 56 93 57 94 58 95
REMARK H PARENT 13 7 10 18 10 19 10 20 20 26 82 45 48 56
REMARK Flexibility Score: inf
ROOT
ATOM      1  C   UNL     1       1.899   6.710  -6.266  1.00  0.00     0.002 C 
ENDROOT
BRANCH   1   2
ATOM      2  C   UNL     1       1.001   6.499  -5.047  1.00  0.00     0.021 C 
BRANCH   2   3
ATOM      3  C   UNL     1       0.642   5.049  -4.749  1.00  0.00     0.116 C 
BRANCH   3   4
ATOM      4  N   UNL     1       1.789   4.256  -4.351  1.00  0.00    -0.351 N 
ATOM      5  C   UNL     1       1.891   3.227  -3.451  1.00  0.00     0.281 C 
ATOM      6  O   UNL     1       3.001   2.705  -3.338  1.00  0.00    -0.268 OA
ATOM      7  H   UNL     1       2.631   4.495  -4.800  1.00  0.00     0.163 HD
BRANCH   5   8
ATOM      8  C   UNL     1       0.663   2.799  -2.599  1.00  0.00     0.176 C 
ATOM      9  C   UNL     1       0.768   1.484  -1.770  1.00  0.00     0.063 C 
ATOM     10  C   UNL     1      -0.380   1.655  -0.754  1.00  0.00     0.011 C 
ATOM     11  C   UNL     1      -0.478   3.151  -0.460  1.00  0.00     0.008 C 
ATOM     12  C   UNL     1       0.349   3.857  -1.529  1.00  0.00     0.079 C 
BRANCH   9  13
ATOM     13  C   UNL     1       2.090   1.034  -1.101  1.00  0.00     0.039 C 
BRANCH  13  14
ATOM     14  C   UNL     1       2.747   1.920  -0.043  1.00  0.00     0.160 C 
BRANCH  14  15
ATOM     15  O   UNL     1       2.944   1.238   1.204  1.00  0.00    -0.385 OA
ATOM     16  C   UNL     1       1.746   1.046   1.945  1.00  0.00     0.194 C 
ENDBRANCH  14  15
ENDBRANCH  13  14
ENDBRANCH   9  13
BRANCH   8  17
ATOM     17  N   UNL     1      -0.524   2.579  -3.477  1.00  0.00    -0.345 N 
ATOM     18  H   UNL     1      -1.322   2.299  -2.906  1.00  0.00     0.345 HD
ATOM     19  H   UNL     1      -0.315   1.845  -4.153  1.00  0.00     0.345 HD
ATOM     20  H   UNL     1      -0.746   3.443  -3.971  1.00  0.00     0.345 HD
ENDBRANCH   8  17
ENDBRANCH   5   8
ENDBRANCH   3   4
ENDBRANCH   2   3
ENDBRANCH   1   2
BRANCH   1  21
ATOM     21  C   UNL     1       1.397   6.091  -7.574  1.00  0.00     0.002 C 
BRANCH  21  22
ATOM     22  C   UNL     1      -0.032   6.459  -7.980  1.00  0.00     0.021 C 
BRANCH  22  23
ATOM     23  C   UNL     1      -0.335   7.952  -8.028  1.00  0.00     0.116 C 
BRANCH  23  24
ATOM     24  N   UNL     1       0.521   8.666  -8.960  1.00  0.00    -0.352 N 
ATOM     25  C   UNL     1       0.176   9.563  -9.938  1.00  0.00     0.251 C 
ATOM     26  H   UNL     1       1.484   8.479  -8.878  1.00  0.00     0.163 HD
ATOM     27  O   UNL     1       1.025   9.954 -10.738  1.00  0.00    -0.269 OA
BRANCH  25  28
ATOM     28  C   UNL     1      -1.220  10.037 -10.046  1.00  0.00     0.039 A 
ATOM     29  C   UNL     1      -1.825  10.070 -11.304  1.00  0.00     0.014 A 
ATOM     30  C   UNL     1      -1.932  10.444  -8.913  1.00  0.00     0.014 A 
ATOM     31  C   UNL     1      -3.162  10.458 -11.420  1.00  0.00     0.010 A 
ATOM     32  C   UNL     1      -3.284  10.761  -9.021  1.00  0.00     0.010 A 
ATOM     33  C   UNL     1      -3.911  10.776 -10.275  1.00  0.00    -0.014 A 
BRANCH  33  34
ATOM     34  C   UNL     1      -5.353  11.122 -10.374  1.00  0.00     0.031 A 
ATOM     35  C   UNL     1      -5.833  12.491  -9.975  1.00  0.00     0.074 A 
ATOM     36  C   UNL     1      -6.237  10.181 -10.758  1.00  0.00     0.049 A 
ATOM     37  N   UNL     1      -7.054  12.958  -9.936  1.00  0.00    -0.248 NA
ATOM     38  C   UNL     1      -4.809  13.451  -9.534  1.00  0.00     0.031 C 
ATOM     39  C   UNL     1      -5.901   8.800 -11.111  1.00  0.00     0.029 A 
ATOM     40  N   UNL     1      -7.601  10.236 -10.899  1.00  0.00    -0.354 N 
ATOM     41  C   UNL     1      -6.949  14.256  -9.448  1.00  0.00     0.074 A 
ATOM     42  C   UNL     1      -5.550  14.485  -9.160  1.00  0.00     0.031 C 
ATOM     43  C   UNL     1      -7.025   8.143 -11.439  1.00  0.00     0.029 A 
ATOM     44  C   UNL     1      -8.165   9.043 -11.287  1.00  0.00     0.049 A 
ATOM     45  H   UNL     1      -8.127  11.053 -10.738  1.00  0.00     0.167 HD
ATOM     46  C   UNL     1      -7.926  15.178  -9.275  1.00  0.00     0.037 A 
ATOM     47  C   UNL     1      -9.454   8.706 -11.488  1.00  0.00     0.037 A 
ATOM     48  C   UNL     1      -9.313  14.950  -9.591  1.00  0.00     0.049 A 
ATOM     49  C   UNL     1     -10.521   9.752 -11.313  1.00  0.00     0.074 A 
ATOM     50  C   UNL     1     -10.367  15.844  -9.530  1.00  0.00     0.029 A 
ATOM     51  N   UNL     1      -9.840  13.740 -10.019  1.00  0.00    -0.354 N 
ATOM     52  N   UNL     1     -10.393  11.002 -10.933  1.00  0.00    -0.248 NA
ATOM     53  C   UNL     1     -11.903   9.350 -11.605  1.00  0.00     0.031 C 
ATOM     54  C   UNL     1     -11.539  15.162  -9.872  1.00  0.00     0.029 A 
ATOM     55  C   UNL     1     -11.209  13.856 -10.200  1.00  0.00     0.049 A 
ATOM     56  H   UNL     1      -9.318  12.919 -10.173  1.00  0.00     0.167 HD
ATOM     57  C   UNL     1     -11.675  11.540 -10.960  1.00  0.00     0.074 A 
ATOM     58  C   UNL     1     -12.561  10.484 -11.407  1.00  0.00     0.031 C 
ATOM     59  C   UNL     1     -12.080  12.795 -10.644  1.00  0.00     0.037 A 
BRANCH  46  60
ATOM     60  C   UNL     1      -7.531  16.516  -8.712  1.00  0.00     0.058 A 
ATOM     61  C   UNL     1      -6.759  17.431  -9.446  1.00  0.00     0.135 A 
ATOM     62  C   UNL     1      -7.951  16.900  -7.427  1.00  0.00     0.135 A 
ATOM     63  F   UNL     1      -6.318  17.113 -10.674  1.00  0.00    -0.206 F 
ATOM     64  C   UNL     1      -6.385  18.661  -8.913  1.00  0.00     0.059 A 
ATOM     65  C   UNL     1      -7.615  18.138  -6.886  1.00  0.00     0.059 A 
ATOM     66  F   UNL     1      -8.693  16.066  -6.681  1.00  0.00    -0.206 F 
ATOM     67  C   UNL     1      -6.815  19.004  -7.630  1.00  0.00     0.060 A 
BRANCH  67  68
ATOM     68  S   UNL     1      -6.313  20.598  -6.949  1.00  0.00     0.124 S 
ATOM     69  O   UNL     1      -4.903  20.358  -6.656  1.00  0.00    -0.237 OA
ATOM     70  O   UNL     1      -6.583  21.510  -8.056  1.00  0.00    -0.237 OA
ATOM     71  O   UNL     1      -7.177  20.758  -5.784  1.00  0.00    -0.744 OA
ENDBRANCH  67  68
ENDBRANCH  46  60
BRANCH  47  72
ATOM     72  C   UNL     1      -9.796   7.316 -11.891  1.00  0.00     0.058 A 
ATOM     73  C   UNL     1     -10.231   7.025 -13.192  1.00  0.00     0.135 A 
ATOM     74  C   UNL     1      -9.655   6.246 -10.993  1.00  0.00     0.135 A 
ATOM     75  F   UNL     1     -10.388   8.014 -14.084  1.00  0.00    -0.206 F 
ATOM     76  C   UNL     1     -10.521   5.723 -13.589  1.00  0.00     0.059 A 
ATOM     77  C   UNL     1      -9.914   4.934 -11.374  1.00  0.00     0.059 A 
ATOM     78  F   UNL     1      -9.225   6.471  -9.742  1.00  0.00    -0.206 F 
ATOM     79  C   UNL     1     -10.352   4.683 -12.673  1.00  0.00     0.060 A 
BRANCH  79  80
ATOM     80  S   UNL     1     -10.660   2.989 -13.219  1.00  0.00     0.124 S 
ATOM     81  O   UNL     1     -12.116   2.967 -13.303  1.00  0.00    -0.237 OA
ATOM     82  O   UNL     1      -9.946   2.943 -14.492  1.00  0.00    -0.237 OA
ATOM     83  O   UNL     1     -10.075   2.181 -12.153  1.00  0.00    -0.744 OA
ENDBRANCH  79  80
ENDBRANCH  47  72
BRANCH  59  84
ATOM     84  C   UNL     1     -13.543  13.110 -10.792  1.00  0.00     0.058 A 
ATOM     85  C   UNL     1     -14.501  12.604  -9.899  1.00  0.00     0.135 A 
ATOM     86  C   UNL     1     -13.985  13.973 -11.808  1.00  0.00     0.135 A 
ATOM     87  F   UNL     1     -14.134  11.770  -8.914  1.00  0.00    -0.206 F 
ATOM     88  C   UNL     1     -15.849  12.926 -10.022  1.00  0.00     0.059 A 
ATOM     89  C   UNL     1     -15.323  14.331 -11.932  1.00  0.00     0.059 A 
ATOM     90  F   UNL     1     -13.108  14.492 -12.682  1.00  0.00    -0.206 F 
ATOM     91  C   UNL     1     -16.250  13.793 -11.041  1.00  0.00     0.060 A 
BRANCH  91  92
ATOM     92  S   UNL     1     -17.997  14.231 -11.167  1.00  0.00     0.124 S 
ATOM     93  O   UNL     1     -18.570  13.001 -11.705  1.00  0.00    -0.237 OA
ATOM     94  O   UNL     1     -18.343  14.539  -9.783  1.00  0.00    -0.237 OA
ATOM     95  O   UNL     1     -17.996  15.373 -12.075  1.00  0.00    -0.744 OA
ENDBRANCH  91  92
ENDBRANCH  59  84
ENDBRANCH  33  34
ENDBRANCH  25  28
ENDBRANCH  23  24
ENDBRANCH  22  23
ENDBRANCH  21  22
ENDBRANCH   1  21
TORSDOF 20
