REMARK SMILES O=C(NCCCCCCNC(=O)C1N=c2ccccc2=N1)c1ccc(-c2c3nc(c(-c4c(F)cc(S(=O)(=O)[O-])cc4F)c4ccc([nH]4)c(-c4c(F)cc(S(=O)(=O)[O-])cc4F)c4nc(c(-c5c(F)cc(S(=O)(=O)[O-])cc5F)c5ccc2[nH]5)C=C4)C=C3)cc1
REMARK SMILES IDX 5 1 4 2 3 3 1 4 2 5 22 7 23 8 87 9 24 10 86 11 25 12 26 13
REMARK SMILES IDX 27 14 80 15 28 16 85 17 79 18 81 19 29 20 84 21 78 22 77 23
REMARK SMILES IDX 30 25 64 26 43 27 63 28 44 29 47 30 62 31 82 32 45 33 46 34
REMARK SMILES IDX 61 36 83 37 48 38 31 39 32 40 41 41 33 42 34 43 40 44 42 45
REMARK SMILES IDX 35 46 36 47 37 48 38 49 39 50 65 51 66 52 75 53 67 54 68 55
REMARK SMILES IDX 74 56 76 57 69 58 70 59 71 60 72 61 73 62 49 63 50 64 59 65
REMARK SMILES IDX 51 66 52 67 58 68 60 69 53 70 54 71 55 72 56 73 57 74 6 75
REMARK SMILES IDX 7 76 8 77 9 78 10 79 11 80 12 82 13 83 14 84 21 85 15 86
REMARK SMILES IDX 20 87 16 88 19 89 17 90 18 91
REMARK H PARENT 3 6 81 24 47 35 10 81
REMARK Flexibility Score: inf
ROOT
ATOM      1  C   UNL     1       4.856  -2.090   1.811  1.00  0.00     0.021 C 
ENDROOT
BRANCH   1   2
ATOM      2  C   UNL     1       4.560  -1.252   0.571  1.00  0.00     0.116 C 
BRANCH   2   3
ATOM      3  N   UNL     1       3.138  -1.112   0.319  1.00  0.00    -0.352 N 
ATOM      4  O   UNL     1       1.171  -0.060   0.049  1.00  0.00    -0.269 OA
ATOM      5  C   UNL     1       2.401   0.018   0.077  1.00  0.00     0.251 C 
ATOM      6  H   UNL     1       2.627  -1.953   0.322  1.00  0.00     0.163 HD
BRANCH   5   7
ATOM      7  C   UNL     1       3.058   1.328  -0.142  1.00  0.00     0.039 A 
ATOM      8  C   UNL     1       2.464   2.474   0.396  1.00  0.00     0.014 A 
ATOM      9  C   UNL     1       4.207   1.447  -0.931  1.00  0.00     0.014 A 
ATOM     10  C   UNL     1       3.024   3.732   0.156  1.00  0.00     0.010 A 
ATOM     11  C   UNL     1       4.803   2.694  -1.114  1.00  0.00     0.010 A 
ATOM     12  C   UNL     1       4.199   3.852  -0.601  1.00  0.00    -0.014 A 
BRANCH  12  13
ATOM     13  C   UNL     1       4.749   5.182  -0.967  1.00  0.00     0.031 A 
ATOM     14  C   UNL     1       4.728   5.615  -2.410  1.00  0.00     0.074 A 
ATOM     15  C   UNL     1       5.285   5.986  -0.029  1.00  0.00     0.049 A 
ATOM     16  N   UNL     1       5.245   6.680  -2.965  1.00  0.00    -0.248 NA
ATOM     17  C   UNL     1       4.053   4.713  -3.357  1.00  0.00     0.031 C 
ATOM     18  C   UNL     1       5.365   5.684   1.400  1.00  0.00     0.029 A 
ATOM     19  N   UNL     1       5.864   7.225  -0.143  1.00  0.00    -0.354 N 
ATOM     20  C   UNL     1       4.977   6.566  -4.324  1.00  0.00     0.074 A 
ATOM     21  C   UNL     1       4.298   5.303  -4.517  1.00  0.00     0.031 C 
ATOM     22  C   UNL     1       5.936   6.722   2.035  1.00  0.00     0.029 A 
ATOM     23  C   UNL     1       6.296   7.744   1.054  1.00  0.00     0.049 A 
ATOM     24  H   UNL     1       5.961   7.698  -1.001  1.00  0.00     0.167 HD
ATOM     25  C   UNL     1       5.247   7.443  -5.320  1.00  0.00     0.037 A 
ATOM     26  C   UNL     1       6.918   8.908   1.327  1.00  0.00     0.037 A 
ATOM     27  C   UNL     1       5.888   8.715  -5.121  1.00  0.00     0.049 A 
ATOM     28  C   UNL     1       7.232   9.857   0.203  1.00  0.00     0.074 A 
ATOM     29  C   UNL     1       6.177   9.691  -6.059  1.00  0.00     0.029 A 
ATOM     30  N   UNL     1       6.332   9.193  -3.897  1.00  0.00    -0.354 N 
ATOM     31  N   UNL     1       6.974   9.734  -1.077  1.00  0.00    -0.248 NA
ATOM     32  C   UNL     1       7.927  11.102   0.561  1.00  0.00     0.031 C 
ATOM     33  C   UNL     1       6.822  10.747  -5.405  1.00  0.00     0.029 A 
ATOM     34  C   UNL     1       6.904  10.444  -4.055  1.00  0.00     0.049 A 
ATOM     35  H   UNL     1       6.251   8.713  -3.041  1.00  0.00     0.167 HD
ATOM     36  C   UNL     1       7.467  10.887  -1.678  1.00  0.00     0.074 A 
ATOM     37  C   UNL     1       8.022  11.704  -0.617  1.00  0.00     0.031 C 
ATOM     38  C   UNL     1       7.465  11.236  -2.989  1.00  0.00     0.037 A 
BRANCH  25  39
ATOM     39  C   UNL     1       4.839   7.048  -6.713  1.00  0.00     0.058 A 
ATOM     40  C   UNL     1       3.490   7.007  -7.099  1.00  0.00     0.135 A 
ATOM     41  C   UNL     1       5.805   6.704  -7.672  1.00  0.00     0.135 A 
ATOM     42  F   UNL     1       2.525   7.308  -6.215  1.00  0.00    -0.206 F 
ATOM     43  C   UNL     1       3.110   6.601  -8.374  1.00  0.00     0.059 A 
ATOM     44  C   UNL     1       5.449   6.322  -8.962  1.00  0.00     0.059 A 
ATOM     45  F   UNL     1       7.110   6.725  -7.356  1.00  0.00    -0.206 F 
ATOM     46  C   UNL     1       4.097   6.255  -9.297  1.00  0.00     0.060 A 
BRANCH  46  47
ATOM     47  S   UNL     1       3.587   5.711 -10.941  1.00  0.00     0.124 S 
ATOM     48  O   UNL     1       3.072   4.375 -10.658  1.00  0.00    -0.237 OA
ATOM     49  O   UNL     1       2.588   6.711 -11.305  1.00  0.00    -0.237 OA
ATOM     50  O   UNL     1       4.824   5.756 -11.713  1.00  0.00    -0.744 OA
ENDBRANCH  46  47
ENDBRANCH  25  39
BRANCH  26  51
ATOM     51  C   UNL     1       7.259   9.248   2.733  1.00  0.00     0.058 A 
ATOM     52  C   UNL     1       6.530  10.223   3.429  1.00  0.00     0.135 A 
ATOM     53  C   UNL     1       8.285   8.582   3.420  1.00  0.00     0.135 A 
ATOM     54  F   UNL     1       5.548  10.895   2.809  1.00  0.00    -0.206 F 
ATOM     55  C   UNL     1       6.802  10.524   4.760  1.00  0.00     0.059 A 
ATOM     56  C   UNL     1       8.563   8.851   4.757  1.00  0.00     0.059 A 
ATOM     57  F   UNL     1       9.005   7.634   2.800  1.00  0.00    -0.206 F 
ATOM     58  C   UNL     1       7.815   9.825   5.418  1.00  0.00     0.060 A 
BRANCH  58  59
ATOM     59  S   UNL     1       8.101  10.166   7.169  1.00  0.00     0.124 S 
ATOM     60  O   UNL     1       8.710  11.489   7.117  1.00  0.00    -0.237 OA
ATOM     61  O   UNL     1       6.749  10.105   7.716  1.00  0.00    -0.237 OA
ATOM     62  O   UNL     1       8.985   9.079   7.582  1.00  0.00    -0.744 OA
ENDBRANCH  58  59
ENDBRANCH  26  51
BRANCH  38  63
ATOM     63  C   UNL     1       8.086  12.556  -3.350  1.00  0.00     0.058 A 
ATOM     64  C   UNL     1       9.479  12.729  -3.358  1.00  0.00     0.135 A 
ATOM     65  C   UNL     1       7.286  13.642  -3.740  1.00  0.00     0.135 A 
ATOM     66  F   UNL     1      10.287  11.723  -2.988  1.00  0.00    -0.206 F 
ATOM     67  C   UNL     1      10.057  13.941  -3.720  1.00  0.00     0.059 A 
ATOM     68  C   UNL     1       7.844  14.856  -4.128  1.00  0.00     0.059 A 
ATOM     69  F   UNL     1       5.949  13.524  -3.760  1.00  0.00    -0.206 F 
ATOM     70  C   UNL     1       9.231  14.999  -4.104  1.00  0.00     0.060 A 
BRANCH  70  71
ATOM     71  S   UNL     1       9.997  16.558  -4.597  1.00  0.00     0.124 S 
ATOM     72  O   UNL     1      10.429  17.092  -3.309  1.00  0.00    -0.237 OA
ATOM     73  O   UNL     1      11.063  16.114  -5.489  1.00  0.00    -0.237 OA
ATOM     74  O   UNL     1       8.907  17.282  -5.244  1.00  0.00    -0.744 OA
ENDBRANCH  70  71
ENDBRANCH  38  63
ENDBRANCH  12  13
ENDBRANCH   5   7
ENDBRANCH   2   3
ENDBRANCH   1   2
BRANCH   1  75
ATOM     75  C   UNL     1       4.365  -3.539   1.766  1.00  0.00     0.002 C 
BRANCH  75  76
ATOM     76  C   UNL     1       4.806  -4.360   0.552  1.00  0.00     0.002 C 
BRANCH  76  77
ATOM     77  C   UNL     1       6.311  -4.396   0.272  1.00  0.00     0.021 C 
BRANCH  77  78
ATOM     78  C   UNL     1       7.196  -4.875   1.420  1.00  0.00     0.116 C 
BRANCH  78  79
ATOM     79  N   UNL     1       6.872  -6.217   1.859  1.00  0.00    -0.353 N 
ATOM     80  C   UNL     1       7.723  -7.175   2.351  1.00  0.00     0.267 C 
ATOM     81  H   UNL     1       5.924  -6.474   1.797  1.00  0.00     0.163 HD
ATOM     82  O   UNL     1       7.209  -8.215   2.775  1.00  0.00    -0.270 OA
BRANCH  80  83
ATOM     83  C   UNL     1       9.263  -6.942   2.298  1.00  0.00     0.310 C 
ATOM     84  N   UNL     1       9.596  -5.611   2.893  1.00  0.00    -0.246 NA
ATOM     85  N   UNL     1       9.963  -8.026   3.057  1.00  0.00    -0.246 NA
ATOM     86  C   UNL     1      10.332  -5.922   3.898  1.00  0.00     0.086 A 
ATOM     87  C   UNL     1      10.537  -7.380   4.010  1.00  0.00     0.086 A 
ATOM     88  C   UNL     1      10.961  -5.023   4.868  1.00  0.00     0.030 A 
ATOM     89  C   UNL     1      11.336  -7.905   5.121  1.00  0.00     0.030 A 
ATOM     90  C   UNL     1      11.683  -5.584   5.848  1.00  0.00     0.002 A 
ATOM     91  C   UNL     1      11.859  -7.017   5.980  1.00  0.00     0.002 A 
ENDBRANCH  80  83
ENDBRANCH  78  79
ENDBRANCH  77  78
ENDBRANCH  76  77
ENDBRANCH  75  76
ENDBRANCH   1  75
TORSDOF 16
