REMARK SMILES O=C(NCCCCCCNC(=O)[C@H](NC(=O)[C@H]1CC[C@@H](CNC(=O)[C@@H]2Cc3ccccc3C[NH2+]2)CC1)c1ccccc1)c1ccc(-c2c3nc(c(-c4c(F)cc(S(=O)(=O)[O-])cc4F)c4ccc([nH]4)c(-c4c(F)cc(S(=O)(=O)[O-])cc4F)c4nc(c(-c5c(F)cc(S(=O)(=O)[O-])cc5F)c5ccc2[nH]5)C=C4)C=C3)cc1
REMARK SMILES IDX 7 1 6 2 5 3 4 4 3 5 1 6 2 7 43 9 44 10 108 11 45 12 107 13
REMARK SMILES IDX 46 14 47 15 48 16 101 17 49 18 106 19 100 20 102 21 50 22
REMARK SMILES IDX 105 23 99 24 98 25 51 27 85 28 64 29 84 30 65 31 68 32 83 33
REMARK SMILES IDX 103 34 66 35 67 36 82 38 104 39 69 40 52 41 53 42 62 43
REMARK SMILES IDX 54 44 55 45 61 46 63 47 56 48 57 49 58 50 59 51 60 52 86 53
REMARK SMILES IDX 87 54 96 55 88 56 89 57 95 58 97 59 90 60 91 61 92 62 93 63
REMARK SMILES IDX 94 64 70 65 71 66 80 67 72 68 73 69 79 70 81 71 74 72 75 73
REMARK SMILES IDX 76 74 77 75 78 76 8 77 9 78 10 79 11 80 12 82 13 83 37 84
REMARK SMILES IDX 38 85 42 86 39 87 41 88 40 89 14 90 15 91 16 93 17 94 36 95
REMARK SMILES IDX 18 96 35 97 19 98 20 99 21 100 22 101 23 102 24 104 25 105
REMARK SMILES IDX 26 106 34 107 27 108 33 109 28 112 32 113 29 114 31 115
REMARK SMILES IDX 30 116
REMARK H PARENT 3 8 102 26 68 37 10 81 14 92 22 103 34 110 34 111
REMARK Flexibility Score: inf
ROOT
ATOM      1  C   UNL     1      10.384  -9.660   1.588  1.00  0.00     0.002 C 
ENDROOT
BRANCH   1   2
ATOM      2  C   UNL     1       9.160  -9.776   0.681  1.00  0.00     0.002 C 
BRANCH   2   3
ATOM      3  C   UNL     1       8.534  -8.459   0.223  1.00  0.00     0.021 C 
BRANCH   3   4
ATOM      4  C   UNL     1       9.340  -7.622  -0.754  1.00  0.00     0.116 C 
BRANCH   4   5
ATOM      5  N   UNL     1       9.542  -8.280  -2.032  1.00  0.00    -0.352 N 
ATOM      6  O   UNL     1       9.409  -8.812  -4.193  1.00  0.00    -0.269 OA
ATOM      7  C   UNL     1       9.091  -8.022  -3.304  1.00  0.00     0.251 C 
ATOM      8  H   UNL     1      10.120  -9.075  -1.976  1.00  0.00     0.163 HD
BRANCH   7   9
ATOM      9  C   UNL     1       8.236  -6.854  -3.646  1.00  0.00     0.039 A 
ATOM     10  C   UNL     1       8.329  -5.613  -3.014  1.00  0.00     0.014 A 
ATOM     11  C   UNL     1       7.365  -6.985  -4.735  1.00  0.00     0.014 A 
ATOM     12  C   UNL     1       7.481  -4.564  -3.375  1.00  0.00     0.010 A 
ATOM     13  C   UNL     1       6.569  -5.915  -5.155  1.00  0.00     0.010 A 
ATOM     14  C   UNL     1       6.615  -4.699  -4.468  1.00  0.00    -0.014 A 
BRANCH  14  15
ATOM     15  C   UNL     1       5.953  -3.501  -5.031  1.00  0.00     0.031 A 
ATOM     16  C   UNL     1       4.478  -3.277  -4.912  1.00  0.00     0.074 A 
ATOM     17  C   UNL     1       6.733  -2.635  -5.704  1.00  0.00     0.049 A 
ATOM     18  N   UNL     1       3.765  -2.270  -5.345  1.00  0.00    -0.248 NA
ATOM     19  C   UNL     1       3.698  -4.319  -4.229  1.00  0.00     0.031 C 
ATOM     20  C   UNL     1       8.176  -2.801  -5.911  1.00  0.00     0.029 A 
ATOM     21  N   UNL     1       6.438  -1.463  -6.347  1.00  0.00    -0.354 N 
ATOM     22  C   UNL     1       2.451  -2.548  -4.988  1.00  0.00     0.074 A 
ATOM     23  C   UNL     1       2.464  -3.839  -4.329  1.00  0.00     0.031 C 
ATOM     24  C   UNL     1       8.640  -1.769  -6.627  1.00  0.00     0.029 A 
ATOM     25  C   UNL     1       7.525  -0.891  -6.962  1.00  0.00     0.049 A 
ATOM     26  H   UNL     1       5.536  -1.069  -6.366  1.00  0.00     0.167 HD
ATOM     27  C   UNL     1       1.348  -1.786  -5.193  1.00  0.00     0.037 A 
ATOM     28  C   UNL     1       7.616   0.210  -7.728  1.00  0.00     0.037 A 
ATOM     29  C   UNL     1       1.370  -0.515  -5.878  1.00  0.00     0.049 A 
ATOM     30  C   UNL     1       6.383   1.031  -7.950  1.00  0.00     0.074 A 
ATOM     31  C   UNL     1       0.325   0.366  -6.098  1.00  0.00     0.029 A 
ATOM     32  N   UNL     1       2.494   0.048  -6.473  1.00  0.00    -0.354 N 
ATOM     33  N   UNL     1       5.160   0.799  -7.534  1.00  0.00    -0.248 NA
ATOM     34  C   UNL     1       6.537   2.268  -8.722  1.00  0.00     0.031 C 
ATOM     35  C   UNL     1       0.803   1.430  -6.872  1.00  0.00     0.029 A 
ATOM     36  C   UNL     1       2.161   1.248  -7.082  1.00  0.00     0.049 A 
ATOM     37  H   UNL     1       3.395  -0.348  -6.464  1.00  0.00     0.167 HD
ATOM     38  C   UNL     1       4.401   1.876  -7.969  1.00  0.00     0.074 A 
ATOM     39  C   UNL     1       5.306   2.760  -8.681  1.00  0.00     0.031 C 
ATOM     40  C   UNL     1       3.079   2.115  -7.786  1.00  0.00     0.037 A 
BRANCH  27  41
ATOM     41  C   UNL     1       0.025  -2.312  -4.695  1.00  0.00     0.058 A 
ATOM     42  C   UNL     1      -0.260  -2.423  -3.324  1.00  0.00     0.135 A 
ATOM     43  C   UNL     1      -0.986  -2.681  -5.598  1.00  0.00     0.135 A 
ATOM     44  F   UNL     1       0.667  -2.089  -2.411  1.00  0.00    -0.206 F 
ATOM     45  C   UNL     1      -1.478  -2.919  -2.867  1.00  0.00     0.059 A 
ATOM     46  C   UNL     1      -2.223  -3.154  -5.164  1.00  0.00     0.059 A 
ATOM     47  F   UNL     1      -0.777  -2.590  -6.921  1.00  0.00    -0.206 F 
ATOM     48  C   UNL     1      -2.452  -3.289  -3.797  1.00  0.00     0.060 A 
BRANCH  48  49
ATOM     49  S   UNL     1      -4.013  -3.961  -3.185  1.00  0.00     0.124 S 
ATOM     50  O   UNL     1      -3.598  -5.284  -2.727  1.00  0.00    -0.237 OA
ATOM     51  O   UNL     1      -4.377  -3.015  -2.142  1.00  0.00    -0.237 OA
ATOM     52  O   UNL     1      -4.874  -3.951  -4.369  1.00  0.00    -0.744 OA
ENDBRANCH  48  49
ENDBRANCH  27  41
BRANCH  28  53
ATOM     53  C   UNL     1       8.937   0.582  -8.294  1.00  0.00     0.058 A 
ATOM     54  C   UNL     1       9.676   1.645  -7.761  1.00  0.00     0.135 A 
ATOM     55  C   UNL     1       9.534  -0.195  -9.301  1.00  0.00     0.135 A 
ATOM     56  F   UNL     1       9.149   2.411  -6.794  1.00  0.00    -0.206 F 
ATOM     57  C   UNL     1      10.966   1.923  -8.199  1.00  0.00     0.059 A 
ATOM     58  C   UNL     1      10.832   0.048  -9.738  1.00  0.00     0.059 A 
ATOM     59  F   UNL     1       8.875  -1.242  -9.822  1.00  0.00    -0.206 F 
ATOM     60  C   UNL     1      11.540   1.111  -9.180  1.00  0.00     0.060 A 
BRANCH  60  61
ATOM     61  S   UNL     1      13.250   1.426  -9.669  1.00  0.00     0.124 S 
ATOM     62  O   UNL     1      13.115   2.662 -10.430  1.00  0.00    -0.237 OA
ATOM     63  O   UNL     1      13.921   1.540  -8.378  1.00  0.00    -0.237 OA
ATOM     64  O   UNL     1      13.601   0.240 -10.446  1.00  0.00    -0.744 OA
ENDBRANCH  60  61
ENDBRANCH  28  53
BRANCH  40  65
ATOM     65  C   UNL     1       2.533   3.405  -8.331  1.00  0.00     0.058 A 
ATOM     66  C   UNL     1       2.330   3.603  -9.704  1.00  0.00     0.135 A 
ATOM     67  C   UNL     1       2.148   4.432  -7.454  1.00  0.00     0.135 A 
ATOM     68  F   UNL     1       2.694   2.658 -10.585  1.00  0.00    -0.206 F 
ATOM     69  C   UNL     1       1.773   4.781 -10.192  1.00  0.00     0.059 A 
ATOM     70  C   UNL     1       1.564   5.606  -7.917  1.00  0.00     0.059 A 
ATOM     71  F   UNL     1       2.317   4.290  -6.129  1.00  0.00    -0.206 F 
ATOM     72  C   UNL     1       1.387   5.774  -9.289  1.00  0.00     0.060 A 
BRANCH  72  73
ATOM     73  S   UNL     1       0.610   7.272  -9.930  1.00  0.00     0.124 S 
ATOM     74  O   UNL     1       1.748   7.960 -10.530  1.00  0.00    -0.237 OA
ATOM     75  O   UNL     1      -0.373   6.736 -10.867  1.00  0.00    -0.237 OA
ATOM     76  O   UNL     1       0.052   7.902  -8.738  1.00  0.00    -0.744 OA
ENDBRANCH  72  73
ENDBRANCH  40  65
ENDBRANCH  14  15
ENDBRANCH   7   9
ENDBRANCH   4   5
ENDBRANCH   3   4
ENDBRANCH   2   3
ENDBRANCH   1   2
BRANCH   1  77
ATOM     77  C   UNL     1      10.283  -8.721   2.795  1.00  0.00     0.021 C 
BRANCH  77  78
ATOM     78  C   UNL     1       9.074  -8.854   3.723  1.00  0.00     0.116 C 
BRANCH  78  79
ATOM     79  N   UNL     1       8.954 -10.123   4.410  1.00  0.00    -0.354 N 
ATOM     80  C   UNL     1       8.163 -10.481   5.469  1.00  0.00     0.247 C 
ATOM     81  H   UNL     1       9.532 -10.841   4.061  1.00  0.00     0.163 HD
ATOM     82  O   UNL     1       8.114 -11.695   5.715  1.00  0.00    -0.272 OA
BRANCH  80  83
ATOM     83  C   UNL     1       7.415  -9.460   6.406  1.00  0.00     0.202 C 
BRANCH  83  84
ATOM     84  C   UNL     1       7.955  -9.453   7.849  1.00  0.00    -0.016 A 
ATOM     85  C   UNL     1       7.246  -8.743   8.842  1.00  0.00     0.006 A 
ATOM     86  C   UNL     1       9.108 -10.149   8.246  1.00  0.00     0.006 A 
ATOM     87  C   UNL     1       7.669  -8.740  10.174  1.00  0.00     0.000 A 
ATOM     88  C   UNL     1       9.523 -10.154   9.582  1.00  0.00     0.000 A 
ATOM     89  C   UNL     1       8.805  -9.452  10.546  1.00  0.00     0.000 A 
ENDBRANCH  83  84
BRANCH  83  90
ATOM     90  N   UNL     1       7.303  -8.083   5.936  1.00  0.00    -0.340 N 
ATOM     91  C   UNL     1       6.492  -7.425   5.081  1.00  0.00     0.224 C 
ATOM     92  H   UNL     1       7.981  -7.493   6.339  1.00  0.00     0.164 HD
ATOM     93  O   UNL     1       6.749  -6.219   4.967  1.00  0.00    -0.275 OA
BRANCH  91  94
ATOM     94  C   UNL     1       5.317  -8.027   4.283  1.00  0.00     0.078 C 
ATOM     95  C   UNL     1       5.334  -7.371   2.880  1.00  0.00     0.014 C 
ATOM     96  C   UNL     1       5.213  -9.549   4.174  1.00  0.00     0.014 C 
ATOM     97  C   UNL     1       4.268  -7.905   1.923  1.00  0.00     0.006 C 
ATOM     98  C   UNL     1       4.148 -10.040   3.192  1.00  0.00     0.006 C 
ATOM     99  C   UNL     1       4.283  -9.437   1.793  1.00  0.00     0.008 C 
BRANCH  99 100
ATOM    100  C   UNL     1       5.544  -9.887   1.043  1.00  0.00     0.119 C 
BRANCH 100 101
ATOM    101  N   UNL     1       5.606 -11.298   0.705  1.00  0.00    -0.351 N 
ATOM    102  C   UNL     1       6.044 -11.870  -0.465  1.00  0.00     0.278 C 
ATOM    103  H   UNL     1       5.297 -11.922   1.400  1.00  0.00     0.163 HD
ATOM    104  O   UNL     1       6.307 -13.077  -0.457  1.00  0.00    -0.268 OA
BRANCH 102 105
ATOM    105  C   UNL     1       6.172 -11.019  -1.751  1.00  0.00     0.277 C 
ATOM    106  C   UNL     1       4.767 -10.594  -2.194  1.00  0.00     0.111 C 
ATOM    107  N   UNL     1       6.989 -11.744  -2.758  1.00  0.00    -0.332 N 
ATOM    108  C   UNL     1       4.807  -9.963  -3.552  1.00  0.00    -0.033 A 
ATOM    109  C   UNL     1       6.436 -11.779  -4.118  1.00  0.00     0.298 C 
ATOM    110  H   UNL     1       7.098 -12.707  -2.440  1.00  0.00     0.347 HD
ATOM    111  H   UNL     1       7.867 -11.230  -2.828  1.00  0.00     0.347 HD
ATOM    112  C   UNL     1       4.006  -8.866  -3.883  1.00  0.00     0.004 A 
ATOM    113  C   UNL     1       5.628 -10.567  -4.514  1.00  0.00     0.010 A 
ATOM    114  C   UNL     1       3.990  -8.393  -5.192  1.00  0.00     0.000 A 
ATOM    115  C   UNL     1       5.587 -10.099  -5.832  1.00  0.00     0.010 A 
ATOM    116  C   UNL     1       4.767  -9.018  -6.169  1.00  0.00     0.001 A 
ENDBRANCH 102 105
ENDBRANCH 100 101
ENDBRANCH  99 100
ENDBRANCH  91  94
ENDBRANCH  83  90
ENDBRANCH  80  83
ENDBRANCH  78  79
ENDBRANCH  77  78
ENDBRANCH   1  77
TORSDOF 22
