REMARK SMILES Nc1c(Cl)ccc2c1C=C(C(=O)NCCCCCCNC(=O)c1ccc(-c3c4nc(c(-c5c(F)cc(S(=O)(=O)[O-])cc5F)c5ccc([nH]5)c(-c5c(F)cc(S(=O)(=O)[O-])cc5F)c5nc(c(-c6c(F)cc(S(=O)(=O)[O-])cc6F)c6ccc3[nH]6)C=C5)C=C4)cc1)[C@@H](C(F)(F)F)O2
REMARK SMILES IDX 17 1 16 2 15 3 14 4 13 5 11 6 12 7 10 9 2 10 3 11 8 12 4 13
REMARK SMILES IDX 5 14 7 15 9 16 6 17 94 18 89 19 1 20 90 23 91 24 92 25 93 26
REMARK SMILES IDX 18 27 19 28 20 29 21 30 22 32 23 33 24 34 88 35 25 36 87 37
REMARK SMILES IDX 26 38 27 39 28 40 81 41 29 42 86 43 80 44 82 45 30 46 85 47
REMARK SMILES IDX 79 48 78 49 31 51 65 52 44 53 64 54 45 55 48 56 63 57 83 58
REMARK SMILES IDX 46 59 47 60 62 62 84 63 49 64 32 65 33 66 42 67 34 68 35 69
REMARK SMILES IDX 41 70 43 71 36 72 37 73 38 74 39 75 40 76 66 77 67 78 76 79
REMARK SMILES IDX 68 80 69 81 75 82 77 83 70 84 71 85 72 86 73 87 74 88 50 89
REMARK SMILES IDX 51 90 60 91 52 92 53 93 59 94 61 95 54 96 55 97 56 98 57 99
REMARK SMILES IDX 58 100
REMARK H PARENT 13 8 1 21 1 22 20 31 82 50 48 61
REMARK Flexibility Score: inf
ROOT
ATOM      1  C   UNL     1      -7.397  -4.647  -3.903  1.00  0.00     0.002 C 
ENDROOT
BRANCH   1   2
ATOM      2  C   UNL     1      -7.186  -3.187  -3.477  1.00  0.00     0.002 C 
BRANCH   2   3
ATOM      3  C   UNL     1      -6.529  -2.985  -2.107  1.00  0.00     0.021 C 
BRANCH   3   4
ATOM      4  C   UNL     1      -5.166  -3.657  -1.961  1.00  0.00     0.116 C 
BRANCH   4   5
ATOM      5  N   UNL     1      -4.110  -2.851  -2.547  1.00  0.00    -0.352 N 
ATOM      6  C   UNL     1      -2.976  -2.246  -2.128  1.00  0.00     0.251 C 
ATOM      7  O   UNL     1      -2.361  -1.632  -3.008  1.00  0.00    -0.270 OA
ATOM      8  H   UNL     1      -4.260  -2.707  -3.509  1.00  0.00     0.163 HD
BRANCH   6   9
ATOM      9  C   UNL     1      -2.436  -2.270  -0.734  1.00  0.00     0.067 C 
ATOM     10  C   UNL     1       0.462  -0.711   1.044  1.00  0.00     0.061 A 
ATOM     11  C   UNL     1       1.010  -0.763   2.347  1.00  0.00     0.064 A 
ATOM     12  C   UNL     1      -0.738  -1.417   0.797  1.00  0.00     0.042 A 
ATOM     13  Cl  UNL     1       2.498   0.050   2.713  1.00  0.00    -0.082 Cl
ATOM     14  C   UNL     1       0.372  -1.447   3.383  1.00  0.00     0.026 A 
ATOM     15  C   UNL     1      -1.359  -2.107   1.847  1.00  0.00     0.130 A 
ATOM     16  C   UNL     1      -1.399  -1.440  -0.511  1.00  0.00     0.027 C 
ATOM     17  C   UNL     1      -0.820  -2.113   3.132  1.00  0.00     0.049 A 
ATOM     18  O   UNL     1      -2.539  -2.778   1.707  1.00  0.00    -0.475 OA
ATOM     19  C   UNL     1      -2.929  -3.169   0.363  1.00  0.00     0.314 C 
BRANCH  10  20
ATOM     20  N   UNL     1       1.163  -0.059   0.024  1.00  0.00    -0.397 N 
ATOM     21  H   UNL     1       1.996   0.423   0.230  1.00  0.00     0.156 HD
ATOM     22  H   UNL     1       0.824  -0.083  -0.900  1.00  0.00     0.156 HD
ENDBRANCH  10  20
BRANCH  19  23
ATOM     23  C   UNL     1      -2.561  -4.647   0.141  1.00  0.00     0.429 C 
ATOM     24  F   UNL     1      -3.269  -5.444   0.977  1.00  0.00    -0.167 F 
ATOM     25  F   UNL     1      -2.839  -5.066  -1.115  1.00  0.00    -0.167 F 
ATOM     26  F   UNL     1      -1.249  -4.889   0.359  1.00  0.00    -0.167 F 
ENDBRANCH  19  23
ENDBRANCH   6   9
ENDBRANCH   4   5
ENDBRANCH   3   4
ENDBRANCH   2   3
ENDBRANCH   1   2
BRANCH   1  27
ATOM     27  C   UNL     1      -8.024  -5.560  -2.846  1.00  0.00     0.021 C 
BRANCH  27  28
ATOM     28  C   UNL     1      -9.370  -5.084  -2.312  1.00  0.00     0.116 C 
BRANCH  28  29
ATOM     29  N   UNL     1     -10.398  -5.111  -3.338  1.00  0.00    -0.352 N 
ATOM     30  C   UNL     1     -11.559  -5.843  -3.361  1.00  0.00     0.251 C 
ATOM     31  H   UNL     1     -10.242  -4.530  -4.117  1.00  0.00     0.163 HD
ATOM     32  O   UNL     1     -12.232  -5.912  -4.384  1.00  0.00    -0.269 OA
BRANCH  30  33
ATOM     33  C   UNL     1     -11.977  -6.560  -2.141  1.00  0.00     0.039 A 
ATOM     34  C   UNL     1     -12.258  -7.925  -2.218  1.00  0.00     0.014 A 
ATOM     35  C   UNL     1     -12.076  -5.878  -0.922  1.00  0.00     0.014 A 
ATOM     36  C   UNL     1     -12.604  -8.620  -1.059  1.00  0.00     0.010 A 
ATOM     37  C   UNL     1     -12.370  -6.583   0.241  1.00  0.00     0.010 A 
ATOM     38  C   UNL     1     -12.651  -7.956   0.178  1.00  0.00    -0.014 A 
BRANCH  38  39
ATOM     39  C   UNL     1     -13.054  -8.683   1.405  1.00  0.00     0.031 A 
ATOM     40  C   UNL     1     -14.397  -8.410   2.019  1.00  0.00     0.074 A 
ATOM     41  C   UNL     1     -12.214  -9.573   1.966  1.00  0.00     0.049 A 
ATOM     42  N   UNL     1     -14.953  -8.965   3.063  1.00  0.00    -0.248 NA
ATOM     43  C   UNL     1     -15.218  -7.365   1.385  1.00  0.00     0.031 C 
ATOM     44  C   UNL     1     -10.870  -9.891   1.479  1.00  0.00     0.029 A 
ATOM     45  N   UNL     1     -12.368 -10.378   3.066  1.00  0.00    -0.354 N 
ATOM     46  C   UNL     1     -16.191  -8.349   3.202  1.00  0.00     0.074 A 
ATOM     47  C   UNL     1     -16.278  -7.331   2.179  1.00  0.00     0.031 C 
ATOM     48  C   UNL     1     -10.333 -10.842   2.262  1.00  0.00     0.029 A 
ATOM     49  C   UNL     1     -11.287 -11.191   3.312  1.00  0.00     0.049 A 
ATOM     50  H   UNL     1     -13.177 -10.374   3.627  1.00  0.00     0.167 HD
ATOM     51  C   UNL     1     -17.181  -8.633   4.079  1.00  0.00     0.037 A 
ATOM     52  C   UNL     1     -11.095 -12.119   4.270  1.00  0.00     0.037 A 
ATOM     53  C   UNL     1     -17.097  -9.661   5.080  1.00  0.00     0.049 A 
ATOM     54  C   UNL     1     -12.194 -12.389   5.262  1.00  0.00     0.074 A 
ATOM     55  C   UNL     1     -18.067 -10.069   5.976  1.00  0.00     0.029 A 
ATOM     56  N   UNL     1     -15.974 -10.438   5.319  1.00  0.00    -0.354 N 
ATOM     57  N   UNL     1     -13.389 -11.852   5.330  1.00  0.00    -0.248 NA
ATOM     58  C   UNL     1     -11.921 -13.387   6.306  1.00  0.00     0.031 C 
ATOM     59  C   UNL     1     -17.518 -11.072   6.783  1.00  0.00     0.029 A 
ATOM     60  C   UNL     1     -16.216 -11.306   6.369  1.00  0.00     0.049 A 
ATOM     61  H   UNL     1     -15.129 -10.381   4.817  1.00  0.00     0.167 HD
ATOM     62  C   UNL     1     -14.016 -12.457   6.413  1.00  0.00     0.074 A 
ATOM     63  C   UNL     1     -13.073 -13.407   6.966  1.00  0.00     0.031 C 
ATOM     64  C   UNL     1     -15.261 -12.243   6.905  1.00  0.00     0.037 A 
BRANCH  51  65
ATOM     65  C   UNL     1     -18.449  -7.838   3.970  1.00  0.00     0.058 A 
ATOM     66  C   UNL     1     -19.349  -8.048   2.913  1.00  0.00     0.135 A 
ATOM     67  C   UNL     1     -18.783  -6.878   4.937  1.00  0.00     0.135 A 
ATOM     68  F   UNL     1     -19.067  -8.943   1.953  1.00  0.00    -0.206 F 
ATOM     69  C   UNL     1     -20.524  -7.315   2.803  1.00  0.00     0.059 A 
ATOM     70  C   UNL     1     -19.965  -6.147   4.859  1.00  0.00     0.059 A 
ATOM     71  F   UNL     1     -17.954  -6.636   5.965  1.00  0.00    -0.206 F 
ATOM     72  C   UNL     1     -20.823  -6.364   3.780  1.00  0.00     0.060 A 
BRANCH  72  73
ATOM     73  S   UNL     1     -22.353  -5.420   3.621  1.00  0.00     0.124 S 
ATOM     74  O   UNL     1     -22.024  -4.518   2.521  1.00  0.00    -0.237 OA
ATOM     75  O   UNL     1     -23.331  -6.459   3.317  1.00  0.00    -0.237 OA
ATOM     76  O   UNL     1     -22.500  -4.787   4.927  1.00  0.00    -0.744 OA
ENDBRANCH  72  73
ENDBRANCH  51  65
BRANCH  52  77
ATOM     77  C   UNL     1      -9.824 -12.887   4.311  1.00  0.00     0.058 A 
ATOM     78  C   UNL     1      -9.786 -14.231   3.911  1.00  0.00     0.135 A 
ATOM     79  C   UNL     1      -8.623 -12.293   4.725  1.00  0.00     0.135 A 
ATOM     80  F   UNL     1     -10.912 -14.843   3.513  1.00  0.00    -0.206 F 
ATOM     81  C   UNL     1      -8.602 -14.961   3.923  1.00  0.00     0.059 A 
ATOM     82  C   UNL     1      -7.423 -12.997   4.730  1.00  0.00     0.059 A 
ATOM     83  F   UNL     1      -8.606 -11.006   5.106  1.00  0.00    -0.206 F 
ATOM     84  C   UNL     1      -7.424 -14.334   4.331  1.00  0.00     0.060 A 
BRANCH  84  85
ATOM     85  S   UNL     1      -5.884 -15.277   4.288  1.00  0.00     0.124 S 
ATOM     86  O   UNL     1      -6.064 -16.186   5.413  1.00  0.00    -0.237 OA
ATOM     87  O   UNL     1      -5.934 -15.883   2.961  1.00  0.00    -0.237 OA
ATOM     88  O   UNL     1      -4.859 -14.252   4.462  1.00  0.00    -0.744 OA
ENDBRANCH  84  85
ENDBRANCH  52  77
BRANCH  64  89
ATOM     89  C   UNL     1     -15.685 -13.036   8.106  1.00  0.00     0.058 A 
ATOM     90  C   UNL     1     -15.250 -12.686   9.393  1.00  0.00     0.135 A 
ATOM     91  C   UNL     1     -16.626 -14.071   7.985  1.00  0.00     0.135 A 
ATOM     92  F   UNL     1     -14.345 -11.709   9.557  1.00  0.00    -0.206 F 
ATOM     93  C   UNL     1     -15.744 -13.328  10.523  1.00  0.00     0.059 A 
ATOM     94  C   UNL     1     -17.147 -14.714   9.103  1.00  0.00     0.059 A 
ATOM     95  F   UNL     1     -17.076 -14.437   6.774  1.00  0.00    -0.206 F 
ATOM     96  C   UNL     1     -16.702 -14.332  10.368  1.00  0.00     0.060 A 
BRANCH  96  97
ATOM     97  S   UNL     1     -17.402 -15.089  11.851  1.00  0.00     0.124 S 
ATOM     98  O   UNL     1     -16.294 -15.918  12.310  1.00  0.00    -0.237 OA
ATOM     99  O   UNL     1     -17.710 -13.926  12.678  1.00  0.00    -0.237 OA
ATOM    100  O   UNL     1     -18.564 -15.815  11.345  1.00  0.00    -0.744 OA
ENDBRANCH  96  97
ENDBRANCH  64  89
ENDBRANCH  38  39
ENDBRANCH  30  33
ENDBRANCH  28  29
ENDBRANCH  27  28
ENDBRANCH   1  27
TORSDOF 18
