REMARK SMILES O=C(C[C@H]1CN(S(=O)(=O)N2CCCCC2)CCO1)NCCCCCCNC(=O)c1ccc(-c2c3nc(c(-c4c(F)cc(S(=O)(=O)[O-])cc4F)c4ccc([nH]4)c(-c4c(F)cc(S(=O)(=O)[O-])cc4F)c4nc(c(-c5c(F)cc(S(=O)(=O)[O-])cc5F)c5ccc2[nH]5)C=C4)C=C3)cc1
REMARK SMILES IDX 22 1 21 2 20 3 19 4 1 5 2 6 3 8 4 9 5 10 18 11 6 12 17 13
REMARK SMILES IDX 16 14 7 15 8 16 9 17 10 18 11 19 15 20 12 21 14 22 13 23
REMARK SMILES IDX 23 24 24 25 25 26 26 27 27 28 28 30 29 31 30 32 94 33 31 34
REMARK SMILES IDX 93 35 32 36 33 37 34 38 87 39 35 40 92 41 86 42 88 43 36 44
REMARK SMILES IDX 91 45 85 46 84 47 37 49 71 50 50 51 70 52 51 53 54 54 69 55
REMARK SMILES IDX 89 56 52 57 53 58 68 60 90 61 55 62 38 63 39 64 48 65 40 66
REMARK SMILES IDX 41 67 47 68 49 69 42 70 43 71 44 72 45 73 46 74 72 75 73 76
REMARK SMILES IDX 82 77 74 78 75 79 81 80 83 81 76 82 77 83 78 84 79 85 80 86
REMARK SMILES IDX 56 87 57 88 66 89 58 90 59 91 65 92 67 93 60 94 61 95 62 96
REMARK SMILES IDX 63 97 64 98
REMARK H PARENT 19 7 26 29 88 48 54 59
REMARK Flexibility Score: inf
ROOT
ATOM      1  C   UNL     1       4.458   3.604  -1.993  1.00  0.00     0.002 C 
ENDROOT
BRANCH   1   2
ATOM      2  C   UNL     1       4.805   2.875  -3.297  1.00  0.00     0.021 C 
BRANCH   2   3
ATOM      3  C   UNL     1       5.573   1.571  -3.102  1.00  0.00     0.116 C 
BRANCH   3   4
ATOM      4  N   UNL     1       4.935   0.694  -2.150  1.00  0.00    -0.356 N 
ATOM      5  O   UNL     1       3.208   0.074  -3.512  1.00  0.00    -0.275 OA
ATOM      6  C   UNL     1       3.815  -0.037  -2.450  1.00  0.00     0.222 C 
ATOM      7  H   UNL     1       5.320   0.618  -1.247  1.00  0.00     0.163 HD
BRANCH   6   8
ATOM      8  C   UNL     1       3.272  -0.867  -1.305  1.00  0.00     0.133 C 
BRANCH   8   9
ATOM      9  C   UNL     1       4.238  -1.587  -0.347  1.00  0.00     0.142 C 
ATOM     10  C   UNL     1       4.001  -3.098  -0.150  1.00  0.00     0.136 C 
ATOM     11  O   UNL     1       5.634  -1.295  -0.509  1.00  0.00    -0.375 OA
ATOM     12  N   UNL     1       4.628  -3.972  -1.176  1.00  0.00    -0.184 NA
ATOM     13  C   UNL     1       6.273  -2.108  -1.511  1.00  0.00     0.177 C 
ATOM     14  C   UNL     1       6.089  -3.608  -1.256  1.00  0.00     0.132 C 
BRANCH  12  15
ATOM     15  S   UNL     1       3.925  -4.238  -2.692  1.00  0.00     0.282 S 
ATOM     16  O   UNL     1       3.759  -2.963  -3.332  1.00  0.00    -0.195 OA
ATOM     17  O   UNL     1       4.716  -5.273  -3.326  1.00  0.00    -0.195 OA
BRANCH  15  18
ATOM     18  N   UNL     1       2.405  -4.888  -2.372  1.00  0.00    -0.189 NA
ATOM     19  C   UNL     1       2.357  -6.282  -1.897  1.00  0.00     0.103 C 
ATOM     20  C   UNL     1       1.296  -3.994  -1.981  1.00  0.00     0.103 C 
ATOM     21  C   UNL     1       0.973  -6.880  -2.132  1.00  0.00     0.017 C 
ATOM     22  C   UNL     1      -0.079  -4.646  -2.060  1.00  0.00     0.017 C 
ATOM     23  C   UNL     1      -0.088  -6.036  -1.447  1.00  0.00     0.003 C 
ENDBRANCH  15  18
ENDBRANCH  12  15
ENDBRANCH   8   9
ENDBRANCH   6   8
ENDBRANCH   3   4
ENDBRANCH   2   3
ENDBRANCH   1   2
BRANCH   1  24
ATOM     24  C   UNL     1       5.646   3.901  -1.074  1.00  0.00     0.002 C 
BRANCH  24  25
ATOM     25  C   UNL     1       6.781   4.694  -1.724  1.00  0.00     0.021 C 
BRANCH  25  26
ATOM     26  C   UNL     1       6.355   6.018  -2.345  1.00  0.00     0.116 C 
BRANCH  26  27
ATOM     27  N   UNL     1       5.809   6.938  -1.359  1.00  0.00    -0.352 N 
ATOM     28  C   UNL     1       6.168   8.238  -1.097  1.00  0.00     0.251 C 
ATOM     29  H   UNL     1       5.082   6.579  -0.801  1.00  0.00     0.163 HD
ATOM     30  O   UNL     1       5.735   8.809  -0.101  1.00  0.00    -0.269 OA
BRANCH  28  31
ATOM     31  C   UNL     1       7.101   8.932  -2.009  1.00  0.00     0.039 A 
ATOM     32  C   UNL     1       8.174   9.642  -1.467  1.00  0.00     0.014 A 
ATOM     33  C   UNL     1       6.932   8.857  -3.395  1.00  0.00     0.014 A 
ATOM     34  C   UNL     1       9.119  10.216  -2.318  1.00  0.00     0.010 A 
ATOM     35  C   UNL     1       7.916   9.363  -4.239  1.00  0.00     0.010 A 
ATOM     36  C   UNL     1       9.023  10.043  -3.709  1.00  0.00    -0.014 A 
BRANCH  36  37
ATOM     37  C   UNL     1      10.090  10.533  -4.618  1.00  0.00     0.031 A 
ATOM     38  C   UNL     1       9.791  11.582  -5.652  1.00  0.00     0.074 A 
ATOM     39  C   UNL     1      11.316   9.977  -4.555  1.00  0.00     0.049 A 
ATOM     40  N   UNL     1      10.580  12.090  -6.564  1.00  0.00    -0.248 NA
ATOM     41  C   UNL     1       8.419  12.111  -5.681  1.00  0.00     0.031 C 
ATOM     42  C   UNL     1      11.710   8.908  -3.635  1.00  0.00     0.029 A 
ATOM     43  N   UNL     1      12.451  10.219  -5.287  1.00  0.00    -0.354 N 
ATOM     44  C   UNL     1       9.802  12.995  -7.276  1.00  0.00     0.074 A 
ATOM     45  C   UNL     1       8.463  12.918  -6.731  1.00  0.00     0.031 C 
ATOM     46  C   UNL     1      12.998   8.597  -3.847  1.00  0.00     0.029 A 
ATOM     47  C   UNL     1      13.510   9.411  -4.946  1.00  0.00     0.049 A 
ATOM     48  H   UNL     1      12.503  10.906  -5.990  1.00  0.00     0.167 HD
ATOM     49  C   UNL     1      10.175  13.832  -8.275  1.00  0.00     0.037 A 
ATOM     50  C   UNL     1      14.748   9.319  -5.468  1.00  0.00     0.037 A 
ATOM     51  C   UNL     1      11.510  13.895  -8.815  1.00  0.00     0.049 A 
ATOM     52  C   UNL     1      15.139  10.237  -6.592  1.00  0.00     0.074 A 
ATOM     53  C   UNL     1      12.005  14.740  -9.793  1.00  0.00     0.029 A 
ATOM     54  N   UNL     1      12.560  13.069  -8.435  1.00  0.00    -0.354 N 
ATOM     55  N   UNL     1      14.414  11.146  -7.200  1.00  0.00    -0.248 NA
ATOM     56  C   UNL     1      16.513  10.125  -7.097  1.00  0.00     0.031 C 
ATOM     57  C   UNL     1      13.335  14.387 -10.045  1.00  0.00     0.029 A 
ATOM     58  C   UNL     1      13.691  13.362  -9.182  1.00  0.00     0.049 A 
ATOM     59  H   UNL     1      12.509  12.376  -7.737  1.00  0.00     0.167 HD
ATOM     60  C   UNL     1      15.246  11.722  -8.153  1.00  0.00     0.074 A 
ATOM     61  C   UNL     1      16.536  11.074  -8.024  1.00  0.00     0.031 C 
ATOM     62  C   UNL     1      14.967  12.698  -9.054  1.00  0.00     0.037 A 
BRANCH  49  63
ATOM     63  C   UNL     1       9.117  14.737  -8.850  1.00  0.00     0.058 A 
ATOM     64  C   UNL     1       8.544  15.775  -8.095  1.00  0.00     0.135 A 
ATOM     65  C   UNL     1       8.668  14.569 -10.170  1.00  0.00     0.135 A 
ATOM     66  F   UNL     1       8.926  15.979  -6.824  1.00  0.00    -0.206 F 
ATOM     67  C   UNL     1       7.530  16.578  -8.610  1.00  0.00     0.059 A 
ATOM     68  C   UNL     1       7.679  15.383 -10.717  1.00  0.00     0.059 A 
ATOM     69  F   UNL     1       9.182  13.598 -10.941  1.00  0.00    -0.206 F 
ATOM     70  C   UNL     1       7.100  16.369  -9.920  1.00  0.00     0.060 A 
BRANCH  70  71
ATOM     71  S   UNL     1       5.761  17.398 -10.560  1.00  0.00     0.124 S 
ATOM     72  O   UNL     1       4.614  16.870  -9.828  1.00  0.00    -0.237 OA
ATOM     73  O   UNL     1       6.191  18.740 -10.181  1.00  0.00    -0.237 OA
ATOM     74  O   UNL     1       5.772  17.119 -11.993  1.00  0.00    -0.744 OA
ENDBRANCH  70  71
ENDBRANCH  49  63
BRANCH  50  75
ATOM     75  C   UNL     1      15.699   8.316  -4.918  1.00  0.00     0.058 A 
ATOM     76  C   UNL     1      16.803   8.706  -4.148  1.00  0.00     0.135 A 
ATOM     77  C   UNL     1      15.486   6.940  -5.106  1.00  0.00     0.135 A 
ATOM     78  F   UNL     1      17.055  10.008  -3.947  1.00  0.00    -0.206 F 
ATOM     79  C   UNL     1      17.661   7.769  -3.579  1.00  0.00     0.059 A 
ATOM     80  C   UNL     1      16.314   5.985  -4.525  1.00  0.00     0.059 A 
ATOM     81  F   UNL     1      14.434   6.514  -5.823  1.00  0.00    -0.206 F 
ATOM     82  C   UNL     1      17.401   6.410  -3.764  1.00  0.00     0.060 A 
BRANCH  82  83
ATOM     83  S   UNL     1      18.469   5.205  -2.946  1.00  0.00     0.124 S 
ATOM     84  O   UNL     1      19.700   5.330  -3.717  1.00  0.00    -0.237 OA
ATOM     85  O   UNL     1      18.515   5.716  -1.580  1.00  0.00    -0.237 OA
ATOM     86  O   UNL     1      17.745   3.948  -3.112  1.00  0.00    -0.744 OA
ENDBRANCH  82  83
ENDBRANCH  50  75
BRANCH  62  87
ATOM     87  C   UNL     1      16.078  13.132  -9.972  1.00  0.00     0.058 A 
ATOM     88  C   UNL     1      16.539  12.309 -11.012  1.00  0.00     0.135 A 
ATOM     89  C   UNL     1      16.651  14.408  -9.845  1.00  0.00     0.135 A 
ATOM     90  F   UNL     1      16.032  11.076 -11.173  1.00  0.00    -0.206 F 
ATOM     91  C   UNL     1      17.542  12.727 -11.880  1.00  0.00     0.059 A 
ATOM     92  C   UNL     1      17.634  14.858 -10.722  1.00  0.00     0.059 A 
ATOM     93  F   UNL     1      16.244  15.239  -8.873  1.00  0.00    -0.206 F 
ATOM     94  C   UNL     1      18.080  14.006 -11.730  1.00  0.00     0.060 A 
BRANCH  94  95
ATOM     95  S   UNL     1      19.352  14.550 -12.890  1.00  0.00     0.124 S 
ATOM     96  O   UNL     1      20.495  13.744 -12.473  1.00  0.00    -0.237 OA
ATOM     97  O   UNL     1      18.767  14.199 -14.181  1.00  0.00    -0.237 OA
ATOM     98  O   UNL     1      19.464  15.981 -12.628  1.00  0.00    -0.744 OA
ENDBRANCH  94  95
ENDBRANCH  62  87
ENDBRANCH  36  37
ENDBRANCH  28  31
ENDBRANCH  26  27
ENDBRANCH  25  26
ENDBRANCH  24  25
ENDBRANCH   1  24
TORSDOF 19
