REMARK SMILES C[C@@H](C(=O)NCCCCCCNC(=O)c1ccc(-c2c3nc(c(-c4c(F)cc(S(=O)(=O)[O-])cc4F)c4ccc([nH]4)c(-c4c(F)cc(S(=O)(=O)[O-])cc4F)c4nc(c(-c5c(F)cc(S(=O)(=O)[O-])cc5F)c5ccc2[nH]5)C=C4)C=C3)cc1)[N@@H+](C)Cc1ccc(-c2ccccc2)cc1
REMARK SMILES IDX 8 1 7 2 6 3 5 4 3 5 4 6 2 8 1 9 81 10 82 11 83 13 84 14
REMARK SMILES IDX 85 15 95 16 86 17 94 18 87 19 88 20 89 21 93 22 90 23 92 24
REMARK SMILES IDX 91 25 9 26 10 27 11 28 12 29 13 30 14 32 15 33 16 34 80 35
REMARK SMILES IDX 17 36 79 37 18 38 19 39 20 40 73 41 21 42 78 43 72 44 74 45
REMARK SMILES IDX 22 46 77 47 71 48 70 49 23 51 57 52 36 53 56 54 37 55 40 56
REMARK SMILES IDX 55 57 75 58 38 59 39 60 54 62 76 63 41 64 24 65 25 66 34 67
REMARK SMILES IDX 26 68 27 69 33 70 35 71 28 72 29 73 30 74 31 75 32 76 58 77
REMARK SMILES IDX 59 78 68 79 60 80 61 81 67 82 69 83 62 84 63 85 64 86 65 87
REMARK SMILES IDX 66 88 42 89 43 90 52 91 44 92 45 93 51 94 53 95 46 96 47 97
REMARK SMILES IDX 48 98 49 99 50 100
REMARK H PARENT 5 7 81 12 12 31 74 50 40 61
REMARK Flexibility Score: inf
ROOT
ATOM      1  C   UNL     1       4.989   2.653  -0.633  1.00  0.00     0.002 C 
ENDROOT
BRANCH   1   2
ATOM      2  C   UNL     1       4.283   1.330  -0.295  1.00  0.00     0.021 C 
BRANCH   2   3
ATOM      3  C   UNL     1       3.587   1.321   1.065  1.00  0.00     0.116 C 
BRANCH   3   4
ATOM      4  N   UNL     1       2.521   2.291   1.121  1.00  0.00    -0.351 N 
ATOM      5  C   UNL     1       1.177   2.162   1.258  1.00  0.00     0.278 C 
ATOM      6  O   UNL     1       0.617   3.197   1.641  1.00  0.00    -0.268 OA
ATOM      7  H   UNL     1       2.826   3.224   1.046  1.00  0.00     0.163 HD
BRANCH   5   8
ATOM      8  C   UNL     1       0.423   0.803   1.078  1.00  0.00     0.271 C 
ATOM      9  C   UNL     1       0.931  -0.166   0.002  1.00  0.00     0.086 C 
BRANCH   8  10
ATOM     10  N   UNL     1      -1.052   0.967   0.890  1.00  0.00    -0.324 N 
ATOM     11  C   UNL     1      -1.726   1.607   2.014  1.00  0.00     0.333 C 
ATOM     12  H   UNL     1      -1.351  -0.008   0.883  1.00  0.00     0.348 HD
BRANCH  10  13
ATOM     13  C   UNL     1      -1.535   1.425  -0.426  1.00  0.00     0.299 C 
BRANCH  13  14
ATOM     14  C   UNL     1      -1.134   2.814  -0.871  1.00  0.00     0.006 A 
ATOM     15  C   UNL     1       0.060   3.035  -1.569  1.00  0.00     0.010 A 
ATOM     16  C   UNL     1      -1.920   3.922  -0.537  1.00  0.00     0.010 A 
ATOM     17  C   UNL     1       0.518   4.332  -1.811  1.00  0.00     0.009 A 
ATOM     18  C   UNL     1      -1.472   5.220  -0.804  1.00  0.00     0.009 A 
ATOM     19  C   UNL     1      -0.224   5.450  -1.404  1.00  0.00    -0.018 A 
BRANCH  19  20
ATOM     20  C   UNL     1       0.316   6.814  -1.553  1.00  0.00    -0.018 A 
ATOM     21  C   UNL     1       0.919   7.238  -2.748  1.00  0.00     0.009 A 
ATOM     22  C   UNL     1       0.276   7.722  -0.480  1.00  0.00     0.009 A 
ATOM     23  C   UNL     1       1.459   8.521  -2.868  1.00  0.00     0.001 A 
ATOM     24  C   UNL     1       0.811   9.008  -0.599  1.00  0.00     0.001 A 
ATOM     25  C   UNL     1       1.402   9.406  -1.794  1.00  0.00     0.000 A 
ENDBRANCH  19  20
ENDBRANCH  13  14
ENDBRANCH  10  13
ENDBRANCH   8  10
ENDBRANCH   5   8
ENDBRANCH   3   4
ENDBRANCH   2   3
ENDBRANCH   1   2
BRANCH   1  26
ATOM     26  C   UNL     1       5.969   3.169   0.428  1.00  0.00     0.002 C 
BRANCH  26  27
ATOM     27  C   UNL     1       7.036   2.166   0.873  1.00  0.00     0.021 C 
BRANCH  27  28
ATOM     28  C   UNL     1       7.944   1.668  -0.244  1.00  0.00     0.116 C 
BRANCH  28  29
ATOM     29  N   UNL     1       8.761   2.735  -0.799  1.00  0.00    -0.352 N 
ATOM     30  C   UNL     1      10.124   2.799  -0.941  1.00  0.00     0.251 C 
ATOM     31  H   UNL     1       8.266   3.524  -1.119  1.00  0.00     0.163 HD
ATOM     32  O   UNL     1      10.659   3.865  -1.241  1.00  0.00    -0.269 OA
BRANCH  30  33
ATOM     33  C   UNL     1      10.949   1.593  -0.710  1.00  0.00     0.039 A 
ATOM     34  C   UNL     1      12.125   1.710   0.035  1.00  0.00     0.014 A 
ATOM     35  C   UNL     1      10.567   0.351  -1.228  1.00  0.00     0.014 A 
ATOM     36  C   UNL     1      12.884   0.571   0.311  1.00  0.00     0.010 A 
ATOM     37  C   UNL     1      11.285  -0.794  -0.887  1.00  0.00     0.010 A 
ATOM     38  C   UNL     1      12.452  -0.696  -0.115  1.00  0.00    -0.014 A 
BRANCH  38  39
ATOM     39  C   UNL     1      13.203  -1.925   0.254  1.00  0.00     0.031 A 
ATOM     40  C   UNL     1      13.833  -2.781  -0.812  1.00  0.00     0.074 A 
ATOM     41  C   UNL     1      13.274  -2.294   1.548  1.00  0.00     0.049 A 
ATOM     42  N   UNL     1      14.489  -3.906  -0.684  1.00  0.00    -0.248 NA
ATOM     43  C   UNL     1      13.689  -2.329  -2.205  1.00  0.00     0.031 C 
ATOM     44  C   UNL     1      12.660  -1.575   2.668  1.00  0.00     0.029 A 
ATOM     45  N   UNL     1      13.886  -3.369   2.144  1.00  0.00    -0.354 N 
ATOM     46  C   UNL     1      14.831  -4.297  -1.974  1.00  0.00     0.074 A 
ATOM     47  C   UNL     1      14.260  -3.319  -2.875  1.00  0.00     0.031 C 
ATOM     48  C   UNL     1      12.948  -2.212   3.813  1.00  0.00     0.029 A 
ATOM     49  C   UNL     1      13.730  -3.406   3.511  1.00  0.00     0.049 A 
ATOM     50  H   UNL     1      14.389  -4.049   1.641  1.00  0.00     0.167 HD
ATOM     51  C   UNL     1      15.574  -5.358  -2.369  1.00  0.00     0.037 A 
ATOM     52  C   UNL     1      14.160  -4.306   4.417  1.00  0.00     0.037 A 
ATOM     53  C   UNL     1      16.154  -6.318  -1.465  1.00  0.00     0.049 A 
ATOM     54  C   UNL     1      14.972  -5.484   3.950  1.00  0.00     0.074 A 
ATOM     55  C   UNL     1      16.966  -7.398  -1.763  1.00  0.00     0.029 A 
ATOM     56  N   UNL     1      15.983  -6.316  -0.088  1.00  0.00    -0.354 N 
ATOM     57  N   UNL     1      15.342  -5.799   2.731  1.00  0.00    -0.248 NA
ATOM     58  C   UNL     1      15.430  -6.426   4.980  1.00  0.00     0.031 C 
ATOM     59  C   UNL     1      17.243  -8.080  -0.574  1.00  0.00     0.029 A 
ATOM     60  C   UNL     1      16.653  -7.391   0.474  1.00  0.00     0.049 A 
ATOM     61  H   UNL     1      15.463  -5.650   0.416  1.00  0.00     0.167 HD
ATOM     62  C   UNL     1      16.100  -6.959   2.852  1.00  0.00     0.074 A 
ATOM     63  C   UNL     1      16.150  -7.279   4.264  1.00  0.00     0.031 C 
ATOM     64  C   UNL     1      16.699  -7.695   1.883  1.00  0.00     0.037 A 
BRANCH  51  65
ATOM     65  C   UNL     1      15.813  -5.539  -3.845  1.00  0.00     0.058 A 
ATOM     66  C   UNL     1      16.642  -4.667  -4.569  1.00  0.00     0.135 A 
ATOM     67  C   UNL     1      15.255  -6.630  -4.531  1.00  0.00     0.135 A 
ATOM     68  F   UNL     1      17.189  -3.599  -3.968  1.00  0.00    -0.206 F 
ATOM     69  C   UNL     1      16.893  -4.858  -5.924  1.00  0.00     0.059 A 
ATOM     70  C   UNL     1      15.517  -6.858  -5.880  1.00  0.00     0.059 A 
ATOM     71  F   UNL     1      14.454  -7.495  -3.889  1.00  0.00    -0.206 F 
ATOM     72  C   UNL     1      16.329  -5.960  -6.570  1.00  0.00     0.060 A 
BRANCH  72  73
ATOM     73  S   UNL     1      16.686  -6.204  -8.323  1.00  0.00     0.124 S 
ATOM     74  O   UNL     1      15.924  -5.116  -8.929  1.00  0.00    -0.237 OA
ATOM     75  O   UNL     1      18.137  -6.062  -8.367  1.00  0.00    -0.237 OA
ATOM     76  O   UNL     1      16.181  -7.547  -8.589  1.00  0.00    -0.744 OA
ENDBRANCH  72  73
ENDBRANCH  51  65
BRANCH  52  77
ATOM     77  C   UNL     1      13.841  -4.126   5.860  1.00  0.00     0.058 A 
ATOM     78  C   UNL     1      14.846  -3.836   6.795  1.00  0.00     0.135 A 
ATOM     79  C   UNL     1      12.525  -4.249   6.336  1.00  0.00     0.135 A 
ATOM     80  F   UNL     1      16.120  -3.713   6.392  1.00  0.00    -0.206 F 
ATOM     81  C   UNL     1      14.566  -3.702   8.151  1.00  0.00     0.059 A 
ATOM     82  C   UNL     1      12.216  -4.089   7.682  1.00  0.00     0.059 A 
ATOM     83  F   UNL     1      11.522  -4.508   5.482  1.00  0.00    -0.206 F 
ATOM     84  C   UNL     1      13.246  -3.831   8.585  1.00  0.00     0.060 A 
BRANCH  84  85
ATOM     85  S   UNL     1      12.888  -3.629  10.343  1.00  0.00     0.124 S 
ATOM     86  O   UNL     1      13.438  -4.861  10.898  1.00  0.00    -0.237 OA
ATOM     87  O   UNL     1      13.614  -2.404  10.665  1.00  0.00    -0.237 OA
ATOM     88  O   UNL     1      11.433  -3.515  10.378  1.00  0.00    -0.744 OA
ENDBRANCH  84  85
ENDBRANCH  52  77
BRANCH  64  89
ATOM     89  C   UNL     1      17.489  -8.900   2.317  1.00  0.00     0.058 A 
ATOM     90  C   UNL     1      16.864 -10.055   2.812  1.00  0.00     0.135 A 
ATOM     91  C   UNL     1      18.888  -8.912   2.200  1.00  0.00     0.135 A 
ATOM     92  F   UNL     1      15.529 -10.095   2.951  1.00  0.00    -0.206 F 
ATOM     93  C   UNL     1      17.600 -11.168   3.204  1.00  0.00     0.059 A 
ATOM     94  C   UNL     1      19.642 -10.026   2.555  1.00  0.00     0.059 A 
ATOM     95  F   UNL     1      19.537  -7.838   1.722  1.00  0.00    -0.206 F 
ATOM     96  C   UNL     1      18.990 -11.145   3.071  1.00  0.00     0.060 A 
BRANCH  96  97
ATOM     97  S   UNL     1      19.930 -12.605   3.561  1.00  0.00     0.124 S 
ATOM     98  O   UNL     1      19.838 -12.539   5.016  1.00  0.00    -0.237 OA
ATOM     99  O   UNL     1      19.181 -13.686   2.927  1.00  0.00    -0.237 OA
ATOM    100  O   UNL     1      21.257 -12.359   3.004  1.00  0.00    -0.744 OA
ENDBRANCH  96  97
ENDBRANCH  64  89
ENDBRANCH  38  39
ENDBRANCH  30  33
ENDBRANCH  28  29
ENDBRANCH  27  28
ENDBRANCH  26  27
ENDBRANCH   1  26
TORSDOF 20
