REMARK SMILES Cc1c(C(=O)NCCCCCCNC(=O)c2ccc(-c3c4nc(c(-c5c(F)cc(S(=O)(=O)[O-])cc5F)c5ccc([nH]5)c(-c5c(F)cc(S(=O)(=O)[O-])cc5F)c5nc(c(-c6c(F)cc(S(=O)(=O)[O-])cc6F)c6ccc3[nH]6)C=C5)C=C4)cc2)oc2c1/C(=N/NC(=O)C(c1ccccc1)c1ccccc1)CCC2
REMARK SMILES IDX 9 1 8 2 7 3 6 4 4 5 5 6 3 8 1 9 2 10 84 11 82 12 83 13 85 14
REMARK SMILES IDX 105 15 86 16 103 17 104 18 87 19 88 20 89 22 90 23 91 24
REMARK SMILES IDX 92 25 96 26 93 27 95 28 94 29 97 30 98 31 102 32 99 33
REMARK SMILES IDX 101 34 100 35 10 36 11 37 12 38 13 39 14 40 15 42 16 43
REMARK SMILES IDX 17 44 81 45 18 46 80 47 19 48 20 49 21 50 74 51 22 52 79 53
REMARK SMILES IDX 73 54 75 55 23 56 78 57 72 58 71 59 24 61 58 62 37 63 57 64
REMARK SMILES IDX 38 65 41 66 56 67 76 68 39 69 40 70 55 72 77 73 42 74 25 75
REMARK SMILES IDX 26 76 35 77 27 78 28 79 34 80 36 81 29 82 30 83 31 84 32 85
REMARK SMILES IDX 33 86 59 87 60 88 69 89 61 90 62 91 68 92 70 93 63 94 64 95
REMARK SMILES IDX 65 96 66 97 67 98 43 99 44 100 53 101 45 102 46 103 52 104
REMARK SMILES IDX 54 105 47 106 48 107 49 108 50 109 51 110
REMARK H PARENT 6 7 87 21 13 41 75 60 41 71
REMARK Flexibility Score: inf
ROOT
ATOM      1  C   UNL     1      -5.870   3.113   2.453  1.00  0.00     0.002 C 
ENDROOT
BRANCH   1   2
ATOM      2  C   UNL     1      -4.506   3.448   1.842  1.00  0.00     0.021 C 
BRANCH   2   3
ATOM      3  C   UNL     1      -3.355   2.794   2.609  1.00  0.00     0.116 C 
BRANCH   3   4
ATOM      4  N   UNL     1      -3.193   1.376   2.266  1.00  0.00    -0.349 N 
ATOM      5  C   UNL     1      -2.240   0.715   1.493  1.00  0.00     0.287 C 
ATOM      6  O   UNL     1      -2.277  -0.510   1.465  1.00  0.00    -0.266 OA
ATOM      7  H   UNL     1      -3.881   0.786   2.651  1.00  0.00     0.163 HD
BRANCH   5   8
ATOM      8  C   UNL     1      -1.225   1.507   0.833  1.00  0.00     0.195 A 
ATOM      9  C   UNL     1       0.666  -0.055  -0.007  1.00  0.00     0.049 C 
ATOM     10  C   UNL     1       0.027   1.258   0.257  1.00  0.00     0.010 A 
ATOM     11  C   UNL     1       0.626   2.555   0.103  1.00  0.00     0.043 A 
ATOM     12  O   UNL     1      -1.472   2.835   0.799  1.00  0.00    -0.455 OA
ATOM     13  C   UNL     1      -0.318   3.437   0.578  1.00  0.00     0.114 A 
ATOM     14  C   UNL     1       1.929   3.086  -0.293  1.00  0.00     0.072 C 
ATOM     15  C   UNL     1      -0.236   4.852   0.968  1.00  0.00     0.076 C 
ATOM     16  N   UNL     1       2.657   2.312  -1.044  1.00  0.00    -0.177 NA
ATOM     17  C   UNL     1       2.136   4.449   0.354  1.00  0.00     0.059 C 
ATOM     18  C   UNL     1       0.956   5.420   0.256  1.00  0.00     0.014 C 
BRANCH  16  19
ATOM     19  N   UNL     1       3.875   2.391  -1.681  1.00  0.00    -0.246 N 
ATOM     20  C   UNL     1       4.838   3.336  -2.005  1.00  0.00     0.252 C 
ATOM     21  H   UNL     1       4.146   1.503  -2.008  1.00  0.00     0.193 HD
ATOM     22  O   UNL     1       5.793   2.963  -2.704  1.00  0.00    -0.272 OA
BRANCH  20  23
ATOM     23  C   UNL     1       4.790   4.781  -1.490  1.00  0.00     0.140 C 
BRANCH  23  24
ATOM     24  C   UNL     1       3.543   5.478  -2.182  1.00  0.00    -0.031 A 
ATOM     25  C   UNL     1       3.150   6.808  -1.959  1.00  0.00     0.005 A 
ATOM     26  C   UNL     1       2.711   4.748  -3.084  1.00  0.00     0.005 A 
ATOM     27  C   UNL     1       1.936   7.307  -2.492  1.00  0.00     0.000 A 
ATOM     28  C   UNL     1       1.487   5.219  -3.567  1.00  0.00     0.000 A 
ATOM     29  C   UNL     1       1.089   6.504  -3.260  1.00  0.00     0.000 A 
ENDBRANCH  23  24
BRANCH  23  30
ATOM     30  C   UNL     1       5.065   4.695   0.080  1.00  0.00    -0.031 A 
ATOM     31  C   UNL     1       4.939   5.775   0.969  1.00  0.00     0.005 A 
ATOM     32  C   UNL     1       5.316   3.429   0.689  1.00  0.00     0.005 A 
ATOM     33  C   UNL     1       4.847   5.550   2.363  1.00  0.00     0.000 A 
ATOM     34  C   UNL     1       5.178   3.198   2.059  1.00  0.00     0.000 A 
ATOM     35  C   UNL     1       4.910   4.261   2.899  1.00  0.00     0.000 A 
ENDBRANCH  23  30
ENDBRANCH  20  23
ENDBRANCH  16  19
ENDBRANCH   5   8
ENDBRANCH   3   4
ENDBRANCH   2   3
ENDBRANCH   1   2
BRANCH   1  36
ATOM     36  C   UNL     1      -6.017   3.460   3.947  1.00  0.00     0.002 C 
BRANCH  36  37
ATOM     37  C   UNL     1      -5.705   4.912   4.342  1.00  0.00     0.021 C 
BRANCH  37  38
ATOM     38  C   UNL     1      -6.690   5.911   3.760  1.00  0.00     0.116 C 
BRANCH  38  39
ATOM     39  N   UNL     1      -8.046   5.718   4.278  1.00  0.00    -0.352 N 
ATOM     40  C   UNL     1      -9.196   6.425   3.970  1.00  0.00     0.251 C 
ATOM     41  H   UNL     1      -8.153   4.990   4.932  1.00  0.00     0.163 HD
ATOM     42  O   UNL     1     -10.159   6.408   4.717  1.00  0.00    -0.269 OA
BRANCH  40  43
ATOM     43  C   UNL     1      -9.223   7.193   2.712  1.00  0.00     0.039 A 
ATOM     44  C   UNL     1      -9.832   8.446   2.623  1.00  0.00     0.014 A 
ATOM     45  C   UNL     1      -8.579   6.638   1.612  1.00  0.00     0.014 A 
ATOM     46  C   UNL     1      -9.716   9.156   1.429  1.00  0.00     0.010 A 
ATOM     47  C   UNL     1      -8.280   7.420   0.533  1.00  0.00     0.010 A 
ATOM     48  C   UNL     1      -8.917   8.641   0.393  1.00  0.00    -0.014 A 
BRANCH  48  49
ATOM     49  C   UNL     1      -8.656   9.403  -0.821  1.00  0.00     0.031 A 
ATOM     50  C   UNL     1      -8.166  10.784  -0.574  1.00  0.00     0.074 A 
ATOM     51  C   UNL     1      -8.663   8.854  -2.057  1.00  0.00     0.049 A 
ATOM     52  N   UNL     1      -8.808  11.887  -0.767  1.00  0.00    -0.248 NA
ATOM     53  C   UNL     1      -6.886  10.960   0.133  1.00  0.00     0.031 C 
ATOM     54  C   UNL     1      -8.825   7.447  -2.447  1.00  0.00     0.029 A 
ATOM     55  N   UNL     1      -8.433   9.457  -3.252  1.00  0.00    -0.354 N 
ATOM     56  C   UNL     1      -7.925  12.908  -0.436  1.00  0.00     0.074 A 
ATOM     57  C   UNL     1      -6.850  12.285   0.293  1.00  0.00     0.031 C 
ATOM     58  C   UNL     1      -8.454   7.282  -3.737  1.00  0.00     0.029 A 
ATOM     59  C   UNL     1      -8.208   8.588  -4.316  1.00  0.00     0.049 A 
ATOM     60  H   UNL     1      -8.426  10.436  -3.359  1.00  0.00     0.167 HD
ATOM     61  C   UNL     1      -8.037  14.142  -1.001  1.00  0.00     0.037 A 
ATOM     62  C   UNL     1      -7.835   8.927  -5.578  1.00  0.00     0.037 A 
ATOM     63  C   UNL     1      -9.332  14.312  -1.616  1.00  0.00     0.049 A 
ATOM     64  C   UNL     1      -8.213  10.355  -5.759  1.00  0.00     0.074 A 
ATOM     65  C   UNL     1     -10.632  14.251  -1.148  1.00  0.00     0.029 A 
ATOM     66  N   UNL     1      -9.423  14.159  -2.980  1.00  0.00    -0.354 N 
ATOM     67  N   UNL     1      -9.450  10.777  -5.763  1.00  0.00    -0.248 NA
ATOM     68  C   UNL     1      -7.214  11.357  -5.418  1.00  0.00     0.031 C 
ATOM     69  C   UNL     1     -11.352  13.552  -2.163  1.00  0.00     0.029 A 
ATOM     70  C   UNL     1     -10.480  13.316  -3.226  1.00  0.00     0.049 A 
ATOM     71  H   UNL     1      -8.839  14.575  -3.654  1.00  0.00     0.167 HD
ATOM     72  C   UNL     1      -9.430  11.949  -5.019  1.00  0.00     0.074 A 
ATOM     73  C   UNL     1      -8.012  12.286  -4.884  1.00  0.00     0.031 C 
ATOM     74  C   UNL     1     -10.531  12.382  -4.333  1.00  0.00     0.037 A 
BRANCH  61  75
ATOM     75  C   UNL     1      -6.869  15.049  -1.304  1.00  0.00     0.058 A 
ATOM     76  C   UNL     1      -7.110  16.372  -1.729  1.00  0.00     0.135 A 
ATOM     77  C   UNL     1      -5.538  14.597  -1.450  1.00  0.00     0.135 A 
ATOM     78  F   UNL     1      -8.341  16.902  -1.649  1.00  0.00    -0.206 F 
ATOM     79  C   UNL     1      -6.118  17.162  -2.312  1.00  0.00     0.059 A 
ATOM     80  C   UNL     1      -4.523  15.386  -1.978  1.00  0.00     0.059 A 
ATOM     81  F   UNL     1      -5.175  13.338  -1.180  1.00  0.00    -0.206 F 
ATOM     82  C   UNL     1      -4.829  16.654  -2.441  1.00  0.00     0.060 A 
BRANCH  82  83
ATOM     83  S   UNL     1      -3.567  17.637  -3.266  1.00  0.00     0.124 S 
ATOM     84  O   UNL     1      -4.057  17.646  -4.640  1.00  0.00    -0.237 OA
ATOM     85  O   UNL     1      -3.655  18.904  -2.546  1.00  0.00    -0.237 OA
ATOM     86  O   UNL     1      -2.344  16.875  -3.035  1.00  0.00    -0.744 OA
ENDBRANCH  82  83
ENDBRANCH  61  75
BRANCH  62  87
ATOM     87  C   UNL     1      -6.845   8.233  -6.450  1.00  0.00     0.058 A 
ATOM     88  C   UNL     1      -6.686   8.583  -7.804  1.00  0.00     0.135 A 
ATOM     89  C   UNL     1      -5.835   7.414  -5.904  1.00  0.00     0.135 A 
ATOM     90  F   UNL     1      -7.588   9.375  -8.405  1.00  0.00    -0.206 F 
ATOM     91  C   UNL     1      -5.569   8.191  -8.555  1.00  0.00     0.059 A 
ATOM     92  C   UNL     1      -4.718   7.005  -6.633  1.00  0.00     0.059 A 
ATOM     93  F   UNL     1      -5.855   7.062  -4.610  1.00  0.00    -0.206 F 
ATOM     94  C   UNL     1      -4.576   7.419  -7.951  1.00  0.00     0.060 A 
BRANCH  94  95
ATOM     95  S   UNL     1      -3.044   7.062  -8.848  1.00  0.00     0.124 S 
ATOM     96  O   UNL     1      -3.503   6.129  -9.871  1.00  0.00    -0.237 OA
ATOM     97  O   UNL     1      -2.649   8.385  -9.321  1.00  0.00    -0.237 OA
ATOM     98  O   UNL     1      -2.178   6.488  -7.821  1.00  0.00    -0.744 OA
ENDBRANCH  94  95
ENDBRANCH  62  87
BRANCH  74  99
ATOM     99  C   UNL     1     -11.859  11.707  -4.588  1.00  0.00     0.058 A 
ATOM    100  C   UNL     1     -12.140  10.353  -4.322  1.00  0.00     0.135 A 
ATOM    101  C   UNL     1     -12.944  12.514  -4.964  1.00  0.00     0.135 A 
ATOM    102  F   UNL     1     -11.191   9.529  -3.861  1.00  0.00    -0.206 F 
ATOM    103  C   UNL     1     -13.427   9.822  -4.460  1.00  0.00     0.059 A 
ATOM    104  C   UNL     1     -14.239  12.015  -5.077  1.00  0.00     0.059 A 
ATOM    105  F   UNL     1     -12.761  13.828  -5.175  1.00  0.00    -0.206 F 
ATOM    106  C   UNL     1     -14.472  10.664  -4.837  1.00  0.00     0.060 A 
BRANCH 106 107
ATOM    107  S   UNL     1     -16.148   9.998  -4.955  1.00  0.00     0.124 S 
ATOM    108  O   UNL     1     -16.055   9.142  -6.133  1.00  0.00    -0.237 OA
ATOM    109  O   UNL     1     -16.306   9.306  -3.680  1.00  0.00    -0.237 OA
ATOM    110  O   UNL     1     -16.979  11.189  -5.115  1.00  0.00    -0.744 OA
ENDBRANCH 106 107
ENDBRANCH  74  99
ENDBRANCH  48  49
ENDBRANCH  40  43
ENDBRANCH  38  39
ENDBRANCH  37  38
ENDBRANCH  36  37
ENDBRANCH   1  36
TORSDOF 20
