REMARK SMILES COc1cc(/C=C2/SC(=O)N(c3ccc(C)c(C)c3)C2=O)ccc1OCCC(=O)NCCCCCCNC(=O)c1ccc(-c2c3nc(c(-c4c(F)cc(S(=O)(=O)[O-])cc4F)c4ccc([nH]4)c(-c4c(F)cc(S(=O)(=O)[O-])cc4F)c4nc(c(-c5c(F)cc(S(=O)(=O)[O-])cc5F)c5ccc2[nH]5)C=C4)C=C3)cc1
REMARK SMILES IDX 32 1 31 2 30 3 28 4 29 5 27 7 26 8 25 9 24 10 3 11 4 12 5 13
REMARK SMILES IDX 23 14 22 15 2 16 1 17 6 18 7 19 8 20 20 21 9 22 11 23 21 24
REMARK SMILES IDX 10 25 12 26 13 27 19 28 14 29 17 30 15 31 18 32 16 33 33 34
REMARK SMILES IDX 34 35 35 36 36 37 37 38 38 39 39 41 40 42 41 43 105 44 42 45
REMARK SMILES IDX 104 46 43 47 44 48 45 49 98 50 46 51 103 52 97 53 99 54
REMARK SMILES IDX 47 55 102 56 96 57 95 58 48 60 82 61 61 62 81 63 62 64 65 65
REMARK SMILES IDX 80 66 100 67 63 68 64 69 79 71 101 72 66 73 49 74 50 75
REMARK SMILES IDX 59 76 51 77 52 78 58 79 60 80 53 81 54 82 55 83 56 84 57 85
REMARK SMILES IDX 83 86 84 87 93 88 85 89 86 90 92 91 94 92 87 93 88 94 89 95
REMARK SMILES IDX 90 96 91 97 67 98 68 99 77 100 69 101 70 102 76 103 78 104
REMARK SMILES IDX 71 105 72 106 73 107 74 108 75 109
REMARK H PARENT 30 6 37 40 99 59 65 70
REMARK Flexibility Score: inf
ROOT
ATOM      1  C   UNL     1       2.648   3.783  -0.893  1.00  0.00     0.021 C 
ENDROOT
BRANCH   1   2
ATOM      2  C   UNL     1       1.917   3.739   0.445  1.00  0.00     0.116 C 
BRANCH   2   3
ATOM      3  N   UNL     1       0.879   2.725   0.507  1.00  0.00    -0.356 N 
ATOM      4  C   UNL     1       0.999   1.391   0.769  1.00  0.00     0.223 C 
ATOM      5  O   UNL     1      -0.011   0.746   1.056  1.00  0.00    -0.275 OA
ATOM      6  H   UNL     1      -0.037   3.044   0.337  1.00  0.00     0.163 HD
BRANCH   4   7
ATOM      7  C   UNL     1       2.368   0.754   0.785  1.00  0.00     0.141 C 
BRANCH   7   8
ATOM      8  C   UNL     1       2.619  -0.302  -0.286  1.00  0.00     0.239 C 
BRANCH   8   9
ATOM      9  O   UNL     1       2.862   0.152  -1.606  1.00  0.00    -0.489 OA
BRANCH   9  10
ATOM     10  C   UNL     1       1.922   0.515  -2.519  1.00  0.00     0.161 A 
ATOM     11  C   UNL     1       0.525   0.483  -2.491  1.00  0.00     0.161 A 
ATOM     12  C   UNL     1      -0.217   1.200  -3.459  1.00  0.00     0.058 A 
ATOM     13  C   UNL     1       0.414   1.887  -4.498  1.00  0.00    -0.020 A 
ATOM     14  C   UNL     1       2.539   1.108  -3.632  1.00  0.00     0.051 A 
ATOM     15  C   UNL     1       1.806   1.794  -4.601  1.00  0.00     0.012 A 
BRANCH  11  16
ATOM     16  O   UNL     1      -0.247  -0.056  -1.505  1.00  0.00    -0.493 OA
ATOM     17  C   UNL     1      -0.206  -1.474  -1.400  1.00  0.00     0.278 C 
ENDBRANCH  11  16
BRANCH  13  18
ATOM     18  C   UNL     1      -0.320   2.822  -5.373  1.00  0.00     0.029 C 
ATOM     19  C   UNL     1      -0.203   2.823  -6.708  1.00  0.00     0.083 C 
ATOM     20  S   UNL     1      -0.508   4.149  -7.747  1.00  0.00    -0.022 SA
ATOM     21  C   UNL     1       0.527   1.787  -7.469  1.00  0.00     0.272 C 
ATOM     22  C   UNL     1       0.801   3.622  -8.834  1.00  0.00     0.298 C 
ATOM     23  N   UNL     1       1.328   2.425  -8.396  1.00  0.00    -0.236 N 
ATOM     24  O   UNL     1       0.344   0.599  -7.274  1.00  0.00    -0.268 OA
ATOM     25  O   UNL     1       1.074   4.272  -9.837  1.00  0.00    -0.260 OA
BRANCH  23  26
ATOM     26  C   UNL     1       2.559   1.853  -8.857  1.00  0.00     0.053 A 
ATOM     27  C   UNL     1       2.939   0.552  -8.500  1.00  0.00     0.027 A 
ATOM     28  C   UNL     1       3.501   2.615  -9.568  1.00  0.00     0.030 A 
ATOM     29  C   UNL     1       4.175   0.018  -8.869  1.00  0.00     0.006 A 
ATOM     30  C   UNL     1       4.772   2.104  -9.916  1.00  0.00    -0.046 A 
ATOM     31  C   UNL     1       5.097   0.777  -9.592  1.00  0.00    -0.048 A 
ATOM     32  C   UNL     1       5.748   3.005 -10.623  1.00  0.00     0.044 C 
ATOM     33  C   UNL     1       6.397   0.120  -9.964  1.00  0.00     0.044 C 
ENDBRANCH  23  26
ENDBRANCH  13  18
ENDBRANCH   9  10
ENDBRANCH   8   9
ENDBRANCH   7   8
ENDBRANCH   4   7
ENDBRANCH   2   3
ENDBRANCH   1   2
BRANCH   1  34
ATOM     34  C   UNL     1       1.747   4.189  -2.061  1.00  0.00     0.002 C 
BRANCH  34  35
ATOM     35  C   UNL     1       1.574   5.691  -2.274  1.00  0.00     0.002 C 
BRANCH  35  36
ATOM     36  C   UNL     1       2.847   6.413  -2.725  1.00  0.00     0.021 C 
BRANCH  36  37
ATOM     37  C   UNL     1       3.428   5.938  -4.057  1.00  0.00     0.116 C 
BRANCH  37  38
ATOM     38  N   UNL     1       2.631   6.369  -5.197  1.00  0.00    -0.352 N 
ATOM     39  C   UNL     1       3.001   7.196  -6.233  1.00  0.00     0.251 C 
ATOM     40  H   UNL     1       1.710   6.024  -5.231  1.00  0.00     0.163 HD
ATOM     41  O   UNL     1       2.163   7.608  -7.027  1.00  0.00    -0.269 OA
BRANCH  39  42
ATOM     42  C   UNL     1       4.417   7.606  -6.357  1.00  0.00     0.039 A 
ATOM     43  C   UNL     1       4.729   8.966  -6.405  1.00  0.00     0.014 A 
ATOM     44  C   UNL     1       5.433   6.646  -6.369  1.00  0.00     0.014 A 
ATOM     45  C   UNL     1       6.068   9.367  -6.385  1.00  0.00     0.010 A 
ATOM     46  C   UNL     1       6.765   7.050  -6.286  1.00  0.00     0.010 A 
ATOM     47  C   UNL     1       7.097   8.415  -6.282  1.00  0.00    -0.014 A 
BRANCH  47  48
ATOM     48  C   UNL     1       8.520   8.830  -6.149  1.00  0.00     0.031 A 
ATOM     49  C   UNL     1       9.517   8.478  -7.221  1.00  0.00     0.074 A 
ATOM     50  C   UNL     1       8.928   9.476  -5.037  1.00  0.00     0.049 A 
ATOM     51  N   UNL     1      10.808   8.689  -7.248  1.00  0.00    -0.248 NA
ATOM     52  C   UNL     1       8.999   7.778  -8.407  1.00  0.00     0.031 C 
ATOM     53  C   UNL     1       8.071   9.838  -3.904  1.00  0.00     0.029 A 
ATOM     54  N   UNL     1      10.169   9.935  -4.667  1.00  0.00    -0.354 N 
ATOM     55  C   UNL     1      11.256   8.152  -8.449  1.00  0.00     0.074 A 
ATOM     56  C   UNL     1      10.108   7.553  -9.097  1.00  0.00     0.031 C 
ATOM     57  C   UNL     1       8.808  10.471  -2.977  1.00  0.00     0.029 A 
ATOM     58  C   UNL     1      10.195  10.531  -3.427  1.00  0.00     0.049 A 
ATOM     59  H   UNL     1      10.967   9.845  -5.237  1.00  0.00     0.167 HD
ATOM     60  C   UNL     1      12.503   8.179  -8.978  1.00  0.00     0.037 A 
ATOM     61  C   UNL     1      11.220  11.054  -2.725  1.00  0.00     0.037 A 
ATOM     62  C   UNL     1      13.640   8.791  -8.341  1.00  0.00     0.049 A 
ATOM     63  C   UNL     1      12.601  11.053  -3.329  1.00  0.00     0.074 A 
ATOM     64  C   UNL     1      14.937   8.896  -8.814  1.00  0.00     0.029 A 
ATOM     65  N   UNL     1      13.619   9.405  -7.097  1.00  0.00    -0.354 N 
ATOM     66  N   UNL     1      12.992  10.587  -4.491  1.00  0.00    -0.248 NA
ATOM     67  C   UNL     1      13.678  11.657  -2.531  1.00  0.00     0.031 C 
ATOM     68  C   UNL     1      15.709   9.539  -7.841  1.00  0.00     0.029 A 
ATOM     69  C   UNL     1      14.883   9.878  -6.783  1.00  0.00     0.049 A 
ATOM     70  H   UNL     1      12.825   9.491  -6.523  1.00  0.00     0.167 HD
ATOM     71  C   UNL     1      14.352  10.870  -4.576  1.00  0.00     0.074 A 
ATOM     72  C   UNL     1      14.712  11.561  -3.356  1.00  0.00     0.031 C 
ATOM     73  C   UNL     1      15.224  10.583  -5.573  1.00  0.00     0.037 A 
BRANCH  60  74
ATOM     74  C   UNL     1      12.707   7.547 -10.327  1.00  0.00     0.058 A 
ATOM     75  C   UNL     1      12.203   8.141 -11.495  1.00  0.00     0.135 A 
ATOM     76  C   UNL     1      13.474   6.379 -10.465  1.00  0.00     0.135 A 
ATOM     77  F   UNL     1      11.449   9.249 -11.419  1.00  0.00    -0.206 F 
ATOM     78  C   UNL     1      12.440   7.593 -12.751  1.00  0.00     0.059 A 
ATOM     79  C   UNL     1      13.747   5.828 -11.714  1.00  0.00     0.059 A 
ATOM     80  F   UNL     1      13.978   5.769  -9.381  1.00  0.00    -0.206 F 
ATOM     81  C   UNL     1      13.219   6.439 -12.851  1.00  0.00     0.060 A 
BRANCH  81  82
ATOM     82  S   UNL     1      13.544   5.761 -14.492  1.00  0.00     0.124 S 
ATOM     83  O   UNL     1      12.235   5.223 -14.849  1.00  0.00    -0.237 OA
ATOM     84  O   UNL     1      13.969   6.942 -15.237  1.00  0.00    -0.237 OA
ATOM     85  O   UNL     1      14.585   4.767 -14.250  1.00  0.00    -0.744 OA
ENDBRANCH  81  82
ENDBRANCH  60  74
BRANCH  61  86
ATOM     86  C   UNL     1      10.993  11.625  -1.369  1.00  0.00     0.058 A 
ATOM     87  C   UNL     1      11.137  13.000  -1.125  1.00  0.00     0.135 A 
ATOM     88  C   UNL     1      10.663  10.803  -0.280  1.00  0.00     0.135 A 
ATOM     89  F   UNL     1      11.457  13.828  -2.132  1.00  0.00    -0.206 F 
ATOM     90  C   UNL     1      11.002  13.534   0.152  1.00  0.00     0.059 A 
ATOM     91  C   UNL     1      10.493  11.317   1.002  1.00  0.00     0.059 A 
ATOM     92  F   UNL     1      10.494   9.483  -0.459  1.00  0.00    -0.206 F 
ATOM     93  C   UNL     1      10.685  12.682   1.211  1.00  0.00     0.060 A 
BRANCH  93  94
ATOM     94  S   UNL     1      10.505  13.382   2.866  1.00  0.00     0.124 S 
ATOM     95  O   UNL     1      11.895  13.638   3.228  1.00  0.00    -0.237 OA
ATOM     96  O   UNL     1       9.682  14.561   2.614  1.00  0.00    -0.237 OA
ATOM     97  O   UNL     1       9.845  12.314   3.611  1.00  0.00    -0.744 OA
ENDBRANCH  93  94
ENDBRANCH  61  86
BRANCH  73  98
ATOM     98  C   UNL     1      16.643  11.055  -5.415  1.00  0.00     0.058 A 
ATOM     99  C   UNL     1      17.526  10.453  -4.505  1.00  0.00     0.135 A 
ATOM    100  C   UNL     1      17.141  12.090  -6.223  1.00  0.00     0.135 A 
ATOM    101  F   UNL     1      17.100   9.463  -3.704  1.00  0.00    -0.206 F 
ATOM    102  C   UNL     1      18.846  10.877  -4.385  1.00  0.00     0.059 A 
ATOM    103  C   UNL     1      18.465  12.510  -6.141  1.00  0.00     0.059 A 
ATOM    104  F   UNL     1      16.342  12.693  -7.118  1.00  0.00    -0.206 F 
ATOM    105  C   UNL     1      19.307  11.905  -5.209  1.00  0.00     0.060 A 
BRANCH 105 106
ATOM    106  S   UNL     1      21.031  12.421  -5.067  1.00  0.00     0.124 S 
ATOM    107  O   UNL     1      21.017  13.153  -3.806  1.00  0.00    -0.237 OA
ATOM    108  O   UNL     1      21.738  11.144  -5.051  1.00  0.00    -0.237 OA
ATOM    109  O   UNL     1      21.243  13.232  -6.262  1.00  0.00    -0.744 OA
ENDBRANCH 105 106
ENDBRANCH  73  98
ENDBRANCH  47  48
ENDBRANCH  39  42
ENDBRANCH  37  38
ENDBRANCH  36  37
ENDBRANCH  35  36
ENDBRANCH  34  35
ENDBRANCH   1  34
TORSDOF 22
