REMARK SMILES O=C(NCCCCCCNC(=O)c1ccc2c(=O)n(CCC[NH+]3CCOCC3)c(=O)[nH]c2c1)c1ccc(-c2c3nc(c(-c4c(F)cc(S(=O)(=O)[O-])cc4F)c4ccc([nH]4)c(-c4c(F)cc(S(=O)(=O)[O-])cc4F)c4nc(c(-c5c(F)cc(S(=O)(=O)[O-])cc5F)c5ccc2[nH]5)C=C4)C=C3)cc1
REMARK SMILES IDX 7 1 6 2 5 3 4 4 3 5 1 6 2 7 34 9 35 10 99 11 36 12 98 13
REMARK SMILES IDX 37 14 38 15 39 16 92 17 40 18 97 19 91 20 93 21 41 22 96 23
REMARK SMILES IDX 90 24 89 25 42 27 76 28 55 29 75 30 56 31 59 32 74 33 94 34
REMARK SMILES IDX 57 35 58 36 73 38 95 39 60 40 43 41 44 42 53 43 45 44 46 45
REMARK SMILES IDX 52 46 54 47 47 48 48 49 49 50 50 51 51 52 77 53 78 54 87 55
REMARK SMILES IDX 79 56 80 57 86 58 88 59 81 60 82 61 83 62 84 63 85 64 61 65
REMARK SMILES IDX 62 66 71 67 63 68 64 69 70 70 72 71 65 72 66 73 67 74 68 75
REMARK SMILES IDX 69 76 8 77 9 78 10 79 11 80 12 82 13 83 14 84 33 85 15 86
REMARK SMILES IDX 32 87 16 88 31 89 17 90 29 91 18 93 19 94 30 95 20 96 21 97
REMARK SMILES IDX 22 98 23 99 24 100 28 101 25 103 27 104 26 105
REMARK H PARENT 3 8 93 26 59 37 10 81 31 92 23 102
REMARK Flexibility Score: inf
ROOT
ATOM      1  C   UNL     1       4.657  -1.967  -3.918  1.00  0.00     0.002 C 
ENDROOT
BRANCH   1   2
ATOM      2  C   UNL     1       4.109  -2.813  -2.765  1.00  0.00     0.002 C 
BRANCH   2   3
ATOM      3  C   UNL     1       4.641  -2.445  -1.379  1.00  0.00     0.021 C 
BRANCH   3   4
ATOM      4  C   UNL     1       4.456  -0.984  -0.992  1.00  0.00     0.116 C 
BRANCH   4   5
ATOM      5  N   UNL     1       3.061  -0.588  -1.004  1.00  0.00    -0.352 N 
ATOM      6  O   UNL     1       1.095   0.086  -0.159  1.00  0.00    -0.269 OA
ATOM      7  C   UNL     1       2.313   0.013  -0.025  1.00  0.00     0.251 C 
ATOM      8  H   UNL     1       2.578  -0.781  -1.840  1.00  0.00     0.163 HD
BRANCH   7   9
ATOM      9  C   UNL     1       2.962   0.567   1.184  1.00  0.00     0.039 A 
ATOM     10  C   UNL     1       2.301   0.452   2.409  1.00  0.00     0.014 A 
ATOM     11  C   UNL     1       4.179   1.254   1.110  1.00  0.00     0.014 A 
ATOM     12  C   UNL     1       2.856   1.025   3.554  1.00  0.00     0.010 A 
ATOM     13  C   UNL     1       4.775   1.748   2.267  1.00  0.00     0.010 A 
ATOM     14  C   UNL     1       4.096   1.680   3.491  1.00  0.00    -0.014 A 
BRANCH  14  15
ATOM     15  C   UNL     1       4.633   2.399   4.673  1.00  0.00     0.031 A 
ATOM     16  C   UNL     1       4.749   3.901   4.637  1.00  0.00     0.074 A 
ATOM     17  C   UNL     1       5.012   1.715   5.769  1.00  0.00     0.049 A 
ATOM     18  N   UNL     1       5.180   4.719   5.561  1.00  0.00    -0.248 NA
ATOM     19  C   UNL     1       4.356   4.570   3.385  1.00  0.00     0.031 C 
ATOM     20  C   UNL     1       4.981   0.259   5.909  1.00  0.00     0.029 A 
ATOM     21  N   UNL     1       5.486   2.157   6.978  1.00  0.00    -0.354 N 
ATOM     22  C   UNL     1       5.121   5.989   4.999  1.00  0.00     0.074 A 
ATOM     23  C   UNL     1       4.682   5.829   3.632  1.00  0.00     0.031 C 
ATOM     24  C   UNL     1       5.375  -0.070   7.150  1.00  0.00     0.029 A 
ATOM     25  C   UNL     1       5.712   1.147   7.883  1.00  0.00     0.049 A 
ATOM     26  H   UNL     1       5.649   3.107   7.179  1.00  0.00     0.167 HD
ATOM     27  C   UNL     1       5.369   7.186   5.580  1.00  0.00     0.037 A 
ATOM     28  C   UNL     1       6.130   1.200   9.164  1.00  0.00     0.037 A 
ATOM     29  C   UNL     1       5.753   7.343   6.955  1.00  0.00     0.049 A 
ATOM     30  C   UNL     1       6.408   2.538   9.791  1.00  0.00     0.074 A 
ATOM     31  C   UNL     1       5.951   8.513   7.664  1.00  0.00     0.029 A 
ATOM     32  N   UNL     1       5.993   6.294   7.831  1.00  0.00    -0.354 N 
ATOM     33  N   UNL     1       6.280   3.734   9.266  1.00  0.00    -0.248 NA
ATOM     34  C   UNL     1       6.888   2.539  11.180  1.00  0.00     0.031 C 
ATOM     35  C   UNL     1       6.350   8.171   8.960  1.00  0.00     0.029 A 
ATOM     36  C   UNL     1       6.366   6.789   9.068  1.00  0.00     0.049 A 
ATOM     37  H   UNL     1       5.910   5.339   7.606  1.00  0.00     0.167 HD
ATOM     38  C   UNL     1       6.657   4.629  10.261  1.00  0.00     0.074 A 
ATOM     39  C   UNL     1       7.003   3.839  11.425  1.00  0.00     0.031 C 
ATOM     40  C   UNL     1       6.713   5.983  10.212  1.00  0.00     0.037 A 
BRANCH  27  41
ATOM     41  C   UNL     1       5.212   8.414   4.728  1.00  0.00     0.058 A 
ATOM     42  C   UNL     1       3.947   8.858   4.306  1.00  0.00     0.135 A 
ATOM     43  C   UNL     1       6.333   9.157   4.328  1.00  0.00     0.135 A 
ATOM     44  F   UNL     1       2.843   8.175   4.647  1.00  0.00    -0.206 F 
ATOM     45  C   UNL     1       3.804   9.968   3.482  1.00  0.00     0.059 A 
ATOM     46  C   UNL     1       6.211  10.288   3.526  1.00  0.00     0.059 A 
ATOM     47  F   UNL     1       7.565   8.777   4.703  1.00  0.00    -0.206 F 
ATOM     48  C   UNL     1       4.943  10.674   3.092  1.00  0.00     0.060 A 
BRANCH  48  49
ATOM     49  S   UNL     1       4.741  12.097   2.000  1.00  0.00     0.124 S 
ATOM     50  O   UNL     1       4.430  11.446   0.731  1.00  0.00    -0.237 OA
ATOM     51  O   UNL     1       3.639  12.819   2.628  1.00  0.00    -0.237 OA
ATOM     52  O   UNL     1       6.039  12.761   2.063  1.00  0.00    -0.744 OA
ENDBRANCH  48  49
ENDBRANCH  27  41
BRANCH  28  53
ATOM     53  C   UNL     1       6.262  -0.060   9.940  1.00  0.00     0.058 A 
ATOM     54  C   UNL     1       5.318  -0.398  10.921  1.00  0.00     0.135 A 
ATOM     55  C   UNL     1       7.288  -0.979   9.674  1.00  0.00     0.135 A 
ATOM     56  F   UNL     1       4.324   0.453  11.215  1.00  0.00    -0.206 F 
ATOM     57  C   UNL     1       5.379  -1.608  11.603  1.00  0.00     0.059 A 
ATOM     58  C   UNL     1       7.360  -2.204  10.331  1.00  0.00     0.059 A 
ATOM     59  F   UNL     1       8.207  -0.707   8.735  1.00  0.00    -0.206 F 
ATOM     60  C   UNL     1       6.398  -2.510  11.293  1.00  0.00     0.060 A 
BRANCH  60  61
ATOM     61  S   UNL     1       6.410  -4.116  12.120  1.00  0.00     0.124 S 
ATOM     62  O   UNL     1       6.796  -3.747  13.477  1.00  0.00    -0.237 OA
ATOM     63  O   UNL     1       5.030  -4.558  11.946  1.00  0.00    -0.237 OA
ATOM     64  O   UNL     1       7.403  -4.875  11.365  1.00  0.00    -0.744 OA
ENDBRANCH  60  61
ENDBRANCH  28  53
BRANCH  40  65
ATOM     65  C   UNL     1       7.182   6.712  11.438  1.00  0.00     0.058 A 
ATOM     66  C   UNL     1       8.545   6.777  11.761  1.00  0.00     0.135 A 
ATOM     67  C   UNL     1       6.282   7.459  12.215  1.00  0.00     0.135 A 
ATOM     68  F   UNL     1       9.442   6.074  11.052  1.00  0.00    -0.206 F 
ATOM     69  C   UNL     1       9.004   7.572  12.806  1.00  0.00     0.059 A 
ATOM     70  C   UNL     1       6.721   8.276  13.252  1.00  0.00     0.059 A 
ATOM     71  F   UNL     1       4.968   7.434  11.939  1.00  0.00    -0.206 F 
ATOM     72  C   UNL     1       8.085   8.329  13.536  1.00  0.00     0.060 A 
BRANCH  72  73
ATOM     73  S   UNL     1       8.710   9.430  14.824  1.00  0.00     0.124 S 
ATOM     74  O   UNL     1       9.122   8.479  15.851  1.00  0.00    -0.237 OA
ATOM     75  O   UNL     1       9.791  10.129  14.136  1.00  0.00    -0.237 OA
ATOM     76  O   UNL     1       7.552  10.254  15.159  1.00  0.00    -0.744 OA
ENDBRANCH  72  73
ENDBRANCH  40  65
ENDBRANCH  14  15
ENDBRANCH   7   9
ENDBRANCH   4   5
ENDBRANCH   3   4
ENDBRANCH   2   3
ENDBRANCH   1   2
BRANCH   1  77
ATOM     77  C   UNL     1       6.183  -1.944  -4.038  1.00  0.00     0.021 C 
BRANCH  77  78
ATOM     78  C   UNL     1       6.836  -3.323  -4.072  1.00  0.00     0.116 C 
BRANCH  78  79
ATOM     79  N   UNL     1       6.326  -4.130  -5.171  1.00  0.00    -0.352 N 
ATOM     80  C   UNL     1       7.024  -4.704  -6.197  1.00  0.00     0.251 C 
ATOM     81  H   UNL     1       5.353  -4.282  -5.176  1.00  0.00     0.163 HD
ATOM     82  O   UNL     1       6.465  -5.228  -7.155  1.00  0.00    -0.269 OA
BRANCH  80  83
ATOM     83  C   UNL     1       8.488  -4.681  -6.125  1.00  0.00     0.041 A 
ATOM     84  C   UNL     1       9.124  -5.402  -5.106  1.00  0.00     0.015 A 
ATOM     85  C   UNL     1       9.202  -3.886  -7.027  1.00  0.00     0.040 A 
ATOM     86  C   UNL     1      10.501  -5.312  -4.974  1.00  0.00     0.017 A 
ATOM     87  C   UNL     1      10.576  -3.771  -6.858  1.00  0.00     0.056 A 
ATOM     88  C   UNL     1      11.212  -4.493  -5.856  1.00  0.00     0.064 A 
ATOM     89  N   UNL     1      11.332  -2.921  -7.661  1.00  0.00    -0.307 N 
ATOM     90  C   UNL     1      12.665  -4.388  -5.755  1.00  0.00     0.264 A 
ATOM     91  C   UNL     1      12.658  -2.646  -7.440  1.00  0.00     0.328 A 
ATOM     92  H   UNL     1      10.890  -2.493  -8.430  1.00  0.00     0.171 HD
ATOM     93  O   UNL     1      13.258  -5.284  -5.165  1.00  0.00    -0.268 OA
ATOM     94  N   UNL     1      13.265  -3.309  -6.381  1.00  0.00    -0.260 N 
ATOM     95  O   UNL     1      13.232  -1.863  -8.196  1.00  0.00    -0.248 OA
BRANCH  94  96
ATOM     96  C   UNL     1      14.680  -3.059  -6.108  1.00  0.00     0.137 C 
BRANCH  96  97
ATOM     97  C   UNL     1      14.992  -2.526  -4.702  1.00  0.00     0.083 C 
BRANCH  97  98
ATOM     98  C   UNL     1      15.069  -3.518  -3.524  1.00  0.00     0.264 C 
BRANCH  98  99
ATOM     99  N   UNL     1      16.115  -4.527  -3.444  1.00  0.00    -0.331 N 
ATOM    100  C   UNL     1      17.466  -4.231  -3.899  1.00  0.00     0.291 C 
ATOM    101  C   UNL     1      15.746  -5.928  -3.656  1.00  0.00     0.291 C 
ATOM    102  H   UNL     1      16.198  -4.410  -2.434  1.00  0.00     0.348 HD
ATOM    103  C   UNL     1      17.810  -4.834  -5.272  1.00  0.00     0.221 C 
ATOM    104  C   UNL     1      16.117  -6.465  -5.046  1.00  0.00     0.221 C 
ATOM    105  O   UNL     1      17.503  -6.233  -5.343  1.00  0.00    -0.370 OA
ENDBRANCH  98  99
ENDBRANCH  97  98
ENDBRANCH  96  97
ENDBRANCH  94  96
ENDBRANCH  80  83
ENDBRANCH  78  79
ENDBRANCH  77  78
ENDBRANCH   1  77
TORSDOF 20
