REMARK SMILES COc1ccc(C(=O)N(C)C)cc1NC(=O)[C@H]1[C@@H](C(=O)NCCCCCCNC(=O)c2ccc(-c3c4nc(c(-c5c(F)cc(S(=O)(=O)[O-])cc5F)c5ccc([nH]5)c(-c5c(F)cc(S(=O)(=O)[O-])cc5F)c5nc(c(-c6c(F)cc(S(=O)(=O)[O-])cc6F)c6ccc3[nH]6)C=C5)C=C4)cc2)[C@H]2C=C[C@@H]1C2
REMARK SMILES IDX 24 1 23 2 22 3 21 4 19 5 20 6 18 8 17 9 100 10 97 11 99 12
REMARK SMILES IDX 101 13 98 14 15 15 14 16 16 18 13 19 3 20 4 21 5 22 12 23
REMARK SMILES IDX 6 24 2 25 1 26 7 27 8 28 9 29 10 30 11 31 25 32 26 33 27 34
REMARK SMILES IDX 28 35 29 36 30 38 31 39 32 40 96 41 33 42 95 43 34 44 35 45
REMARK SMILES IDX 36 46 89 47 37 48 94 49 88 50 90 51 38 52 93 53 87 54 86 55
REMARK SMILES IDX 39 57 73 58 52 59 72 60 53 61 56 62 71 63 91 64 54 65 55 66
REMARK SMILES IDX 70 68 92 69 57 70 40 71 41 72 50 73 42 74 43 75 49 76 51 77
REMARK SMILES IDX 44 78 45 79 46 80 47 81 48 82 74 83 75 84 84 85 76 86 77 87
REMARK SMILES IDX 83 88 85 89 78 90 79 91 80 92 81 93 82 94 58 95 59 96 68 97
REMARK SMILES IDX 60 98 61 99 67 100 69 101 62 102 63 103 64 104 65 105 66 106
REMARK H PARENT 21 7 14 17 28 37 90 56 56 67
REMARK Flexibility Score: inf
ROOT
ATOM      1  C   UNL     1       9.556   0.921  -0.139  1.00  0.00     0.002 C 
ENDROOT
BRANCH   1   2
ATOM      2  C   UNL     1       8.055   1.219  -0.120  1.00  0.00     0.021 C 
BRANCH   2   3
ATOM      3  C   UNL     1       7.507   1.732   1.206  1.00  0.00     0.116 C 
BRANCH   3   4
ATOM      4  N   UNL     1       7.958   3.083   1.457  1.00  0.00    -0.356 N 
ATOM      5  C   UNL     1       7.265   4.242   1.619  1.00  0.00     0.224 C 
ATOM      6  O   UNL     1       7.926   5.247   1.888  1.00  0.00    -0.275 OA
ATOM      7  H   UNL     1       8.936   3.180   1.522  1.00  0.00     0.163 HD
BRANCH   5   8
ATOM      8  C   UNL     1       5.742   4.226   1.646  1.00  0.00     0.098 C 
ATOM      9  C   UNL     1       4.890   3.963   0.363  1.00  0.00     0.099 C 
ATOM     10  C   UNL     1       3.978   5.220   0.285  1.00  0.00     0.025 C 
ATOM     11  C   UNL     1       5.120   5.556   2.177  1.00  0.00     0.025 C 
ATOM     12  C   UNL     1       4.803   6.470   0.097  1.00  0.00    -0.027 C 
ATOM     13  C   UNL     1       3.647   5.398   1.772  1.00  0.00     0.017 C 
ATOM     14  C   UNL     1       5.470   6.683   1.239  1.00  0.00    -0.027 C 
BRANCH   9  15
ATOM     15  C   UNL     1       5.492   3.643  -0.990  1.00  0.00     0.229 C 
ATOM     16  N   UNL     1       5.180   2.503  -1.690  1.00  0.00    -0.323 N 
ATOM     17  H   UNL     1       5.318   2.599  -2.660  1.00  0.00     0.170 HD
ATOM     18  O   UNL     1       6.269   4.427  -1.542  1.00  0.00    -0.274 OA
BRANCH  16  19
ATOM     19  C   UNL     1       4.705   1.219  -1.327  1.00  0.00     0.084 A 
ATOM     20  C   UNL     1       5.161   0.133  -2.099  1.00  0.00     0.142 A 
ATOM     21  C   UNL     1       4.986  -1.180  -1.655  1.00  0.00     0.049 A 
ATOM     22  C   UNL     1       4.343  -1.421  -0.435  1.00  0.00     0.018 A 
ATOM     23  C   UNL     1       3.896   0.934  -0.225  1.00  0.00     0.044 A 
ATOM     24  C   UNL     1       3.773  -0.364   0.288  1.00  0.00     0.042 A 
BRANCH  20  25
ATOM     25  O   UNL     1       5.640   0.338  -3.370  1.00  0.00    -0.495 OA
ATOM     26  C   UNL     1       7.051   0.510  -3.448  1.00  0.00     0.278 C 
ENDBRANCH  20  25
BRANCH  24  27
ATOM     27  C   UNL     1       2.986  -0.687   1.527  1.00  0.00     0.253 C 
ATOM     28  O   UNL     1       2.478  -1.808   1.584  1.00  0.00    -0.269 OA
ATOM     29  N   UNL     1       2.844   0.223   2.585  1.00  0.00    -0.345 N 
ATOM     30  C   UNL     1       3.538   1.479   2.748  1.00  0.00     0.146 C 
ATOM     31  C   UNL     1       2.023  -0.178   3.718  1.00  0.00     0.146 C 
ENDBRANCH  24  27
ENDBRANCH  16  19
ENDBRANCH   9  15
ENDBRANCH   5   8
ENDBRANCH   3   4
ENDBRANCH   2   3
ENDBRANCH   1   2
BRANCH   1  32
ATOM     32  C   UNL     1       9.987  -0.283   0.701  1.00  0.00     0.002 C 
BRANCH  32  33
ATOM     33  C   UNL     1       9.306  -1.612   0.360  1.00  0.00     0.021 C 
BRANCH  33  34
ATOM     34  C   UNL     1       9.404  -2.053  -1.098  1.00  0.00     0.116 C 
BRANCH  34  35
ATOM     35  N   UNL     1      10.773  -2.204  -1.558  1.00  0.00    -0.352 N 
ATOM     36  C   UNL     1      11.379  -3.280  -2.156  1.00  0.00     0.251 C 
ATOM     37  H   UNL     1      11.351  -1.418  -1.422  1.00  0.00     0.163 HD
ATOM     38  O   UNL     1      12.593  -3.268  -2.354  1.00  0.00    -0.269 OA
BRANCH  36  39
ATOM     39  C   UNL     1      10.581  -4.467  -2.530  1.00  0.00     0.039 A 
ATOM     40  C   UNL     1      11.034  -5.728  -2.136  1.00  0.00     0.014 A 
ATOM     41  C   UNL     1       9.390  -4.343  -3.253  1.00  0.00     0.014 A 
ATOM     42  C   UNL     1      10.254  -6.857  -2.397  1.00  0.00     0.010 A 
ATOM     43  C   UNL     1       8.585  -5.463  -3.459  1.00  0.00     0.010 A 
ATOM     44  C   UNL     1       9.001  -6.729  -3.019  1.00  0.00    -0.014 A 
BRANCH  44  45
ATOM     45  C   UNL     1       8.097  -7.903  -3.158  1.00  0.00     0.031 A 
ATOM     46  C   UNL     1       7.713  -8.423  -4.517  1.00  0.00     0.074 A 
ATOM     47  C   UNL     1       7.571  -8.461  -2.047  1.00  0.00     0.049 A 
ATOM     48  N   UNL     1       6.897  -9.399  -4.823  1.00  0.00    -0.248 NA
ATOM     49  C   UNL     1       8.307  -7.752  -5.684  1.00  0.00     0.031 C 
ATOM     50  C   UNL     1       7.828  -8.015  -0.674  1.00  0.00     0.029 A 
ATOM     51  N   UNL     1       6.701  -9.512  -1.891  1.00  0.00    -0.354 N 
ATOM     52  C   UNL     1       6.865  -9.450  -6.212  1.00  0.00     0.074 A 
ATOM     53  C   UNL     1       7.721  -8.386  -6.692  1.00  0.00     0.031 C 
ATOM     54  C   UNL     1       7.145  -8.794   0.180  1.00  0.00     0.029 A 
ATOM     55  C   UNL     1       6.365  -9.765  -0.580  1.00  0.00     0.049 A 
ATOM     56  H   UNL     1       6.349 -10.037  -2.647  1.00  0.00     0.167 HD
ATOM     57  C   UNL     1       6.193 -10.313  -7.009  1.00  0.00     0.037 A 
ATOM     58  C   UNL     1       5.510 -10.662  -0.049  1.00  0.00     0.037 A 
ATOM     59  C   UNL     1       5.370 -11.392  -6.523  1.00  0.00     0.049 A 
ATOM     60  C   UNL     1       4.769 -11.599  -0.966  1.00  0.00     0.074 A 
ATOM     61  C   UNL     1       4.728 -12.375  -7.255  1.00  0.00     0.029 A 
ATOM     62  N   UNL     1       5.064 -11.622  -5.191  1.00  0.00    -0.354 N 
ATOM     63  N   UNL     1       4.836 -11.698  -2.272  1.00  0.00    -0.248 NA
ATOM     64  C   UNL     1       3.836 -12.547  -0.340  1.00  0.00     0.031 C 
ATOM     65  C   UNL     1       3.980 -13.160  -6.373  1.00  0.00     0.029 A 
ATOM     66  C   UNL     1       4.205 -12.705  -5.085  1.00  0.00     0.049 A 
ATOM     67  H   UNL     1       5.405 -11.095  -4.433  1.00  0.00     0.167 HD
ATOM     68  C   UNL     1       3.974 -12.733  -2.619  1.00  0.00     0.074 A 
ATOM     69  C   UNL     1       3.417 -13.245  -1.385  1.00  0.00     0.031 C 
ATOM     70  C   UNL     1       3.665 -13.212  -3.849  1.00  0.00     0.037 A 
BRANCH  57  71
ATOM     71  C   UNL     1       6.305 -10.149  -8.500  1.00  0.00     0.058 A 
ATOM     72  C   UNL     1       7.473 -10.498  -9.197  1.00  0.00     0.135 A 
ATOM     73  C   UNL     1       5.187  -9.751  -9.253  1.00  0.00     0.135 A 
ATOM     74  F   UNL     1       8.575 -10.870  -8.527  1.00  0.00    -0.206 F 
ATOM     75  C   UNL     1       7.527 -10.459 -10.587  1.00  0.00     0.059 A 
ATOM     76  C   UNL     1       5.211  -9.730 -10.644  1.00  0.00     0.059 A 
ATOM     77  F   UNL     1       4.047  -9.404  -8.636  1.00  0.00    -0.206 F 
ATOM     78  C   UNL     1       6.387 -10.086 -11.302  1.00  0.00     0.060 A 
BRANCH  78  79
ATOM     79  S   UNL     1       6.458 -10.107 -13.106  1.00  0.00     0.124 S 
ATOM     80  O   UNL     1       7.340  -8.975 -13.377  1.00  0.00    -0.237 OA
ATOM     81  O   UNL     1       7.019 -11.426 -13.379  1.00  0.00    -0.237 OA
ATOM     82  O   UNL     1       5.066  -9.925 -13.505  1.00  0.00    -0.744 OA
ENDBRANCH  78  79
ENDBRANCH  57  71
BRANCH  58  83
ATOM     83  C   UNL     1       5.282 -10.713   1.423  1.00  0.00     0.058 A 
ATOM     84  C   UNL     1       5.657 -11.834   2.178  1.00  0.00     0.135 A 
ATOM     85  C   UNL     1       4.642  -9.660   2.096  1.00  0.00     0.135 A 
ATOM     86  F   UNL     1       6.268 -12.870   1.582  1.00  0.00    -0.206 F 
ATOM     87  C   UNL     1       5.367 -11.931   3.535  1.00  0.00     0.059 A 
ATOM     88  C   UNL     1       4.371  -9.719   3.459  1.00  0.00     0.059 A 
ATOM     89  F   UNL     1       4.279  -8.554   1.427  1.00  0.00    -0.206 F 
ATOM     90  C   UNL     1       4.717 -10.869   4.166  1.00  0.00     0.060 A 
BRANCH  90  91
ATOM     91  S   UNL     1       4.339 -11.005   5.926  1.00  0.00     0.124 S 
ATOM     92  O   UNL     1       3.237 -11.961   5.916  1.00  0.00    -0.237 OA
ATOM     93  O   UNL     1       5.601 -11.491   6.475  1.00  0.00    -0.237 OA
ATOM     94  O   UNL     1       3.987  -9.639   6.300  1.00  0.00    -0.744 OA
ENDBRANCH  90  91
ENDBRANCH  58  83
BRANCH  70  95
ATOM     95  C   UNL     1       2.701 -14.365  -3.925  1.00  0.00     0.058 A 
ATOM     96  C   UNL     1       1.334 -14.202  -3.653  1.00  0.00     0.135 A 
ATOM     97  C   UNL     1       3.141 -15.637  -4.329  1.00  0.00     0.135 A 
ATOM     98  F   UNL     1       0.862 -13.010  -3.254  1.00  0.00    -0.206 F 
ATOM     99  C   UNL     1       0.441 -15.263  -3.756  1.00  0.00     0.059 A 
ATOM    100  C   UNL     1       2.260 -16.704  -4.471  1.00  0.00     0.059 A 
ATOM    101  F   UNL     1       4.437 -15.847  -4.612  1.00  0.00    -0.206 F 
ATOM    102  C   UNL     1       0.912 -16.509  -4.172  1.00  0.00     0.060 A 
BRANCH 102 103
ATOM    103  S   UNL     1      -0.267 -17.866  -4.342  1.00  0.00     0.124 S 
ATOM    104  O   UNL     1      -0.566 -18.173  -2.947  1.00  0.00    -0.237 OA
ATOM    105  O   UNL     1      -1.348 -17.245  -5.101  1.00  0.00    -0.237 OA
ATOM    106  O   UNL     1       0.490 -18.887  -5.061  1.00  0.00    -0.744 OA
ENDBRANCH 102 103
ENDBRANCH  70  95
ENDBRANCH  44  45
ENDBRANCH  36  39
ENDBRANCH  34  35
ENDBRANCH  33  34
ENDBRANCH  32  33
ENDBRANCH   1  32
TORSDOF 20
