REMARK SMILES C[C@H](NC(=O)c1cc(S(=O)(=O)N(C)C)cs1)C(=O)NCCCCCCNC(=O)c1ccc(-c2c3nc(c(-c4c(F)cc(S(=O)(=O)[O-])cc4F)c4ccc([nH]4)c(-c4c(F)cc(S(=O)(=O)[O-])cc4F)c4nc(c(-c5c(F)cc(S(=O)(=O)[O-])cc5F)c5ccc2[nH]5)C=C4)C=C3)cc1
REMARK SMILES IDX 22 1 21 2 20 3 19 4 17 5 18 6 2 8 1 9 3 10 4 11 5 13 6 14
REMARK SMILES IDX 7 15 16 16 8 17 15 18 9 19 10 20 11 21 12 22 13 23 14 24
REMARK SMILES IDX 23 25 24 26 25 27 26 28 27 29 28 31 29 32 30 33 94 34 31 35
REMARK SMILES IDX 93 36 32 37 33 38 34 39 87 40 35 41 92 42 86 43 88 44 36 45
REMARK SMILES IDX 91 46 85 47 84 48 37 50 71 51 50 52 70 53 51 54 54 55 69 56
REMARK SMILES IDX 89 57 52 58 53 59 68 61 90 62 55 63 38 64 39 65 48 66 40 67
REMARK SMILES IDX 41 68 47 69 49 70 42 71 43 72 44 73 45 74 46 75 72 76 73 77
REMARK SMILES IDX 82 78 74 79 75 80 81 81 83 82 76 83 77 84 78 85 79 86 80 87
REMARK SMILES IDX 56 88 57 89 66 90 58 91 59 92 65 93 67 94 60 95 61 96 62 97
REMARK SMILES IDX 63 98 64 99
REMARK H PARENT 19 7 3 12 26 30 88 49 54 60
REMARK Flexibility Score: inf
ROOT
ATOM      1  C   UNL     1      -3.423  -2.376   1.515  1.00  0.00     0.002 C 
ENDROOT
BRANCH   1   2
ATOM      2  C   UNL     1      -1.948  -2.094   1.205  1.00  0.00     0.021 C 
BRANCH   2   3
ATOM      3  C   UNL     1      -1.663  -1.953  -0.289  1.00  0.00     0.116 C 
BRANCH   3   4
ATOM      4  N   UNL     1      -1.945  -0.611  -0.744  1.00  0.00    -0.354 N 
ATOM      5  C   UNL     1      -1.092   0.378  -1.121  1.00  0.00     0.242 C 
ATOM      6  O   UNL     1      -1.588   1.461  -1.452  1.00  0.00    -0.273 OA
ATOM      7  H   UNL     1      -2.900  -0.377  -0.788  1.00  0.00     0.163 HD
BRANCH   5   8
ATOM      8  C   UNL     1       0.432   0.150  -1.261  1.00  0.00     0.168 C 
ATOM      9  C   UNL     1       0.716  -0.630  -2.533  1.00  0.00     0.041 C 
BRANCH   8  10
ATOM     10  N   UNL     1       1.133  -0.186  -0.008  1.00  0.00    -0.340 N 
ATOM     11  C   UNL     1       1.663  -1.277   0.632  1.00  0.00     0.262 C 
ATOM     12  H   UNL     1       1.258   0.623   0.539  1.00  0.00     0.164 HD
ATOM     13  O   UNL     1       1.926  -1.103   1.825  1.00  0.00    -0.268 OA
BRANCH  11  14
ATOM     14  C   UNL     1       1.888  -2.540  -0.039  1.00  0.00     0.093 A 
ATOM     15  C   UNL     1       2.460  -2.822  -1.261  1.00  0.00     0.047 A 
ATOM     16  S   UNL     1       1.486  -3.999   0.786  1.00  0.00    -0.137 S 
ATOM     17  C   UNL     1       2.292  -4.188  -1.633  1.00  0.00     0.094 A 
ATOM     18  C   UNL     1       1.792  -4.950  -0.601  1.00  0.00     0.087 A 
BRANCH  17  19
ATOM     19  S   UNL     1       2.575  -4.815  -3.222  1.00  0.00     0.243 S 
ATOM     20  O   UNL     1       3.584  -5.833  -3.044  1.00  0.00    -0.207 OA
ATOM     21  O   UNL     1       1.237  -5.113  -3.683  1.00  0.00    -0.207 OA
BRANCH  19  22
ATOM     22  N   UNL     1       3.216  -3.577  -4.219  1.00  0.00    -0.204 NA
ATOM     23  C   UNL     1       4.639  -3.258  -3.960  1.00  0.00     0.124 C 
ATOM     24  C   UNL     1       2.976  -3.824  -5.660  1.00  0.00     0.124 C 
ENDBRANCH  19  22
ENDBRANCH  17  19
ENDBRANCH  11  14
ENDBRANCH   8  10
ENDBRANCH   5   8
ENDBRANCH   3   4
ENDBRANCH   2   3
ENDBRANCH   1   2
BRANCH   1  25
ATOM     25  C   UNL     1      -3.942  -3.726   1.003  1.00  0.00     0.002 C 
BRANCH  25  26
ATOM     26  C   UNL     1      -3.166  -4.959   1.481  1.00  0.00     0.021 C 
BRANCH  26  27
ATOM     27  C   UNL     1      -3.085  -5.127   2.998  1.00  0.00     0.116 C 
BRANCH  27  28
ATOM     28  N   UNL     1      -4.401  -5.243   3.604  1.00  0.00    -0.352 N 
ATOM     29  C   UNL     1      -4.902  -6.202   4.447  1.00  0.00     0.251 C 
ATOM     30  H   UNL     1      -5.030  -4.522   3.374  1.00  0.00     0.163 HD
ATOM     31  O   UNL     1      -6.106  -6.222   4.691  1.00  0.00    -0.269 OA
BRANCH  29  32
ATOM     32  C   UNL     1      -4.010  -7.215   5.054  1.00  0.00     0.039 A 
ATOM     33  C   UNL     1      -4.450  -8.541   5.118  1.00  0.00     0.014 A 
ATOM     34  C   UNL     1      -2.772  -6.863   5.601  1.00  0.00     0.014 A 
ATOM     35  C   UNL     1      -3.630  -9.520   5.684  1.00  0.00     0.010 A 
ATOM     36  C   UNL     1      -1.932  -7.849   6.118  1.00  0.00     0.010 A 
ATOM     37  C   UNL     1      -2.355  -9.186   6.167  1.00  0.00    -0.014 A 
BRANCH  37  38
ATOM     38  C   UNL     1      -1.453 -10.233   6.710  1.00  0.00     0.031 A 
ATOM     39  C   UNL     1      -1.100 -10.259   8.171  1.00  0.00     0.074 A 
ATOM     40  C   UNL     1      -0.914 -11.138   5.870  1.00  0.00     0.049 A 
ATOM     41  N   UNL     1      -0.329 -11.095   8.818  1.00  0.00    -0.248 NA
ATOM     42  C   UNL     1      -1.671  -9.194   9.010  1.00  0.00     0.031 C 
ATOM     43  C   UNL     1      -1.137 -11.184   4.423  1.00  0.00     0.029 A 
ATOM     44  N   UNL     1      -0.068 -12.190   6.109  1.00  0.00    -0.354 N 
ATOM     45  C   UNL     1      -0.307 -10.651  10.135  1.00  0.00     0.074 A 
ATOM     46  C   UNL     1      -1.113  -9.449  10.186  1.00  0.00     0.031 C 
ATOM     47  C   UNL     1      -0.467 -12.228   3.909  1.00  0.00     0.029 A 
ATOM     48  C   UNL     1       0.249 -12.910   4.982  1.00  0.00     0.049 A 
ATOM     49  H   UNL     1       0.279 -12.410   7.004  1.00  0.00     0.167 HD
ATOM     50  C   UNL     1       0.312 -11.204  11.206  1.00  0.00     0.037 A 
ATOM     51  C   UNL     1       1.023 -14.001   4.832  1.00  0.00     0.037 A 
ATOM     52  C   UNL     1       1.088 -12.415  11.157  1.00  0.00     0.049 A 
ATOM     53  C   UNL     1       1.679 -14.611   6.037  1.00  0.00     0.074 A 
ATOM     54  C   UNL     1       1.686 -13.100  12.201  1.00  0.00     0.029 A 
ATOM     55  N   UNL     1       1.380 -13.121   9.999  1.00  0.00    -0.354 N 
ATOM     56  N   UNL     1       1.626 -14.222   7.289  1.00  0.00    -0.248 NA
ATOM     57  C   UNL     1       2.493 -15.812   5.812  1.00  0.00     0.031 C 
ATOM     58  C   UNL     1       2.366 -14.203  11.670  1.00  0.00     0.029 A 
ATOM     59  C   UNL     1       2.166 -14.223  10.299  1.00  0.00     0.049 A 
ATOM     60  H   UNL     1       1.073 -12.876   9.097  1.00  0.00     0.167 HD
ATOM     61  C   UNL     1       2.388 -15.138   8.003  1.00  0.00     0.074 A 
ATOM     62  C   UNL     1       2.879 -16.109   7.046  1.00  0.00     0.031 C 
ATOM     63  C   UNL     1       2.656 -15.173   9.332  1.00  0.00     0.037 A 
BRANCH  50  64
ATOM     64  C   UNL     1       0.170 -10.495  12.524  1.00  0.00     0.058 A 
ATOM     65  C   UNL     1      -1.040 -10.504  13.238  1.00  0.00     0.135 A 
ATOM     66  C   UNL     1       1.256  -9.803  13.084  1.00  0.00     0.135 A 
ATOM     67  F   UNL     1      -2.113 -11.139  12.741  1.00  0.00    -0.206 F 
ATOM     68  C   UNL     1      -1.179  -9.819  14.441  1.00  0.00     0.059 A 
ATOM     69  C   UNL     1       1.145  -9.131  14.298  1.00  0.00     0.059 A 
ATOM     70  F   UNL     1       2.435  -9.765  12.445  1.00  0.00    -0.206 F 
ATOM     71  C   UNL     1      -0.083  -9.128  14.959  1.00  0.00     0.060 A 
BRANCH  71  72
ATOM     72  S   UNL     1      -0.280  -8.225  16.510  1.00  0.00     0.124 S 
ATOM     73  O   UNL     1      -0.979  -7.025  16.060  1.00  0.00    -0.237 OA
ATOM     74  O   UNL     1      -1.068  -9.150  17.318  1.00  0.00    -0.237 OA
ATOM     75  O   UNL     1       1.093  -8.021  16.960  1.00  0.00    -0.744 OA
ENDBRANCH  71  72
ENDBRANCH  50  64
BRANCH  51  76
ATOM     76  C   UNL     1       1.177 -14.611   3.487  1.00  0.00     0.058 A 
ATOM     77  C   UNL     1       0.507 -15.798   3.160  1.00  0.00     0.135 A 
ATOM     78  C   UNL     1       1.959 -14.002   2.494  1.00  0.00     0.135 A 
ATOM     79  F   UNL     1      -0.247 -16.417   4.081  1.00  0.00    -0.206 F 
ATOM     80  C   UNL     1       0.608 -16.365   1.895  1.00  0.00     0.059 A 
ATOM     81  C   UNL     1       2.061 -14.541   1.215  1.00  0.00     0.059 A 
ATOM     82  F   UNL     1       2.606 -12.856   2.756  1.00  0.00    -0.206 F 
ATOM     83  C   UNL     1       1.384 -15.726   0.927  1.00  0.00     0.060 A 
BRANCH  83  84
ATOM     84  S   UNL     1       1.449 -16.430  -0.736  1.00  0.00     0.124 S 
ATOM     85  O   UNL     1       2.366 -17.547  -0.546  1.00  0.00    -0.237 OA
ATOM     86  O   UNL     1       0.053 -16.782  -0.977  1.00  0.00    -0.237 OA
ATOM     87  O   UNL     1       1.955 -15.325  -1.545  1.00  0.00    -0.744 OA
ENDBRANCH  83  84
ENDBRANCH  51  76
BRANCH  63  88
ATOM     88  C   UNL     1       3.513 -16.304   9.824  1.00  0.00     0.058 A 
ATOM     89  C   UNL     1       4.899 -16.321   9.602  1.00  0.00     0.135 A 
ATOM     90  C   UNL     1       2.948 -17.372  10.538  1.00  0.00     0.135 A 
ATOM     91  F   UNL     1       5.486 -15.327   8.918  1.00  0.00    -0.206 F 
ATOM     92  C   UNL     1       5.692 -17.374  10.048  1.00  0.00     0.059 A 
ATOM     93  C   UNL     1       3.725 -18.424  11.011  1.00  0.00     0.059 A 
ATOM     94  F   UNL     1       1.628 -17.397  10.783  1.00  0.00    -0.206 F 
ATOM     95  C   UNL     1       5.095 -18.424  10.747  1.00  0.00     0.060 A 
BRANCH  95  96
ATOM     96  S   UNL     1       6.131 -19.782  11.332  1.00  0.00     0.124 S 
ATOM     97  O   UNL     1       6.297 -20.569  10.115  1.00  0.00    -0.237 OA
ATOM     98  O   UNL     1       7.324 -19.088  11.807  1.00  0.00    -0.237 OA
ATOM     99  O   UNL     1       5.318 -20.400  12.376  1.00  0.00    -0.744 OA
ENDBRANCH  95  96
ENDBRANCH  63  88
ENDBRANCH  37  38
ENDBRANCH  29  32
ENDBRANCH  27  28
ENDBRANCH  26  27
ENDBRANCH  25  26
ENDBRANCH   1  25
TORSDOF 20
