REMARK SMILES CCc1ccc(NC(=O)c2c(C(=O)NCCCCCCNC(=O)c3ccc(-c4c5nc(c(-c6c(F)cc(S(=O)(=O)[O-])cc6F)c6ccc([nH]6)c(-c6c(F)cc(S(=O)(=O)[O-])cc6F)c6nc(c(-c7c(F)cc(S(=O)(=O)[O-])cc7F)c7ccc4[nH]7)C=C6)C=C5)cc3)cnn2C)cc1
REMARK SMILES IDX 17 1 16 2 15 3 14 4 12 5 13 6 11 8 10 9 92 10 90 11 91 12
REMARK SMILES IDX 93 13 8 14 7 15 9 17 6 18 3 19 4 20 95 21 5 22 94 23 2 24
REMARK SMILES IDX 1 25 18 26 19 27 20 28 21 29 22 30 23 32 24 33 25 34 89 35
REMARK SMILES IDX 26 36 88 37 27 38 28 39 29 40 82 41 30 42 87 43 81 44 83 45
REMARK SMILES IDX 31 46 86 47 80 48 79 49 32 51 66 52 45 53 65 54 46 55 49 56
REMARK SMILES IDX 64 57 84 58 47 59 48 60 63 62 85 63 50 64 33 65 34 66 43 67
REMARK SMILES IDX 35 68 36 69 42 70 44 71 37 72 38 73 39 74 40 75 41 76 67 77
REMARK SMILES IDX 68 78 77 79 69 80 70 81 76 82 78 83 71 84 72 85 73 86 74 87
REMARK SMILES IDX 75 88 51 89 52 90 61 91 53 92 54 93 60 94 62 95 55 96 56 97
REMARK SMILES IDX 57 98 58 99 59 100
REMARK H PARENT 14 7 7 16 21 31 83 50 49 61
REMARK Flexibility Score: inf
ROOT
ATOM      1  C   UNL     1       0.032  -9.830   3.543  1.00  0.00     0.002 C 
ENDROOT
BRANCH   1   2
ATOM      2  C   UNL     1       0.019  -8.480   2.826  1.00  0.00     0.021 C 
BRANCH   2   3
ATOM      3  C   UNL     1       0.392  -8.477   1.348  1.00  0.00     0.116 C 
BRANCH   3   4
ATOM      4  N   UNL     1      -0.535  -9.154   0.481  1.00  0.00    -0.352 N 
ATOM      5  C   UNL     1      -0.821  -8.980  -0.850  1.00  0.00     0.255 C 
ATOM      6  O   UNL     1      -1.709  -9.711  -1.299  1.00  0.00    -0.269 OA
ATOM      7  H   UNL     1      -1.056  -9.866   0.918  1.00  0.00     0.163 HD
BRANCH   5   8
ATOM      8  C   UNL     1      -0.204  -7.979  -1.720  1.00  0.00     0.090 A 
ATOM      9  C   UNL     1       0.964  -7.215  -1.691  1.00  0.00     0.138 A 
ATOM     10  N   UNL     1       0.989  -6.513  -2.878  1.00  0.00    -0.262 N 
ATOM     11  C   UNL     1      -0.808  -7.590  -2.950  1.00  0.00     0.149 A 
ATOM     12  N   UNL     1      -0.113  -6.679  -3.627  1.00  0.00    -0.180 NA
ATOM     13  C   UNL     1       2.011  -5.612  -3.368  1.00  0.00     0.174 C 
BRANCH   9  14
ATOM     14  C   UNL     1       2.041  -7.160  -0.745  1.00  0.00     0.274 C 
ATOM     15  N   UNL     1       2.278  -6.010  -0.015  1.00  0.00    -0.321 N 
ATOM     16  H   UNL     1       3.035  -6.091   0.609  1.00  0.00     0.170 HD
ATOM     17  O   UNL     1       2.797  -8.113  -0.570  1.00  0.00    -0.267 OA
BRANCH  15  18
ATOM     18  C   UNL     1       1.655  -4.745   0.017  1.00  0.00     0.041 A 
ATOM     19  C   UNL     1       0.826  -2.057  -0.274  1.00  0.00    -0.048 A 
ATOM     20  C   UNL     1       0.023  -3.113  -0.719  1.00  0.00     0.006 A 
ATOM     21  C   UNL     1       1.985  -2.372   0.441  1.00  0.00     0.006 A 
ATOM     22  C   UNL     1       0.418  -4.442  -0.544  1.00  0.00     0.026 A 
ATOM     23  C   UNL     1       2.389  -3.704   0.594  1.00  0.00     0.026 A 
BRANCH  19  24
ATOM     24  C   UNL     1       0.467  -0.653  -0.698  1.00  0.00     0.032 C 
ATOM     25  C   UNL     1       1.008   0.480   0.161  1.00  0.00     0.009 C 
ENDBRANCH  19  24
ENDBRANCH  15  18
ENDBRANCH   9  14
ENDBRANCH   5   8
ENDBRANCH   3   4
ENDBRANCH   2   3
ENDBRANCH   1   2
BRANCH   1  26
ATOM     26  C   UNL     1       1.300 -10.679   3.420  1.00  0.00     0.002 C 
BRANCH  26  27
ATOM     27  C   UNL     1       2.634  -9.996   3.731  1.00  0.00     0.021 C 
BRANCH  27  28
ATOM     28  C   UNL     1       2.727  -9.249   5.057  1.00  0.00     0.116 C 
BRANCH  28  29
ATOM     29  N   UNL     1       2.461 -10.089   6.211  1.00  0.00    -0.352 N 
ATOM     30  C   UNL     1       3.183 -10.243   7.370  1.00  0.00     0.251 C 
ATOM     31  H   UNL     1       1.640 -10.629   6.155  1.00  0.00     0.163 HD
ATOM     32  O   UNL     1       2.843 -11.094   8.188  1.00  0.00    -0.269 OA
BRANCH  30  33
ATOM     33  C   UNL     1       4.383  -9.412   7.627  1.00  0.00     0.039 A 
ATOM     34  C   UNL     1       5.532 -10.031   8.126  1.00  0.00     0.014 A 
ATOM     35  C   UNL     1       4.379  -8.033   7.397  1.00  0.00     0.014 A 
ATOM     36  C   UNL     1       6.694  -9.282   8.335  1.00  0.00     0.010 A 
ATOM     37  C   UNL     1       5.557  -7.301   7.539  1.00  0.00     0.010 A 
ATOM     38  C   UNL     1       6.726  -7.916   8.012  1.00  0.00    -0.014 A 
BRANCH  38  39
ATOM     39  C   UNL     1       7.972  -7.119   8.161  1.00  0.00     0.031 A 
ATOM     40  C   UNL     1       8.035  -5.985   9.148  1.00  0.00     0.074 A 
ATOM     41  C   UNL     1       9.029  -7.377   7.367  1.00  0.00     0.049 A 
ATOM     42  N   UNL     1       9.011  -5.146   9.384  1.00  0.00    -0.248 NA
ATOM     43  C   UNL     1       6.831  -5.750   9.960  1.00  0.00     0.031 C 
ATOM     44  C   UNL     1       9.082  -8.426   6.346  1.00  0.00     0.029 A 
ATOM     45  N   UNL     1      10.261  -6.777   7.290  1.00  0.00    -0.354 N 
ATOM     46  C   UNL     1       8.537  -4.277  10.360  1.00  0.00     0.074 A 
ATOM     47  C   UNL     1       7.166  -4.656  10.629  1.00  0.00     0.031 C 
ATOM     48  C   UNL     1      10.295  -8.417   5.770  1.00  0.00     0.029 A 
ATOM     49  C   UNL     1      11.092  -7.340   6.349  1.00  0.00     0.049 A 
ATOM     50  H   UNL     1      10.525  -6.016   7.855  1.00  0.00     0.167 HD
ATOM     51  C   UNL     1       9.190  -3.271  10.993  1.00  0.00     0.037 A 
ATOM     52  C   UNL     1      12.352  -7.024   5.994  1.00  0.00     0.037 A 
ATOM     53  C   UNL     1      10.558  -2.906  10.730  1.00  0.00     0.049 A 
ATOM     54  C   UNL     1      13.052  -5.890   6.691  1.00  0.00     0.074 A 
ATOM     55  C   UNL     1      11.325  -1.934  11.347  1.00  0.00     0.029 A 
ATOM     56  N   UNL     1      11.363  -3.495   9.765  1.00  0.00    -0.354 N 
ATOM     57  N   UNL     1      12.607  -5.111   7.648  1.00  0.00    -0.248 NA
ATOM     58  C   UNL     1      14.425  -5.593   6.261  1.00  0.00     0.031 C 
ATOM     59  C   UNL     1      12.579  -1.905  10.725  1.00  0.00     0.029 A 
ATOM     60  C   UNL     1      12.611  -2.892   9.753  1.00  0.00     0.049 A 
ATOM     61  H   UNL     1      11.088  -4.234   9.175  1.00  0.00     0.167 HD
ATOM     62  C   UNL     1      13.654  -4.250   7.956  1.00  0.00     0.074 A 
ATOM     63  C   UNL     1      14.756  -4.608   7.085  1.00  0.00     0.031 C 
ATOM     64  C   UNL     1      13.700  -3.257   8.879  1.00  0.00     0.037 A 
BRANCH  51  65
ATOM     65  C   UNL     1       8.416  -2.493  12.024  1.00  0.00     0.058 A 
ATOM     66  C   UNL     1       8.016  -3.073  13.240  1.00  0.00     0.135 A 
ATOM     67  C   UNL     1       8.051  -1.158  11.788  1.00  0.00     0.135 A 
ATOM     68  F   UNL     1       8.328  -4.350  13.514  1.00  0.00    -0.206 F 
ATOM     69  C   UNL     1       7.234  -2.378  14.157  1.00  0.00     0.059 A 
ATOM     70  C   UNL     1       7.296  -0.433  12.706  1.00  0.00     0.059 A 
ATOM     71  F   UNL     1       8.411  -0.549  10.647  1.00  0.00    -0.206 F 
ATOM     72  C   UNL     1       6.869  -1.062  13.875  1.00  0.00     0.060 A 
BRANCH  72  73
ATOM     73  S   UNL     1       5.810  -0.188  15.047  1.00  0.00     0.124 S 
ATOM     74  O   UNL     1       4.514  -0.805  14.780  1.00  0.00    -0.237 OA
ATOM     75  O   UNL     1       6.418  -0.524  16.331  1.00  0.00    -0.237 OA
ATOM     76  O   UNL     1       5.935   1.208  14.643  1.00  0.00    -0.744 OA
ENDBRANCH  72  73
ENDBRANCH  51  65
BRANCH  52  77
ATOM     77  C   UNL     1      13.047  -7.833   4.958  1.00  0.00     0.058 A 
ATOM     78  C   UNL     1      14.070  -8.723   5.315  1.00  0.00     0.135 A 
ATOM     79  C   UNL     1      12.676  -7.770   3.606  1.00  0.00     0.135 A 
ATOM     80  F   UNL     1      14.465  -8.812   6.594  1.00  0.00    -0.206 F 
ATOM     81  C   UNL     1      14.702  -9.524   4.370  1.00  0.00     0.059 A 
ATOM     82  C   UNL     1      13.278  -8.577   2.645  1.00  0.00     0.059 A 
ATOM     83  F   UNL     1      11.693  -6.943   3.216  1.00  0.00    -0.206 F 
ATOM     84  C   UNL     1      14.292  -9.450   3.037  1.00  0.00     0.060 A 
BRANCH  84  85
ATOM     85  S   UNL     1      15.066 -10.552   1.834  1.00  0.00     0.124 S 
ATOM     86  O   UNL     1      16.393  -9.961   1.705  1.00  0.00    -0.237 OA
ATOM     87  O   UNL     1      15.003 -11.841   2.516  1.00  0.00    -0.237 OA
ATOM     88  O   UNL     1      14.203 -10.428   0.663  1.00  0.00    -0.744 OA
ENDBRANCH  84  85
ENDBRANCH  52  77
BRANCH  64  89
ATOM     89  C   UNL     1      14.993  -2.502   9.019  1.00  0.00     0.058 A 
ATOM     90  C   UNL     1      15.416  -1.576   8.053  1.00  0.00     0.135 A 
ATOM     91  C   UNL     1      15.796  -2.673  10.159  1.00  0.00     0.135 A 
ATOM     92  F   UNL     1      14.690  -1.381   6.941  1.00  0.00    -0.206 F 
ATOM     93  C   UNL     1      16.599  -0.860   8.203  1.00  0.00     0.059 A 
ATOM     94  C   UNL     1      16.969  -1.948  10.342  1.00  0.00     0.059 A 
ATOM     95  F   UNL     1      15.433  -3.540  11.118  1.00  0.00    -0.206 F 
ATOM     96  C   UNL     1      17.369  -1.051   9.352  1.00  0.00     0.060 A 
BRANCH  96  97
ATOM     97  S   UNL     1      18.883  -0.088   9.552  1.00  0.00     0.124 S 
ATOM     98  O   UNL     1      19.778  -0.749   8.607  1.00  0.00    -0.237 OA
ATOM     99  O   UNL     1      18.450   1.255   9.180  1.00  0.00    -0.237 OA
ATOM    100  O   UNL     1      19.215  -0.266  10.962  1.00  0.00    -0.744 OA
ENDBRANCH  96  97
ENDBRANCH  64  89
ENDBRANCH  38  39
ENDBRANCH  30  33
ENDBRANCH  28  29
ENDBRANCH  27  28
ENDBRANCH  26  27
ENDBRANCH   1  26
TORSDOF 19
