REMARK SMILES O=C(NCCCCCCNC(=O)c1cn(C2C[NH+](Cc3cc(F)ccc3F)C2)nn1)c1ccc(-c2c3nc(c(-c4c(F)cc(S(=O)(=O)[O-])cc4F)c4ccc([nH]4)c(-c4c(F)cc(S(=O)(=O)[O-])cc4F)c4nc(c(-c5c(F)cc(S(=O)(=O)[O-])cc5F)c5ccc2[nH]5)C=C4)C=C3)cc1
REMARK SMILES IDX 6 1 5 2 4 3 3 4 1 5 2 6 31 8 32 9 96 10 33 11 95 12 34 13
REMARK SMILES IDX 35 14 36 15 89 16 37 17 94 18 88 19 90 20 38 21 93 22 87 23
REMARK SMILES IDX 86 24 39 26 73 27 52 28 72 29 53 30 56 31 71 32 91 33 54 34
REMARK SMILES IDX 55 35 70 37 92 38 57 39 40 40 41 41 50 42 42 43 43 44 49 45
REMARK SMILES IDX 51 46 44 47 45 48 46 49 47 50 48 51 74 52 75 53 84 54 76 55
REMARK SMILES IDX 77 56 83 57 85 58 78 59 79 60 80 61 81 62 82 63 58 64 59 65
REMARK SMILES IDX 68 66 60 67 61 68 67 69 69 70 62 71 63 72 64 73 65 74 66 75
REMARK SMILES IDX 7 76 8 77 9 78 10 79 11 80 12 82 13 83 14 84 30 85 15 86
REMARK SMILES IDX 29 87 16 88 17 89 28 90 18 91 19 93 20 94 21 95 26 96 22 97
REMARK SMILES IDX 25 98 27 99 23 100 24 101
REMARK H PARENT 3 7 90 25 56 36 10 81 18 92
REMARK Flexibility Score: inf
ROOT
ATOM      1  C   UNL     1       4.311   0.487   3.535  1.00  0.00     0.002 C 
ENDROOT
BRANCH   1   2
ATOM      2  C   UNL     1       4.841   0.945   2.168  1.00  0.00     0.021 C 
BRANCH   2   3
ATOM      3  C   UNL     1       4.615  -0.041   1.024  1.00  0.00     0.116 C 
BRANCH   3   4
ATOM      4  N   UNL     1       3.225  -0.366   0.788  1.00  0.00    -0.352 N 
ATOM      5  O   UNL     1       1.184  -0.511  -0.018  1.00  0.00    -0.269 OA
ATOM      6  C   UNL     1       2.212   0.170   0.042  1.00  0.00     0.251 C 
ATOM      7  H   UNL     1       2.939  -1.166   1.286  1.00  0.00     0.163 HD
BRANCH   6   8
ATOM      8  C   UNL     1       2.227   1.502  -0.631  1.00  0.00     0.039 A 
ATOM      9  C   UNL     1       3.338   2.322  -0.825  1.00  0.00     0.014 A 
ATOM     10  C   UNL     1       0.974   1.964  -1.088  1.00  0.00     0.014 A 
ATOM     11  C   UNL     1       3.185   3.592  -1.393  1.00  0.00     0.010 A 
ATOM     12  C   UNL     1       0.816   3.229  -1.653  1.00  0.00     0.010 A 
ATOM     13  C   UNL     1       1.920   4.061  -1.780  1.00  0.00    -0.014 A 
BRANCH  13  14
ATOM     14  C   UNL     1       1.832   5.327  -2.514  1.00  0.00     0.031 A 
ATOM     15  C   UNL     1       2.506   5.277  -3.843  1.00  0.00     0.074 A 
ATOM     16  C   UNL     1       1.125   6.420  -2.147  1.00  0.00     0.049 A 
ATOM     17  N   UNL     1       3.619   5.840  -4.179  1.00  0.00    -0.248 NA
ATOM     18  C   UNL     1       1.968   4.367  -4.866  1.00  0.00     0.031 C 
ATOM     19  C   UNL     1       0.172   6.557  -1.046  1.00  0.00     0.029 A 
ATOM     20  N   UNL     1       1.062   7.649  -2.748  1.00  0.00    -0.354 N 
ATOM     21  C   UNL     1       3.803   5.551  -5.529  1.00  0.00     0.074 A 
ATOM     22  C   UNL     1       2.869   4.501  -5.842  1.00  0.00     0.031 C 
ATOM     23  C   UNL     1      -0.522   7.713  -1.188  1.00  0.00     0.029 A 
ATOM     24  C   UNL     1       0.025   8.470  -2.303  1.00  0.00     0.049 A 
ATOM     25  H   UNL     1       1.702   7.933  -3.441  1.00  0.00     0.167 HD
ATOM     26  C   UNL     1       4.550   6.363  -6.329  1.00  0.00     0.037 A 
ATOM     27  C   UNL     1      -0.369   9.665  -2.829  1.00  0.00     0.037 A 
ATOM     28  C   UNL     1       5.354   7.264  -5.542  1.00  0.00     0.049 A 
ATOM     29  C   UNL     1       0.773  10.201  -3.611  1.00  0.00     0.074 A 
ATOM     30  C   UNL     1       6.333   7.114  -4.579  1.00  0.00     0.029 A 
ATOM     31  N   UNL     1       4.924   8.564  -5.438  1.00  0.00    -0.354 N 
ATOM     32  N   UNL     1       1.890  10.610  -3.078  1.00  0.00    -0.248 NA
ATOM     33  C   UNL     1       0.842   9.860  -5.022  1.00  0.00     0.031 C 
ATOM     34  C   UNL     1       6.084   8.155  -3.638  1.00  0.00     0.029 A 
ATOM     35  C   UNL     1       5.026   8.924  -4.120  1.00  0.00     0.049 A 
ATOM     36  H   UNL     1       4.601   9.132  -6.174  1.00  0.00     0.167 HD
ATOM     37  C   UNL     1       2.874  10.145  -3.935  1.00  0.00     0.074 A 
ATOM     38  C   UNL     1       2.166   9.763  -5.156  1.00  0.00     0.031 C 
ATOM     39  C   UNL     1       4.125   9.851  -3.475  1.00  0.00     0.037 A 
BRANCH  26  40
ATOM     40  C   UNL     1       4.282   6.618  -7.795  1.00  0.00     0.058 A 
ATOM     41  C   UNL     1       5.206   7.385  -8.538  1.00  0.00     0.135 A 
ATOM     42  C   UNL     1       3.035   6.400  -8.419  1.00  0.00     0.135 A 
ATOM     43  F   UNL     1       6.422   7.662  -8.042  1.00  0.00    -0.206 F 
ATOM     44  C   UNL     1       4.886   7.958  -9.769  1.00  0.00     0.059 A 
ATOM     45  C   UNL     1       2.714   6.918  -9.670  1.00  0.00     0.059 A 
ATOM     46  F   UNL     1       2.032   5.759  -7.809  1.00  0.00    -0.206 F 
ATOM     47  C   UNL     1       3.631   7.726 -10.321  1.00  0.00     0.060 A 
BRANCH  47  48
ATOM     48  S   UNL     1       3.191   8.523 -11.875  1.00  0.00     0.124 S 
ATOM     49  O   UNL     1       3.116   9.923 -11.475  1.00  0.00    -0.237 OA
ATOM     50  O   UNL     1       4.319   8.160 -12.727  1.00  0.00    -0.237 OA
ATOM     51  O   UNL     1       1.921   7.895 -12.226  1.00  0.00    -0.744 OA
ENDBRANCH  47  48
ENDBRANCH  26  40
BRANCH  27  52
ATOM     52  C   UNL     1      -1.741  10.239  -2.980  1.00  0.00     0.058 A 
ATOM     53  C   UNL     1      -1.942  11.577  -3.382  1.00  0.00     0.135 A 
ATOM     54  C   UNL     1      -2.872   9.405  -3.047  1.00  0.00     0.135 A 
ATOM     55  F   UNL     1      -0.920  12.447  -3.371  1.00  0.00    -0.206 F 
ATOM     56  C   UNL     1      -3.169  12.039  -3.880  1.00  0.00     0.059 A 
ATOM     57  C   UNL     1      -4.106   9.844  -3.533  1.00  0.00     0.059 A 
ATOM     58  F   UNL     1      -2.786   8.104  -2.735  1.00  0.00    -0.206 F 
ATOM     59  C   UNL     1      -4.242  11.155  -3.975  1.00  0.00     0.060 A 
BRANCH  59  60
ATOM     60  S   UNL     1      -5.769  11.683  -4.794  1.00  0.00     0.124 S 
ATOM     61  O   UNL     1      -6.319  12.630  -3.830  1.00  0.00    -0.237 OA
ATOM     62  O   UNL     1      -5.272  12.258  -6.039  1.00  0.00    -0.237 OA
ATOM     63  O   UNL     1      -6.520  10.439  -4.944  1.00  0.00    -0.744 OA
ENDBRANCH  59  60
ENDBRANCH  27  52
BRANCH  39  64
ATOM     64  C   UNL     1       4.534  10.365  -2.120  1.00  0.00     0.058 A 
ATOM     65  C   UNL     1       3.909  10.039  -0.903  1.00  0.00     0.135 A 
ATOM     66  C   UNL     1       5.709  11.131  -2.051  1.00  0.00     0.135 A 
ATOM     67  F   UNL     1       2.844   9.225  -0.867  1.00  0.00    -0.206 F 
ATOM     68  C   UNL     1       4.404  10.498   0.321  1.00  0.00     0.059 A 
ATOM     69  C   UNL     1       6.240  11.566  -0.843  1.00  0.00     0.059 A 
ATOM     70  F   UNL     1       6.386  11.428  -3.173  1.00  0.00    -0.206 F 
ATOM     71  C   UNL     1       5.572  11.262   0.340  1.00  0.00     0.060 A 
BRANCH  71  72
ATOM     72  S   UNL     1       6.247  11.810   1.922  1.00  0.00     0.124 S 
ATOM     73  O   UNL     1       5.269  12.808   2.343  1.00  0.00    -0.237 OA
ATOM     74  O   UNL     1       6.270  10.575   2.701  1.00  0.00    -0.237 OA
ATOM     75  O   UNL     1       7.563  12.337   1.568  1.00  0.00    -0.744 OA
ENDBRANCH  71  72
ENDBRANCH  39  64
ENDBRANCH  13  14
ENDBRANCH   6   8
ENDBRANCH   3   4
ENDBRANCH   2   3
ENDBRANCH   1   2
BRANCH   1  76
ATOM     76  C   UNL     1       4.859  -0.846   4.058  1.00  0.00     0.002 C 
BRANCH  76  77
ATOM     77  C   UNL     1       6.383  -0.934   4.173  1.00  0.00     0.021 C 
BRANCH  77  78
ATOM     78  C   UNL     1       7.020   0.120   5.078  1.00  0.00     0.116 C 
BRANCH  78  79
ATOM     79  N   UNL     1       6.621  -0.044   6.466  1.00  0.00    -0.351 N 
ATOM     80  C   UNL     1       7.407  -0.274   7.575  1.00  0.00     0.273 C 
ATOM     81  H   UNL     1       5.654   0.018   6.638  1.00  0.00     0.163 HD
ATOM     82  O   UNL     1       6.877  -0.616   8.622  1.00  0.00    -0.267 OA
BRANCH  80  83
ATOM     83  C   UNL     1       8.844  -0.111   7.438  1.00  0.00     0.170 A 
ATOM     84  C   UNL     1       9.541   0.939   6.870  1.00  0.00     0.145 A 
ATOM     85  N   UNL     1       9.736  -1.051   7.885  1.00  0.00    -0.125 NA
ATOM     86  N   UNL     1      10.836   0.519   6.894  1.00  0.00    -0.237 N 
ATOM     87  N   UNL     1      10.952  -0.661   7.533  1.00  0.00    -0.066 NA
BRANCH  86  88
ATOM     88  C   UNL     1      11.971   1.087   6.246  1.00  0.00     0.218 C 
ATOM     89  C   UNL     1      11.720   1.609   4.805  1.00  0.00     0.296 C 
ATOM     90  C   UNL     1      12.265   2.572   6.558  1.00  0.00     0.296 C 
ATOM     91  N   UNL     1      12.531   2.803   5.118  1.00  0.00    -0.327 N 
ATOM     92  H   UNL     1      12.328   3.706   4.691  1.00  0.00     0.348 HD
BRANCH  91  93
ATOM     93  C   UNL     1      13.957   2.707   4.711  1.00  0.00     0.302 C 
BRANCH  93  94
ATOM     94  C   UNL     1      14.801   1.562   5.233  1.00  0.00     0.045 A 
ATOM     95  C   UNL     1      14.716   0.276   4.671  1.00  0.00     0.051 A 
ATOM     96  C   UNL     1      15.596   1.731   6.374  1.00  0.00     0.132 A 
ATOM     97  C   UNL     1      15.289  -0.810   5.329  1.00  0.00     0.123 A 
ATOM     98  C   UNL     1      16.198   0.646   7.009  1.00  0.00     0.043 A 
ATOM     99  F   UNL     1      15.745   2.950   6.912  1.00  0.00    -0.206 F 
ATOM    100  F   UNL     1      15.087  -2.046   4.854  1.00  0.00    -0.207 F 
ATOM    101  C   UNL     1      16.013  -0.638   6.503  1.00  0.00     0.042 A 
ENDBRANCH  93  94
ENDBRANCH  91  93
ENDBRANCH  86  88
ENDBRANCH  80  83
ENDBRANCH  78  79
ENDBRANCH  77  78
ENDBRANCH  76  77
ENDBRANCH   1  76
TORSDOF 19
