REMARK SMILES COc1cccc(N2/C(=[NH+]/C(=O)CCC(=O)NCCCCCCNC(=O)c3ccc(-c4c5nc(c(-c6c(F)cc(S(=O)(=O)[O-])cc6F)c6ccc([nH]6)c(-c6c(F)cc(S(=O)(=O)[O-])cc6F)c6nc(c(-c7c(F)cc(S(=O)(=O)[O-])cc7F)c7ccc4[nH]7)C=C6)C=C5)cc3)S[C@@H]3CS(=O)(=O)C[C@H]32)c1
REMARK SMILES IDX 20 1 19 2 18 3 17 4 15 5 16 6 14 8 13 9 11 10 8 11 9 12
REMARK SMILES IDX 100 13 10 14 93 15 94 16 99 17 95 19 96 20 12 21 97 22 98 23
REMARK SMILES IDX 7 24 3 25 4 26 101 27 5 28 6 29 2 30 1 31 21 32 22 33 23 34
REMARK SMILES IDX 24 35 25 36 26 38 27 39 28 40 92 41 29 42 91 43 30 44 31 45
REMARK SMILES IDX 32 46 85 47 33 48 90 49 84 50 86 51 34 52 89 53 83 54 82 55
REMARK SMILES IDX 35 57 69 58 48 59 68 60 49 61 52 62 67 63 87 64 50 65 51 66
REMARK SMILES IDX 66 68 88 69 53 70 36 71 37 72 46 73 38 74 39 75 45 76 47 77
REMARK SMILES IDX 40 78 41 79 42 80 43 81 44 82 70 83 71 84 80 85 72 86 73 87
REMARK SMILES IDX 79 88 81 89 74 90 75 91 76 92 77 93 78 94 54 95 55 96 64 97
REMARK SMILES IDX 56 98 57 99 63 100 65 101 58 102 59 103 60 104 61 105 62 106
REMARK H PARENT 17 7 10 18 24 37 86 56 52 67
REMARK Flexibility Score: inf
ROOT
ATOM      1  C   UNL     1       4.436  -1.475  -2.501  1.00  0.00     0.002 C 
ENDROOT
BRANCH   1   2
ATOM      2  C   UNL     1       5.772  -1.726  -1.769  1.00  0.00     0.021 C 
BRANCH   2   3
ATOM      3  C   UNL     1       5.939  -1.101  -0.361  1.00  0.00     0.116 C 
BRANCH   3   4
ATOM      4  N   UNL     1       4.859  -1.373   0.586  1.00  0.00    -0.356 N 
ATOM      5  C   UNL     1       4.750  -2.175   1.681  1.00  0.00     0.220 C 
ATOM      6  O   UNL     1       3.704  -2.115   2.334  1.00  0.00    -0.275 OA
ATOM      7  H   UNL     1       4.035  -0.869   0.391  1.00  0.00     0.163 HD
BRANCH   5   8
ATOM      8  C   UNL     1       5.845  -3.131   2.096  1.00  0.00     0.112 C 
BRANCH   8   9
ATOM      9  C   UNL     1       5.370  -4.568   1.895  1.00  0.00     0.138 C 
BRANCH   9  10
ATOM     10  C   UNL     1       5.510  -4.846   0.431  1.00  0.00     0.308 C 
ATOM     11  N   UNL     1       3.298  -5.072  -2.455  1.00  0.00    -0.216 N 
ATOM     12  C   UNL     1       4.263  -5.280  -1.459  1.00  0.00     0.319 C 
ATOM     13  C   UNL     1       3.971  -5.094  -3.766  1.00  0.00     0.212 C 
ATOM     14  N   UNL     1       4.337  -4.754  -0.284  1.00  0.00    -0.204 N 
ATOM     15  S   UNL     1       5.514  -6.402  -2.102  1.00  0.00    -0.029 SA
ATOM     16  C   UNL     1       4.826  -6.367  -3.739  1.00  0.00     0.120 C 
ATOM     17  C   UNL     1       3.301  -5.143  -5.116  1.00  0.00     0.188 C 
ATOM     18  H   UNL     1       3.559  -4.288   0.100  1.00  0.00     0.316 HD
ATOM     19  C   UNL     1       5.801  -6.209  -4.863  1.00  0.00     0.156 C 
ATOM     20  S   UNL     1       4.711  -5.686  -6.153  1.00  0.00     0.155 S 
ATOM     21  O   UNL     1       6.648  -4.900  -0.037  1.00  0.00    -0.247 OA
ATOM     22  O   UNL     1       4.301  -6.830  -6.929  1.00  0.00    -0.229 OA
ATOM     23  O   UNL     1       5.385  -4.544  -6.726  1.00  0.00    -0.229 OA
BRANCH  11  24
ATOM     24  C   UNL     1       2.027  -4.496  -2.289  1.00  0.00     0.132 A 
ATOM     25  C   UNL     1       0.464  -2.872  -1.302  1.00  0.00     0.123 A 
ATOM     26  C   UNL     1      -0.608  -3.516  -1.913  1.00  0.00     0.047 A 
ATOM     27  C   UNL     1       1.764  -3.383  -1.460  1.00  0.00     0.098 A 
ATOM     28  C   UNL     1      -0.385  -4.634  -2.707  1.00  0.00     0.008 A 
ATOM     29  C   UNL     1       0.917  -5.106  -2.900  1.00  0.00     0.052 A 
BRANCH  25  30
ATOM     30  O   UNL     1       0.106  -1.829  -0.491  1.00  0.00    -0.497 OA
ATOM     31  C   UNL     1       0.968  -0.699  -0.490  1.00  0.00     0.278 C 
ENDBRANCH  25  30
ENDBRANCH  11  24
ENDBRANCH   9  10
ENDBRANCH   8   9
ENDBRANCH   5   8
ENDBRANCH   3   4
ENDBRANCH   2   3
ENDBRANCH   1   2
BRANCH   1  32
ATOM     32  C   UNL     1       4.328  -0.589  -3.767  1.00  0.00     0.002 C 
BRANCH  32  33
ATOM     33  C   UNL     1       5.271  -0.774  -4.979  1.00  0.00     0.021 C 
BRANCH  33  34
ATOM     34  C   UNL     1       4.908  -1.786  -6.097  1.00  0.00     0.116 C 
BRANCH  34  35
ATOM     35  N   UNL     1       3.696  -1.565  -6.891  1.00  0.00    -0.352 N 
ATOM     36  C   UNL     1       3.311  -2.139  -8.107  1.00  0.00     0.251 C 
ATOM     37  H   UNL     1       3.059  -0.916  -6.512  1.00  0.00     0.163 HD
ATOM     38  O   UNL     1       2.117  -2.139  -8.405  1.00  0.00    -0.269 OA
BRANCH  36  39
ATOM     39  C   UNL     1       4.272  -2.784  -9.051  1.00  0.00     0.039 A 
ATOM     40  C   UNL     1       5.051  -2.050  -9.936  1.00  0.00     0.014 A 
ATOM     41  C   UNL     1       4.341  -4.170  -9.149  1.00  0.00     0.014 A 
ATOM     42  C   UNL     1       6.025  -2.703 -10.729  1.00  0.00     0.010 A 
ATOM     43  C   UNL     1       5.454  -4.787  -9.763  1.00  0.00     0.010 A 
ATOM     44  C   UNL     1       6.369  -4.061 -10.531  1.00  0.00    -0.014 A 
BRANCH  44  45
ATOM     45  C   UNL     1       7.701  -4.617 -11.035  1.00  0.00     0.031 A 
ATOM     46  C   UNL     1       7.890  -6.012 -11.637  1.00  0.00     0.074 A 
ATOM     47  C   UNL     1       8.828  -3.872 -10.871  1.00  0.00     0.049 A 
ATOM     48  N   UNL     1       8.978  -6.549 -12.155  1.00  0.00    -0.248 NA
ATOM     49  C   UNL     1       6.755  -6.945 -11.613  1.00  0.00     0.031 C 
ATOM     50  C   UNL     1       8.908  -2.606 -10.134  1.00  0.00     0.029 A 
ATOM     51  N   UNL     1      10.124  -4.046 -11.319  1.00  0.00    -0.354 N 
ATOM     52  C   UNL     1       8.659  -7.869 -12.482  1.00  0.00     0.074 A 
ATOM     53  C   UNL     1       7.303  -8.079 -12.031  1.00  0.00     0.031 C 
ATOM     54  C   UNL     1      10.124  -2.066 -10.282  1.00  0.00     0.029 A 
ATOM     55  C   UNL     1      10.958  -2.976 -11.055  1.00  0.00     0.049 A 
ATOM     56  H   UNL     1      10.427  -4.860 -11.784  1.00  0.00     0.167 HD
ATOM     57  C   UNL     1       9.391  -8.812 -13.135  1.00  0.00     0.037 A 
ATOM     58  C   UNL     1      12.242  -2.724 -11.389  1.00  0.00     0.037 A 
ATOM     59  C   UNL     1      10.727  -8.602 -13.640  1.00  0.00     0.049 A 
ATOM     60  C   UNL     1      13.005  -3.733 -12.203  1.00  0.00     0.074 A 
ATOM     61  C   UNL     1      11.495  -9.448 -14.424  1.00  0.00     0.029 A 
ATOM     62  N   UNL     1      11.496  -7.473 -13.408  1.00  0.00    -0.354 N 
ATOM     63  N   UNL     1      12.611  -4.905 -12.637  1.00  0.00    -0.248 NA
ATOM     64  C   UNL     1      14.384  -3.387 -12.578  1.00  0.00     0.031 C 
ATOM     65  C   UNL     1      12.746  -8.855 -14.620  1.00  0.00     0.029 A 
ATOM     66  C   UNL     1      12.737  -7.612 -14.011  1.00  0.00     0.049 A 
ATOM     67  H   UNL     1      11.205  -6.688 -12.890  1.00  0.00     0.167 HD
ATOM     68  C   UNL     1      13.683  -5.425 -13.354  1.00  0.00     0.074 A 
ATOM     69  C   UNL     1      14.735  -4.432 -13.315  1.00  0.00     0.031 C 
ATOM     70  C   UNL     1      13.784  -6.621 -13.982  1.00  0.00     0.037 A 
BRANCH  57  71
ATOM     71  C   UNL     1       8.756 -10.164 -13.396  1.00  0.00     0.058 A 
ATOM     72  C   UNL     1       7.666 -10.310 -14.271  1.00  0.00     0.135 A 
ATOM     73  C   UNL     1       9.287 -11.338 -12.831  1.00  0.00     0.135 A 
ATOM     74  F   UNL     1       7.117  -9.231 -14.852  1.00  0.00    -0.206 F 
ATOM     75  C   UNL     1       7.099 -11.553 -14.539  1.00  0.00     0.059 A 
ATOM     76  C   UNL     1       8.758 -12.598 -13.113  1.00  0.00     0.059 A 
ATOM     77  F   UNL     1      10.343 -11.274 -12.004  1.00  0.00    -0.206 F 
ATOM     78  C   UNL     1       7.652 -12.693 -13.955  1.00  0.00     0.060 A 
BRANCH  78  79
ATOM     79  S   UNL     1       6.904 -14.297 -14.322  1.00  0.00     0.124 S 
ATOM     80  O   UNL     1       5.640 -14.203 -13.597  1.00  0.00    -0.237 OA
ATOM     81  O   UNL     1       6.801 -14.267 -15.778  1.00  0.00    -0.237 OA
ATOM     82  O   UNL     1       7.865 -15.254 -13.784  1.00  0.00    -0.744 OA
ENDBRANCH  78  79
ENDBRANCH  57  71
BRANCH  58  83
ATOM     83  C   UNL     1      12.885  -1.435 -10.990  1.00  0.00     0.058 A 
ATOM     84  C   UNL     1      13.223  -0.463 -11.946  1.00  0.00     0.135 A 
ATOM     85  C   UNL     1      13.168  -1.142  -9.646  1.00  0.00     0.135 A 
ATOM     86  F   UNL     1      12.985  -0.692 -13.247  1.00  0.00    -0.206 F 
ATOM     87  C   UNL     1      13.833   0.738 -11.591  1.00  0.00     0.059 A 
ATOM     88  C   UNL     1      13.746   0.066  -9.261  1.00  0.00     0.059 A 
ATOM     89  F   UNL     1      12.850  -2.023  -8.685  1.00  0.00    -0.206 F 
ATOM     90  C   UNL     1      14.086   0.995 -10.243  1.00  0.00     0.060 A 
BRANCH  90  91
ATOM     91  S   UNL     1      14.829   2.578  -9.785  1.00  0.00     0.124 S 
ATOM     92  O   UNL     1      16.195   2.413 -10.267  1.00  0.00    -0.237 OA
ATOM     93  O   UNL     1      14.002   3.529 -10.521  1.00  0.00    -0.237 OA
ATOM     94  O   UNL     1      14.671   2.615  -8.334  1.00  0.00    -0.744 OA
ENDBRANCH  90  91
ENDBRANCH  58  83
BRANCH  70  95
ATOM     95  C   UNL     1      15.063  -6.924 -14.714  1.00  0.00     0.058 A 
ATOM     96  C   UNL     1      16.261  -7.190 -14.033  1.00  0.00     0.135 A 
ATOM     97  C   UNL     1      15.076  -7.007 -16.116  1.00  0.00     0.135 A 
ATOM     98  F   UNL     1      16.308  -7.117 -12.693  1.00  0.00    -0.206 F 
ATOM     99  C   UNL     1      17.432  -7.507 -14.716  1.00  0.00     0.059 A 
ATOM    100  C   UNL     1      16.227  -7.352 -16.818  1.00  0.00     0.059 A 
ATOM    101  F   UNL     1      13.957  -6.770 -16.818  1.00  0.00    -0.206 F 
ATOM    102  C   UNL     1      17.403  -7.591 -16.109  1.00  0.00     0.060 A 
BRANCH 102 103
ATOM    103  S   UNL     1      18.918  -8.044 -16.979  1.00  0.00     0.124 S 
ATOM    104  O   UNL     1      19.722  -6.836 -16.819  1.00  0.00    -0.237 OA
ATOM    105  O   UNL     1      19.371  -9.211 -16.229  1.00  0.00    -0.237 OA
ATOM    106  O   UNL     1      18.462  -8.318 -18.339  1.00  0.00    -0.744 OA
ENDBRANCH 102 103
ENDBRANCH  70  95
ENDBRANCH  44  45
ENDBRANCH  36  39
ENDBRANCH  34  35
ENDBRANCH  33  34
ENDBRANCH  32  33
ENDBRANCH   1  32
TORSDOF 20
