REMARK SMILES CC(C)C(=O)Nc1ccc2c([C@@H](C(=O)NCCCCCCNC(=O)c3ccc(-c4c5nc(c(-c6c(F)cc(S(=O)(=O)[O-])cc6F)c6ccc([nH]6)c(-c6c(F)cc(S(=O)(=O)[O-])cc6F)c6nc(c(-c7c(F)cc(S(=O)(=O)[O-])cc7F)c7ccc4[nH]7)C=C6)C=C5)cc3)[NH+]3CC[NH+](Cc4ccccc4)CC3)c[nH]c2c1
REMARK SMILES IDX 18 1 17 2 16 3 15 4 13 5 14 6 12 8 11 9 7 10 8 11 107 12
REMARK SMILES IDX 9 13 106 14 10 15 105 16 104 17 6 19 4 20 5 21 2 23 1 24
REMARK SMILES IDX 3 25 91 26 92 27 103 28 93 30 102 31 94 32 95 34 96 35 97 36
REMARK SMILES IDX 101 37 98 38 100 39 99 40 19 41 20 42 21 43 22 44 23 45
REMARK SMILES IDX 24 47 25 48 26 49 90 50 27 51 89 52 28 53 29 54 30 55 83 56
REMARK SMILES IDX 31 57 88 58 82 59 84 60 32 61 87 62 81 63 80 64 33 66 67 67
REMARK SMILES IDX 46 68 66 69 47 70 50 71 65 72 85 73 48 74 49 75 64 77 86 78
REMARK SMILES IDX 51 79 34 80 35 81 44 82 36 83 37 84 43 85 45 86 38 87 39 88
REMARK SMILES IDX 40 89 41 90 42 91 68 92 69 93 78 94 70 95 71 96 77 97 79 98
REMARK SMILES IDX 72 99 73 100 74 101 75 102 76 103 52 104 53 105 62 106
REMARK SMILES IDX 54 107 55 108 61 109 63 110 56 111 57 112 58 113 59 114
REMARK SMILES IDX 60 115
REMARK H PARENT 15 7 105 18 6 22 91 29 94 33 22 46 84 65 50 76
REMARK Flexibility Score: inf
ROOT
ATOM      1  C   UNL     1      -1.585   1.540  -7.975  1.00  0.00     0.002 C 
ENDROOT
BRANCH   1   2
ATOM      2  C   UNL     1      -1.068   1.624  -6.535  1.00  0.00     0.021 C 
BRANCH   2   3
ATOM      3  C   UNL     1       0.353   1.091  -6.368  1.00  0.00     0.116 C 
BRANCH   3   4
ATOM      4  N   UNL     1       1.300   1.929  -7.059  1.00  0.00    -0.351 N 
ATOM      5  C   UNL     1       2.014   2.996  -6.594  1.00  0.00     0.283 C 
ATOM      6  O   UNL     1       2.655   3.605  -7.461  1.00  0.00    -0.268 OA
ATOM      7  H   UNL     1       1.454   1.700  -8.003  1.00  0.00     0.163 HD
BRANCH   5   8
ATOM      8  C   UNL     1       2.106   3.306  -5.062  1.00  0.00     0.308 C 
BRANCH   8   9
ATOM      9  C   UNL     1       0.798   3.559  -4.336  1.00  0.00     0.044 A 
ATOM     10  C   UNL     1      -1.122   1.687  -1.089  1.00  0.00     0.043 A 
ATOM     11  C   UNL     1      -0.115   0.954  -1.699  1.00  0.00     0.027 A 
ATOM     12  C   UNL     1      -1.590   2.866  -1.677  1.00  0.00     0.052 A 
ATOM     13  C   UNL     1       0.623   1.484  -2.754  1.00  0.00     0.013 A 
ATOM     14  C   UNL     1      -0.875   3.364  -2.777  1.00  0.00     0.048 A 
ATOM     15  C   UNL     1       0.255   2.731  -3.293  1.00  0.00     0.009 A 
ATOM     16  N   UNL     1      -1.067   4.501  -3.521  1.00  0.00    -0.361 N 
ATOM     17  C   UNL     1      -0.094   4.609  -4.478  1.00  0.00     0.094 A 
ATOM     18  H   UNL     1      -1.800   5.145  -3.386  1.00  0.00     0.166 HD
BRANCH  10  19
ATOM     19  N   UNL     1      -1.694   1.261   0.111  1.00  0.00    -0.326 N 
ATOM     20  C   UNL     1      -1.106   0.722   1.222  1.00  0.00     0.226 C 
ATOM     21  O   UNL     1      -1.854   0.254   2.089  1.00  0.00    -0.274 OA
ATOM     22  H   UNL     1      -2.672   1.364   0.166  1.00  0.00     0.169 HD
BRANCH  20  23
ATOM     23  C   UNL     1       0.408   0.789   1.499  1.00  0.00     0.072 C 
ATOM     24  C   UNL     1       1.257  -0.295   0.845  1.00  0.00     0.018 C 
ATOM     25  C   UNL     1       1.005   2.186   1.332  1.00  0.00     0.018 C 
ENDBRANCH  20  23
ENDBRANCH  10  19
ENDBRANCH   8   9
BRANCH   8  26
ATOM     26  N   UNL     1       3.021   4.423  -4.810  1.00  0.00    -0.312 N 
ATOM     27  C   UNL     1       2.793   5.685  -5.492  1.00  0.00     0.325 C 
ATOM     28  C   UNL     1       3.769   4.453  -3.566  1.00  0.00     0.325 C 
ATOM     29  H   UNL     1       3.765   4.067  -5.410  1.00  0.00     0.349 HD
ATOM     30  C   UNL     1       2.656   6.923  -4.585  1.00  0.00     0.324 C 
ATOM     31  C   UNL     1       3.633   5.745  -2.724  1.00  0.00     0.324 C 
ATOM     32  N   UNL     1       3.577   7.018  -3.451  1.00  0.00    -0.322 N 
ATOM     33  H   UNL     1       3.183   7.695  -2.798  1.00  0.00     0.348 HD
BRANCH  32  34
ATOM     34  C   UNL     1       4.859   7.671  -3.733  1.00  0.00     0.299 C 
BRANCH  34  35
ATOM     35  C   UNL     1       5.873   6.919  -4.562  1.00  0.00     0.006 A 
ATOM     36  C   UNL     1       6.862   6.142  -3.942  1.00  0.00     0.009 A 
ATOM     37  C   UNL     1       5.830   6.955  -5.962  1.00  0.00     0.009 A 
ATOM     38  C   UNL     1       7.727   5.354  -4.704  1.00  0.00     0.001 A 
ATOM     39  C   UNL     1       6.673   6.145  -6.723  1.00  0.00     0.001 A 
ATOM     40  C   UNL     1       7.615   5.337  -6.092  1.00  0.00     0.000 A 
ENDBRANCH  34  35
ENDBRANCH  32  34
ENDBRANCH   8  26
ENDBRANCH   5   8
ENDBRANCH   3   4
ENDBRANCH   2   3
ENDBRANCH   1   2
BRANCH   1  41
ATOM     41  C   UNL     1      -1.518   0.142  -8.594  1.00  0.00     0.002 C 
BRANCH  41  42
ATOM     42  C   UNL     1      -2.163  -0.961  -7.751  1.00  0.00     0.021 C 
BRANCH  42  43
ATOM     43  C   UNL     1      -3.631  -0.722  -7.425  1.00  0.00     0.116 C 
BRANCH  43  44
ATOM     44  N   UNL     1      -4.442  -0.677  -8.629  1.00  0.00    -0.352 N 
ATOM     45  C   UNL     1      -5.580  -1.377  -8.924  1.00  0.00     0.251 C 
ATOM     46  H   UNL     1      -4.131  -0.058  -9.328  1.00  0.00     0.163 HD
ATOM     47  O   UNL     1      -6.003  -1.393 -10.082  1.00  0.00    -0.269 OA
BRANCH  45  48
ATOM     48  C   UNL     1      -6.294  -2.113  -7.861  1.00  0.00     0.039 A 
ATOM     49  C   UNL     1      -6.810  -3.379  -8.148  1.00  0.00     0.014 A 
ATOM     50  C   UNL     1      -6.493  -1.541  -6.600  1.00  0.00     0.014 A 
ATOM     51  C   UNL     1      -7.512  -4.077  -7.165  1.00  0.00     0.010 A 
ATOM     52  C   UNL     1      -7.130  -2.269  -5.599  1.00  0.00     0.010 A 
ATOM     53  C   UNL     1      -7.671  -3.531  -5.881  1.00  0.00    -0.014 A 
BRANCH  53  54
ATOM     54  C   UNL     1      -8.453  -4.246  -4.843  1.00  0.00     0.031 A 
ATOM     55  C   UNL     1      -9.747  -3.659  -4.343  1.00  0.00     0.074 A 
ATOM     56  C   UNL     1      -7.987  -5.400  -4.329  1.00  0.00     0.049 A 
ATOM     57  N   UNL     1     -10.562  -4.113  -3.427  1.00  0.00    -0.248 NA
ATOM     58  C   UNL     1     -10.166  -2.376  -4.933  1.00  0.00     0.031 C 
ATOM     59  C   UNL     1      -6.722  -6.040  -4.697  1.00  0.00     0.029 A 
ATOM     60  N   UNL     1      -8.521  -6.240  -3.386  1.00  0.00    -0.354 N 
ATOM     61  C   UNL     1     -11.576  -3.168  -3.319  1.00  0.00     0.074 A 
ATOM     62  C   UNL     1     -11.246  -2.088  -4.222  1.00  0.00     0.031 C 
ATOM     63  C   UNL     1      -6.590  -7.183  -4.005  1.00  0.00     0.029 A 
ATOM     64  C   UNL     1      -7.745  -7.345  -3.127  1.00  0.00     0.049 A 
ATOM     65  H   UNL     1      -9.380  -6.067  -2.936  1.00  0.00     0.167 HD
ATOM     66  C   UNL     1     -12.695  -3.209  -2.557  1.00  0.00     0.037 A 
ATOM     67  C   UNL     1      -7.947  -8.373  -2.281  1.00  0.00     0.037 A 
ATOM     68  C   UNL     1     -13.034  -4.305  -1.687  1.00  0.00     0.049 A 
ATOM     69  C   UNL     1      -9.215  -8.415  -1.472  1.00  0.00     0.074 A 
ATOM     70  C   UNL     1     -14.168  -4.471  -0.912  1.00  0.00     0.029 A 
ATOM     71  N   UNL     1     -12.243  -5.426  -1.484  1.00  0.00    -0.354 N 
ATOM     72  N   UNL     1     -10.193  -7.541  -1.425  1.00  0.00    -0.248 NA
ATOM     73  C   UNL     1      -9.417  -9.591  -0.615  1.00  0.00     0.031 C 
ATOM     74  C   UNL     1     -14.047  -5.679  -0.215  1.00  0.00     0.029 A 
ATOM     75  C   UNL     1     -12.860  -6.286  -0.591  1.00  0.00     0.049 A 
ATOM     76  H   UNL     1     -11.371  -5.587  -1.912  1.00  0.00     0.167 HD
ATOM     77  C   UNL     1     -11.140  -8.076  -0.559  1.00  0.00     0.074 A 
ATOM     78  C   UNL     1     -10.621  -9.353  -0.113  1.00  0.00     0.031 C 
ATOM     79  C   UNL     1     -12.332  -7.560  -0.170  1.00  0.00     0.037 A 
BRANCH  66  80
ATOM     80  C   UNL     1     -13.636  -2.038  -2.638  1.00  0.00     0.058 A 
ATOM     81  C   UNL     1     -14.404  -1.787  -3.787  1.00  0.00     0.135 A 
ATOM     82  C   UNL     1     -13.789  -1.166  -1.548  1.00  0.00     0.135 A 
ATOM     83  F   UNL     1     -14.285  -2.579  -4.865  1.00  0.00    -0.206 F 
ATOM     84  C   UNL     1     -15.264  -0.697  -3.866  1.00  0.00     0.059 A 
ATOM     85  C   UNL     1     -14.665  -0.085  -1.594  1.00  0.00     0.059 A 
ATOM     86  F   UNL     1     -13.079  -1.357  -0.425  1.00  0.00    -0.206 F 
ATOM     87  C   UNL     1     -15.386   0.151  -2.764  1.00  0.00     0.060 A 
BRANCH  87  88
ATOM     88  S   UNL     1     -16.503   1.564  -2.881  1.00  0.00     0.124 S 
ATOM     89  O   UNL     1     -15.742   2.465  -3.741  1.00  0.00    -0.237 OA
ATOM     90  O   UNL     1     -17.695   0.972  -3.481  1.00  0.00    -0.237 OA
ATOM     91  O   UNL     1     -16.652   1.995  -1.495  1.00  0.00    -0.744 OA
ENDBRANCH  87  88
ENDBRANCH  66  80
BRANCH  67  92
ATOM     92  C   UNL     1      -6.945  -9.467  -2.192  1.00  0.00     0.058 A 
ATOM     93  C   UNL     1      -7.216 -10.739  -2.718  1.00  0.00     0.135 A 
ATOM     94  C   UNL     1      -5.691  -9.259  -1.596  1.00  0.00     0.135 A 
ATOM     95  F   UNL     1      -8.401 -10.987  -3.295  1.00  0.00    -0.206 F 
ATOM     96  C   UNL     1      -6.288 -11.773  -2.641  1.00  0.00     0.059 A 
ATOM     97  C   UNL     1      -4.738 -10.270  -1.528  1.00  0.00     0.059 A 
ATOM     98  F   UNL     1      -5.376  -8.054  -1.097  1.00  0.00    -0.206 F 
ATOM     99  C   UNL     1      -5.050 -11.527  -2.044  1.00  0.00     0.060 A 
BRANCH  99 100
ATOM    100  S   UNL     1      -3.833 -12.861  -1.993  1.00  0.00     0.124 S 
ATOM    101  O   UNL     1      -4.378 -13.715  -0.945  1.00  0.00    -0.237 OA
ATOM    102  O   UNL     1      -3.902 -13.392  -3.351  1.00  0.00    -0.237 OA
ATOM    103  O   UNL     1      -2.591 -12.168  -1.663  1.00  0.00    -0.744 OA
ENDBRANCH  99 100
ENDBRANCH  67  92
BRANCH  79 104
ATOM    104  C   UNL     1     -13.180  -8.398   0.746  1.00  0.00     0.058 A 
ATOM    105  C   UNL     1     -12.854  -8.577   2.099  1.00  0.00     0.135 A 
ATOM    106  C   UNL     1     -14.355  -8.999   0.268  1.00  0.00     0.135 A 
ATOM    107  F   UNL     1     -11.738  -8.026   2.604  1.00  0.00    -0.206 F 
ATOM    108  C   UNL     1     -13.647  -9.351   2.940  1.00  0.00     0.059 A 
ATOM    109  C   UNL     1     -15.178  -9.754   1.097  1.00  0.00     0.059 A 
ATOM    110  F   UNL     1     -14.719  -8.847  -1.016  1.00  0.00    -0.206 F 
ATOM    111  C   UNL     1     -14.806  -9.937   2.428  1.00  0.00     0.060 A 
BRANCH 111 112
ATOM    112  S   UNL     1     -15.838 -10.926   3.531  1.00  0.00     0.124 S 
ATOM    113  O   UNL     1     -15.066 -12.161   3.626  1.00  0.00    -0.237 OA
ATOM    114  O   UNL     1     -15.879 -10.109   4.740  1.00  0.00    -0.237 OA
ATOM    115  O   UNL     1     -17.103 -11.030   2.810  1.00  0.00    -0.744 OA
ENDBRANCH 111 112
ENDBRANCH  79 104
ENDBRANCH  53  54
ENDBRANCH  45  48
ENDBRANCH  43  44
ENDBRANCH  42  43
ENDBRANCH  41  42
ENDBRANCH   1  41
TORSDOF 22
