REMARK SMILES Nc1nc(N2CCOC[C@H]2C(=O)NCCCCCCNC(=O)c2ccc(-c3c4nc(c(-c5c(F)cc(S(=O)(=O)[O-])cc5F)c5ccc([nH]5)c(-c5c(F)cc(S(=O)(=O)[O-])cc5F)c5nc(c(-c6c(F)cc(S(=O)(=O)[O-])cc6F)c6ccc3[nH]6)C=C5)C=C4)cc2)ccc1[N+](=O)[O-]
REMARK SMILES IDX 17 1 16 2 15 3 14 4 13 5 11 6 12 7 10 9 5 10 6 11 7 12 9 13
REMARK SMILES IDX 8 14 4 15 2 16 3 17 91 18 90 19 89 20 1 21 92 24 93 25 94 26
REMARK SMILES IDX 18 27 19 28 20 29 21 30 22 32 23 33 24 34 88 35 25 36 87 37
REMARK SMILES IDX 26 38 27 39 28 40 81 41 29 42 86 43 80 44 82 45 30 46 85 47
REMARK SMILES IDX 79 48 78 49 31 51 65 52 44 53 64 54 45 55 48 56 63 57 83 58
REMARK SMILES IDX 46 59 47 60 62 62 84 63 49 64 32 65 33 66 42 67 34 68 35 69
REMARK SMILES IDX 41 70 43 71 36 72 37 73 38 74 39 75 40 76 66 77 67 78 76 79
REMARK SMILES IDX 68 80 69 81 75 82 77 83 70 84 71 85 72 86 73 87 74 88 50 89
REMARK SMILES IDX 51 90 60 91 52 92 53 93 59 94 61 95 54 96 55 97 56 98 57 99
REMARK SMILES IDX 58 100
REMARK H PARENT 13 8 1 22 1 23 20 31 82 50 48 61
REMARK Flexibility Score: inf
ROOT
ATOM      1  C   UNL     1      -2.623   6.374   5.031  1.00  0.00     0.002 C 
ENDROOT
BRANCH   1   2
ATOM      2  C   UNL     1      -1.544   5.343   4.675  1.00  0.00     0.002 C 
BRANCH   2   3
ATOM      3  C   UNL     1      -1.907   4.397   3.526  1.00  0.00     0.021 C 
BRANCH   3   4
ATOM      4  C   UNL     1      -2.066   5.101   2.178  1.00  0.00     0.116 C 
BRANCH   4   5
ATOM      5  N   UNL     1      -0.872   4.972   1.371  1.00  0.00    -0.354 N 
ATOM      6  C   UNL     1      -0.586   4.257   0.250  1.00  0.00     0.245 C 
ATOM      7  O   UNL     1       0.561   4.429  -0.194  1.00  0.00    -0.273 OA
ATOM      8  H   UNL     1      -0.115   5.509   1.700  1.00  0.00     0.163 HD
BRANCH   6   9
ATOM      9  C   UNL     1      -1.584   3.371  -0.532  1.00  0.00     0.199 C 
ATOM     10  N   UNL     1      -2.017   2.109   0.109  1.00  0.00    -0.340 N 
ATOM     11  C   UNL     1      -3.257   2.108   0.876  1.00  0.00     0.147 C 
ATOM     12  C   UNL     1      -4.359   2.843   0.109  1.00  0.00     0.181 C 
ATOM     13  C   UNL     1      -2.789   4.155  -1.097  1.00  0.00     0.195 C 
ATOM     14  O   UNL     1      -3.958   4.168  -0.261  1.00  0.00    -0.377 OA
BRANCH  10  15
ATOM     15  C   UNL     1      -1.240   0.976   0.005  1.00  0.00     0.132 A 
ATOM     16  C   UNL     1       0.887  -0.017   0.004  1.00  0.00     0.204 A 
ATOM     17  N   UNL     1       0.104   1.092   0.024  1.00  0.00    -0.207 NA
ATOM     18  C   UNL     1       0.335  -1.292  -0.068  1.00  0.00     0.311 A 
ATOM     19  C   UNL     1      -1.048  -1.427  -0.165  1.00  0.00     0.093 A 
ATOM     20  C   UNL     1      -1.832  -0.280  -0.128  1.00  0.00     0.054 A 
BRANCH  16  21
ATOM     21  N   UNL     1       2.232   0.246   0.163  1.00  0.00    -0.378 N 
ATOM     22  H   UNL     1       2.550   1.176   0.205  1.00  0.00     0.158 HD
ATOM     23  H   UNL     1       2.873  -0.498   0.235  1.00  0.00     0.158 HD
ENDBRANCH  16  21
BRANCH  18  24
ATOM     24  N   UNL     1       1.157  -2.496  -0.061  1.00  0.00     0.066 N 
ATOM     25  O   UNL     1       0.594  -3.568   0.209  1.00  0.00    -0.258 OA
ATOM     26  O   UNL     1       2.357  -2.400  -0.363  1.00  0.00    -0.258 OA
ENDBRANCH  18  24
ENDBRANCH  10  15
ENDBRANCH   6   9
ENDBRANCH   4   5
ENDBRANCH   3   4
ENDBRANCH   2   3
ENDBRANCH   1   2
BRANCH   1  27
ATOM     27  C   UNL     1      -4.011   5.803   5.341  1.00  0.00     0.021 C 
BRANCH  27  28
ATOM     28  C   UNL     1      -4.046   4.762   6.457  1.00  0.00     0.116 C 
BRANCH  28  29
ATOM     29  N   UNL     1      -3.554   5.296   7.716  1.00  0.00    -0.352 N 
ATOM     30  C   UNL     1      -4.186   5.401   8.931  1.00  0.00     0.251 C 
ATOM     31  H   UNL     1      -2.630   5.634   7.695  1.00  0.00     0.163 HD
ATOM     32  O   UNL     1      -3.689   6.083   9.820  1.00  0.00    -0.269 OA
BRANCH  30  33
ATOM     33  C   UNL     1      -5.467   4.699   9.161  1.00  0.00     0.039 A 
ATOM     34  C   UNL     1      -6.500   5.372   9.819  1.00  0.00     0.014 A 
ATOM     35  C   UNL     1      -5.638   3.371   8.757  1.00  0.00     0.014 A 
ATOM     36  C   UNL     1      -7.723   4.730  10.026  1.00  0.00     0.010 A 
ATOM     37  C   UNL     1      -6.879   2.757   8.903  1.00  0.00     0.010 A 
ATOM     38  C   UNL     1      -7.931   3.426   9.546  1.00  0.00    -0.014 A 
BRANCH  38  39
ATOM     39  C   UNL     1      -9.237   2.741   9.717  1.00  0.00     0.031 A 
ATOM     40  C   UNL     1      -9.336   1.511  10.577  1.00  0.00     0.074 A 
ATOM     41  C   UNL     1     -10.318   3.192   9.053  1.00  0.00     0.049 A 
ATOM     42  N   UNL     1     -10.370   0.743  10.805  1.00  0.00    -0.248 NA
ATOM     43  C   UNL     1      -8.102   1.073  11.248  1.00  0.00     0.031 C 
ATOM     44  C   UNL     1     -10.339   4.354   8.163  1.00  0.00     0.029 A 
ATOM     45  N   UNL     1     -11.607   2.725   9.020  1.00  0.00    -0.354 N 
ATOM     46  C   UNL     1      -9.911  -0.274  11.635  1.00  0.00     0.074 A 
ATOM     47  C   UNL     1      -8.492  -0.057  11.819  1.00  0.00     0.031 C 
ATOM     48  C   UNL     1     -11.587   4.530   7.700  1.00  0.00     0.029 A 
ATOM     49  C   UNL     1     -12.444   3.473   8.227  1.00  0.00     0.049 A 
ATOM     50  H   UNL     1     -11.905   1.929   9.517  1.00  0.00     0.167 HD
ATOM     51  C   UNL     1     -10.611  -1.282  12.211  1.00  0.00     0.037 A 
ATOM     52  C   UNL     1     -13.756   3.325   7.959  1.00  0.00     0.037 A 
ATOM     53  C   UNL     1     -12.025  -1.484  12.032  1.00  0.00     0.049 A 
ATOM     54  C   UNL     1     -14.510   2.187   8.588  1.00  0.00     0.074 A 
ATOM     55  C   UNL     1     -12.839  -2.446  12.603  1.00  0.00     0.029 A 
ATOM     56  N   UNL     1     -12.837  -0.709  11.215  1.00  0.00    -0.354 N 
ATOM     57  N   UNL     1     -14.071   1.261   9.409  1.00  0.00    -0.248 NA
ATOM     58  C   UNL     1     -15.936   2.072   8.256  1.00  0.00     0.031 C 
ATOM     59  C   UNL     1     -14.134  -2.279  12.099  1.00  0.00     0.029 A 
ATOM     60  C   UNL     1     -14.138  -1.184  11.250  1.00  0.00     0.049 A 
ATOM     61  H   UNL     1     -12.533   0.065  10.688  1.00  0.00     0.167 HD
ATOM     62  C   UNL     1     -15.174   0.472   9.715  1.00  0.00     0.074 A 
ATOM     63  C   UNL     1     -16.300   1.032   8.994  1.00  0.00     0.031 C 
ATOM     64  C   UNL     1     -15.248  -0.614  10.525  1.00  0.00     0.037 A 
BRANCH  51  65
ATOM     65  C   UNL     1      -9.841  -2.241  13.079  1.00  0.00     0.058 A 
ATOM     66  C   UNL     1      -9.293  -1.844  14.310  1.00  0.00     0.135 A 
ATOM     67  C   UNL     1      -9.626  -3.566  12.666  1.00  0.00     0.135 A 
ATOM     68  F   UNL     1      -9.457  -0.585  14.748  1.00  0.00    -0.206 F 
ATOM     69  C   UNL     1      -8.511  -2.705  15.072  1.00  0.00     0.059 A 
ATOM     70  C   UNL     1      -8.873  -4.455  13.428  1.00  0.00     0.059 A 
ATOM     71  F   UNL     1     -10.131  -4.003  11.502  1.00  0.00    -0.206 F 
ATOM     72  C   UNL     1      -8.296  -4.006  14.616  1.00  0.00     0.060 A 
BRANCH  72  73
ATOM     73  S   UNL     1      -7.236  -5.099  15.586  1.00  0.00     0.124 S 
ATOM     74  O   UNL     1      -5.911  -4.577  15.263  1.00  0.00    -0.237 OA
ATOM     75  O   UNL     1      -7.696  -4.856  16.950  1.00  0.00    -0.237 OA
ATOM     76  O   UNL     1      -7.536  -6.424  15.053  1.00  0.00    -0.744 OA
ENDBRANCH  72  73
ENDBRANCH  51  65
BRANCH  52  77
ATOM     77  C   UNL     1     -14.445   4.316   7.092  1.00  0.00     0.058 A 
ATOM     78  C   UNL     1     -15.333   5.250   7.646  1.00  0.00     0.135 A 
ATOM     79  C   UNL     1     -14.200   4.383   5.712  1.00  0.00     0.135 A 
ATOM     80  F   UNL     1     -15.604   5.221   8.959  1.00  0.00    -0.206 F 
ATOM     81  C   UNL     1     -15.956   6.216   6.863  1.00  0.00     0.059 A 
ATOM     82  C   UNL     1     -14.794   5.354   4.912  1.00  0.00     0.059 A 
ATOM     83  F   UNL     1     -13.346   3.522   5.138  1.00  0.00    -0.206 F 
ATOM     84  C   UNL     1     -15.674   6.265   5.497  1.00  0.00     0.060 A 
BRANCH  84  85
ATOM     85  S   UNL     1     -16.428   7.573   4.505  1.00  0.00     0.124 S 
ATOM     86  O   UNL     1     -17.814   7.125   4.435  1.00  0.00    -0.237 OA
ATOM     87  O   UNL     1     -16.180   8.757   5.322  1.00  0.00    -0.237 OA
ATOM     88  O   UNL     1     -15.681   7.516   3.252  1.00  0.00    -0.744 OA
ENDBRANCH  84  85
ENDBRANCH  52  77
BRANCH  64  89
ATOM     89  C   UNL     1     -16.598  -1.253  10.699  1.00  0.00     0.058 A 
ATOM     90  C   UNL     1     -17.188  -2.020   9.683  1.00  0.00     0.135 A 
ATOM     91  C   UNL     1     -17.288  -1.134  11.917  1.00  0.00     0.135 A 
ATOM     92  F   UNL     1     -16.575  -2.158   8.497  1.00  0.00    -0.206 F 
ATOM     93  C   UNL     1     -18.425  -2.631   9.860  1.00  0.00     0.059 A 
ATOM     94  C   UNL     1     -18.514  -1.758  12.125  1.00  0.00     0.059 A 
ATOM     95  F   UNL     1     -16.763  -0.418  12.924  1.00  0.00    -0.206 F 
ATOM     96  C   UNL     1     -19.080  -2.496  11.086  1.00  0.00     0.060 A 
BRANCH  96  97
ATOM     97  S   UNL     1     -20.668  -3.324  11.317  1.00  0.00     0.124 S 
ATOM     98  O   UNL     1     -21.559  -2.471  10.537  1.00  0.00    -0.237 OA
ATOM     99  O   UNL     1     -20.413  -4.650  10.763  1.00  0.00    -0.237 OA
ATOM    100  O   UNL     1     -20.865  -3.283  12.763  1.00  0.00    -0.744 OA
ENDBRANCH  96  97
ENDBRANCH  64  89
ENDBRANCH  38  39
ENDBRANCH  30  33
ENDBRANCH  28  29
ENDBRANCH  27  28
ENDBRANCH   1  27
TORSDOF 19
