REMARK SMILES CC(C)CSc1cc2c(cc1Cl)C=C(C(=O)NCCCCCCNC(=O)c1ccc(-c3c4nc(c(-c5c(F)cc(S(=O)(=O)[O-])cc5F)c5ccc([nH]5)c(-c5c(F)cc(S(=O)(=O)[O-])cc5F)c5nc(c(-c6c(F)cc(S(=O)(=O)[O-])cc6F)c6ccc3[nH]6)C=C5)C=C4)cc1)[C@@H](C(F)(F)F)O2
REMARK SMILES IDX 20 1 19 2 18 3 17 4 15 5 16 6 14 8 6 9 7 10 11 11 8 12 10 13
REMARK SMILES IDX 12 14 9 15 98 16 13 17 93 18 5 19 4 20 2 21 1 22 3 23 94 24
REMARK SMILES IDX 95 25 96 26 97 27 21 28 22 29 23 30 24 31 25 32 26 34 27 35
REMARK SMILES IDX 28 36 92 37 29 38 91 39 30 40 31 41 32 42 85 43 33 44 90 45
REMARK SMILES IDX 84 46 86 47 34 48 89 49 83 50 82 51 35 53 69 54 48 55 68 56
REMARK SMILES IDX 49 57 52 58 67 59 87 60 50 61 51 62 66 64 88 65 53 66 36 67
REMARK SMILES IDX 37 68 46 69 38 70 39 71 45 72 47 73 40 74 41 75 42 76 43 77
REMARK SMILES IDX 44 78 70 79 71 80 80 81 72 82 73 83 79 84 81 85 74 86 75 87
REMARK SMILES IDX 76 88 77 89 78 90 54 91 55 92 64 93 56 94 57 95 63 96 65 97
REMARK SMILES IDX 58 98 59 99 60 100 61 101 62 102
REMARK H PARENT 17 7 24 33 86 52 52 63
REMARK Flexibility Score: inf
ROOT
ATOM      1  C   UNL     1      -0.894  10.429  -1.034  1.00  0.00     0.002 C 
ENDROOT
BRANCH   1   2
ATOM      2  C   UNL     1      -1.077   8.966  -0.617  1.00  0.00     0.021 C 
BRANCH   2   3
ATOM      3  C   UNL     1      -1.670   8.068  -1.700  1.00  0.00     0.116 C 
BRANCH   3   4
ATOM      4  N   UNL     1      -0.659   7.617  -2.640  1.00  0.00    -0.352 N 
ATOM      5  C   UNL     1      -0.196   6.438  -3.114  1.00  0.00     0.251 C 
ATOM      6  O   UNL     1       0.694   6.534  -3.967  1.00  0.00    -0.270 OA
ATOM      7  H   UNL     1      -0.180   8.378  -3.043  1.00  0.00     0.163 HD
BRANCH   5   8
ATOM      8  C   UNL     1      -0.662   5.082  -2.690  1.00  0.00     0.067 C 
ATOM      9  C   UNL     1      -0.996   0.085  -1.995  1.00  0.00     0.030 A 
ATOM     10  C   UNL     1      -1.592   1.202  -1.398  1.00  0.00     0.063 A 
ATOM     11  C   UNL     1      -0.120   0.288  -3.078  1.00  0.00     0.055 A 
ATOM     12  C   UNL     1      -1.270   2.488  -1.826  1.00  0.00     0.129 A 
ATOM     13  C   UNL     1       0.203   1.585  -3.499  1.00  0.00     0.033 A 
ATOM     14  Cl  UNL     1       0.653  -1.022  -3.907  1.00  0.00    -0.083 Cl
ATOM     15  C   UNL     1      -0.359   2.690  -2.859  1.00  0.00     0.019 A 
ATOM     16  O   UNL     1      -1.843   3.515  -1.138  1.00  0.00    -0.475 OA
ATOM     17  C   UNL     1       0.027   4.050  -3.211  1.00  0.00     0.025 C 
ATOM     18  C   UNL     1      -1.832   4.821  -1.781  1.00  0.00     0.314 C 
BRANCH   9  19
ATOM     19  S   UNL     1      -1.357  -1.541  -1.338  1.00  0.00    -0.124 SA
BRANCH  19  20
ATOM     20  C   UNL     1      -0.866  -1.347   0.420  1.00  0.00     0.078 C 
BRANCH  20  21
ATOM     21  C   UNL     1       0.652  -1.423   0.671  1.00  0.00    -0.007 C 
ATOM     22  C   UNL     1       1.384  -0.117   0.353  1.00  0.00     0.008 C 
ATOM     23  C   UNL     1       0.907  -1.781   2.140  1.00  0.00     0.008 C 
ENDBRANCH  20  21
ENDBRANCH  19  20
ENDBRANCH   9  19
BRANCH  18  24
ATOM     24  C   UNL     1      -3.184   5.045  -2.482  1.00  0.00     0.429 C 
ATOM     25  F   UNL     1      -4.188   5.105  -1.575  1.00  0.00    -0.167 F 
ATOM     26  F   UNL     1      -3.219   6.207  -3.175  1.00  0.00    -0.167 F 
ATOM     27  F   UNL     1      -3.478   4.055  -3.355  1.00  0.00    -0.167 F 
ENDBRANCH  18  24
ENDBRANCH   5   8
ENDBRANCH   3   4
ENDBRANCH   2   3
ENDBRANCH   1   2
BRANCH   1  28
ATOM     28  C   UNL     1      -2.160  11.146  -1.522  1.00  0.00     0.002 C 
BRANCH  28  29
ATOM     29  C   UNL     1      -3.397  11.001  -0.633  1.00  0.00     0.021 C 
BRANCH  29  30
ATOM     30  C   UNL     1      -3.223  11.467   0.808  1.00  0.00     0.116 C 
BRANCH  30  31
ATOM     31  N   UNL     1      -2.947  12.891   0.912  1.00  0.00    -0.352 N 
ATOM     32  C   UNL     1      -3.524  13.826   1.739  1.00  0.00     0.251 C 
ATOM     33  H   UNL     1      -2.251  13.233   0.306  1.00  0.00     0.163 HD
ATOM     34  O   UNL     1      -3.259  15.017   1.599  1.00  0.00    -0.269 OA
BRANCH  32  35
ATOM     35  C   UNL     1      -4.492  13.395   2.772  1.00  0.00     0.039 A 
ATOM     36  C   UNL     1      -4.219  12.299   3.593  1.00  0.00     0.014 A 
ATOM     37  C   UNL     1      -5.702  14.083   2.900  1.00  0.00     0.014 A 
ATOM     38  C   UNL     1      -5.216  11.794   4.422  1.00  0.00     0.010 A 
ATOM     39  C   UNL     1      -6.675  13.618   3.791  1.00  0.00     0.010 A 
ATOM     40  C   UNL     1      -6.459  12.439   4.522  1.00  0.00    -0.014 A 
BRANCH  40  41
ATOM     41  C   UNL     1      -7.521  11.847   5.378  1.00  0.00     0.031 A 
ATOM     42  C   UNL     1      -8.786  11.303   4.766  1.00  0.00     0.074 A 
ATOM     43  C   UNL     1      -7.314  11.735   6.705  1.00  0.00     0.049 A 
ATOM     44  N   UNL     1      -9.796  10.712   5.352  1.00  0.00    -0.248 NA
ATOM     45  C   UNL     1      -8.940  11.441   3.309  1.00  0.00     0.031 C 
ATOM     46  C   UNL     1      -6.125  12.216   7.414  1.00  0.00     0.029 A 
ATOM     47  N   UNL     1      -8.075  11.157   7.689  1.00  0.00    -0.354 N 
ATOM     48  C   UNL     1     -10.707  10.419   4.343  1.00  0.00     0.074 A 
ATOM     49  C   UNL     1     -10.146  10.927   3.110  1.00  0.00     0.031 C 
ATOM     50  C   UNL     1      -6.210  11.860   8.704  1.00  0.00     0.029 A 
ATOM     51  C   UNL     1      -7.480  11.178   8.928  1.00  0.00     0.049 A 
ATOM     52  H   UNL     1      -8.963  10.764   7.523  1.00  0.00     0.167 HD
ATOM     53  C   UNL     1     -11.894   9.772   4.433  1.00  0.00     0.037 A 
ATOM     54  C   UNL     1      -7.910  10.706  10.114  1.00  0.00     0.037 A 
ATOM     55  C   UNL     1     -12.439   9.246   5.657  1.00  0.00     0.049 A 
ATOM     56  C   UNL     1      -9.249  10.031  10.195  1.00  0.00     0.074 A 
ATOM     57  C   UNL     1     -13.622   8.552   5.844  1.00  0.00     0.029 A 
ATOM     58  N   UNL     1     -11.838   9.352   6.903  1.00  0.00    -0.354 N 
ATOM     59  N   UNL     1     -10.092   9.760   9.229  1.00  0.00    -0.248 NA
ATOM     60  C   UNL     1      -9.703   9.613  11.529  1.00  0.00     0.031 C 
ATOM     61  C   UNL     1     -13.754   8.270   7.208  1.00  0.00     0.029 A 
ATOM     62  C   UNL     1     -12.636   8.756   7.866  1.00  0.00     0.049 A 
ATOM     63  H   UNL     1     -10.972   9.786   7.077  1.00  0.00     0.167 HD
ATOM     64  C   UNL     1     -11.178   9.141   9.836  1.00  0.00     0.074 A 
ATOM     65  C   UNL     1     -10.875   9.056  11.250  1.00  0.00     0.031 C 
ATOM     66  C   UNL     1     -12.325   8.691   9.272  1.00  0.00     0.037 A 
BRANCH  53  67
ATOM     67  C   UNL     1     -12.691   9.596   3.171  1.00  0.00     0.058 A 
ATOM     68  C   UNL     1     -12.315   8.667   2.188  1.00  0.00     0.135 A 
ATOM     69  C   UNL     1     -13.870  10.331   2.961  1.00  0.00     0.135 A 
ATOM     70  F   UNL     1     -11.189   7.950   2.332  1.00  0.00    -0.206 F 
ATOM     71  C   UNL     1     -13.068   8.486   1.032  1.00  0.00     0.059 A 
ATOM     72  C   UNL     1     -14.650  10.151   1.822  1.00  0.00     0.059 A 
ATOM     73  F   UNL     1     -14.274  11.232   3.869  1.00  0.00    -0.206 F 
ATOM     74  C   UNL     1     -14.234   9.234   0.858  1.00  0.00     0.060 A 
BRANCH  74  75
ATOM     75  S   UNL     1     -15.199   8.986  -0.648  1.00  0.00     0.124 S 
ATOM     76  O   UNL     1     -14.346   9.622  -1.647  1.00  0.00    -0.237 OA
ATOM     77  O   UNL     1     -15.287   7.531  -0.725  1.00  0.00    -0.237 OA
ATOM     78  O   UNL     1     -16.455   9.673  -0.366  1.00  0.00    -0.744 OA
ENDBRANCH  74  75
ENDBRANCH  53  67
BRANCH  54  79
ATOM     79  C   UNL     1      -7.052  10.858  11.318  1.00  0.00     0.058 A 
ATOM     80  C   UNL     1      -6.406   9.750  11.885  1.00  0.00     0.135 A 
ATOM     81  C   UNL     1      -6.824  12.117  11.894  1.00  0.00     0.135 A 
ATOM     82  F   UNL     1      -6.600   8.525  11.373  1.00  0.00    -0.206 F 
ATOM     83  C   UNL     1      -5.560   9.885  12.980  1.00  0.00     0.059 A 
ATOM     84  C   UNL     1      -5.964  12.280  12.975  1.00  0.00     0.059 A 
ATOM     85  F   UNL     1      -7.410  13.208  11.378  1.00  0.00    -0.206 F 
ATOM     86  C   UNL     1      -5.339  11.157  13.514  1.00  0.00     0.060 A 
BRANCH  86  87
ATOM     87  S   UNL     1      -4.177  11.331  14.885  1.00  0.00     0.124 S 
ATOM     88  O   UNL     1      -4.944  10.773  15.992  1.00  0.00    -0.237 OA
ATOM     89  O   UNL     1      -3.043  10.534  14.428  1.00  0.00    -0.237 OA
ATOM     90  O   UNL     1      -3.938  12.770  14.942  1.00  0.00    -0.744 OA
ENDBRANCH  86  87
ENDBRANCH  54  79
BRANCH  66  91
ATOM     91  C   UNL     1     -13.348   8.075  10.182  1.00  0.00     0.058 A 
ATOM     92  C   UNL     1     -14.160   8.871  11.004  1.00  0.00     0.135 A 
ATOM     93  C   UNL     1     -13.572   6.690  10.177  1.00  0.00     0.135 A 
ATOM     94  F   UNL     1     -13.978  10.200  11.051  1.00  0.00    -0.206 F 
ATOM     95  C   UNL     1     -15.158   8.313  11.796  1.00  0.00     0.059 A 
ATOM     96  C   UNL     1     -14.578   6.112  10.945  1.00  0.00     0.059 A 
ATOM     97  F   UNL     1     -12.826   5.887   9.401  1.00  0.00    -0.206 F 
ATOM     98  C   UNL     1     -15.363   6.932  11.755  1.00  0.00     0.060 A 
BRANCH  98  99
ATOM     99  S   UNL     1     -16.700   6.229  12.745  1.00  0.00     0.124 S 
ATOM    100  O   UNL     1     -16.151   6.329  14.093  1.00  0.00    -0.237 OA
ATOM    101  O   UNL     1     -17.813   7.125  12.446  1.00  0.00    -0.237 OA
ATOM    102  O   UNL     1     -16.835   4.874  12.220  1.00  0.00    -0.744 OA
ENDBRANCH  98  99
ENDBRANCH  66  91
ENDBRANCH  40  41
ENDBRANCH  32  35
ENDBRANCH  30  31
ENDBRANCH  29  30
ENDBRANCH  28  29
ENDBRANCH   1  28
TORSDOF 20
