REMARK SMILES Cc1nccn1CCC[NH+]1CCC2(CC1)[C@@H](C(=O)NCCCCCCNC(=O)c1ccc(-c3c4nc(c(-c5c(F)cc(S(=O)(=O)[O-])cc5F)c5ccc([nH]5)c(-c5c(F)cc(S(=O)(=O)[O-])cc5F)c5nc(c(-c6c(F)cc(S(=O)(=O)[O-])cc6F)c6ccc3[nH]6)C=C5)C=C4)cc1)CC(=O)N2C
REMARK SMILES IDX 22 1 21 2 20 3 19 4 17 5 18 6 16 8 10 9 11 10 15 11 12 13
REMARK SMILES IDX 14 14 13 15 98 16 95 17 96 18 99 19 97 20 9 21 8 22 7 23
REMARK SMILES IDX 6 24 1 25 2 26 3 27 4 28 5 29 23 30 24 31 25 32 26 33 27 34
REMARK SMILES IDX 28 36 29 37 30 38 94 39 31 40 93 41 32 42 33 43 34 44 87 45
REMARK SMILES IDX 35 46 92 47 86 48 88 49 36 50 91 51 85 52 84 53 37 55 71 56
REMARK SMILES IDX 50 57 70 58 51 59 54 60 69 61 89 62 52 63 53 64 68 66 90 67
REMARK SMILES IDX 55 68 38 69 39 70 48 71 40 72 41 73 47 74 49 75 42 76 43 77
REMARK SMILES IDX 44 78 45 79 46 80 72 81 73 82 82 83 74 84 75 85 81 86 83 87
REMARK SMILES IDX 76 88 77 89 78 90 79 91 80 92 56 93 57 94 66 95 58 96 59 97
REMARK SMILES IDX 65 98 67 99 60 100 61 101 62 102 63 103 64 104
REMARK H PARENT 19 7 10 12 26 35 88 54 54 65
REMARK Flexibility Score: inf
ROOT
ATOM      1  C   UNL     1       5.607   6.641  -4.462  1.00  0.00     0.002 C 
ENDROOT
BRANCH   1   2
ATOM      2  C   UNL     1       4.410   6.556  -3.511  1.00  0.00     0.021 C 
BRANCH   2   3
ATOM      3  C   UNL     1       3.664   7.867  -3.260  1.00  0.00     0.116 C 
BRANCH   3   4
ATOM      4  N   UNL     1       3.104   8.438  -4.476  1.00  0.00    -0.356 N 
ATOM      5  C   UNL     1       1.859   8.927  -4.755  1.00  0.00     0.226 C 
ATOM      6  O   UNL     1       1.678   9.449  -5.855  1.00  0.00    -0.275 OA
ATOM      7  H   UNL     1       3.734   8.479  -5.231  1.00  0.00     0.163 HD
BRANCH   5   8
ATOM      8  C   UNL     1       0.737   8.773  -3.747  1.00  0.00     0.114 C 
ATOM      9  N   UNL     1      -0.189   4.559  -3.929  1.00  0.00    -0.335 N 
ATOM     10  C   UNL     1      -0.698   5.363  -2.827  1.00  0.00     0.264 C 
ATOM     11  C   UNL     1      -0.366   5.230  -5.219  1.00  0.00     0.264 C 
ATOM     12  H   UNL     1      -0.781   3.730  -3.879  1.00  0.00     0.348 HD
ATOM     13  C   UNL     1      -0.022   6.696  -2.714  1.00  0.00     0.091 C 
ATOM     14  C   UNL     1       0.167   6.673  -5.230  1.00  0.00     0.091 C 
ATOM     15  C   UNL     1      -0.185   7.529  -3.982  1.00  0.00     0.065 C 
ATOM     16  N   UNL     1      -1.540   8.113  -4.048  1.00  0.00    -0.339 N 
ATOM     17  C   UNL     1      -0.182   9.993  -3.713  1.00  0.00     0.116 C 
ATOM     18  C   UNL     1      -1.577   9.454  -3.713  1.00  0.00     0.223 C 
ATOM     19  C   UNL     1      -2.795   7.380  -4.110  1.00  0.00     0.147 C 
ATOM     20  O   UNL     1      -2.570  10.107  -3.461  1.00  0.00    -0.275 OA
BRANCH   9  21
ATOM     21  C   UNL     1       1.160   4.002  -3.803  1.00  0.00     0.264 C 
BRANCH  21  22
ATOM     22  C   UNL     1       1.577   3.570  -2.401  1.00  0.00     0.083 C 
BRANCH  22  23
ATOM     23  C   UNL     1       0.520   2.796  -1.629  1.00  0.00     0.129 C 
BRANCH  23  24
ATOM     24  N   UNL     1       0.233   1.520  -2.208  1.00  0.00    -0.335 N 
ATOM     25  C   UNL     1       1.155   0.307  -0.236  1.00  0.00     0.087 C 
ATOM     26  C   UNL     1       0.569   0.350  -1.615  1.00  0.00     0.105 A 
ATOM     27  N   UNL     1       0.309  -0.624  -2.463  1.00  0.00    -0.242 NA
ATOM     28  C   UNL     1      -0.336  -0.092  -3.532  1.00  0.00     0.131 A 
ATOM     29  C   UNL     1      -0.451   1.259  -3.362  1.00  0.00     0.107 A 
ENDBRANCH  23  24
ENDBRANCH  22  23
ENDBRANCH  21  22
ENDBRANCH   9  21
ENDBRANCH   5   8
ENDBRANCH   3   4
ENDBRANCH   2   3
ENDBRANCH   1   2
BRANCH   1  30
ATOM     30  C   UNL     1       6.683   7.674  -4.109  1.00  0.00     0.002 C 
BRANCH  30  31
ATOM     31  C   UNL     1       7.258   7.613  -2.688  1.00  0.00     0.021 C 
BRANCH  31  32
ATOM     32  C   UNL     1       7.880   6.278  -2.299  1.00  0.00     0.116 C 
BRANCH  32  33
ATOM     33  N   UNL     1       9.075   5.957  -3.067  1.00  0.00    -0.352 N 
ATOM     34  C   UNL     1       9.839   4.807  -2.997  1.00  0.00     0.251 C 
ATOM     35  H   UNL     1       9.373   6.639  -3.711  1.00  0.00     0.163 HD
ATOM     36  O   UNL     1      11.008   4.833  -3.359  1.00  0.00    -0.269 OA
BRANCH  34  37
ATOM     37  C   UNL     1       9.239   3.561  -2.463  1.00  0.00     0.039 A 
ATOM     38  C   UNL     1       9.994   2.709  -1.659  1.00  0.00     0.014 A 
ATOM     39  C   UNL     1       7.915   3.234  -2.765  1.00  0.00     0.014 A 
ATOM     40  C   UNL     1       9.376   1.590  -1.095  1.00  0.00     0.010 A 
ATOM     41  C   UNL     1       7.272   2.189  -2.116  1.00  0.00     0.010 A 
ATOM     42  C   UNL     1       7.994   1.345  -1.283  1.00  0.00    -0.014 A 
BRANCH  42  43
ATOM     43  C   UNL     1       7.325   0.314  -0.463  1.00  0.00     0.031 A 
ATOM     44  C   UNL     1       7.739   0.372   0.968  1.00  0.00     0.074 A 
ATOM     45  C   UNL     1       6.355  -0.562  -0.830  1.00  0.00     0.049 A 
ATOM     46  N   UNL     1       8.581  -0.408   1.559  1.00  0.00    -0.248 NA
ATOM     47  C   UNL     1       7.342   1.538   1.773  1.00  0.00     0.031 C 
ATOM     48  C   UNL     1       5.617  -0.623  -2.089  1.00  0.00     0.029 A 
ATOM     49  N   UNL     1       5.795  -1.598  -0.116  1.00  0.00    -0.354 N 
ATOM     50  C   UNL     1       8.615   0.004   2.885  1.00  0.00     0.074 A 
ATOM     51  C   UNL     1       8.004   1.308   2.910  1.00  0.00     0.031 C 
ATOM     52  C   UNL     1       4.617  -1.532  -1.997  1.00  0.00     0.029 A 
ATOM     53  C   UNL     1       4.696  -2.240  -0.724  1.00  0.00     0.049 A 
ATOM     54  H   UNL     1       6.140  -1.873   0.764  1.00  0.00     0.167 HD
ATOM     55  C   UNL     1       8.894  -0.889   3.874  1.00  0.00     0.037 A 
ATOM     56  C   UNL     1       3.935  -3.269  -0.215  1.00  0.00     0.037 A 
ATOM     57  C   UNL     1       9.558  -2.059   3.342  1.00  0.00     0.049 A 
ATOM     58  C   UNL     1       4.758  -3.922   0.813  1.00  0.00     0.074 A 
ATOM     59  C   UNL     1      10.696  -2.283   2.586  1.00  0.00     0.029 A 
ATOM     60  N   UNL     1       8.825  -3.215   3.234  1.00  0.00    -0.354 N 
ATOM     61  N   UNL     1       5.780  -4.672   0.531  1.00  0.00    -0.248 NA
ATOM     62  C   UNL     1       4.687  -3.420   2.173  1.00  0.00     0.031 C 
ATOM     63  C   UNL     1      10.342  -3.326   1.676  1.00  0.00     0.029 A 
ATOM     64  C   UNL     1       9.045  -3.727   1.981  1.00  0.00     0.049 A 
ATOM     65  H   UNL     1       8.247  -3.605   3.929  1.00  0.00     0.167 HD
ATOM     66  C   UNL     1       6.702  -4.357   1.506  1.00  0.00     0.074 A 
ATOM     67  C   UNL     1       5.940  -3.675   2.553  1.00  0.00     0.031 C 
ATOM     68  C   UNL     1       8.035  -4.429   1.232  1.00  0.00     0.037 A 
BRANCH  55  69
ATOM     69  C   UNL     1       8.180  -0.898   5.212  1.00  0.00     0.058 A 
ATOM     70  C   UNL     1       8.571  -1.839   6.188  1.00  0.00     0.135 A 
ATOM     71  C   UNL     1       6.952  -0.244   5.464  1.00  0.00     0.135 A 
ATOM     72  F   UNL     1       9.718  -2.525   6.056  1.00  0.00    -0.206 F 
ATOM     73  C   UNL     1       7.762  -2.172   7.275  1.00  0.00     0.059 A 
ATOM     74  C   UNL     1       6.156  -0.522   6.569  1.00  0.00     0.059 A 
ATOM     75  F   UNL     1       6.408   0.631   4.612  1.00  0.00    -0.206 F 
ATOM     76  C   UNL     1       6.547  -1.518   7.446  1.00  0.00     0.060 A 
BRANCH  76  77
ATOM     77  S   UNL     1       5.458  -2.002   8.795  1.00  0.00     0.124 S 
ATOM     78  O   UNL     1       5.028  -3.324   8.357  1.00  0.00    -0.237 OA
ATOM     79  O   UNL     1       6.365  -1.966   9.938  1.00  0.00    -0.237 OA
ATOM     80  O   UNL     1       4.433  -0.963   8.784  1.00  0.00    -0.744 OA
ENDBRANCH  76  77
ENDBRANCH  55  69
BRANCH  56  81
ATOM     81  C   UNL     1       2.502  -3.703  -0.355  1.00  0.00     0.058 A 
ATOM     82  C   UNL     1       1.911  -4.736   0.406  1.00  0.00     0.135 A 
ATOM     83  C   UNL     1       1.596  -2.861  -0.967  1.00  0.00     0.135 A 
ATOM     84  F   UNL     1       2.678  -5.686   0.960  1.00  0.00    -0.206 F 
ATOM     85  C   UNL     1       0.532  -4.777   0.708  1.00  0.00     0.059 A 
ATOM     86  C   UNL     1       0.222  -2.876  -0.680  1.00  0.00     0.059 A 
ATOM     87  F   UNL     1       2.085  -1.892  -1.735  1.00  0.00    -0.206 F 
ATOM     88  C   UNL     1      -0.298  -3.783   0.218  1.00  0.00     0.060 A 
BRANCH  88  89
ATOM     89  S   UNL     1      -1.960  -3.474   0.874  1.00  0.00     0.124 S 
ATOM     90  O   UNL     1      -2.815  -4.096  -0.132  1.00  0.00    -0.237 OA
ATOM     91  O   UNL     1      -1.930  -4.137   2.174  1.00  0.00    -0.237 OA
ATOM     92  O   UNL     1      -2.027  -2.014   0.941  1.00  0.00    -0.744 OA
ENDBRANCH  88  89
ENDBRANCH  56  81
BRANCH  68  93
ATOM     93  C   UNL     1       8.439  -5.137  -0.037  1.00  0.00     0.058 A 
ATOM     94  C   UNL     1       8.089  -4.733  -1.341  1.00  0.00     0.135 A 
ATOM     95  C   UNL     1       9.266  -6.261   0.080  1.00  0.00     0.135 A 
ATOM     96  F   UNL     1       7.381  -3.614  -1.552  1.00  0.00    -0.206 F 
ATOM     97  C   UNL     1       8.491  -5.453  -2.470  1.00  0.00     0.059 A 
ATOM     98  C   UNL     1       9.705  -6.974  -1.030  1.00  0.00     0.059 A 
ATOM     99  F   UNL     1       9.678  -6.667   1.292  1.00  0.00    -0.206 F 
ATOM    100  C   UNL     1       9.296  -6.579  -2.302  1.00  0.00     0.060 A 
BRANCH 100 101
ATOM    101  S   UNL     1       9.847  -7.499  -3.755  1.00  0.00     0.124 S 
ATOM    102  O   UNL     1       8.613  -8.129  -4.211  1.00  0.00    -0.237 OA
ATOM    103  O   UNL     1      10.378  -6.446  -4.616  1.00  0.00    -0.237 OA
ATOM    104  O   UNL     1      10.851  -8.415  -3.217  1.00  0.00    -0.744 OA
ENDBRANCH 100 101
ENDBRANCH  68  93
ENDBRANCH  42  43
ENDBRANCH  34  37
ENDBRANCH  32  33
ENDBRANCH  31  32
ENDBRANCH  30  31
ENDBRANCH   1  30
TORSDOF 20
