REMARK SMILES COC(=O)C[C@H](NC(=O)N(C)C[C@@H]1CCC[N@H+]1C)C(=O)NCCCCCCNC(=O)c1ccc(-c2c3nc(c(-c4c(F)cc(S(=O)(=O)[O-])cc4F)c4ccc([nH]4)c(-c4c(F)cc(S(=O)(=O)[O-])cc4F)c4nc(c(-c5c(F)cc(S(=O)(=O)[O-])cc5F)c5ccc2[nH]5)C=C4)C=C3)cc1
REMARK SMILES IDX 24 1 23 2 22 3 21 4 19 5 20 6 6 8 5 9 3 10 4 11 2 12 1 13
REMARK SMILES IDX 7 14 8 15 9 17 10 18 11 19 12 20 13 21 14 22 17 23 15 24
REMARK SMILES IDX 16 25 18 26 25 28 26 29 27 30 28 31 29 32 30 34 31 35 32 36
REMARK SMILES IDX 96 37 33 38 95 39 34 40 35 41 36 42 89 43 37 44 94 45 88 46
REMARK SMILES IDX 90 47 38 48 93 49 87 50 86 51 39 53 73 54 52 55 72 56 53 57
REMARK SMILES IDX 56 58 71 59 91 60 54 61 55 62 70 64 92 65 57 66 40 67 41 68
REMARK SMILES IDX 50 69 42 70 43 71 49 72 51 73 44 74 45 75 46 76 47 77 48 78
REMARK SMILES IDX 74 79 75 80 84 81 76 82 77 83 83 84 85 85 78 86 79 87 80 88
REMARK SMILES IDX 81 89 82 90 58 91 59 92 68 93 60 94 61 95 67 96 69 97 62 98
REMARK SMILES IDX 63 99 64 100 65 101 66 102
REMARK H PARENT 21 7 7 16 17 27 28 33 90 52 56 63
REMARK Flexibility Score: inf
ROOT
ATOM      1  C   UNL     1       2.314   8.487  10.479  1.00  0.00     0.002 C 
ENDROOT
BRANCH   1   2
ATOM      2  C   UNL     1       3.251   7.276  10.395  1.00  0.00     0.021 C 
BRANCH   2   3
ATOM      3  C   UNL     1       3.112   6.274  11.536  1.00  0.00     0.116 C 
BRANCH   3   4
ATOM      4  N   UNL     1       1.798   5.658  11.576  1.00  0.00    -0.354 N 
ATOM      5  C   UNL     1       1.426   4.357  11.739  1.00  0.00     0.243 C 
ATOM      6  O   UNL     1       0.232   4.140  11.973  1.00  0.00    -0.273 OA
ATOM      7  H   UNL     1       1.049   6.287  11.468  1.00  0.00     0.163 HD
BRANCH   5   8
ATOM      8  C   UNL     1       2.452   3.207  11.802  1.00  0.00     0.184 C 
BRANCH   8   9
ATOM      9  C   UNL     1       3.184   3.301  13.142  1.00  0.00     0.157 C 
BRANCH   9  10
ATOM     10  C   UNL     1       4.223   2.231  13.265  1.00  0.00     0.308 C 
ATOM     11  O   UNL     1       5.423   2.464  13.348  1.00  0.00    -0.252 OA
BRANCH  10  12
ATOM     12  O   UNL     1       3.659   0.996  13.257  1.00  0.00    -0.469 OA
ATOM     13  C   UNL     1       4.614  -0.065  13.257  1.00  0.00     0.282 C 
ENDBRANCH  10  12
ENDBRANCH   9  10
ENDBRANCH   8   9
BRANCH   8  14
ATOM     14  N   UNL     1       3.363   3.217  10.659  1.00  0.00    -0.326 N 
ATOM     15  C   UNL     1       3.320   2.814   9.383  1.00  0.00     0.318 C 
ATOM     16  H   UNL     1       4.230   3.624  10.885  1.00  0.00     0.166 HD
ATOM     17  O   UNL     1       4.368   3.025   8.759  1.00  0.00    -0.249 OA
BRANCH  15  18
ATOM     18  N   UNL     1       2.237   2.245   8.778  1.00  0.00    -0.322 N 
ATOM     19  C   UNL     1       0.951   1.862   9.336  1.00  0.00     0.149 C 
BRANCH  18  20
ATOM     20  C   UNL     1       2.389   1.937   7.349  1.00  0.00     0.185 C 
BRANCH  20  21
ATOM     21  C   UNL     1       2.055   3.094   6.364  1.00  0.00     0.203 C 
ATOM     22  C   UNL     1       2.338   4.511   6.883  1.00  0.00     0.073 C 
ATOM     23  N   UNL     1       0.644   3.200   5.915  1.00  0.00    -0.333 N 
ATOM     24  C   UNL     1       1.375   5.424   6.136  1.00  0.00     0.068 C 
ATOM     25  C   UNL     1       0.578   4.502   5.234  1.00  0.00     0.262 C 
ATOM     26  C   UNL     1       0.254   2.132   4.997  1.00  0.00     0.333 C 
ATOM     27  H   UNL     1       0.004   3.116   6.705  1.00  0.00     0.348 HD
ENDBRANCH  20  21
ENDBRANCH  18  20
ENDBRANCH  15  18
ENDBRANCH   8  14
ENDBRANCH   5   8
ENDBRANCH   3   4
ENDBRANCH   2   3
ENDBRANCH   1   2
BRANCH   1  28
ATOM     28  C   UNL     1       2.387   9.293  11.780  1.00  0.00     0.002 C 
BRANCH  28  29
ATOM     29  C   UNL     1       3.782   9.780  12.176  1.00  0.00     0.021 C 
BRANCH  29  30
ATOM     30  C   UNL     1       4.487  10.627  11.124  1.00  0.00     0.116 C 
BRANCH  30  31
ATOM     31  N   UNL     1       3.791  11.877  10.861  1.00  0.00    -0.352 N 
ATOM     32  C   UNL     1       4.290  13.158  10.861  1.00  0.00     0.251 C 
ATOM     33  H   UNL     1       2.832  11.794  10.656  1.00  0.00     0.163 HD
ATOM     34  O   UNL     1       3.527  14.117  10.793  1.00  0.00    -0.269 OA
BRANCH  32  35
ATOM     35  C   UNL     1       5.750  13.370  10.964  1.00  0.00     0.039 A 
ATOM     36  C   UNL     1       6.238  14.328  11.857  1.00  0.00     0.014 A 
ATOM     37  C   UNL     1       6.633  12.613  10.191  1.00  0.00     0.014 A 
ATOM     38  C   UNL     1       7.617  14.485  12.015  1.00  0.00     0.010 A 
ATOM     39  C   UNL     1       8.003  12.714  10.409  1.00  0.00     0.010 A 
ATOM     40  C   UNL     1       8.511  13.658  11.316  1.00  0.00    -0.014 A 
BRANCH  40  41
ATOM     41  C   UNL     1       9.982  13.771  11.490  1.00  0.00     0.031 A 
ATOM     42  C   UNL     1      10.844  14.153  10.317  1.00  0.00     0.074 A 
ATOM     43  C   UNL     1      10.549  13.453  12.671  1.00  0.00     0.049 A 
ATOM     44  N   UNL     1      12.148  14.193  10.225  1.00  0.00    -0.248 NA
ATOM     45  C   UNL     1      10.144  14.506   9.071  1.00  0.00     0.031 C 
ATOM     46  C   UNL     1       9.824  13.033  13.871  1.00  0.00     0.029 A 
ATOM     47  N   UNL     1      11.868  13.415  13.049  1.00  0.00    -0.354 N 
ATOM     48  C   UNL     1      12.423  14.552   8.910  1.00  0.00     0.074 A 
ATOM     49  C   UNL     1      11.153  14.662   8.228  1.00  0.00     0.031 C 
ATOM     50  C   UNL     1      10.706  12.793  14.855  1.00  0.00     0.029 A 
ATOM     51  C   UNL     1      12.059  12.996  14.345  1.00  0.00     0.049 A 
ATOM     52  H   UNL     1      12.607  13.664  12.450  1.00  0.00     0.167 HD
ATOM     53  C   UNL     1      13.624  14.790   8.330  1.00  0.00     0.037 A 
ATOM     54  C   UNL     1      13.194  12.784  15.039  1.00  0.00     0.037 A 
ATOM     55  C   UNL     1      14.882  14.695   9.024  1.00  0.00     0.049 A 
ATOM     56  C   UNL     1      14.520  13.042  14.374  1.00  0.00     0.074 A 
ATOM     57  C   UNL     1      16.151  14.967   8.544  1.00  0.00     0.029 A 
ATOM     58  N   UNL     1      15.032  14.293  10.344  1.00  0.00    -0.354 N 
ATOM     59  N   UNL     1      14.762  13.435  13.146  1.00  0.00    -0.248 NA
ATOM     60  C   UNL     1      15.725  12.835  15.188  1.00  0.00     0.031 C 
ATOM     61  C   UNL     1      17.072  14.676   9.556  1.00  0.00     0.029 A 
ATOM     62  C   UNL     1      16.373  14.287  10.689  1.00  0.00     0.049 A 
ATOM     63  H   UNL     1      14.293  14.048  10.947  1.00  0.00     0.167 HD
ATOM     64  C   UNL     1      16.145  13.557  13.050  1.00  0.00     0.074 A 
ATOM     65  C   UNL     1      16.684  13.198  14.346  1.00  0.00     0.031 C 
ATOM     66  C   UNL     1      16.897  13.939  11.988  1.00  0.00     0.037 A 
BRANCH  53  67
ATOM     67  C   UNL     1      13.630  15.163   6.871  1.00  0.00     0.058 A 
ATOM     68  C   UNL     1      13.102  16.383   6.415  1.00  0.00     0.135 A 
ATOM     69  C   UNL     1      14.180  14.294   5.915  1.00  0.00     0.135 A 
ATOM     70  F   UNL     1      12.551  17.248   7.282  1.00  0.00    -0.206 F 
ATOM     71  C   UNL     1      13.077  16.706   5.063  1.00  0.00     0.059 A 
ATOM     72  C   UNL     1      14.197  14.612   4.560  1.00  0.00     0.059 A 
ATOM     73  F   UNL     1      14.702  13.116   6.292  1.00  0.00    -0.206 F 
ATOM     74  C   UNL     1      13.624  15.812   4.142  1.00  0.00     0.060 A 
BRANCH  74  75
ATOM     75  S   UNL     1      13.567  16.238   2.389  1.00  0.00     0.124 S 
ATOM     76  O   UNL     1      12.147  16.064   2.094  1.00  0.00    -0.237 OA
ATOM     77  O   UNL     1      14.050  17.615   2.387  1.00  0.00    -0.237 OA
ATOM     78  O   UNL     1      14.459  15.262   1.771  1.00  0.00    -0.744 OA
ENDBRANCH  74  75
ENDBRANCH  53  67
BRANCH  54  79
ATOM     79  C   UNL     1      13.120  12.322  16.452  1.00  0.00     0.058 A 
ATOM     80  C   UNL     1      13.460  13.177  17.510  1.00  0.00     0.135 A 
ATOM     81  C   UNL     1      12.672  11.031  16.774  1.00  0.00     0.135 A 
ATOM     82  F   UNL     1      13.902  14.418  17.254  1.00  0.00    -0.206 F 
ATOM     83  C   UNL     1      13.367  12.769  18.837  1.00  0.00     0.059 A 
ATOM     84  C   UNL     1      12.544  10.608  18.094  1.00  0.00     0.059 A 
ATOM     85  F   UNL     1      12.319  10.178  15.800  1.00  0.00    -0.206 F 
ATOM     86  C   UNL     1      12.899  11.484  19.119  1.00  0.00     0.060 A 
BRANCH  86  87
ATOM     87  S   UNL     1      12.714  10.992  20.847  1.00  0.00     0.124 S 
ATOM     88  O   UNL     1      14.104  10.861  21.267  1.00  0.00    -0.237 OA
ATOM     89  O   UNL     1      11.980  12.123  21.408  1.00  0.00    -0.237 OA
ATOM     90  O   UNL     1      11.959   9.746  20.763  1.00  0.00    -0.744 OA
ENDBRANCH  86  87
ENDBRANCH  54  79
BRANCH  66  91
ATOM     91  C   UNL     1      18.385  14.042  12.185  1.00  0.00     0.058 A 
ATOM     92  C   UNL     1      19.200  12.908  12.314  1.00  0.00     0.135 A 
ATOM     93  C   UNL     1      19.012  15.300  12.170  1.00  0.00     0.135 A 
ATOM     94  F   UNL     1      18.654  11.682  12.341  1.00  0.00    -0.206 F 
ATOM     95  C   UNL     1      20.582  13.017  12.437  1.00  0.00     0.059 A 
ATOM     96  C   UNL     1      20.393  15.431  12.261  1.00  0.00     0.059 A 
ATOM     97  F   UNL     1      18.280  16.418  12.039  1.00  0.00    -0.206 F 
ATOM     98  C   UNL     1      21.170  14.283  12.403  1.00  0.00     0.060 A 
BRANCH  98  99
ATOM     99  S   UNL     1      22.968  14.406  12.514  1.00  0.00     0.124 S 
ATOM    100  O   UNL     1      23.201  14.072  13.915  1.00  0.00    -0.237 OA
ATOM    101  O   UNL     1      23.409  13.410  11.542  1.00  0.00    -0.237 OA
ATOM    102  O   UNL     1      23.238  15.793  12.147  1.00  0.00    -0.744 OA
ENDBRANCH  98  99
ENDBRANCH  66  91
ENDBRANCH  40  41
ENDBRANCH  32  35
ENDBRANCH  30  31
ENDBRANCH  29  30
ENDBRANCH  28  29
ENDBRANCH   1  28
TORSDOF 23
