REMARK SMILES O=C(NCCCCCCNC(=O)[C@@H]1CCCCC[C@H]1NC(=O)c1cccc(F)c1)c1ccc(-c2c3nc(c(-c4c(F)cc(S(=O)(=O)[O-])cc4F)c4ccc([nH]4)c(-c4c(F)cc(S(=O)(=O)[O-])cc4F)c4nc(c(-c5c(F)cc(S(=O)(=O)[O-])cc5F)c5ccc2[nH]5)C=C4)C=C3)cc1
REMARK SMILES IDX 7 1 6 2 5 3 4 4 3 5 1 6 2 7 30 9 31 10 95 11 32 12 94 13
REMARK SMILES IDX 33 14 34 15 35 16 88 17 36 18 93 19 87 20 89 21 37 22 92 23
REMARK SMILES IDX 86 24 85 25 38 27 72 28 51 29 71 30 52 31 55 32 70 33 90 34
REMARK SMILES IDX 53 35 54 36 69 38 91 39 56 40 39 41 40 42 49 43 41 44 42 45
REMARK SMILES IDX 48 46 50 47 43 48 44 49 45 50 46 51 47 52 73 53 74 54 83 55
REMARK SMILES IDX 75 56 76 57 82 58 84 59 77 60 78 61 79 62 80 63 81 64 57 65
REMARK SMILES IDX 58 66 67 67 59 68 60 69 66 70 68 71 61 72 62 73 63 74 64 75
REMARK SMILES IDX 65 76 8 77 9 78 10 79 11 80 12 82 13 83 14 84 15 85 19 87
REMARK SMILES IDX 18 88 17 89 16 90 20 92 21 93 22 95 23 96 24 97 29 98 25 99
REMARK SMILES IDX 27 100 26 101 28 102
REMARK H PARENT 3 8 89 26 55 37 10 81 20 94
REMARK Flexibility Score: 90.00
ROOT
ATOM      1  C   UNL     1       4.663   3.503  -2.923  1.00  0.00     0.002 C 
ENDROOT
BRANCH   1   2
ATOM      2  C   UNL     1       3.813   2.292  -3.335  1.00  0.00     0.002 C 
BRANCH   2   3
ATOM      3  C   UNL     1       4.242   0.954  -2.731  1.00  0.00     0.021 C 
BRANCH   3   4
ATOM      4  C   UNL     1       4.186   0.906  -1.210  1.00  0.00     0.116 C 
BRANCH   4   5
ATOM      5  N   UNL     1       2.818   0.898  -0.716  1.00  0.00    -0.352 N 
ATOM      6  O   UNL     1       0.994   0.014   0.276  1.00  0.00    -0.269 OA
ATOM      7  C   UNL     1       2.212  -0.010   0.119  1.00  0.00     0.251 C 
ATOM      8  H   UNL     1       2.250   1.643  -1.020  1.00  0.00     0.163 HD
BRANCH   7   9
ATOM      9  C   UNL     1       3.035  -1.023   0.816  1.00  0.00     0.039 A 
ATOM     10  C   UNL     1       4.240  -0.655   1.418  1.00  0.00     0.014 A 
ATOM     11  C   UNL     1       2.596  -2.349   0.878  1.00  0.00     0.014 A 
ATOM     12  C   UNL     1       5.064  -1.630   1.965  1.00  0.00     0.010 A 
ATOM     13  C   UNL     1       3.386  -3.316   1.511  1.00  0.00     0.010 A 
ATOM     14  C   UNL     1       4.635  -2.967   2.045  1.00  0.00    -0.014 A 
BRANCH  14  15
ATOM     15  C   UNL     1       5.481  -3.938   2.786  1.00  0.00     0.031 A 
ATOM     16  C   UNL     1       6.149  -5.093   2.094  1.00  0.00     0.074 A 
ATOM     17  C   UNL     1       5.697  -3.710   4.098  1.00  0.00     0.049 A 
ATOM     18  N   UNL     1       6.979  -5.973   2.591  1.00  0.00    -0.248 NA
ATOM     19  C   UNL     1       5.849  -5.294   0.667  1.00  0.00     0.031 C 
ATOM     20  C   UNL     1       5.084  -2.625   4.872  1.00  0.00     0.029 A 
ATOM     21  N   UNL     1       6.515  -4.337   5.001  1.00  0.00    -0.354 N 
ATOM     22  C   UNL     1       7.296  -6.836   1.549  1.00  0.00     0.074 A 
ATOM     23  C   UNL     1       6.550  -6.388   0.393  1.00  0.00     0.031 C 
ATOM     24  C   UNL     1       5.608  -2.612   6.105  1.00  0.00     0.029 A 
ATOM     25  C   UNL     1       6.540  -3.725   6.234  1.00  0.00     0.049 A 
ATOM     26  H   UNL     1       7.034  -5.146   4.789  1.00  0.00     0.167 HD
ATOM     27  C   UNL     1       8.140  -7.896   1.561  1.00  0.00     0.037 A 
ATOM     28  C   UNL     1       7.232  -4.027   7.348  1.00  0.00     0.037 A 
ATOM     29  C   UNL     1       8.891  -8.320   2.716  1.00  0.00     0.049 A 
ATOM     30  C   UNL     1       8.148  -5.214   7.330  1.00  0.00     0.074 A 
ATOM     31  C   UNL     1       9.785  -9.373   2.821  1.00  0.00     0.029 A 
ATOM     32  N   UNL     1       8.844  -7.714   3.963  1.00  0.00    -0.354 N 
ATOM     33  N   UNL     1       8.435  -6.014   6.331  1.00  0.00    -0.248 NA
ATOM     34  C   UNL     1       8.821  -5.551   8.590  1.00  0.00     0.031 C 
ATOM     35  C   UNL     1      10.251  -9.425   4.138  1.00  0.00     0.029 A 
ATOM     36  C   UNL     1       9.679  -8.380   4.846  1.00  0.00     0.049 A 
ATOM     37  H   UNL     1       8.298  -6.926   4.188  1.00  0.00     0.167 HD
ATOM     38  C   UNL     1       9.319  -6.954   6.844  1.00  0.00     0.074 A 
ATOM     39  C   UNL     1       9.547  -6.601   8.231  1.00  0.00     0.031 C 
ATOM     40  C   UNL     1       9.881  -8.021   6.227  1.00  0.00     0.037 A 
BRANCH  27  41
ATOM     41  C   UNL     1       8.316  -8.683   0.292  1.00  0.00     0.058 A 
ATOM     42  C   UNL     1       7.797  -9.984   0.181  1.00  0.00     0.135 A 
ATOM     43  C   UNL     1       9.097  -8.197  -0.768  1.00  0.00     0.135 A 
ATOM     44  F   UNL     1       7.037 -10.494   1.163  1.00  0.00    -0.206 F 
ATOM     45  C   UNL     1       8.073 -10.786  -0.921  1.00  0.00     0.059 A 
ATOM     46  C   UNL     1       9.370  -8.976  -1.889  1.00  0.00     0.059 A 
ATOM     47  F   UNL     1       9.598  -6.953  -0.722  1.00  0.00    -0.206 F 
ATOM     48  C   UNL     1       8.870 -10.277  -1.947  1.00  0.00     0.060 A 
BRANCH  48  49
ATOM     49  S   UNL     1       9.233 -11.337  -3.364  1.00  0.00     0.124 S 
ATOM     50  O   UNL     1      10.116 -12.337  -2.774  1.00  0.00    -0.237 OA
ATOM     51  O   UNL     1       7.903 -11.805  -3.744  1.00  0.00    -0.237 OA
ATOM     52  O   UNL     1       9.861 -10.425  -4.316  1.00  0.00    -0.744 OA
ENDBRANCH  48  49
ENDBRANCH  27  41
BRANCH  28  53
ATOM     53  C   UNL     1       7.076  -3.191   8.566  1.00  0.00     0.058 A 
ATOM     54  C   UNL     1       5.868  -3.171   9.282  1.00  0.00     0.135 A 
ATOM     55  C   UNL     1       8.122  -2.377   9.024  1.00  0.00     0.135 A 
ATOM     56  F   UNL     1       4.833  -3.923   8.878  1.00  0.00    -0.206 F 
ATOM     57  C   UNL     1       5.694  -2.355  10.393  1.00  0.00     0.059 A 
ATOM     58  C   UNL     1       7.981  -1.573  10.152  1.00  0.00     0.059 A 
ATOM     59  F   UNL     1       9.298  -2.370   8.378  1.00  0.00    -0.206 F 
ATOM     60  C   UNL     1       6.757  -1.558  10.819  1.00  0.00     0.060 A 
BRANCH  60  61
ATOM     61  S   UNL     1       6.518  -0.516  12.274  1.00  0.00     0.124 S 
ATOM     62  O   UNL     1       5.687   0.554  11.730  1.00  0.00    -0.237 OA
ATOM     63  O   UNL     1       5.854  -1.427  13.201  1.00  0.00    -0.237 OA
ATOM     64  O   UNL     1       7.878  -0.134  12.639  1.00  0.00    -0.744 OA
ENDBRANCH  60  61
ENDBRANCH  28  53
BRANCH  40  65
ATOM     65  C   UNL     1      10.789  -8.885   7.053  1.00  0.00     0.058 A 
ATOM     66  C   UNL     1      12.178  -8.859   6.856  1.00  0.00     0.135 A 
ATOM     67  C   UNL     1      10.277  -9.761   8.023  1.00  0.00     0.135 A 
ATOM     68  F   UNL     1      12.716  -8.040   5.938  1.00  0.00    -0.206 F 
ATOM     69  C   UNL     1      13.029  -9.676   7.590  1.00  0.00     0.059 A 
ATOM     70  C   UNL     1      11.112 -10.570   8.786  1.00  0.00     0.059 A 
ATOM     71  F   UNL     1       8.955  -9.810   8.257  1.00  0.00    -0.206 F 
ATOM     72  C   UNL     1      12.486 -10.528   8.554  1.00  0.00     0.060 A 
BRANCH  72  73
ATOM     73  S   UNL     1      13.608 -11.549   9.534  1.00  0.00     0.124 S 
ATOM     74  O   UNL     1      13.987 -12.579   8.574  1.00  0.00    -0.237 OA
ATOM     75  O   UNL     1      14.656 -10.599   9.895  1.00  0.00    -0.237 OA
ATOM     76  O   UNL     1      12.772 -11.998  10.643  1.00  0.00    -0.744 OA
ENDBRANCH  72  73
ENDBRANCH  40  65
ENDBRANCH  14  15
ENDBRANCH   7   9
ENDBRANCH   4   5
ENDBRANCH   3   4
ENDBRANCH   2   3
ENDBRANCH   1   2
BRANCH   1  77
ATOM     77  C   UNL     1       6.184   3.313  -3.025  1.00  0.00     0.021 C 
BRANCH  77  78
ATOM     78  C   UNL     1       6.668   2.928  -4.423  1.00  0.00     0.116 C 
BRANCH  78  79
ATOM     79  N   UNL     1       6.769   4.090  -5.286  1.00  0.00    -0.356 N 
ATOM     80  C   UNL     1       7.762   4.924  -5.667  1.00  0.00     0.225 C 
ATOM     81  H   UNL     1       5.904   4.328  -5.693  1.00  0.00     0.163 HD
ATOM     82  O   UNL     1       7.393   5.837  -6.422  1.00  0.00    -0.275 OA
BRANCH  80  83
ATOM     83  C   UNL     1       9.260   4.814  -5.298  1.00  0.00     0.101 C 
BRANCH  83  84
ATOM     84  C   UNL     1       9.674   3.679  -4.362  1.00  0.00     0.015 C 
BRANCH  84  85
ATOM     85  C   UNL     1      11.115   3.688  -3.859  1.00  0.00     0.001 CG0
ATOM     86  G   UNL     1      11.269   4.462  -2.555  1.00  0.00     0.000 G0
ENDBRANCH  84  85
ENDBRANCH  83  84
BRANCH  83  87
ATOM     87  C   UNL     1       9.763   6.229  -4.881  1.00  0.00     0.094 C 
BRANCH  87  88
ATOM     88  C   UNL     1       9.831   6.463  -3.360  1.00  0.00     0.026 C 
BRANCH  88  89
ATOM     89  C   UNL     1      11.096   5.972  -2.653  1.00  0.00     0.002 C 
BRANCH  89  90
ATOM     90  C   UNL     1      11.269   4.462  -2.555  1.00  0.00     0.000 CG0
ATOM     91  G   UNL     1      11.115   3.688  -3.859  1.00  0.00     0.000 G0
ENDBRANCH  89  90
ENDBRANCH  88  89
ENDBRANCH  87  88
BRANCH  87  92
ATOM     92  N   UNL     1      11.048   6.556  -5.522  1.00  0.00    -0.349 N 
ATOM     93  C   UNL     1      11.358   7.431  -6.529  1.00  0.00     0.251 C 
ATOM     94  H   UNL     1      11.819   6.059  -5.164  1.00  0.00     0.164 HD
ATOM     95  O   UNL     1      12.480   7.403  -7.029  1.00  0.00    -0.269 OA
BRANCH  93  96
ATOM     96  C   UNL     1      10.372   8.402  -7.040  1.00  0.00     0.042 A 
ATOM     97  C   UNL     1       9.666   9.254  -6.181  1.00  0.00     0.014 A 
ATOM     98  C   UNL     1      10.232   8.527  -8.424  1.00  0.00     0.053 A 
ATOM     99  C   UNL     1       8.769  10.187  -6.706  1.00  0.00     0.004 A 
ATOM    100  C   UNL     1       9.346   9.467  -8.933  1.00  0.00     0.124 A 
ATOM    101  C   UNL     1       8.607  10.290  -8.088  1.00  0.00     0.039 A 
ATOM    102  F   UNL     1       9.206   9.593 -10.259  1.00  0.00    -0.207 F 
ENDBRANCH  93  96
ENDBRANCH  87  92
ENDBRANCH  83  87
ENDBRANCH  80  83
ENDBRANCH  78  79
ENDBRANCH  77  78
ENDBRANCH   1  77
TORSDOF 18
