REMARK SMILES O=C(/C=C/c1ccccc1Oc1cccc(Cl)c1)NCCCCCCNC(=O)c1ccc(-c2c3nc(c(-c4c(F)cc(S(=O)(=O)[O-])cc4F)c4ccc([nH]4)c(-c4c(F)cc(S(=O)(=O)[O-])cc4F)c4nc(c(-c5c(F)cc(S(=O)(=O)[O-])cc5F)c5ccc2[nH]5)C=C4)C=C3)cc1
REMARK SMILES IDX 22 1 21 2 20 3 19 4 1 5 2 6 3 8 4 9 5 10 6 11 10 12 7 13
REMARK SMILES IDX 9 14 8 15 11 16 12 17 13 18 18 19 14 20 16 21 15 22 17 23
REMARK SMILES IDX 23 24 24 25 25 26 26 27 27 28 28 30 29 31 30 32 94 33 31 34
REMARK SMILES IDX 93 35 32 36 33 37 34 38 87 39 35 40 92 41 86 42 88 43 36 44
REMARK SMILES IDX 91 45 85 46 84 47 37 49 71 50 50 51 70 52 51 53 54 54 69 55
REMARK SMILES IDX 89 56 52 57 53 58 68 60 90 61 55 62 38 63 39 64 48 65 40 66
REMARK SMILES IDX 41 67 47 68 49 69 42 70 43 71 44 72 45 73 46 74 72 75 73 76
REMARK SMILES IDX 82 77 74 78 75 79 81 80 83 81 76 82 77 83 78 84 79 85 80 86
REMARK SMILES IDX 56 87 57 88 66 89 58 90 59 91 65 92 67 93 60 94 61 95 62 96
REMARK SMILES IDX 63 97 64 98
REMARK H PARENT 19 7 26 29 88 48 54 59
REMARK Flexibility Score: inf
ROOT
ATOM      1  C   UNL     1       4.248   0.200   3.744  1.00  0.00     0.002 C 
ENDROOT
BRANCH   1   2
ATOM      2  C   UNL     1       2.743  -0.021   3.541  1.00  0.00     0.021 C 
BRANCH   2   3
ATOM      3  C   UNL     1       2.171   0.673   2.308  1.00  0.00     0.116 C 
BRANCH   3   4
ATOM      4  N   UNL     1       2.823   0.224   1.097  1.00  0.00    -0.353 N 
ATOM      5  O   UNL     1       1.409  -1.538   0.682  1.00  0.00    -0.270 OA
ATOM      6  C   UNL     1       2.399  -0.875   0.396  1.00  0.00     0.244 C 
ATOM      7  H   UNL     1       3.601   0.727   0.764  1.00  0.00     0.163 HD
BRANCH   6   8
ATOM      8  C   UNL     1       3.176  -1.205  -0.826  1.00  0.00     0.072 C 
ATOM      9  C   UNL     1       4.419  -0.777  -1.087  1.00  0.00     0.017 C 
BRANCH   9  10
ATOM     10  C   UNL     1       5.104  -1.028  -2.361  1.00  0.00     0.017 A 
ATOM     11  C   UNL     1       6.254  -1.837  -2.261  1.00  0.00     0.012 A 
ATOM     12  C   UNL     1       4.741  -0.519  -3.624  1.00  0.00     0.134 A 
ATOM     13  C   UNL     1       7.016  -2.161  -3.385  1.00  0.00     0.001 A 
ATOM     14  C   UNL     1       5.516  -0.865  -4.746  1.00  0.00     0.048 A 
ATOM     15  C   UNL     1       6.644  -1.677  -4.631  1.00  0.00     0.004 A 
BRANCH  12  16
ATOM     16  O   UNL     1       3.658   0.263  -3.982  1.00  0.00    -0.457 OA
BRANCH  16  17
ATOM     17  C   UNL     1       2.963   1.003  -3.065  1.00  0.00     0.128 A 
ATOM     18  C   UNL     1       1.586   0.774  -2.991  1.00  0.00     0.047 A 
ATOM     19  C   UNL     1       3.558   1.986  -2.276  1.00  0.00     0.067 A 
ATOM     20  C   UNL     1       0.811   1.462  -2.058  1.00  0.00     0.005 A 
ATOM     21  C   UNL     1       2.779   2.661  -1.337  1.00  0.00     0.044 A 
ATOM     22  C   UNL     1       1.413   2.399  -1.218  1.00  0.00     0.021 A 
ATOM     23  Cl  UNL     1       3.525   3.778  -0.261  1.00  0.00    -0.084 Cl
ENDBRANCH  16  17
ENDBRANCH  12  16
ENDBRANCH   9  10
ENDBRANCH   6   8
ENDBRANCH   3   4
ENDBRANCH   2   3
ENDBRANCH   1   2
BRANCH   1  24
ATOM     24  C   UNL     1       4.674   1.657   3.951  1.00  0.00     0.002 C 
BRANCH  24  25
ATOM     25  C   UNL     1       4.004   2.372   5.125  1.00  0.00     0.021 C 
BRANCH  25  26
ATOM     26  C   UNL     1       4.153   1.677   6.475  1.00  0.00     0.116 C 
BRANCH  26  27
ATOM     27  N   UNL     1       5.541   1.575   6.899  1.00  0.00    -0.352 N 
ATOM     28  C   UNL     1       6.106   1.899   8.108  1.00  0.00     0.251 C 
ATOM     29  H   UNL     1       6.164   1.223   6.223  1.00  0.00     0.163 HD
ATOM     30  O   UNL     1       7.330   1.904   8.229  1.00  0.00    -0.269 OA
BRANCH  28  31
ATOM     31  C   UNL     1       5.245   2.267   9.254  1.00  0.00     0.039 A 
ATOM     32  C   UNL     1       5.602   3.364  10.042  1.00  0.00     0.014 A 
ATOM     33  C   UNL     1       4.092   1.536   9.554  1.00  0.00     0.014 A 
ATOM     34  C   UNL     1       4.771   3.762  11.092  1.00  0.00     0.010 A 
ATOM     35  C   UNL     1       3.226   1.982  10.549  1.00  0.00     0.010 A 
ATOM     36  C   UNL     1       3.557   3.096  11.333  1.00  0.00    -0.014 A 
BRANCH  36  37
ATOM     37  C   UNL     1       2.626   3.562  12.394  1.00  0.00     0.031 A 
ATOM     38  C   UNL     1       2.302   2.677  13.569  1.00  0.00     0.074 A 
ATOM     39  C   UNL     1       2.031   4.765  12.274  1.00  0.00     0.049 A 
ATOM     40  N   UNL     1       1.508   2.908  14.583  1.00  0.00    -0.248 NA
ATOM     41  C   UNL     1       2.933   1.348  13.594  1.00  0.00     0.031 C 
ATOM     42  C   UNL     1       2.224   5.695  11.159  1.00  0.00     0.029 A 
ATOM     43  N   UNL     1       1.144   5.415  13.095  1.00  0.00    -0.354 N 
ATOM     44  C   UNL     1       1.532   1.752  15.356  1.00  0.00     0.074 A 
ATOM     45  C   UNL     1       2.374   0.802  14.664  1.00  0.00     0.031 C 
ATOM     46  C   UNL     1       1.515   6.811  11.388  1.00  0.00     0.029 A 
ATOM     47  C   UNL     1       0.783   6.662  12.642  1.00  0.00     0.049 A 
ATOM     48  H   UNL     1       0.800   5.026  13.931  1.00  0.00     0.167 HD
ATOM     49  C   UNL     1       0.923   1.512  16.544  1.00  0.00     0.037 A 
ATOM     50  C   UNL     1      -0.042   7.583  13.176  1.00  0.00     0.037 A 
ATOM     51  C   UNL     1       0.098   2.471  17.233  1.00  0.00     0.049 A 
ATOM     52  C   UNL     1      -0.717   7.289  14.489  1.00  0.00     0.074 A 
ATOM     53  C   UNL     1      -0.504   2.353  18.474  1.00  0.00     0.029 A 
ATOM     54  N   UNL     1      -0.254   3.718  16.737  1.00  0.00    -0.354 N 
ATOM     55  N   UNL     1      -0.618   6.223  15.248  1.00  0.00    -0.248 NA
ATOM     56  C   UNL     1      -1.612   8.325  15.019  1.00  0.00     0.031 C 
ATOM     57  C   UNL     1      -1.271   3.502  18.699  1.00  0.00     0.029 A 
ATOM     58  C   UNL     1      -1.094   4.365  17.629  1.00  0.00     0.049 A 
ATOM     59  H   UNL     1       0.049   4.089  15.877  1.00  0.00     0.167 HD
ATOM     60  C   UNL     1      -1.413   6.474  16.361  1.00  0.00     0.074 A 
ATOM     61  C   UNL     1      -1.974   7.798  16.180  1.00  0.00     0.031 C 
ATOM     62  C   UNL     1      -1.651   5.683  17.437  1.00  0.00     0.037 A 
BRANCH  49  63
ATOM     63  C   UNL     1       1.116   0.151  17.162  1.00  0.00     0.058 A 
ATOM     64  C   UNL     1       2.362  -0.277  17.650  1.00  0.00     0.135 A 
ATOM     65  C   UNL     1       0.033  -0.736  17.279  1.00  0.00     0.135 A 
ATOM     66  F   UNL     1       3.436   0.524  17.557  1.00  0.00    -0.206 F 
ATOM     67  C   UNL     1       2.538  -1.549  18.186  1.00  0.00     0.059 A 
ATOM     68  C   UNL     1       0.178  -2.001  17.843  1.00  0.00     0.059 A 
ATOM     69  F   UNL     1      -1.183  -0.382  16.834  1.00  0.00    -0.206 F 
ATOM     70  C   UNL     1       1.440  -2.406  18.274  1.00  0.00     0.060 A 
BRANCH  70  71
ATOM     71  S   UNL     1       1.690  -4.061  18.951  1.00  0.00     0.124 S 
ATOM     72  O   UNL     1       2.427  -4.708  17.870  1.00  0.00    -0.237 OA
ATOM     73  O   UNL     1       2.453  -3.789  20.165  1.00  0.00    -0.237 OA
ATOM     74  O   UNL     1       0.331  -4.550  19.164  1.00  0.00    -0.744 OA
ENDBRANCH  70  71
ENDBRANCH  49  63
BRANCH  50  75
ATOM     75  C   UNL     1      -0.239   8.890  12.493  1.00  0.00     0.058 A 
ATOM     76  C   UNL     1       0.276  10.073  13.045  1.00  0.00     0.135 A 
ATOM     77  C   UNL     1      -0.924   8.986  11.271  1.00  0.00     0.135 A 
ATOM     78  F   UNL     1       0.931  10.035  14.216  1.00  0.00    -0.206 F 
ATOM     79  C   UNL     1       0.112  11.304  12.419  1.00  0.00     0.059 A 
ATOM     80  C   UNL     1      -1.077  10.201  10.612  1.00  0.00     0.059 A 
ATOM     81  F   UNL     1      -1.424   7.883  10.692  1.00  0.00    -0.206 F 
ATOM     82  C   UNL     1      -0.562  11.357  11.198  1.00  0.00     0.060 A 
BRANCH  82  83
ATOM     83  S   UNL     1      -0.717  12.952  10.367  1.00  0.00     0.124 S 
ATOM     84  O   UNL     1      -1.674  13.640  11.225  1.00  0.00    -0.237 OA
ATOM     85  O   UNL     1       0.654  13.452  10.409  1.00  0.00    -0.237 OA
ATOM     86  O   UNL     1      -1.205  12.593   9.039  1.00  0.00    -0.744 OA
ENDBRANCH  82  83
ENDBRANCH  50  75
BRANCH  62  87
ATOM     87  C   UNL     1      -2.534   6.241  18.522  1.00  0.00     0.058 A 
ATOM     88  C   UNL     1      -3.913   6.431  18.335  1.00  0.00     0.135 A 
ATOM     89  C   UNL     1      -1.996   6.564  19.779  1.00  0.00     0.135 A 
ATOM     90  F   UNL     1      -4.480   6.146  17.152  1.00  0.00    -0.206 F 
ATOM     91  C   UNL     1      -4.718   6.955  19.341  1.00  0.00     0.059 A 
ATOM     92  C   UNL     1      -2.789   7.057  20.811  1.00  0.00     0.059 A 
ATOM     93  F   UNL     1      -0.686   6.391  20.019  1.00  0.00    -0.206 F 
ATOM     94  C   UNL     1      -4.147   7.265  20.576  1.00  0.00     0.060 A 
BRANCH  94  95
ATOM     95  S   UNL     1      -5.206   7.930  21.878  1.00  0.00     0.124 S 
ATOM     96  O   UNL     1      -5.451   9.285  21.394  1.00  0.00    -0.237 OA
ATOM     97  O   UNL     1      -6.351   7.026  21.840  1.00  0.00    -0.237 OA
ATOM     98  O   UNL     1      -4.377   7.832  23.075  1.00  0.00    -0.744 OA
ENDBRANCH  94  95
ENDBRANCH  62  87
ENDBRANCH  36  37
ENDBRANCH  28  31
ENDBRANCH  26  27
ENDBRANCH  25  26
ENDBRANCH  24  25
ENDBRANCH   1  24
TORSDOF 19
