REMARK SMILES Cc1oc2c(C)c3oc(=O)c(CCC(=O)N[C@H](Cc4ccc(Cl)cc4)C(=O)NCCCCCCNC(=O)c4ccc(-c5c6nc(c(-c7c(F)cc(S(=O)(=O)[O-])cc7F)c7ccc([nH]7)c(-c7c(F)cc(S(=O)(=O)[O-])cc7F)c7nc(c(-c8c(F)cc(S(=O)(=O)[O-])cc8F)c8ccc5[nH]8)C=C7)C=C6)cc4)c(C)c3cc2c1C
REMARK SMILES IDX 31 1 30 2 29 3 28 4 26 5 27 6 17 8 16 9 14 10 15 11 13 13
REMARK SMILES IDX 12 14 11 15 1 16 2 17 3 18 109 19 4 20 108 21 110 22 5 23
REMARK SMILES IDX 107 24 6 25 7 26 106 27 8 28 104 29 9 30 105 31 10 32 18 33
REMARK SMILES IDX 19 34 20 35 25 36 21 37 24 38 22 39 23 40 32 41 33 42 34 43
REMARK SMILES IDX 35 44 36 45 37 47 38 48 39 49 103 50 40 51 102 52 41 53
REMARK SMILES IDX 42 54 43 55 96 56 44 57 101 58 95 59 97 60 45 61 100 62
REMARK SMILES IDX 94 63 93 64 46 66 80 67 59 68 79 69 60 70 63 71 78 72 98 73
REMARK SMILES IDX 61 74 62 75 77 77 99 78 64 79 47 80 48 81 57 82 49 83 50 84
REMARK SMILES IDX 56 85 58 86 51 87 52 88 53 89 54 90 55 91 81 92 82 93 91 94
REMARK SMILES IDX 83 95 84 96 90 97 92 98 85 99 86 100 87 101 88 102 89 103
REMARK SMILES IDX 65 104 66 105 75 106 67 107 68 108 74 109 76 110 69 111
REMARK SMILES IDX 70 112 71 113 72 114 73 115
REMARK H PARENT 28 7 16 12 35 46 97 65 63 76
REMARK Flexibility Score: inf
ROOT
ATOM      1  C   UNL     1       2.132   3.162   5.259  1.00  0.00     0.002 C 
ENDROOT
BRANCH   1   2
ATOM      2  C   UNL     1       0.614   2.958   5.374  1.00  0.00     0.021 C 
BRANCH   2   3
ATOM      3  C   UNL     1       0.136   1.567   4.941  1.00  0.00     0.116 C 
BRANCH   3   4
ATOM      4  N   UNL     1       0.540   0.573   5.918  1.00  0.00    -0.354 N 
ATOM      5  C   UNL     1      -0.157   0.382   7.085  1.00  0.00     0.242 C 
ATOM      6  O   UNL     1       0.333   0.773   8.143  1.00  0.00    -0.273 OA
ATOM      7  H   UNL     1       1.335   0.020   5.739  1.00  0.00     0.163 HD
BRANCH   5   8
ATOM      8  C   UNL     1      -1.576  -0.197   7.026  1.00  0.00     0.175 C 
BRANCH   8   9
ATOM      9  N   UNL     1      -1.761  -1.038   5.830  1.00  0.00    -0.344 N 
ATOM     10  C   UNL     1      -2.360  -2.257   5.698  1.00  0.00     0.220 C 
ATOM     11  O   UNL     1      -2.371  -2.783   4.582  1.00  0.00    -0.275 OA
ATOM     12  H   UNL     1      -1.395  -0.662   4.997  1.00  0.00     0.164 HD
BRANCH  10  13
ATOM     13  C   UNL     1      -2.956  -2.974   6.900  1.00  0.00     0.105 C 
BRANCH  13  14
ATOM     14  C   UNL     1      -2.062  -4.075   7.482  1.00  0.00     0.053 C 
BRANCH  14  15
ATOM     15  C   UNL     1      -0.716  -3.542   7.924  1.00  0.00     0.042 A 
ATOM     16  C   UNL     1       6.055   1.334   7.069  1.00  0.00     0.088 C 
ATOM     17  C   UNL     1       4.977   0.327   7.155  1.00  0.00     0.105 A 
ATOM     18  O   UNL     1       4.394   0.179   8.380  1.00  0.00    -0.461 OA
ATOM     19  C   UNL     1       4.377  -0.508   6.231  1.00  0.00    -0.002 A 
ATOM     20  C   UNL     1       3.411  -0.759   8.258  1.00  0.00     0.141 A 
ATOM     21  C   UNL     1       3.417  -1.260   6.966  1.00  0.00     0.025 A 
ATOM     22  C   UNL     1       4.594  -0.584   4.765  1.00  0.00     0.049 C 
ATOM     23  C   UNL     1       2.490  -1.127   9.247  1.00  0.00     0.036 A 
ATOM     24  C   UNL     1       2.486  -2.249   6.616  1.00  0.00     0.024 A 
ATOM     25  C   UNL     1       2.436  -0.437  10.575  1.00  0.00     0.052 C 
ATOM     26  C   UNL     1       1.529  -2.076   8.819  1.00  0.00     0.145 A 
ATOM     27  C   UNL     1       1.503  -2.638   7.537  1.00  0.00     0.022 A 
ATOM     28  O   UNL     1       0.487  -2.384   9.724  1.00  0.00    -0.422 OA
ATOM     29  C   UNL     1       0.356  -3.462   7.109  1.00  0.00    -0.030 A 
ATOM     30  C   UNL     1      -0.675  -3.018   9.319  1.00  0.00     0.339 A 
ATOM     31  C   UNL     1       0.391  -4.012   5.702  1.00  0.00     0.046 C 
ATOM     32  O   UNL     1      -1.633  -3.131  10.077  1.00  0.00    -0.246 OA
ENDBRANCH  14  15
ENDBRANCH  13  14
ENDBRANCH  10  13
ENDBRANCH   8   9
BRANCH   8  33
ATOM     33  C   UNL     1      -2.612   0.932   7.171  1.00  0.00     0.070 C 
BRANCH  33  34
ATOM     34  C   UNL     1      -4.000   0.357   7.325  1.00  0.00    -0.045 A 
ATOM     35  C   UNL     1      -4.747   0.036   6.182  1.00  0.00     0.005 A 
ATOM     36  C   UNL     1      -4.463  -0.038   8.588  1.00  0.00     0.005 A 
ATOM     37  C   UNL     1      -5.892  -0.749   6.291  1.00  0.00     0.021 A 
ATOM     38  C   UNL     1      -5.617  -0.817   8.695  1.00  0.00     0.021 A 
ATOM     39  C   UNL     1      -6.310  -1.190   7.545  1.00  0.00     0.041 A 
ATOM     40  Cl  UNL     1      -7.655  -2.256   7.666  1.00  0.00    -0.084 Cl
ENDBRANCH  33  34
ENDBRANCH   8  33
ENDBRANCH   5   8
ENDBRANCH   3   4
ENDBRANCH   2   3
ENDBRANCH   1   2
BRANCH   1  41
ATOM     41  C   UNL     1       2.688   3.057   3.836  1.00  0.00     0.002 C 
BRANCH  41  42
ATOM     42  C   UNL     1       2.026   3.988   2.804  1.00  0.00     0.021 C 
BRANCH  42  43
ATOM     43  C   UNL     1       2.204   5.490   3.077  1.00  0.00     0.116 C 
BRANCH  43  44
ATOM     44  N   UNL     1       3.603   5.851   2.942  1.00  0.00    -0.352 N 
ATOM     45  C   UNL     1       4.200   6.806   2.165  1.00  0.00     0.251 C 
ATOM     46  H   UNL     1       4.222   5.324   3.498  1.00  0.00     0.163 HD
ATOM     47  O   UNL     1       5.364   6.614   1.814  1.00  0.00    -0.269 OA
BRANCH  45  48
ATOM     48  C   UNL     1       3.518   8.065   1.776  1.00  0.00     0.039 A 
ATOM     49  C   UNL     1       3.919   8.677   0.580  1.00  0.00     0.014 A 
ATOM     50  C   UNL     1       2.644   8.739   2.632  1.00  0.00     0.014 A 
ATOM     51  C   UNL     1       3.441   9.944   0.234  1.00  0.00     0.010 A 
ATOM     52  C   UNL     1       2.169  10.011   2.283  1.00  0.00     0.010 A 
ATOM     53  C   UNL     1       2.557  10.623   1.080  1.00  0.00    -0.014 A 
BRANCH  53  54
ATOM     54  C   UNL     1       1.965  11.900   0.608  1.00  0.00     0.031 A 
ATOM     55  C   UNL     1       0.483  11.993   0.760  1.00  0.00     0.074 A 
ATOM     56  C   UNL     1       2.670  13.049   0.478  1.00  0.00     0.049 A 
ATOM     57  N   UNL     1      -0.073  12.284   1.899  1.00  0.00    -0.248 NA
ATOM     58  C   UNL     1      -0.461  11.518  -0.251  1.00  0.00     0.031 C 
ATOM     59  C   UNL     1       3.863  13.360   1.273  1.00  0.00     0.029 A 
ATOM     60  N   UNL     1       2.382  14.235  -0.169  1.00  0.00    -0.354 N 
ATOM     61  C   UNL     1      -1.421  12.008   1.787  1.00  0.00     0.074 A 
ATOM     62  C   UNL     1      -1.619  11.544   0.430  1.00  0.00     0.031 C 
ATOM     63  C   UNL     1       4.101  14.686   1.201  1.00  0.00     0.029 A 
ATOM     64  C   UNL     1       3.185  15.306   0.239  1.00  0.00     0.049 A 
ATOM     65  H   UNL     1       1.678  14.319  -0.852  1.00  0.00     0.167 HD
ATOM     66  C   UNL     1      -2.287  12.176   2.821  1.00  0.00     0.037 A 
ATOM     67  C   UNL     1       2.784  16.608   0.342  1.00  0.00     0.037 A 
ATOM     68  C   UNL     1      -1.708  12.680   4.033  1.00  0.00     0.049 A 
ATOM     69  C   UNL     1       1.702  16.512   1.386  1.00  0.00     0.074 A 
ATOM     70  C   UNL     1      -1.228  12.178   5.223  1.00  0.00     0.029 A 
ATOM     71  N   UNL     1      -1.473  14.032   4.111  1.00  0.00    -0.354 N 
ATOM     72  N   UNL     1       1.881  16.426   2.676  1.00  0.00    -0.248 NA
ATOM     73  C   UNL     1       0.359  16.155   0.926  1.00  0.00     0.031 C 
ATOM     74  C   UNL     1      -0.321  13.170   5.716  1.00  0.00     0.029 A 
ATOM     75  C   UNL     1      -0.283  14.195   4.773  1.00  0.00     0.049 A 
ATOM     76  H   UNL     1      -2.050  14.748   3.759  1.00  0.00     0.167 HD
ATOM     77  C   UNL     1       0.756  15.758   3.162  1.00  0.00     0.074 A 
ATOM     78  C   UNL     1      -0.143  15.626   2.033  1.00  0.00     0.031 C 
ATOM     79  C   UNL     1       0.687  15.202   4.406  1.00  0.00     0.037 A 
BRANCH  66  80
ATOM     80  C   UNL     1      -3.755  12.078   2.715  1.00  0.00     0.058 A 
ATOM     81  C   UNL     1      -4.475  13.273   2.566  1.00  0.00     0.135 A 
ATOM     82  C   UNL     1      -4.462  10.904   2.993  1.00  0.00     0.135 A 
ATOM     83  F   UNL     1      -3.824  14.420   2.312  1.00  0.00    -0.206 F 
ATOM     84  C   UNL     1      -5.848  13.320   2.746  1.00  0.00     0.059 A 
ATOM     85  C   UNL     1      -5.845  10.925   3.169  1.00  0.00     0.059 A 
ATOM     86  F   UNL     1      -3.811   9.740   3.151  1.00  0.00    -0.206 F 
ATOM     87  C   UNL     1      -6.523  12.143   3.071  1.00  0.00     0.060 A 
BRANCH  87  88
ATOM     88  S   UNL     1      -8.291  12.257   3.414  1.00  0.00     0.124 S 
ATOM     89  O   UNL     1      -8.314  13.129   4.584  1.00  0.00    -0.237 OA
ATOM     90  O   UNL     1      -8.800  12.839   2.176  1.00  0.00    -0.237 OA
ATOM     91  O   UNL     1      -8.679  10.871   3.657  1.00  0.00    -0.744 OA
ENDBRANCH  87  88
ENDBRANCH  66  80
BRANCH  67  92
ATOM     92  C   UNL     1       2.596  17.398  -0.922  1.00  0.00     0.058 A 
ATOM     93  C   UNL     1       3.571  17.327  -1.939  1.00  0.00     0.135 A 
ATOM     94  C   UNL     1       1.514  18.262  -1.175  1.00  0.00     0.135 A 
ATOM     95  F   UNL     1       4.710  16.645  -1.739  1.00  0.00    -0.206 F 
ATOM     96  C   UNL     1       3.406  17.943  -3.179  1.00  0.00     0.059 A 
ATOM     97  C   UNL     1       1.310  18.866  -2.418  1.00  0.00     0.059 A 
ATOM     98  F   UNL     1       0.609  18.532  -0.225  1.00  0.00    -0.206 F 
ATOM     99  C   UNL     1       2.248  18.674  -3.426  1.00  0.00     0.060 A 
BRANCH  99 100
ATOM    100  S   UNL     1       1.953  19.302  -5.093  1.00  0.00     0.124 S 
ATOM    101  O   UNL     1       3.010  20.302  -5.231  1.00  0.00    -0.237 OA
ATOM    102  O   UNL     1       2.120  18.093  -5.900  1.00  0.00    -0.237 OA
ATOM    103  O   UNL     1       0.597  19.821  -5.029  1.00  0.00    -0.744 OA
ENDBRANCH  99 100
ENDBRANCH  67  92
BRANCH  79 104
ATOM    104  C   UNL     1       1.814  15.520   5.332  1.00  0.00     0.058 A 
ATOM    105  C   UNL     1       1.917  16.799   5.896  1.00  0.00     0.135 A 
ATOM    106  C   UNL     1       2.745  14.549   5.734  1.00  0.00     0.135 A 
ATOM    107  F   UNL     1       1.047  17.763   5.553  1.00  0.00    -0.206 F 
ATOM    108  C   UNL     1       2.877  17.093   6.858  1.00  0.00     0.059 A 
ATOM    109  C   UNL     1       3.702  14.816   6.710  1.00  0.00     0.059 A 
ATOM    110  F   UNL     1       2.711  13.309   5.215  1.00  0.00    -0.206 F 
ATOM    111  C   UNL     1       3.751  16.088   7.276  1.00  0.00     0.060 A 
BRANCH 111 112
ATOM    112  S   UNL     1       4.886  16.448   8.633  1.00  0.00     0.124 S 
ATOM    113  O   UNL     1       5.802  17.405   8.023  1.00  0.00    -0.237 OA
ATOM    114  O   UNL     1       3.989  16.990   9.650  1.00  0.00    -0.237 OA
ATOM    115  O   UNL     1       5.463  15.145   8.953  1.00  0.00    -0.744 OA
ENDBRANCH 111 112
ENDBRANCH  79 104
ENDBRANCH  53  54
ENDBRANCH  45  48
ENDBRANCH  43  44
ENDBRANCH  42  43
ENDBRANCH  41  42
ENDBRANCH   1  41
TORSDOF 22
