REMARK SMILES CC(C)(C)CN1C(=O)CC[C@@H](C(=O)NCCCCCCNC(=O)c2ccc(-c3c4nc(c(-c5c(F)cc(S(=O)(=O)[O-])cc5F)c5ccc([nH]5)c(-c5c(F)cc(S(=O)(=O)[O-])cc5F)c5nc(c(-c6c(F)cc(S(=O)(=O)[O-])cc6F)c6ccc3[nH]6)C=C5)C=C4)cc2)[C@H]1c1cccc2c1OCO2
REMARK SMILES IDX 18 1 17 2 16 3 15 4 14 5 12 6 13 7 11 9 6 10 7 11 90 12 8 13
REMARK SMILES IDX 9 14 10 15 5 16 2 17 1 18 3 19 4 20 91 21 92 22 96 23 93 24
REMARK SMILES IDX 95 25 97 26 94 27 99 28 98 29 19 30 20 31 21 32 22 33 23 35
REMARK SMILES IDX 24 36 25 37 89 38 26 39 88 40 27 41 28 42 29 43 82 44 30 45
REMARK SMILES IDX 87 46 81 47 83 48 31 49 86 50 80 51 79 52 32 54 66 55 45 56
REMARK SMILES IDX 65 57 46 58 49 59 64 60 84 61 47 62 48 63 63 65 85 66 50 67
REMARK SMILES IDX 33 68 34 69 43 70 35 71 36 72 42 73 44 74 37 75 38 76 39 77
REMARK SMILES IDX 40 78 41 79 67 80 68 81 77 82 69 83 70 84 76 85 78 86 71 87
REMARK SMILES IDX 72 88 73 89 74 90 75 91 51 92 52 93 61 94 53 95 54 96 60 97
REMARK SMILES IDX 62 98 55 99 56 100 57 101 58 102 59 103
REMARK H PARENT 14 8 21 34 83 53 49 64
REMARK Flexibility Score: inf
ROOT
ATOM      1  C   UNL     1      -6.037   2.689  -6.151  1.00  0.00     0.002 C 
ENDROOT
BRANCH   1   2
ATOM      2  C   UNL     1      -5.521   4.063  -5.710  1.00  0.00     0.002 C 
BRANCH   2   3
ATOM      3  C   UNL     1      -5.204   4.174  -4.213  1.00  0.00     0.021 C 
BRANCH   3   4
ATOM      4  C   UNL     1      -4.169   3.162  -3.738  1.00  0.00     0.116 C 
BRANCH   4   5
ATOM      5  N   UNL     1      -2.894   3.431  -4.374  1.00  0.00    -0.356 N 
ATOM      6  C   UNL     1      -1.641   3.489  -3.855  1.00  0.00     0.225 C 
ATOM      7  O   UNL     1      -0.730   3.812  -4.618  1.00  0.00    -0.275 OA
ATOM      8  H   UNL     1      -2.945   3.599  -5.342  1.00  0.00     0.163 HD
BRANCH   6   9
ATOM      9  C   UNL     1      -1.405   3.086  -2.407  1.00  0.00     0.106 C 
ATOM     10  N   UNL     1       0.451   1.312  -2.292  1.00  0.00    -0.334 N 
ATOM     11  C   UNL     1       1.433   2.296  -2.244  1.00  0.00     0.223 C 
ATOM     12  C   UNL     1      -1.009   1.598  -2.254  1.00  0.00     0.132 C 
ATOM     13  O   UNL     1       2.640   2.033  -2.244  1.00  0.00    -0.275 OA
ATOM     14  C   UNL     1       1.019   3.748  -2.245  1.00  0.00     0.101 C 
ATOM     15  C   UNL     1      -0.383   4.000  -1.743  1.00  0.00     0.026 C 
BRANCH  10  16
ATOM     16  C   UNL     1       0.911  -0.092  -2.253  1.00  0.00     0.126 C 
BRANCH  16  17
ATOM     17  C   UNL     1       0.861  -0.844  -0.888  1.00  0.00    -0.021 C 
ATOM     18  C   UNL     1       1.476  -0.019   0.250  1.00  0.00     0.012 C 
ATOM     19  C   UNL     1       1.671  -2.148  -1.062  1.00  0.00     0.012 C 
ATOM     20  C   UNL     1      -0.559  -1.265  -0.482  1.00  0.00     0.012 C 
ENDBRANCH  16  17
ENDBRANCH  10  16
BRANCH  12  21
ATOM     21  C   UNL     1      -1.816   0.668  -3.156  1.00  0.00     0.021 A 
ATOM     22  C   UNL     1      -1.500   0.519  -4.524  1.00  0.00     0.010 A 
ATOM     23  C   UNL     1      -2.882  -0.090  -2.692  1.00  0.00     0.171 A 
ATOM     24  C   UNL     1      -2.236  -0.336  -5.364  1.00  0.00     0.004 A 
ATOM     25  C   UNL     1      -3.576  -0.957  -3.512  1.00  0.00     0.166 A 
ATOM     26  O   UNL     1      -3.368  -0.116  -1.418  1.00  0.00    -0.453 OA
ATOM     27  C   UNL     1      -3.289  -1.091  -4.852  1.00  0.00     0.050 A 
ATOM     28  O   UNL     1      -4.539  -1.649  -2.846  1.00  0.00    -0.454 OA
ATOM     29  C   UNL     1      -4.274  -1.239  -1.493  1.00  0.00     0.468 C 
ENDBRANCH  12  21
ENDBRANCH   6   9
ENDBRANCH   4   5
ENDBRANCH   3   4
ENDBRANCH   2   3
ENDBRANCH   1   2
BRANCH   1  30
ATOM     30  C   UNL     1      -7.263   2.197  -5.380  1.00  0.00     0.021 C 
BRANCH  30  31
ATOM     31  C   UNL     1      -8.425   3.182  -5.364  1.00  0.00     0.116 C 
BRANCH  31  32
ATOM     32  N   UNL     1      -8.900   3.484  -6.704  1.00  0.00    -0.352 N 
ATOM     33  C   UNL     1     -10.190   3.495  -7.175  1.00  0.00     0.251 C 
ATOM     34  H   UNL     1      -8.204   3.712  -7.361  1.00  0.00     0.163 HD
ATOM     35  O   UNL     1     -10.409   3.580  -8.375  1.00  0.00    -0.269 OA
BRANCH  33  36
ATOM     36  C   UNL     1     -11.304   3.377  -6.212  1.00  0.00     0.039 A 
ATOM     37  C   UNL     1     -12.335   2.475  -6.481  1.00  0.00     0.014 A 
ATOM     38  C   UNL     1     -11.316   4.138  -5.039  1.00  0.00     0.014 A 
ATOM     39  C   UNL     1     -13.354   2.300  -5.545  1.00  0.00     0.010 A 
ATOM     40  C   UNL     1     -12.289   3.904  -4.074  1.00  0.00     0.010 A 
ATOM     41  C   UNL     1     -13.322   2.989  -4.320  1.00  0.00    -0.014 A 
BRANCH  41  42
ATOM     42  C   UNL     1     -14.366   2.764  -3.289  1.00  0.00     0.031 A 
ATOM     43  C   UNL     1     -15.269   3.892  -2.870  1.00  0.00     0.074 A 
ATOM     44  C   UNL     1     -14.461   1.561  -2.690  1.00  0.00     0.049 A 
ATOM     45  N   UNL     1     -16.202   3.905  -1.954  1.00  0.00    -0.248 NA
ATOM     46  C   UNL     1     -15.079   5.183  -3.550  1.00  0.00     0.031 C 
ATOM     47  C   UNL     1     -13.603   0.407  -2.972  1.00  0.00     0.029 A 
ATOM     48  N   UNL     1     -15.312   1.110  -1.713  1.00  0.00    -0.354 N 
ATOM     49  C   UNL     1     -16.704   5.202  -1.942  1.00  0.00     0.074 A 
ATOM     50  C   UNL     1     -15.927   5.962  -2.897  1.00  0.00     0.031 C 
ATOM     51  C   UNL     1     -13.985  -0.623  -2.201  1.00  0.00     0.029 A 
ATOM     52  C   UNL     1     -15.085  -0.195  -1.343  1.00  0.00     0.049 A 
ATOM     53  H   UNL     1     -16.019   1.667  -1.315  1.00  0.00     0.167 HD
ATOM     54  C   UNL     1     -17.735   5.705  -1.222  1.00  0.00     0.037 A 
ATOM     55  C   UNL     1     -15.686  -0.957  -0.408  1.00  0.00     0.037 A 
ATOM     56  C   UNL     1     -18.509   4.935  -0.283  1.00  0.00     0.049 A 
ATOM     57  C   UNL     1     -16.825  -0.376   0.385  1.00  0.00     0.074 A 
ATOM     58  C   UNL     1     -19.606   5.335   0.459  1.00  0.00     0.029 A 
ATOM     59  N   UNL     1     -18.264   3.610   0.050  1.00  0.00    -0.354 N 
ATOM     60  N   UNL     1     -17.334   0.832   0.332  1.00  0.00    -0.248 NA
ATOM     61  C   UNL     1     -17.478  -1.263   1.357  1.00  0.00     0.031 C 
ATOM     62  C   UNL     1     -19.991   4.269   1.279  1.00  0.00     0.029 A 
ATOM     63  C   UNL     1     -19.172   3.185   1.005  1.00  0.00     0.049 A 
ATOM     64  H   UNL     1     -17.549   3.054  -0.336  1.00  0.00     0.167 HD
ATOM     65  C   UNL     1     -18.383   0.843   1.246  1.00  0.00     0.074 A 
ATOM     66  C   UNL     1     -18.444  -0.483   1.825  1.00  0.00     0.031 C 
ATOM     67  C   UNL     1     -19.220   1.859   1.573  1.00  0.00     0.037 A 
BRANCH  54  68
ATOM     68  C   UNL     1     -18.079   7.157  -1.422  1.00  0.00     0.058 A 
ATOM     69  C   UNL     1     -18.622   7.628  -2.629  1.00  0.00     0.135 A 
ATOM     70  C   UNL     1     -17.882   8.088  -0.389  1.00  0.00     0.135 A 
ATOM     71  F   UNL     1     -18.820   6.787  -3.656  1.00  0.00    -0.206 F 
ATOM     72  C   UNL     1     -18.919   8.974  -2.819  1.00  0.00     0.059 A 
ATOM     73  C   UNL     1     -18.202   9.434  -0.545  1.00  0.00     0.059 A 
ATOM     74  F   UNL     1     -17.367   7.695   0.787  1.00  0.00    -0.206 F 
ATOM     75  C   UNL     1     -18.702   9.870  -1.771  1.00  0.00     0.060 A 
BRANCH  75  76
ATOM     76  S   UNL     1     -19.081  11.615  -2.039  1.00  0.00     0.124 S 
ATOM     77  O   UNL     1     -18.001  12.011  -2.938  1.00  0.00    -0.237 OA
ATOM     78  O   UNL     1     -20.412  11.557  -2.634  1.00  0.00    -0.237 OA
ATOM     79  O   UNL     1     -19.021  12.186  -0.697  1.00  0.00    -0.744 OA
ENDBRANCH  75  76
ENDBRANCH  54  68
BRANCH  55  80
ATOM     80  C   UNL     1     -15.225  -2.353  -0.186  1.00  0.00     0.058 A 
ATOM     81  C   UNL     1     -16.018  -3.449  -0.556  1.00  0.00     0.135 A 
ATOM     82  C   UNL     1     -13.967  -2.620   0.378  1.00  0.00     0.135 A 
ATOM     83  F   UNL     1     -17.231  -3.247  -1.093  1.00  0.00    -0.206 F 
ATOM     84  C   UNL     1     -15.589  -4.758  -0.364  1.00  0.00     0.059 A 
ATOM     85  C   UNL     1     -13.504  -3.920   0.554  1.00  0.00     0.059 A 
ATOM     86  F   UNL     1     -13.160  -1.607   0.733  1.00  0.00    -0.206 F 
ATOM     87  C   UNL     1     -14.326  -4.983   0.188  1.00  0.00     0.060 A 
BRANCH  87  88
ATOM     88  S   UNL     1     -13.754  -6.685   0.379  1.00  0.00     0.124 S 
ATOM     89  O   UNL     1     -14.584  -7.152   1.482  1.00  0.00    -0.237 OA
ATOM     90  O   UNL     1     -14.051  -7.256  -0.932  1.00  0.00    -0.237 OA
ATOM     91  O   UNL     1     -12.334  -6.529   0.678  1.00  0.00    -0.744 OA
ENDBRANCH  87  88
ENDBRANCH  55  80
BRANCH  67  92
ATOM     92  C   UNL     1     -20.297   1.571   2.585  1.00  0.00     0.058 A 
ATOM     93  C   UNL     1     -20.004   1.382   3.945  1.00  0.00     0.135 A 
ATOM     94  C   UNL     1     -21.646   1.534   2.194  1.00  0.00     0.135 A 
ATOM     95  F   UNL     1     -18.731   1.401   4.371  1.00  0.00    -0.206 F 
ATOM     96  C   UNL     1     -21.008   1.140   4.877  1.00  0.00     0.059 A 
ATOM     97  C   UNL     1     -22.668   1.325   3.114  1.00  0.00     0.059 A 
ATOM     98  F   UNL     1     -21.983   1.719   0.908  1.00  0.00    -0.206 F 
ATOM     99  C   UNL     1     -22.338   1.116   4.452  1.00  0.00     0.060 A 
BRANCH  99 100
ATOM    100  S   UNL     1     -23.632   0.834   5.678  1.00  0.00     0.124 S 
ATOM    101  O   UNL     1     -23.455  -0.585   5.971  1.00  0.00    -0.237 OA
ATOM    102  O   UNL     1     -23.255   1.753   6.747  1.00  0.00    -0.237 OA
ATOM    103  O   UNL     1     -24.858   1.179   4.965  1.00  0.00    -0.744 OA
ENDBRANCH  99 100
ENDBRANCH  67  92
ENDBRANCH  41  42
ENDBRANCH  33  36
ENDBRANCH  31  32
ENDBRANCH  30  31
ENDBRANCH   1  30
TORSDOF 19
