REMARK SMILES CC(C)[C@@H]([NH2+][C@@H]1CSCC(C)(C)C1)C(=O)NCCCCCCNC(=O)c1ccc(-c2c3nc(c(-c4c(F)cc(S(=O)(=O)[O-])cc4F)c4ccc([nH]4)c(-c4c(F)cc(S(=O)(=O)[O-])cc4F)c4nc(c(-c5c(F)cc(S(=O)(=O)[O-])cc5F)c5ccc2[nH]5)C=C4)C=C3)cc1
REMARK SMILES IDX 20 1 19 2 18 3 17 4 16 5 14 6 15 7 4 9 2 10 1 11 3 12 5 13
REMARK SMILES IDX 6 16 7 17 13 18 8 19 10 20 9 21 11 22 12 23 21 24 22 25
REMARK SMILES IDX 23 26 24 27 25 29 26 30 27 31 91 32 28 33 90 34 29 35 30 36
REMARK SMILES IDX 31 37 84 38 32 39 89 40 83 41 85 42 33 43 88 44 82 45 81 46
REMARK SMILES IDX 34 48 68 49 47 50 67 51 48 52 51 53 66 54 86 55 49 56 50 57
REMARK SMILES IDX 65 59 87 60 52 61 35 62 36 63 45 64 37 65 38 66 44 67 46 68
REMARK SMILES IDX 39 69 40 70 41 71 42 72 43 73 69 74 70 75 79 76 71 77 72 78
REMARK SMILES IDX 78 79 80 80 73 81 74 82 75 83 76 84 77 85 53 86 54 87 63 88
REMARK SMILES IDX 55 89 56 90 62 91 64 92 57 93 58 94 59 95 60 96 61 97
REMARK H PARENT 16 8 5 14 5 15 23 28 85 47 51 58
REMARK Flexibility Score: inf
ROOT
ATOM      1  C   UNL     1      -0.262   1.599   7.067  1.00  0.00     0.002 C 
ENDROOT
BRANCH   1   2
ATOM      2  C   UNL     1       0.514   2.321   5.963  1.00  0.00     0.002 C 
BRANCH   2   3
ATOM      3  C   UNL     1       0.862   1.439   4.758  1.00  0.00     0.021 C 
BRANCH   3   4
ATOM      4  C   UNL     1      -0.364   0.782   4.125  1.00  0.00     0.116 C 
BRANCH   4   5
ATOM      5  N   UNL     1      -1.196   1.801   3.522  1.00  0.00    -0.351 N 
ATOM      6  C   UNL     1      -1.345   2.107   2.205  1.00  0.00     0.278 C 
ATOM      7  O   UNL     1      -1.986   3.122   1.915  1.00  0.00    -0.268 OA
ATOM      8  H   UNL     1      -1.724   2.345   4.149  1.00  0.00     0.163 HD
BRANCH   6   9
ATOM      9  C   UNL     1      -0.781   1.173   1.103  1.00  0.00     0.275 C 
BRANCH   9  10
ATOM     10  C   UNL     1       0.772   1.179   1.037  1.00  0.00     0.051 C 
ATOM     11  C   UNL     1       1.344   0.178   0.026  1.00  0.00     0.014 C 
ATOM     12  C   UNL     1       1.273   2.584   0.669  1.00  0.00     0.014 C 
ENDBRANCH   9  10
BRANCH   9  13
ATOM     13  N   UNL     1      -1.401  -0.171   1.235  1.00  0.00    -0.333 N 
ATOM     14  H   UNL     1      -1.151  -0.547   2.150  1.00  0.00     0.347 HD
ATOM     15  H   UNL     1      -1.044  -0.730   0.460  1.00  0.00     0.347 HD
BRANCH  13  16
ATOM     16  C   UNL     1      -2.876  -0.187   1.118  1.00  0.00     0.193 C 
ATOM     17  C   UNL     1      -3.412  -1.637   1.103  1.00  0.00     0.134 C 
ATOM     18  C   UNL     1      -3.479   0.619  -0.054  1.00  0.00     0.073 C 
ATOM     19  S   UNL     1      -3.104  -2.524  -0.461  1.00  0.00    -0.155 SA
ATOM     20  C   UNL     1      -3.247   0.090  -1.494  1.00  0.00    -0.021 C 
ATOM     21  C   UNL     1      -3.840  -1.325  -1.623  1.00  0.00     0.076 C 
ATOM     22  C   UNL     1      -1.778   0.089  -1.962  1.00  0.00     0.012 C 
ATOM     23  C   UNL     1      -3.991   1.051  -2.448  1.00  0.00     0.012 C 
ENDBRANCH  13  16
ENDBRANCH   9  13
ENDBRANCH   6   9
ENDBRANCH   4   5
ENDBRANCH   3   4
ENDBRANCH   2   3
ENDBRANCH   1   2
BRANCH   1  24
ATOM     24  C   UNL     1       0.403   0.313   7.564  1.00  0.00     0.021 C 
BRANCH  24  25
ATOM     25  C   UNL     1       1.819   0.515   8.087  1.00  0.00     0.116 C 
BRANCH  25  26
ATOM     26  N   UNL     1       1.841   1.417   9.227  1.00  0.00    -0.352 N 
ATOM     27  C   UNL     1       2.363   1.207  10.478  1.00  0.00     0.251 C 
ATOM     28  H   UNL     1       1.425   2.298   9.082  1.00  0.00     0.163 HD
ATOM     29  O   UNL     1       2.088   1.966  11.399  1.00  0.00    -0.269 OA
BRANCH  27  30
ATOM     30  C   UNL     1       3.247   0.045  10.699  1.00  0.00     0.039 A 
ATOM     31  C   UNL     1       3.046  -0.756  11.824  1.00  0.00     0.014 A 
ATOM     32  C   UNL     1       4.264  -0.255   9.787  1.00  0.00     0.014 A 
ATOM     33  C   UNL     1       3.837  -1.890  12.008  1.00  0.00     0.010 A 
ATOM     34  C   UNL     1       4.997  -1.427   9.931  1.00  0.00     0.010 A 
ATOM     35  C   UNL     1       4.798  -2.251  11.048  1.00  0.00    -0.014 A 
BRANCH  35  36
ATOM     36  C   UNL     1       5.606  -3.487  11.198  1.00  0.00     0.031 A 
ATOM     37  C   UNL     1       7.099  -3.397  11.353  1.00  0.00     0.074 A 
ATOM     38  C   UNL     1       4.998  -4.688  11.139  1.00  0.00     0.049 A 
ATOM     39  N   UNL     1       7.978  -4.362  11.445  1.00  0.00    -0.248 NA
ATOM     40  C   UNL     1       7.686  -2.047  11.382  1.00  0.00     0.031 C 
ATOM     41  C   UNL     1       3.562  -4.901  10.942  1.00  0.00     0.029 A 
ATOM     42  N   UNL     1       5.510  -5.958  11.230  1.00  0.00    -0.354 N 
ATOM     43  C   UNL     1       9.217  -3.738  11.533  1.00  0.00     0.074 A 
ATOM     44  C   UNL     1       8.983  -2.315  11.423  1.00  0.00     0.031 C 
ATOM     45  C   UNL     1       3.306  -6.218  10.953  1.00  0.00     0.029 A 
ATOM     46  C   UNL     1       4.561  -6.946  11.115  1.00  0.00     0.049 A 
ATOM     47  H   UNL     1       6.467  -6.144  11.365  1.00  0.00     0.167 HD
ATOM     48  C   UNL     1      10.436  -4.300  11.713  1.00  0.00     0.037 A 
ATOM     49  C   UNL     1       4.688  -8.287  11.130  1.00  0.00     0.037 A 
ATOM     50  C   UNL     1      10.656  -5.717  11.839  1.00  0.00     0.049 A 
ATOM     51  C   UNL     1       6.055  -8.888  11.321  1.00  0.00     0.074 A 
ATOM     52  C   UNL     1      11.844  -6.385  12.079  1.00  0.00     0.029 A 
ATOM     53  N   UNL     1       9.668  -6.686  11.731  1.00  0.00    -0.354 N 
ATOM     54  N   UNL     1       7.209  -8.281  11.470  1.00  0.00    -0.248 NA
ATOM     55  C   UNL     1       6.137 -10.354  11.354  1.00  0.00     0.031 C 
ATOM     56  C   UNL     1      11.584  -7.759  12.064  1.00  0.00     0.029 A 
ATOM     57  C   UNL     1      10.224  -7.947  11.875  1.00  0.00     0.049 A 
ATOM     58  H   UNL     1       8.713  -6.504  11.576  1.00  0.00     0.167 HD
ATOM     59  C   UNL     1       8.149  -9.290  11.643  1.00  0.00     0.074 A 
ATOM     60  C   UNL     1       7.427 -10.545  11.593  1.00  0.00     0.031 C 
ATOM     61  C   UNL     1       9.489  -9.188  11.829  1.00  0.00     0.037 A 
BRANCH  48  62
ATOM     62  C   UNL     1      11.627  -3.381  11.786  1.00  0.00     0.058 A 
ATOM     63  C   UNL     1      11.827  -2.517  12.874  1.00  0.00     0.135 A 
ATOM     64  C   UNL     1      12.600  -3.391  10.773  1.00  0.00     0.135 A 
ATOM     65  F   UNL     1      10.922  -2.453  13.864  1.00  0.00    -0.206 F 
ATOM     66  C   UNL     1      12.932  -1.675  12.942  1.00  0.00     0.059 A 
ATOM     67  C   UNL     1      13.729  -2.580  10.835  1.00  0.00     0.059 A 
ATOM     68  F   UNL     1      12.460  -4.196   9.708  1.00  0.00    -0.206 F 
ATOM     69  C   UNL     1      13.879  -1.714  11.918  1.00  0.00     0.060 A 
BRANCH  69  70
ATOM     70  S   UNL     1      15.311  -0.621  12.026  1.00  0.00     0.124 S 
ATOM     71  O   UNL     1      14.704   0.681  11.766  1.00  0.00    -0.237 OA
ATOM     72  O   UNL     1      15.770  -0.844  13.394  1.00  0.00    -0.237 OA
ATOM     73  O   UNL     1      16.200  -1.118  10.981  1.00  0.00    -0.744 OA
ENDBRANCH  69  70
ENDBRANCH  48  62
BRANCH  49  74
ATOM     74  C   UNL     1       3.486  -9.150  10.979  1.00  0.00     0.058 A 
ATOM     75  C   UNL     1       3.005  -9.914  12.053  1.00  0.00     0.135 A 
ATOM     76  C   UNL     1       2.785  -9.219   9.765  1.00  0.00     0.135 A 
ATOM     77  F   UNL     1       3.643  -9.887  13.234  1.00  0.00    -0.206 F 
ATOM     78  C   UNL     1       1.886 -10.730  11.925  1.00  0.00     0.059 A 
ATOM     79  C   UNL     1       1.647 -10.005   9.620  1.00  0.00     0.059 A 
ATOM     80  F   UNL     1       3.192  -8.493   8.711  1.00  0.00    -0.206 F 
ATOM     81  C   UNL     1       1.211 -10.766  10.703  1.00  0.00     0.060 A 
BRANCH  81  82
ATOM     82  S   UNL     1      -0.267 -11.794  10.562  1.00  0.00     0.124 S 
ATOM     83  O   UNL     1       0.307 -13.135  10.561  1.00  0.00    -0.237 OA
ATOM     84  O   UNL     1      -1.015 -11.419  11.757  1.00  0.00    -0.237 OA
ATOM     85  O   UNL     1      -0.858 -11.360   9.299  1.00  0.00    -0.744 OA
ENDBRANCH  81  82
ENDBRANCH  49  74
BRANCH  61  86
ATOM     86  C   UNL     1      10.261 -10.463  12.029  1.00  0.00     0.058 A 
ATOM     87  C   UNL     1      10.488 -11.365  10.978  1.00  0.00     0.135 A 
ATOM     88  C   UNL     1      10.827 -10.760  13.280  1.00  0.00     0.135 A 
ATOM     89  F   UNL     1       9.964 -11.133   9.764  1.00  0.00    -0.206 F 
ATOM     90  C   UNL     1      11.228 -12.528  11.166  1.00  0.00     0.059 A 
ATOM     91  C   UNL     1      11.597 -11.901  13.483  1.00  0.00     0.059 A 
ATOM     92  F   UNL     1      10.650  -9.926  14.318  1.00  0.00    -0.206 F 
ATOM     93  C   UNL     1      11.781 -12.785  12.422  1.00  0.00     0.060 A 
BRANCH  93  94
ATOM     94  S   UNL     1      12.768 -14.281  12.641  1.00  0.00     0.124 S 
ATOM     95  O   UNL     1      11.741 -15.316  12.626  1.00  0.00    -0.237 OA
ATOM     96  O   UNL     1      13.651 -14.245  11.479  1.00  0.00    -0.237 OA
ATOM     97  O   UNL     1      13.427 -14.068  13.927  1.00  0.00    -0.744 OA
ENDBRANCH  93  94
ENDBRANCH  61  86
ENDBRANCH  35  36
ENDBRANCH  27  30
ENDBRANCH  25  26
ENDBRANCH  24  25
ENDBRANCH   1  24
TORSDOF 19
