REMARK SMILES COc1ccc(OC)c(/C=N/[NH+]=C2/NC(=O)[C@@H](CC(=O)NCCCCCCNC(=O)c3ccc(-c4c5nc(c(-c6c(F)cc(S(=O)(=O)[O-])cc6F)c6ccc([nH]6)c(-c6c(F)cc(S(=O)(=O)[O-])cc6F)c6nc(c(-c7c(F)cc(S(=O)(=O)[O-])cc7F)c7ccc4[nH]7)C=C6)C=C5)cc3)S2)c1
REMARK SMILES IDX 24 1 23 2 22 3 21 4 19 5 20 6 18 8 17 9 12 10 13 11 14 13
REMARK SMILES IDX 97 14 15 15 16 17 11 18 10 19 9 20 3 21 4 22 98 23 5 24 6 25
REMARK SMILES IDX 2 26 1 27 7 28 8 29 25 30 26 31 27 32 28 33 29 34 30 36
REMARK SMILES IDX 31 37 32 38 96 39 33 40 95 41 34 42 35 43 36 44 89 45 37 46
REMARK SMILES IDX 94 47 88 48 90 49 38 50 93 51 87 52 86 53 39 55 73 56 52 57
REMARK SMILES IDX 72 58 53 59 56 60 71 61 91 62 54 63 55 64 70 66 92 67 57 68
REMARK SMILES IDX 40 69 41 70 50 71 42 72 43 73 49 74 51 75 44 76 45 77 46 78
REMARK SMILES IDX 47 79 48 80 74 81 75 82 84 83 76 84 77 85 83 86 85 87 78 88
REMARK SMILES IDX 79 89 80 90 81 91 82 92 58 93 59 94 68 95 60 96 61 97 67 98
REMARK SMILES IDX 69 99 62 100 63 101 64 102 65 103 66 104
REMARK H PARENT 21 7 12 12 14 16 28 35 90 54 56 65
REMARK Flexibility Score: inf
ROOT
ATOM      1  C   UNL     1      10.281  -3.795   4.704  1.00  0.00     0.002 C 
ENDROOT
BRANCH   1   2
ATOM      2  C   UNL     1      10.216  -2.267   4.749  1.00  0.00     0.021 C 
BRANCH   2   3
ATOM      3  C   UNL     1      10.454  -1.583   3.401  1.00  0.00     0.116 C 
BRANCH   3   4
ATOM      4  N   UNL     1       9.247  -1.631   2.594  1.00  0.00    -0.356 N 
ATOM      5  C   UNL     1       8.446  -0.636   2.127  1.00  0.00     0.221 C 
ATOM      6  O   UNL     1       7.420  -0.960   1.526  1.00  0.00    -0.275 OA
ATOM      7  H   UNL     1       8.960  -2.538   2.341  1.00  0.00     0.163 HD
BRANCH   5   8
ATOM      8  C   UNL     1       8.808   0.826   2.326  1.00  0.00     0.127 C 
BRANCH   8   9
ATOM      9  C   UNL     1       8.249   1.501   3.578  1.00  0.00     0.183 C 
ATOM     10  N   UNL     1       5.731  -0.719   5.411  1.00  0.00    -0.142 N 
ATOM     11  C   UNL     1       6.619   0.092   4.950  1.00  0.00     0.337 C 
ATOM     12  H   UNL     1       5.957  -1.540   5.904  1.00  0.00     0.343 HD
ATOM     13  N   UNL     1       7.886   0.045   5.411  1.00  0.00    -0.202 N 
ATOM     14  S   UNL     1       6.442   1.354   3.763  1.00  0.00    -0.020 SA
ATOM     15  C   UNL     1       8.796   0.875   4.838  1.00  0.00     0.322 C 
ATOM     16  H   UNL     1       8.141  -0.568   6.138  1.00  0.00     0.316 HD
ATOM     17  O   UNL     1       9.934   1.037   5.263  1.00  0.00    -0.246 OA
BRANCH  10  18
ATOM     18  N   UNL     1       4.436  -0.328   5.148  1.00  0.00    -0.093 NA
ATOM     19  C   UNL     1       3.828  -0.949   4.197  1.00  0.00     0.170 C 
BRANCH  19  20
ATOM     20  C   UNL     1       2.411  -0.630   3.959  1.00  0.00     0.042 A 
ATOM     21  C   UNL     1       0.814   0.143   2.290  1.00  0.00     0.119 A 
ATOM     22  C   UNL     1      -0.123   0.323   3.303  1.00  0.00     0.050 A 
ATOM     23  C   UNL     1       2.083  -0.339   2.615  1.00  0.00     0.060 A 
ATOM     24  C   UNL     1       0.191  -0.001   4.621  1.00  0.00     0.051 A 
ATOM     25  C   UNL     1       1.455  -0.485   4.979  1.00  0.00     0.128 A 
BRANCH  21  26
ATOM     26  O   UNL     1       0.384   0.536   1.055  1.00  0.00    -0.497 OA
ATOM     27  C   UNL     1       1.071  -0.001  -0.066  1.00  0.00     0.278 C 
ENDBRANCH  21  26
BRANCH  25  28
ATOM     28  O   UNL     1       1.499  -0.733   6.321  1.00  0.00    -0.496 OA
ATOM     29  C   UNL     1       2.606  -1.347   6.958  1.00  0.00     0.278 C 
ENDBRANCH  25  28
ENDBRANCH  19  20
ENDBRANCH  10  18
ENDBRANCH   8   9
ENDBRANCH   5   8
ENDBRANCH   3   4
ENDBRANCH   2   3
ENDBRANCH   1   2
BRANCH   1  30
ATOM     30  C   UNL     1      11.674  -4.366   4.439  1.00  0.00     0.002 C 
BRANCH  30  31
ATOM     31  C   UNL     1      12.769  -3.865   5.384  1.00  0.00     0.021 C 
BRANCH  31  32
ATOM     32  C   UNL     1      12.461  -4.042   6.868  1.00  0.00     0.116 C 
BRANCH  32  33
ATOM     33  N   UNL     1      12.315  -5.444   7.226  1.00  0.00    -0.352 N 
ATOM     34  C   UNL     1      13.058  -6.192   8.104  1.00  0.00     0.251 C 
ATOM     35  H   UNL     1      11.581  -5.922   6.776  1.00  0.00     0.163 HD
ATOM     36  O   UNL     1      12.958  -7.415   8.110  1.00  0.00    -0.269 OA
BRANCH  34  37
ATOM     37  C   UNL     1      13.988  -5.514   9.032  1.00  0.00     0.039 A 
ATOM     38  C   UNL     1      15.281  -6.017   9.188  1.00  0.00     0.014 A 
ATOM     39  C   UNL     1      13.579  -4.385   9.748  1.00  0.00     0.014 A 
ATOM     40  C   UNL     1      16.181  -5.355  10.025  1.00  0.00     0.010 A 
ATOM     41  C   UNL     1      14.499  -3.684  10.520  1.00  0.00     0.010 A 
ATOM     42  C   UNL     1      15.807  -4.167  10.676  1.00  0.00    -0.014 A 
BRANCH  42  43
ATOM     43  C   UNL     1      16.767  -3.424  11.534  1.00  0.00     0.031 A 
ATOM     44  C   UNL     1      16.493  -3.261  13.005  1.00  0.00     0.074 A 
ATOM     45  C   UNL     1      17.854  -2.852  10.980  1.00  0.00     0.049 A 
ATOM     46  N   UNL     1      17.178  -2.603  13.905  1.00  0.00    -0.248 NA
ATOM     47  C   UNL     1      15.274  -3.900  13.530  1.00  0.00     0.031 C 
ATOM     48  C   UNL     1      18.203  -2.900   9.558  1.00  0.00     0.029 A 
ATOM     49  N   UNL     1      18.862  -2.109  11.542  1.00  0.00    -0.354 N 
ATOM     50  C   UNL     1      16.470  -2.739  15.095  1.00  0.00     0.074 A 
ATOM     51  C   UNL     1      15.273  -3.491  14.790  1.00  0.00     0.031 C 
ATOM     52  C   UNL     1      19.356  -2.239   9.365  1.00  0.00     0.029 A 
ATOM     53  C   UNL     1      19.807  -1.685  10.638  1.00  0.00     0.049 A 
ATOM     54  H   UNL     1      18.904  -1.900  12.503  1.00  0.00     0.167 HD
ATOM     55  C   UNL     1      16.801  -2.298  16.332  1.00  0.00     0.037 A 
ATOM     56  C   UNL     1      20.908  -0.927  10.812  1.00  0.00     0.037 A 
ATOM     57  C   UNL     1      18.005  -1.567  16.630  1.00  0.00     0.049 A 
ATOM     58  C   UNL     1      21.249  -0.441  12.195  1.00  0.00     0.074 A 
ATOM     59  C   UNL     1      18.459  -1.121  17.859  1.00  0.00     0.029 A 
ATOM     60  N   UNL     1      18.945  -1.170  15.689  1.00  0.00    -0.354 N 
ATOM     61  N   UNL     1      20.602  -0.633  13.320  1.00  0.00    -0.248 NA
ATOM     62  C   UNL     1      22.474   0.358  12.335  1.00  0.00     0.031 C 
ATOM     63  C   UNL     1      19.645  -0.409  17.655  1.00  0.00     0.029 A 
ATOM     64  C   UNL     1      19.965  -0.465  16.308  1.00  0.00     0.049 A 
ATOM     65  H   UNL     1      18.895  -1.361  14.725  1.00  0.00     0.167 HD
ATOM     66  C   UNL     1      21.358  -0.008  14.306  1.00  0.00     0.074 A 
ATOM     67  C   UNL     1      22.516   0.559  13.645  1.00  0.00     0.031 C 
ATOM     68  C   UNL     1      21.118   0.086  15.638  1.00  0.00     0.037 A 
BRANCH  55  69
ATOM     69  C   UNL     1      15.848  -2.596  17.459  1.00  0.00     0.058 A 
ATOM     70  C   UNL     1      15.653  -3.902  17.937  1.00  0.00     0.135 A 
ATOM     71  C   UNL     1      15.147  -1.558  18.095  1.00  0.00     0.135 A 
ATOM     72  F   UNL     1      16.285  -4.936  17.358  1.00  0.00    -0.206 F 
ATOM     73  C   UNL     1      14.776  -4.173  18.983  1.00  0.00     0.059 A 
ATOM     74  C   UNL     1      14.289  -1.801  19.164  1.00  0.00     0.059 A 
ATOM     75  F   UNL     1      15.293  -0.290  17.680  1.00  0.00    -0.206 F 
ATOM     76  C   UNL     1      14.099  -3.115  19.591  1.00  0.00     0.060 A 
BRANCH  76  77
ATOM     77  S   UNL     1      12.971  -3.483  20.951  1.00  0.00     0.124 S 
ATOM     78  O   UNL     1      11.867  -4.128  20.246  1.00  0.00    -0.237 OA
ATOM     79  O   UNL     1      13.778  -4.357  21.797  1.00  0.00    -0.237 OA
ATOM     80  O   UNL     1      12.674  -2.170  21.513  1.00  0.00    -0.744 OA
ENDBRANCH  76  77
ENDBRANCH  55  69
BRANCH  56  81
ATOM     81  C   UNL     1      21.779  -0.601   9.650  1.00  0.00     0.058 A 
ATOM     82  C   UNL     1      23.066  -1.146   9.535  1.00  0.00     0.135 A 
ATOM     83  C   UNL     1      21.339   0.255   8.627  1.00  0.00     0.135 A 
ATOM     84  F   UNL     1      23.535  -1.964  10.489  1.00  0.00    -0.206 F 
ATOM     85  C   UNL     1      23.895  -0.841   8.460  1.00  0.00     0.059 A 
ATOM     86  C   UNL     1      22.138   0.552   7.527  1.00  0.00     0.059 A 
ATOM     87  F   UNL     1      20.109   0.790   8.679  1.00  0.00    -0.206 F 
ATOM     88  C   UNL     1      23.420   0.008   7.458  1.00  0.00     0.060 A 
BRANCH  88  89
ATOM     89  S   UNL     1      24.487   0.361   6.045  1.00  0.00     0.124 S 
ATOM     90  O   UNL     1      25.492   1.230   6.645  1.00  0.00    -0.237 OA
ATOM     91  O   UNL     1      24.940  -0.973   5.663  1.00  0.00    -0.237 OA
ATOM     92  O   UNL     1      23.583   1.003   5.095  1.00  0.00    -0.744 OA
ENDBRANCH  88  89
ENDBRANCH  56  81
BRANCH  68  93
ATOM     93  C   UNL     1      22.147   0.788  16.482  1.00  0.00     0.058 A 
ATOM     94  C   UNL     1      22.329   2.178  16.429  1.00  0.00     0.135 A 
ATOM     95  C   UNL     1      22.926   0.060  17.398  1.00  0.00     0.135 A 
ATOM     96  F   UNL     1      21.615   2.921  15.568  1.00  0.00    -0.206 F 
ATOM     97  C   UNL     1      23.265   2.820  17.234  1.00  0.00     0.059 A 
ATOM     98  C   UNL     1      23.845   0.684  18.234  1.00  0.00     0.059 A 
ATOM     99  F   UNL     1      22.785  -1.271  17.498  1.00  0.00    -0.206 F 
ATOM    100  C   UNL     1      24.017   2.064  18.136  1.00  0.00     0.060 A 
BRANCH 100 101
ATOM    101  S   UNL     1      25.205   2.913  19.196  1.00  0.00     0.124 S 
ATOM    102  O   UNL     1      26.259   3.252  18.245  1.00  0.00    -0.237 OA
ATOM    103  O   UNL     1      24.423   4.037  19.703  1.00  0.00    -0.237 OA
ATOM    104  O   UNL     1      25.558   1.904  20.190  1.00  0.00    -0.744 OA
ENDBRANCH 100 101
ENDBRANCH  68  93
ENDBRANCH  42  43
ENDBRANCH  34  37
ENDBRANCH  32  33
ENDBRANCH  31  32
ENDBRANCH  30  31
ENDBRANCH   1  30
TORSDOF 21
