REMARK SMILES CC(C)c1ccc2c(c1)c(SC(C)(C)C)c(CC(C)(C)C(=O)NCCCCCCNC(=O)c1ccc(-c3c4nc(c(-c5c(F)cc(S(=O)(=O)[O-])cc5F)c5ccc([nH]5)c(-c5c(F)cc(S(=O)(=O)[O-])cc5F)c5nc(c(-c6c(F)cc(S(=O)(=O)[O-])cc6F)c6ccc3[nH]6)C=C5)C=C4)cc1)n2Cc1ccc(Cl)cc1
REMARK SMILES IDX 26 1 25 2 24 3 23 4 21 5 22 6 18 8 19 9 20 10 17 11 16 12
REMARK SMILES IDX 4 13 5 14 9 15 6 16 8 17 7 18 10 19 99 20 2 21 1 22 3 23
REMARK SMILES IDX 11 24 12 25 13 26 14 27 15 28 100 29 101 30 102 31 107 32
REMARK SMILES IDX 103 33 106 34 104 35 105 36 27 37 28 38 29 39 30 40 31 41
REMARK SMILES IDX 32 43 33 44 34 45 98 46 35 47 97 48 36 49 37 50 38 51 91 52
REMARK SMILES IDX 39 53 96 54 90 55 92 56 40 57 95 58 89 59 88 60 41 62 75 63
REMARK SMILES IDX 54 64 74 65 55 66 58 67 73 68 93 69 56 70 57 71 72 73 94 74
REMARK SMILES IDX 59 75 42 76 43 77 52 78 44 79 45 80 51 81 53 82 46 83 47 84
REMARK SMILES IDX 48 85 49 86 50 87 76 88 77 89 86 90 78 91 79 92 85 93 87 94
REMARK SMILES IDX 80 95 81 96 82 97 83 98 84 99 60 100 61 101 70 102 62 103
REMARK SMILES IDX 63 104 69 105 71 106 64 107 65 108 66 109 67 110 68 111
REMARK H PARENT 23 7 30 42 92 61 58 72
REMARK Flexibility Score: inf
ROOT
ATOM      1  C   UNL     1      -8.104   3.455   8.195  1.00  0.00     0.002 C 
ENDROOT
BRANCH   1   2
ATOM      2  C   UNL     1      -8.217   3.889   6.742  1.00  0.00     0.021 C 
BRANCH   2   3
ATOM      3  C   UNL     1      -6.928   3.641   5.999  1.00  0.00     0.116 C 
BRANCH   3   4
ATOM      4  N   UNL     1      -6.782   2.247   5.625  1.00  0.00    -0.356 N 
ATOM      5  C   UNL     1      -6.500   1.717   4.391  1.00  0.00     0.226 C 
ATOM      6  O   UNL     1      -6.046   0.580   4.366  1.00  0.00    -0.275 OA
ATOM      7  H   UNL     1      -6.900   1.595   6.353  1.00  0.00     0.163 HD
BRANCH   5   8
ATOM      8  C   UNL     1      -6.547   2.644   3.172  1.00  0.00     0.049 C 
ATOM      9  C   UNL     1      -5.222   3.401   3.449  1.00  0.00     0.022 C 
ATOM     10  C   UNL     1      -7.915   3.394   3.184  1.00  0.00     0.022 C 
BRANCH   8  11
ATOM     11  C   UNL     1      -6.553   2.007   1.749  1.00  0.00     0.071 C 
BRANCH  11  12
ATOM     12  C   UNL     1      -5.316   1.356   1.303  1.00  0.00     0.034 A 
ATOM     13  C   UNL     1      -1.002  -0.302   1.166  1.00  0.00    -0.045 A 
ATOM     14  C   UNL     1      -1.704  -1.488   1.398  1.00  0.00     0.006 A 
ATOM     15  C   UNL     1      -1.730   0.877   0.915  1.00  0.00     0.015 A 
ATOM     16  C   UNL     1      -3.103  -1.514   1.446  1.00  0.00     0.027 A 
ATOM     17  C   UNL     1      -3.149   0.894   0.977  1.00  0.00     0.014 A 
ATOM     18  C   UNL     1      -3.806  -0.309   1.275  1.00  0.00     0.050 A 
ATOM     19  C   UNL     1      -4.142   1.936   0.845  1.00  0.00     0.037 A 
ATOM     20  N   UNL     1      -5.162  -0.028   1.357  1.00  0.00    -0.339 N 
BRANCH  13  21
ATOM     21  C   UNL     1       0.518  -0.309   1.222  1.00  0.00     0.013 C 
ATOM     22  C   UNL     1       1.130  -0.037  -0.151  1.00  0.00     0.012 C 
ATOM     23  C   UNL     1       1.065   0.669   2.268  1.00  0.00     0.012 C 
ENDBRANCH  13  21
BRANCH  19  24
ATOM     24  S   UNL     1      -3.664   3.609   0.456  1.00  0.00    -0.118 SA
BRANCH  24  25
ATOM     25  C   UNL     1      -4.958   4.920   0.128  1.00  0.00     0.012 C 
ATOM     26  C   UNL     1      -5.735   4.592  -1.151  1.00  0.00     0.023 C 
ATOM     27  C   UNL     1      -5.965   5.421   1.189  1.00  0.00     0.023 C 
ATOM     28  C   UNL     1      -4.094   6.192  -0.099  1.00  0.00     0.023 C 
ENDBRANCH  24  25
ENDBRANCH  19  24
BRANCH  20  29
ATOM     29  C   UNL     1      -6.233  -1.061   1.282  1.00  0.00     0.158 C 
BRANCH  29  30
ATOM     30  C   UNL     1      -7.128  -1.276   2.494  1.00  0.00    -0.028 A 
ATOM     31  C   UNL     1      -8.390  -0.655   2.588  1.00  0.00     0.007 A 
ATOM     32  C   UNL     1      -6.718  -2.075   3.575  1.00  0.00     0.007 A 
ATOM     33  C   UNL     1      -9.114  -0.652   3.785  1.00  0.00     0.021 A 
ATOM     34  C   UNL     1      -7.474  -2.124   4.759  1.00  0.00     0.021 A 
ATOM     35  C   UNL     1      -8.638  -1.368   4.876  1.00  0.00     0.041 A 
ATOM     36  Cl  UNL     1      -9.476  -1.288   6.378  1.00  0.00    -0.084 Cl
ENDBRANCH  29  30
ENDBRANCH  20  29
ENDBRANCH  11  12
ENDBRANCH   8  11
ENDBRANCH   5   8
ENDBRANCH   3   4
ENDBRANCH   2   3
ENDBRANCH   1   2
BRANCH   1  37
ATOM     37  C   UNL     1      -6.973   4.154   8.963  1.00  0.00     0.002 C 
BRANCH  37  38
ATOM     38  C   UNL     1      -6.976   5.686   8.863  1.00  0.00     0.021 C 
BRANCH  38  39
ATOM     39  C   UNL     1      -8.329   6.316   9.193  1.00  0.00     0.116 C 
BRANCH  39  40
ATOM     40  N   UNL     1      -8.878   5.846  10.445  1.00  0.00    -0.352 N 
ATOM     41  C   UNL     1      -8.611   6.098  11.758  1.00  0.00     0.251 C 
ATOM     42  H   UNL     1      -9.608   5.198  10.322  1.00  0.00     0.163 HD
ATOM     43  O   UNL     1      -9.264   5.446  12.576  1.00  0.00    -0.269 OA
BRANCH  41  44
ATOM     44  C   UNL     1      -7.580   7.052  12.244  1.00  0.00     0.039 A 
ATOM     45  C   UNL     1      -6.869   7.955  11.453  1.00  0.00     0.014 A 
ATOM     46  C   UNL     1      -7.317   7.015  13.624  1.00  0.00     0.014 A 
ATOM     47  C   UNL     1      -5.859   8.733  12.001  1.00  0.00     0.010 A 
ATOM     48  C   UNL     1      -6.336   7.821  14.186  1.00  0.00     0.010 A 
ATOM     49  C   UNL     1      -5.577   8.648  13.363  1.00  0.00    -0.014 A 
BRANCH  49  50
ATOM     50  C   UNL     1      -4.539   9.528  13.892  1.00  0.00     0.031 A 
ATOM     51  C   UNL     1      -4.796  10.990  13.716  1.00  0.00     0.074 A 
ATOM     52  C   UNL     1      -3.488   9.067  14.598  1.00  0.00     0.049 A 
ATOM     53  N   UNL     1      -4.072  11.875  13.108  1.00  0.00    -0.248 NA
ATOM     54  C   UNL     1      -6.089  11.508  14.197  1.00  0.00     0.031 C 
ATOM     55  C   UNL     1      -3.262   7.703  15.085  1.00  0.00     0.029 A 
ATOM     56  N   UNL     1      -2.447   9.760  15.136  1.00  0.00    -0.354 N 
ATOM     57  C   UNL     1      -4.721  13.096  13.296  1.00  0.00     0.074 A 
ATOM     58  C   UNL     1      -6.015  12.792  13.850  1.00  0.00     0.031 C 
ATOM     59  C   UNL     1      -2.302   7.724  16.035  1.00  0.00     0.029 A 
ATOM     60  C   UNL     1      -1.755   9.067  16.122  1.00  0.00     0.049 A 
ATOM     61  H   UNL     1      -2.205  10.671  14.852  1.00  0.00     0.167 HD
ATOM     62  C   UNL     1      -4.084  14.293  13.168  1.00  0.00     0.037 A 
ATOM     63  C   UNL     1      -0.862   9.586  17.000  1.00  0.00     0.037 A 
ATOM     64  C   UNL     1      -2.854  14.176  12.436  1.00  0.00     0.049 A 
ATOM     65  C   UNL     1      -0.380  10.871  16.433  1.00  0.00     0.074 A 
ATOM     66  C   UNL     1      -2.519  13.818  11.146  1.00  0.00     0.029 A 
ATOM     67  N   UNL     1      -1.685  14.135  13.153  1.00  0.00    -0.354 N 
ATOM     68  N   UNL     1       0.342  10.975  15.351  1.00  0.00    -0.248 NA
ATOM     69  C   UNL     1      -1.046  12.094  16.855  1.00  0.00     0.031 C 
ATOM     70  C   UNL     1      -1.275  13.132  11.262  1.00  0.00     0.029 A 
ATOM     71  C   UNL     1      -0.905  13.147  12.609  1.00  0.00     0.049 A 
ATOM     72  H   UNL     1      -1.450  14.709  13.918  1.00  0.00     0.167 HD
ATOM     73  C   UNL     1      -0.106  12.133  14.733  1.00  0.00     0.074 A 
ATOM     74  C   UNL     1      -0.880  12.831  15.755  1.00  0.00     0.031 C 
ATOM     75  C   UNL     1      -0.034  12.286  13.379  1.00  0.00     0.037 A 
BRANCH  62  76
ATOM     76  C   UNL     1      -4.420  15.510  13.992  1.00  0.00     0.058 A 
ATOM     77  C   UNL     1      -3.929  16.778  13.624  1.00  0.00     0.135 A 
ATOM     78  C   UNL     1      -4.984  15.424  15.285  1.00  0.00     0.135 A 
ATOM     79  F   UNL     1      -3.347  16.964  12.428  1.00  0.00    -0.206 F 
ATOM     80  C   UNL     1      -3.960  17.871  14.494  1.00  0.00     0.059 A 
ATOM     81  C   UNL     1      -5.073  16.511  16.147  1.00  0.00     0.059 A 
ATOM     82  F   UNL     1      -5.387  14.256  15.803  1.00  0.00    -0.206 F 
ATOM     83  C   UNL     1      -4.525  17.722  15.758  1.00  0.00     0.060 A 
BRANCH  83  84
ATOM     84  S   UNL     1      -4.480  19.102  16.918  1.00  0.00     0.124 S 
ATOM     85  O   UNL     1      -3.053  19.196  17.203  1.00  0.00    -0.237 OA
ATOM     86  O   UNL     1      -5.047  20.185  16.121  1.00  0.00    -0.237 OA
ATOM     87  O   UNL     1      -5.316  18.640  18.022  1.00  0.00    -0.744 OA
ENDBRANCH  83  84
ENDBRANCH  62  76
BRANCH  63  88
ATOM     88  C   UNL     1      -0.694   9.239  18.437  1.00  0.00     0.058 A 
ATOM     89  C   UNL     1       0.417   9.701  19.166  1.00  0.00     0.135 A 
ATOM     90  C   UNL     1      -1.754   8.702  19.195  1.00  0.00     0.135 A 
ATOM     91  F   UNL     1       1.464  10.246  18.527  1.00  0.00    -0.206 F 
ATOM     92  C   UNL     1       0.449   9.687  20.564  1.00  0.00     0.059 A 
ATOM     93  C   UNL     1      -1.739   8.665  20.588  1.00  0.00     0.059 A 
ATOM     94  F   UNL     1      -2.886   8.285  18.609  1.00  0.00    -0.206 F 
ATOM     95  C   UNL     1      -0.647   9.189  21.268  1.00  0.00     0.060 A 
BRANCH  95  96
ATOM     96  S   UNL     1      -0.690   9.343  23.069  1.00  0.00     0.124 S 
ATOM     97  O   UNL     1       0.380   8.439  23.476  1.00  0.00    -0.237 OA
ATOM     98  O   UNL     1      -0.431  10.766  23.259  1.00  0.00    -0.237 OA
ATOM     99  O   UNL     1      -2.041   8.907  23.415  1.00  0.00    -0.744 OA
ENDBRANCH  95  96
ENDBRANCH  63  88
BRANCH  75 100
ATOM    100  C   UNL     1       0.839  11.335  12.601  1.00  0.00     0.058 A 
ATOM    101  C   UNL     1       0.612   9.951  12.493  1.00  0.00     0.135 A 
ATOM    102  C   UNL     1       1.867  11.878  11.814  1.00  0.00     0.135 A 
ATOM    103  F   UNL     1      -0.413   9.368  13.131  1.00  0.00    -0.206 F 
ATOM    104  C   UNL     1       1.397   9.140  11.671  1.00  0.00     0.059 A 
ATOM    105  C   UNL     1       2.640  11.094  10.963  1.00  0.00     0.059 A 
ATOM    106  F   UNL     1       2.094  13.202  11.826  1.00  0.00    -0.206 F 
ATOM    107  C   UNL     1       2.407   9.722  10.905  1.00  0.00     0.060 A 
BRANCH 107 108
ATOM    108  S   UNL     1       3.366   8.683   9.781  1.00  0.00     0.124 S 
ATOM    109  O   UNL     1       4.149   7.870  10.704  1.00  0.00    -0.237 OA
ATOM    110  O   UNL     1       2.327   7.980   9.037  1.00  0.00    -0.237 OA
ATOM    111  O   UNL     1       4.136   9.650   8.996  1.00  0.00    -0.744 OA
ENDBRANCH 107 108
ENDBRANCH  75 100
ENDBRANCH  49  50
ENDBRANCH  41  44
ENDBRANCH  39  40
ENDBRANCH  38  39
ENDBRANCH  37  38
ENDBRANCH   1  37
TORSDOF 23
