REMARK SMILES CC(C)(C[NH2+]CCc1cccnc1)C(=O)NCCCCCCNC(=O)c1ccc(-c2c3nc(c(-c4c(F)cc(S(=O)(=O)[O-])cc4F)c4ccc([nH]4)c(-c4c(F)cc(S(=O)(=O)[O-])cc4F)c4nc(c(-c5c(F)cc(S(=O)(=O)[O-])cc5F)c5ccc2[nH]5)C=C4)C=C3)cc1
REMARK SMILES IDX 18 1 17 2 16 3 14 4 15 5 2 7 1 8 3 9 4 10 5 11 6 14 7 15
REMARK SMILES IDX 8 16 9 17 13 18 10 19 12 20 11 21 19 22 20 23 21 24 22 25
REMARK SMILES IDX 23 26 24 27 25 29 26 30 27 31 91 32 28 33 90 34 29 35 30 36
REMARK SMILES IDX 31 37 84 38 32 39 89 40 83 41 85 42 33 43 88 44 82 45 81 46
REMARK SMILES IDX 34 48 68 49 47 50 67 51 48 52 51 53 66 54 86 55 49 56 50 57
REMARK SMILES IDX 65 59 87 60 52 61 35 62 36 63 45 64 37 65 38 66 44 67 46 68
REMARK SMILES IDX 39 69 40 70 41 71 42 72 43 73 69 74 70 75 79 76 71 77 72 78
REMARK SMILES IDX 78 79 80 80 73 81 74 82 75 83 76 84 77 85 53 86 54 87 63 88
REMARK SMILES IDX 55 89 56 90 62 91 64 92 57 93 58 94 59 95 60 96 61 97
REMARK H PARENT 16 6 5 12 5 13 23 28 85 47 51 58
REMARK Flexibility Score: inf
ROOT
ATOM      1  C   UNL     1      -1.350   4.980  -0.794  1.00  0.00     0.021 C 
ENDROOT
BRANCH   1   2
ATOM      2  C   UNL     1      -0.172   4.247  -1.433  1.00  0.00     0.116 C 
BRANCH   2   3
ATOM      3  N   UNL     1       0.750   3.754  -0.432  1.00  0.00    -0.355 N 
ATOM      4  C   UNL     1       1.058   2.495  -0.022  1.00  0.00     0.231 C 
ATOM      5  O   UNL     1       1.852   2.416   0.922  1.00  0.00    -0.274 OA
ATOM      6  H   UNL     1       1.246   4.462   0.039  1.00  0.00     0.163 HD
BRANCH   4   7
ATOM      7  C   UNL     1       0.514   1.232  -0.721  1.00  0.00     0.092 C 
ATOM      8  C   UNL     1       1.086  -0.010   0.014  1.00  0.00     0.027 C 
ATOM      9  C   UNL     1       1.060   1.169  -2.161  1.00  0.00     0.027 C 
BRANCH   7  10
ATOM     10  C   UNL     1      -1.036   1.133  -0.713  1.00  0.00     0.276 C 
BRANCH  10  11
ATOM     11  N   UNL     1      -1.616   1.343   0.614  1.00  0.00    -0.345 N 
ATOM     12  H   UNL     1      -1.349   2.274   0.934  1.00  0.00     0.346 HD
ATOM     13  H   UNL     1      -1.255   0.597   1.208  1.00  0.00     0.346 HD
BRANCH  11  14
ATOM     14  C   UNL     1      -3.077   1.244   0.665  1.00  0.00     0.265 C 
BRANCH  14  15
ATOM     15  C   UNL     1      -3.726  -0.054   0.147  1.00  0.00     0.098 C 
BRANCH  15  16
ATOM     16  C   UNL     1      -3.257  -1.371   0.714  1.00  0.00    -0.024 A 
ATOM     17  C   UNL     1      -2.554  -1.515   1.912  1.00  0.00     0.007 A 
ATOM     18  C   UNL     1      -3.565  -2.545   0.025  1.00  0.00     0.114 A 
ATOM     19  C   UNL     1      -2.142  -2.779   2.330  1.00  0.00     0.020 A 
ATOM     20  N   UNL     1      -3.197  -3.787   0.416  1.00  0.00    -0.264 NA
ATOM     21  C   UNL     1      -2.484  -3.873   1.556  1.00  0.00     0.111 A 
ENDBRANCH  15  16
ENDBRANCH  14  15
ENDBRANCH  11  14
ENDBRANCH  10  11
ENDBRANCH   7  10
ENDBRANCH   4   7
ENDBRANCH   2   3
ENDBRANCH   1   2
BRANCH   1  22
ATOM     22  C   UNL     1      -0.975   6.321  -0.153  1.00  0.00     0.002 C 
BRANCH  22  23
ATOM     23  C   UNL     1      -0.255   7.304  -1.083  1.00  0.00     0.002 C 
BRANCH  23  24
ATOM     24  C   UNL     1      -0.971   7.586  -2.406  1.00  0.00     0.021 C 
BRANCH  24  25
ATOM     25  C   UNL     1      -2.374   8.162  -2.253  1.00  0.00     0.116 C 
BRANCH  25  26
ATOM     26  N   UNL     1      -2.356   9.457  -1.591  1.00  0.00    -0.352 N 
ATOM     27  C   UNL     1      -2.861  10.657  -2.022  1.00  0.00     0.251 C 
ATOM     28  H   UNL     1      -1.920   9.475  -0.709  1.00  0.00     0.163 HD
ATOM     29  O   UNL     1      -2.561  11.695  -1.436  1.00  0.00    -0.269 OA
BRANCH  27  30
ATOM     30  C   UNL     1      -3.753  10.698  -3.200  1.00  0.00     0.039 A 
ATOM     31  C   UNL     1      -3.558  11.689  -4.164  1.00  0.00     0.014 A 
ATOM     32  C   UNL     1      -4.782   9.763  -3.349  1.00  0.00     0.014 A 
ATOM     33  C   UNL     1      -4.361  11.708  -5.306  1.00  0.00     0.010 A 
ATOM     34  C   UNL     1      -5.529   9.737  -4.523  1.00  0.00     0.010 A 
ATOM     35  C   UNL     1      -5.332  10.712  -5.511  1.00  0.00    -0.014 A 
BRANCH  35  36
ATOM     36  C   UNL     1      -6.147  10.677  -6.752  1.00  0.00     0.031 A 
ATOM     37  C   UNL     1      -7.641  10.847  -6.681  1.00  0.00     0.074 A 
ATOM     38  C   UNL     1      -5.548  10.431  -7.935  1.00  0.00     0.049 A 
ATOM     39  N   UNL     1      -8.525  10.787  -7.643  1.00  0.00    -0.248 NA
ATOM     40  C   UNL     1      -8.220  11.092  -5.350  1.00  0.00     0.031 C 
ATOM     41  C   UNL     1      -4.114  10.203  -8.125  1.00  0.00     0.029 A 
ATOM     42  N   UNL     1      -6.070  10.324  -9.199  1.00  0.00    -0.354 N 
ATOM     43  C   UNL     1      -9.761  10.975  -7.036  1.00  0.00     0.074 A 
ATOM     44  C   UNL     1      -9.518  11.093  -5.615  1.00  0.00     0.031 C 
ATOM     45  C   UNL     1      -3.868  10.008  -9.430  1.00  0.00     0.029 A 
ATOM     46  C   UNL     1      -5.129  10.053 -10.165  1.00  0.00     0.049 A 
ATOM     47  H   UNL     1      -7.029  10.430  -9.397  1.00  0.00     0.167 HD
ATOM     48  C   UNL     1     -10.984  11.065  -7.612  1.00  0.00     0.037 A 
ATOM     49  C   UNL     1      -5.265   9.853 -11.490  1.00  0.00     0.037 A 
ATOM     50  C   UNL     1     -11.213  10.964  -9.030  1.00  0.00     0.049 A 
ATOM     51  C   UNL     1      -6.636   9.944 -12.106  1.00  0.00     0.074 A 
ATOM     52  C   UNL     1     -12.406  11.095  -9.720  1.00  0.00     0.029 A 
ATOM     53  N   UNL     1     -10.233  10.701  -9.977  1.00  0.00    -0.354 N 
ATOM     54  N   UNL     1      -7.786  10.187 -11.524  1.00  0.00    -0.248 NA
ATOM     55  C   UNL     1      -6.727   9.740 -13.558  1.00  0.00     0.031 C 
ATOM     56  C   UNL     1     -12.157  10.858 -11.075  1.00  0.00     0.029 A 
ATOM     57  C   UNL     1     -10.798  10.640 -11.240  1.00  0.00     0.049 A 
ATOM     58  H   UNL     1      -9.277  10.576  -9.779  1.00  0.00     0.167 HD
ATOM     59  C   UNL     1      -8.733  10.196 -12.543  1.00  0.00     0.074 A 
ATOM     60  C   UNL     1      -8.018   9.945 -13.777  1.00  0.00     0.031 C 
ATOM     61  C   UNL     1     -10.072  10.395 -12.463  1.00  0.00     0.037 A 
BRANCH  48  62
ATOM     62  C   UNL     1     -12.168  11.284  -6.709  1.00  0.00     0.058 A 
ATOM     63  C   UNL     1     -12.361  12.494  -6.022  1.00  0.00     0.135 A 
ATOM     64  C   UNL     1     -13.143  10.284  -6.554  1.00  0.00     0.135 A 
ATOM     65  F   UNL     1     -11.455  13.480  -6.120  1.00  0.00    -0.206 F 
ATOM     66  C   UNL     1     -13.458  12.693  -5.190  1.00  0.00     0.059 A 
ATOM     67  C   UNL     1     -14.265  10.473  -5.752  1.00  0.00     0.059 A 
ATOM     68  F   UNL     1     -13.011   9.107  -7.187  1.00  0.00    -0.206 F 
ATOM     69  C   UNL     1     -14.405  11.676  -5.061  1.00  0.00     0.060 A 
BRANCH  69  70
ATOM     70  S   UNL     1     -15.823  11.952  -3.979  1.00  0.00     0.124 S 
ATOM     71  O   UNL     1     -15.199  11.894  -2.661  1.00  0.00    -0.237 OA
ATOM     72  O   UNL     1     -16.287  13.269  -4.403  1.00  0.00    -0.237 OA
ATOM     73  O   UNL     1     -16.717  10.843  -4.298  1.00  0.00    -0.744 OA
ENDBRANCH  69  70
ENDBRANCH  48  62
BRANCH  49  74
ATOM     74  C   UNL     1      -4.068   9.566 -12.325  1.00  0.00     0.058 A 
ATOM     75  C   UNL     1      -3.593  10.503 -13.255  1.00  0.00     0.135 A 
ATOM     76  C   UNL     1      -3.366   8.357 -12.202  1.00  0.00     0.135 A 
ATOM     77  F   UNL     1      -4.233  11.672 -13.415  1.00  0.00    -0.206 F 
ATOM     78  C   UNL     1      -2.477  10.247 -14.044  1.00  0.00     0.059 A 
ATOM     79  C   UNL     1      -2.230   8.089 -12.960  1.00  0.00     0.059 A 
ATOM     80  F   UNL     1      -3.767   7.433 -11.315  1.00  0.00    -0.206 F 
ATOM     81  C   UNL     1      -1.799   9.037 -13.886  1.00  0.00     0.060 A 
BRANCH  81  82
ATOM     82  S   UNL     1      -0.322   8.736 -14.881  1.00  0.00     0.124 S 
ATOM     83  O   UNL     1      -0.898   8.526 -16.204  1.00  0.00    -0.237 OA
ATOM     84  O   UNL     1       0.427   9.975 -14.698  1.00  0.00    -0.237 OA
ATOM     85  O   UNL     1       0.269   7.557 -14.255  1.00  0.00    -0.744 OA
ENDBRANCH  81  82
ENDBRANCH  49  74
BRANCH  61  86
ATOM     86  C   UNL     1     -10.854  10.389 -13.749  1.00  0.00     0.058 A 
ATOM     87  C   UNL     1     -11.083   9.207 -14.471  1.00  0.00     0.135 A 
ATOM     88  C   UNL     1     -11.426  11.576 -14.236  1.00  0.00     0.135 A 
ATOM     89  F   UNL     1     -10.554   8.046 -14.054  1.00  0.00    -0.206 F 
ATOM     90  C   UNL     1     -11.831   9.207 -15.644  1.00  0.00     0.059 A 
ATOM     91  C   UNL     1     -12.204  11.593 -15.389  1.00  0.00     0.059 A 
ATOM     92  F   UNL     1     -11.247  12.732 -13.579  1.00  0.00    -0.206 F 
ATOM     93  C   UNL     1     -12.391  10.405 -16.093  1.00  0.00     0.060 A 
BRANCH  93  94
ATOM     94  S   UNL     1     -13.390  10.382 -17.597  1.00  0.00     0.124 S 
ATOM     95  O   UNL     1     -12.370  10.199 -18.625  1.00  0.00    -0.237 OA
ATOM     96  O   UNL     1     -14.271   9.241 -17.368  1.00  0.00    -0.237 OA
ATOM     97  O   UNL     1     -14.046  11.686 -17.590  1.00  0.00    -0.744 OA
ENDBRANCH  93  94
ENDBRANCH  61  86
ENDBRANCH  35  36
ENDBRANCH  27  30
ENDBRANCH  25  26
ENDBRANCH  24  25
ENDBRANCH  23  24
ENDBRANCH  22  23
ENDBRANCH   1  22
TORSDOF 21
