REMARK SMILES CS(=O)(=O)c1ccc(C2=NN(c3ccc(C(=O)NCCCCCCNC(=O)c4ccc(-c5c6nc(c(-c7c(F)cc(S(=O)(=O)[O-])cc7F)c7ccc([nH]7)c(-c7c(F)cc(S(=O)(=O)[O-])cc7F)c7nc(c(-c8c(F)cc(S(=O)(=O)[O-])cc8F)c8ccc5[nH]8)C=C7)C=C6)cc4)cc3)[C@H](c3cccs3)C2)cc1
REMARK SMILES IDX 21 1 20 2 19 3 18 4 16 5 17 6 15 8 12 9 13 10 95 11 14 12
REMARK SMILES IDX 94 13 11 14 9 15 10 16 102 17 96 18 8 19 5 20 6 21 104 22
REMARK SMILES IDX 7 23 103 24 2 25 1 26 3 27 4 28 97 29 98 30 101 31 99 32
REMARK SMILES IDX 100 33 22 34 23 35 24 36 25 37 26 38 27 40 28 41 29 42 93 43
REMARK SMILES IDX 30 44 92 45 31 46 32 47 33 48 86 49 34 50 91 51 85 52 87 53
REMARK SMILES IDX 35 54 90 55 84 56 83 57 36 59 70 60 49 61 69 62 50 63 53 64
REMARK SMILES IDX 68 65 88 66 51 67 52 68 67 70 89 71 54 72 37 73 38 74 47 75
REMARK SMILES IDX 39 76 40 77 46 78 48 79 41 80 42 81 43 82 44 83 45 84 71 85
REMARK SMILES IDX 72 86 81 87 73 88 74 89 80 90 82 91 75 92 76 93 77 94 78 95
REMARK SMILES IDX 79 96 55 97 56 98 65 99 57 100 58 101 64 102 66 103 59 104
REMARK SMILES IDX 60 105 61 106 62 107 63 108
REMARK H PARENT 18 7 25 39 87 58 53 69
REMARK Flexibility Score: inf
ROOT
ATOM      1  C   UNL     1      -1.195 -15.451  -6.494  1.00  0.00     0.002 C 
ENDROOT
BRANCH   1   2
ATOM      2  C   UNL     1      -0.598 -14.173  -5.892  1.00  0.00     0.021 C 
BRANCH   2   3
ATOM      3  C   UNL     1       0.236 -13.370  -6.892  1.00  0.00     0.116 C 
BRANCH   3   4
ATOM      4  N   UNL     1      -0.639 -12.646  -7.797  1.00  0.00    -0.352 N 
ATOM      5  C   UNL     1      -0.960 -11.316  -7.876  1.00  0.00     0.251 C 
ATOM      6  O   UNL     1      -1.726 -10.947  -8.766  1.00  0.00    -0.269 OA
ATOM      7  H   UNL     1      -1.079 -13.210  -8.473  1.00  0.00     0.163 HD
BRANCH   5   8
ATOM      8  C   UNL     1      -0.343 -10.306  -6.981  1.00  0.00     0.039 A 
ATOM      9  C   UNL     1       1.014  -8.363  -5.465  1.00  0.00     0.060 A 
ATOM     10  C   UNL     1       0.673  -8.113  -6.797  1.00  0.00     0.029 A 
ATOM     11  C   UNL     1       0.591  -9.558  -4.877  1.00  0.00     0.029 A 
ATOM     12  C   UNL     1      -0.003  -9.074  -7.551  1.00  0.00     0.016 A 
ATOM     13  C   UNL     1      -0.099 -10.518  -5.622  1.00  0.00     0.016 A 
BRANCH   9  14
ATOM     14  N   UNL     1       1.736  -7.434  -4.745  1.00  0.00    -0.257 N 
ATOM     15  C   UNL     1       2.017  -5.815  -3.421  1.00  0.00     0.071 C 
ATOM     16  N   UNL     1       1.101  -6.602  -3.893  1.00  0.00    -0.176 NA
ATOM     17  C   UNL     1       3.402  -6.027  -3.977  1.00  0.00     0.091 C 
ATOM     18  C   UNL     1       3.198  -7.395  -4.652  1.00  0.00     0.154 C 
BRANCH  15  19
ATOM     19  C   UNL     1       1.705  -4.757  -2.450  1.00  0.00    -0.002 A 
ATOM     20  C   UNL     1       0.947  -2.763  -0.663  1.00  0.00     0.067 A 
ATOM     21  C   UNL     1       0.348  -4.025  -0.589  1.00  0.00     0.021 A 
ATOM     22  C   UNL     1       1.925  -2.494  -1.626  1.00  0.00     0.021 A 
ATOM     23  C   UNL     1       0.723  -5.020  -1.489  1.00  0.00     0.011 A 
ATOM     24  C   UNL     1       2.311  -3.500  -2.520  1.00  0.00     0.011 A 
BRANCH  20  25
ATOM     25  S   UNL     1       0.381  -1.535   0.489  1.00  0.00     0.175 S 
ATOM     26  C   UNL     1       0.973   0.032  -0.076  1.00  0.00     0.163 C 
ATOM     27  O   UNL     1       1.031  -1.821   1.750  1.00  0.00    -0.224 OA
ATOM     28  O   UNL     1      -1.069  -1.500   0.377  1.00  0.00    -0.224 OA
ENDBRANCH  20  25
ENDBRANCH  15  19
BRANCH  18  29
ATOM     29  C   UNL     1       3.839  -8.593  -3.960  1.00  0.00     0.030 A 
ATOM     30  C   UNL     1       4.031  -9.851  -4.514  1.00  0.00     0.017 A 
ATOM     31  S   UNL     1       4.403  -8.564  -2.339  1.00  0.00    -0.147 S 
ATOM     32  C   UNL     1       4.652 -10.768  -3.620  1.00  0.00     0.012 A 
ATOM     33  C   UNL     1       4.935 -10.185  -2.407  1.00  0.00     0.065 A 
ENDBRANCH  18  29
ENDBRANCH   9  14
ENDBRANCH   5   8
ENDBRANCH   3   4
ENDBRANCH   2   3
ENDBRANCH   1   2
BRANCH   1  34
ATOM     34  C   UNL     1      -0.161 -16.492  -6.941  1.00  0.00     0.002 C 
BRANCH  34  35
ATOM     35  C   UNL     1       0.822 -16.933  -5.853  1.00  0.00     0.021 C 
BRANCH  35  36
ATOM     36  C   UNL     1       0.166 -17.576  -4.635  1.00  0.00     0.116 C 
BRANCH  36  37
ATOM     37  N   UNL     1      -0.496 -18.825  -4.981  1.00  0.00    -0.352 N 
ATOM     38  C   UNL     1      -0.310 -20.079  -4.456  1.00  0.00     0.251 C 
ATOM     39  H   UNL     1      -1.174 -18.761  -5.692  1.00  0.00     0.163 HD
ATOM     40  O   UNL     1      -0.782 -21.058  -5.025  1.00  0.00    -0.269 OA
BRANCH  38  41
ATOM     41  C   UNL     1       0.470 -20.246  -3.211  1.00  0.00     0.039 A 
ATOM     42  C   UNL     1       1.408 -21.278  -3.131  1.00  0.00     0.014 A 
ATOM     43  C   UNL     1       0.265 -19.395  -2.120  1.00  0.00     0.014 A 
ATOM     44  C   UNL     1       2.179 -21.423  -1.975  1.00  0.00     0.010 A 
ATOM     45  C   UNL     1       1.082 -19.497  -0.998  1.00  0.00     0.010 A 
ATOM     46  C   UNL     1       2.042 -20.516  -0.910  1.00  0.00    -0.014 A 
BRANCH  46  47
ATOM     47  C   UNL     1       2.893 -20.620   0.303  1.00  0.00     0.031 A 
ATOM     48  C   UNL     1       2.270 -20.914   1.641  1.00  0.00     0.074 A 
ATOM     49  C   UNL     1       4.217 -20.385   0.208  1.00  0.00     0.049 A 
ATOM     50  N   UNL     1       2.836 -20.978   2.818  1.00  0.00    -0.248 NA
ATOM     51  C   UNL     1       0.816 -21.139   1.661  1.00  0.00     0.031 C 
ATOM     52  C   UNL     1       4.928 -20.042  -1.025  1.00  0.00     0.029 A 
ATOM     53  N   UNL     1       5.199 -20.388   1.167  1.00  0.00    -0.354 N 
ATOM     54  C   UNL     1       1.808 -21.236   3.719  1.00  0.00     0.074 A 
ATOM     55  C   UNL     1       0.578 -21.264   2.958  1.00  0.00     0.031 C 
ATOM     56  C   UNL     1       6.234 -19.887  -0.751  1.00  0.00     0.029 A 
ATOM     57  C   UNL     1       6.447 -20.082   0.679  1.00  0.00     0.049 A 
ATOM     58  H   UNL     1       5.025 -20.590   2.115  1.00  0.00     0.167 HD
ATOM     59  C   UNL     1       1.887 -21.451   5.054  1.00  0.00     0.037 A 
ATOM     60  C   UNL     1       7.630 -19.964   1.314  1.00  0.00     0.037 A 
ATOM     61  C   UNL     1       3.119 -21.445   5.799  1.00  0.00     0.049 A 
ATOM     62  C   UNL     1       7.693 -20.212   2.797  1.00  0.00     0.074 A 
ATOM     63  C   UNL     1       3.313 -21.713   7.143  1.00  0.00     0.029 A 
ATOM     64  N   UNL     1       4.367 -21.154   5.266  1.00  0.00    -0.354 N 
ATOM     65  N   UNL     1       6.721 -20.519   3.623  1.00  0.00    -0.248 NA
ATOM     66  C   UNL     1       9.013 -20.104   3.433  1.00  0.00     0.031 C 
ATOM     67  C   UNL     1       4.671 -21.539   7.432  1.00  0.00     0.029 A 
ATOM     68  C   UNL     1       5.332 -21.214   6.258  1.00  0.00     0.049 A 
ATOM     69  H   UNL     1       4.540 -20.937   4.322  1.00  0.00     0.167 HD
ATOM     70  C   UNL     1       7.316 -20.668   4.871  1.00  0.00     0.074 A 
ATOM     71  C   UNL     1       8.732 -20.428   4.689  1.00  0.00     0.031 C 
ATOM     72  C   UNL     1       6.740 -20.977   6.060  1.00  0.00     0.037 A 
BRANCH  59  73
ATOM     73  C   UNL     1       0.603 -21.715   5.795  1.00  0.00     0.058 A 
ATOM     74  C   UNL     1      -0.119 -22.907   5.619  1.00  0.00     0.135 A 
ATOM     75  C   UNL     1       0.104 -20.779   6.715  1.00  0.00     0.135 A 
ATOM     76  F   UNL     1       0.304 -23.831   4.742  1.00  0.00    -0.206 F 
ATOM     77  C   UNL     1      -1.307 -23.146   6.303  1.00  0.00     0.059 A 
ATOM     78  C   UNL     1      -1.067 -21.010   7.432  1.00  0.00     0.059 A 
ATOM     79  F   UNL     1       0.753 -19.622   6.923  1.00  0.00    -0.206 F 
ATOM     80  C   UNL     1      -1.774 -22.191   7.207  1.00  0.00     0.060 A 
BRANCH  80  81
ATOM     81  S   UNL     1      -3.316 -22.517   8.086  1.00  0.00     0.124 S 
ATOM     82  O   UNL     1      -4.301 -22.329   7.025  1.00  0.00    -0.237 OA
ATOM     83  O   UNL     1      -3.131 -23.892   8.541  1.00  0.00    -0.237 OA
ATOM     84  O   UNL     1      -3.328 -21.508   9.139  1.00  0.00    -0.744 OA
ENDBRANCH  80  81
ENDBRANCH  59  73
BRANCH  60  85
ATOM     85  C   UNL     1       8.853 -19.615   0.543  1.00  0.00     0.058 A 
ATOM     86  C   UNL     1       9.863 -20.564   0.324  1.00  0.00     0.135 A 
ATOM     87  C   UNL     1       9.027 -18.336  -0.009  1.00  0.00     0.135 A 
ATOM     88  F   UNL     1       9.745 -21.798   0.835  1.00  0.00    -0.206 F 
ATOM     89  C   UNL     1      11.009 -20.254  -0.402  1.00  0.00     0.059 A 
ATOM     90  C   UNL     1      10.151 -18.010  -0.760  1.00  0.00     0.059 A 
ATOM     91  F   UNL     1       8.081 -17.398   0.157  1.00  0.00    -0.206 F 
ATOM     92  C   UNL     1      11.142 -18.974  -0.944  1.00  0.00     0.060 A 
BRANCH  92  93
ATOM     93  S   UNL     1      12.607 -18.599  -1.931  1.00  0.00     0.124 S 
ATOM     94  O   UNL     1      13.637 -18.505  -0.904  1.00  0.00    -0.237 OA
ATOM     95  O   UNL     1      12.687 -19.758  -2.814  1.00  0.00    -0.237 OA
ATOM     96  O   UNL     1      12.254 -17.343  -2.588  1.00  0.00    -0.744 OA
ENDBRANCH  92  93
ENDBRANCH  60  85
BRANCH  72  97
ATOM     97  C   UNL     1       7.646 -21.106   7.254  1.00  0.00     0.058 A 
ATOM     98  C   UNL     1       8.233 -19.985   7.860  1.00  0.00     0.135 A 
ATOM     99  C   UNL     1       7.886 -22.365   7.829  1.00  0.00     0.135 A 
ATOM    100  F   UNL     1       8.041 -18.760   7.346  1.00  0.00    -0.206 F 
ATOM    101  C   UNL     1       9.047 -20.110   8.982  1.00  0.00     0.059 A 
ATOM    102  C   UNL     1       8.673 -22.509   8.966  1.00  0.00     0.059 A 
ATOM    103  F   UNL     1       7.340 -23.468   7.294  1.00  0.00    -0.206 F 
ATOM    104  C   UNL     1       9.259 -21.377   9.529  1.00  0.00     0.060 A 
BRANCH 104 105
ATOM    105  S   UNL     1      10.291 -21.521  11.003  1.00  0.00     0.124 S 
ATOM    106  O   UNL     1      11.625 -21.312  10.450  1.00  0.00    -0.237 OA
ATOM    107  O   UNL     1       9.780 -20.446  11.849  1.00  0.00    -0.237 OA
ATOM    108  O   UNL     1      10.014 -22.872  11.482  1.00  0.00    -0.744 OA
ENDBRANCH 104 105
ENDBRANCH  72  97
ENDBRANCH  46  47
ENDBRANCH  38  41
ENDBRANCH  36  37
ENDBRANCH  35  36
ENDBRANCH  34  35
ENDBRANCH   1  34
TORSDOF 20
