REMARK SMILES O=C(NCCCCCCNC(=O)[C@@H]1CC[C@]2(CC[NH2+]C2)C1)c1ccc(-c2c3nc(c(-c4c(F)cc(S(=O)(=O)[O-])cc4F)c4ccc([nH]4)c(-c4c(F)cc(S(=O)(=O)[O-])cc4F)c4nc(c(-c5c(F)cc(S(=O)(=O)[O-])cc5F)c5ccc2[nH]5)C=C4)C=C3)cc1
REMARK SMILES IDX 5 1 4 2 3 3 1 4 2 5 22 7 23 8 87 9 24 10 86 11 25 12 26 13
REMARK SMILES IDX 27 14 80 15 28 16 85 17 79 18 81 19 29 20 84 21 78 22 77 23
REMARK SMILES IDX 30 25 64 26 43 27 63 28 44 29 47 30 62 31 82 32 45 33 46 34
REMARK SMILES IDX 61 36 83 37 48 38 31 39 32 40 41 41 33 42 34 43 40 44 42 45
REMARK SMILES IDX 35 46 36 47 37 48 38 49 39 50 65 51 66 52 75 53 67 54 68 55
REMARK SMILES IDX 74 56 76 57 69 58 70 59 71 60 72 61 73 62 49 63 50 64 59 65
REMARK SMILES IDX 51 66 52 67 58 68 60 69 53 70 54 71 55 72 56 73 57 74 6 75
REMARK SMILES IDX 7 76 8 77 9 78 10 79 11 80 12 82 13 83 14 84 21 85 15 86
REMARK SMILES IDX 16 87 17 88 20 89 18 90 19 91
REMARK H PARENT 3 6 81 24 47 35 10 81 19 92 19 93
REMARK Flexibility Score: inf
ROOT
ATOM      1  C   UNL     1       4.574  -0.529  -2.659  1.00  0.00     0.021 C 
ENDROOT
BRANCH   1   2
ATOM      2  C   UNL     1       4.392   0.156  -1.312  1.00  0.00     0.116 C 
BRANCH   2   3
ATOM      3  N   UNL     1       2.995   0.382  -0.982  1.00  0.00    -0.352 N 
ATOM      4  O   UNL     1       1.111   0.201   0.248  1.00  0.00    -0.269 OA
ATOM      5  C   UNL     1       2.331   0.083   0.185  1.00  0.00     0.251 C 
ATOM      6  H   UNL     1       2.453   0.805  -1.685  1.00  0.00     0.163 HD
BRANCH   5   7
ATOM      7  C   UNL     1       3.096  -0.409   1.353  1.00  0.00     0.039 A 
ATOM      8  C   UNL     1       4.285   0.217   1.735  1.00  0.00     0.014 A 
ATOM      9  C   UNL     1       2.623  -1.513   2.068  1.00  0.00     0.014 A 
ATOM     10  C   UNL     1       5.066  -0.342   2.739  1.00  0.00     0.010 A 
ATOM     11  C   UNL     1       3.370  -2.022   3.135  1.00  0.00     0.010 A 
ATOM     12  C   UNL     1       4.611  -1.458   3.463  1.00  0.00    -0.014 A 
BRANCH  12  13
ATOM     13  C   UNL     1       5.428  -1.957   4.599  1.00  0.00     0.031 A 
ATOM     14  C   UNL     1       6.065  -3.319   4.571  1.00  0.00     0.074 A 
ATOM     15  C   UNL     1       5.632  -1.133   5.647  1.00  0.00     0.049 A 
ATOM     16  N   UNL     1       6.846  -3.878   5.461  1.00  0.00    -0.248 NA
ATOM     17  C   UNL     1       5.788  -4.167   3.402  1.00  0.00     0.031 C 
ATOM     18  C   UNL     1       5.042   0.201   5.794  1.00  0.00     0.029 A 
ATOM     19  N   UNL     1       6.404  -1.279   6.770  1.00  0.00    -0.354 N 
ATOM     20  C   UNL     1       7.150  -5.141   4.967  1.00  0.00     0.074 A 
ATOM     21  C   UNL     1       6.443  -5.280   3.711  1.00  0.00     0.031 C 
ATOM     22  C   UNL     1       5.511   0.769   6.913  1.00  0.00     0.029 A 
ATOM     23  C   UNL     1       6.390  -0.176   7.591  1.00  0.00     0.049 A 
ATOM     24  H   UNL     1       6.919  -2.094   6.969  1.00  0.00     0.167 HD
ATOM     25  C   UNL     1       7.953  -6.090   5.506  1.00  0.00     0.037 A 
ATOM     26  C   UNL     1       7.005   0.048   8.767  1.00  0.00     0.037 A 
ATOM     27  C   UNL     1       8.656  -5.942   6.756  1.00  0.00     0.049 A 
ATOM     28  C   UNL     1       7.892  -1.019   9.338  1.00  0.00     0.074 A 
ATOM     29  C   UNL     1       9.492  -6.847   7.389  1.00  0.00     0.029 A 
ATOM     30  N   UNL     1       8.611  -4.814   7.564  1.00  0.00    -0.354 N 
ATOM     31  N   UNL     1       8.175  -2.202   8.847  1.00  0.00    -0.248 NA
ATOM     32  C   UNL     1       8.544  -0.723  10.620  1.00  0.00     0.031 C 
ATOM     33  C   UNL     1       9.930  -6.277   8.590  1.00  0.00     0.029 A 
ATOM     34  C   UNL     1       9.398  -5.002   8.689  1.00  0.00     0.049 A 
ATOM     35  H   UNL     1       8.094  -3.999   7.366  1.00  0.00     0.167 HD
ATOM     36  C   UNL     1       9.041  -2.792   9.759  1.00  0.00     0.074 A 
ATOM     37  C   UNL     1       9.259  -1.823  10.815  1.00  0.00     0.031 C 
ATOM     38  C   UNL     1       9.598  -4.027   9.731  1.00  0.00     0.037 A 
BRANCH  25  39
ATOM     39  C   UNL     1       8.119  -7.380   4.749  1.00  0.00     0.058 A 
ATOM     40  C   UNL     1       8.894  -7.448   3.580  1.00  0.00     0.135 A 
ATOM     41  C   UNL     1       7.546  -8.571   5.224  1.00  0.00     0.135 A 
ATOM     42  F   UNL     1       9.452  -6.337   3.074  1.00  0.00    -0.206 F 
ATOM     43  C   UNL     1       9.080  -8.647   2.899  1.00  0.00     0.059 A 
ATOM     44  C   UNL     1       7.737  -9.786   4.571  1.00  0.00     0.059 A 
ATOM     45  F   UNL     1       6.797  -8.563   6.338  1.00  0.00    -0.206 F 
ATOM     46  C   UNL     1       8.497  -9.812   3.402  1.00  0.00     0.060 A 
BRANCH  46  47
ATOM     47  S   UNL     1       8.758 -11.361   2.513  1.00  0.00     0.124 S 
ATOM     48  O   UNL     1       7.890 -11.179   1.353  1.00  0.00    -0.237 OA
ATOM     49  O   UNL     1      10.191 -11.330   2.241  1.00  0.00    -0.237 OA
ATOM     50  O   UNL     1       8.325 -12.378   3.466  1.00  0.00    -0.744 OA
ENDBRANCH  46  47
ENDBRANCH  25  39
BRANCH  26  51
ATOM     51  C   UNL     1       6.788   1.333   9.479  1.00  0.00     0.058 A 
ATOM     52  C   UNL     1       7.808   2.289   9.584  1.00  0.00     0.135 A 
ATOM     53  C   UNL     1       5.542   1.639  10.049  1.00  0.00     0.135 A 
ATOM     54  F   UNL     1       9.017   2.041   9.055  1.00  0.00    -0.206 F 
ATOM     55  C   UNL     1       7.608   3.496  10.245  1.00  0.00     0.059 A 
ATOM     56  C   UNL     1       5.309   2.849  10.690  1.00  0.00     0.059 A 
ATOM     57  F   UNL     1       4.527   0.765   9.955  1.00  0.00    -0.206 F 
ATOM     58  C   UNL     1       6.354   3.766  10.795  1.00  0.00     0.060 A 
BRANCH  58  59
ATOM     59  S   UNL     1       6.083   5.353  11.614  1.00  0.00     0.124 S 
ATOM     60  O   UNL     1       6.715   5.125  12.908  1.00  0.00    -0.237 OA
ATOM     61  O   UNL     1       6.770   6.283  10.723  1.00  0.00    -0.237 OA
ATOM     62  O   UNL     1       4.629   5.474  11.631  1.00  0.00    -0.744 OA
ENDBRANCH  58  59
ENDBRANCH  26  51
BRANCH  38  63
ATOM     63  C   UNL     1      10.505  -4.387  10.873  1.00  0.00     0.058 A 
ATOM     64  C   UNL     1       9.997  -4.679  12.148  1.00  0.00     0.135 A 
ATOM     65  C   UNL     1      11.895  -4.448  10.687  1.00  0.00     0.135 A 
ATOM     66  F   UNL     1       8.675  -4.627  12.377  1.00  0.00    -0.206 F 
ATOM     67  C   UNL     1      10.839  -4.989  13.210  1.00  0.00     0.059 A 
ATOM     68  C   UNL     1      12.754  -4.778  11.730  1.00  0.00     0.059 A 
ATOM     69  F   UNL     1      12.429  -4.184   9.484  1.00  0.00    -0.206 F 
ATOM     70  C   UNL     1      12.217  -5.030  12.992  1.00  0.00     0.060 A 
BRANCH  70  71
ATOM     71  S   UNL     1      13.303  -5.438  14.376  1.00  0.00     0.124 S 
ATOM     72  O   UNL     1      13.324  -4.178  15.112  1.00  0.00    -0.237 OA
ATOM     73  O   UNL     1      12.592  -6.538  15.021  1.00  0.00    -0.237 OA
ATOM     74  O   UNL     1      14.556  -5.807  13.724  1.00  0.00    -0.744 OA
ENDBRANCH  70  71
ENDBRANCH  38  63
ENDBRANCH  12  13
ENDBRANCH   5   7
ENDBRANCH   2   3
ENDBRANCH   1   2
BRANCH   1  75
ATOM     75  C   UNL     1       4.156   0.305  -3.870  1.00  0.00     0.002 C 
BRANCH  75  76
ATOM     76  C   UNL     1       4.825   1.679  -3.990  1.00  0.00     0.002 C 
BRANCH  76  77
ATOM     77  C   UNL     1       6.355   1.686  -3.894  1.00  0.00     0.021 C 
BRANCH  77  78
ATOM     78  C   UNL     1       7.067   0.765  -4.882  1.00  0.00     0.116 C 
BRANCH  78  79
ATOM     79  N   UNL     1       6.809   1.163  -6.252  1.00  0.00    -0.356 N 
ATOM     80  C   UNL     1       7.663   1.496  -7.255  1.00  0.00     0.223 C 
ATOM     81  H   UNL     1       5.856   1.198  -6.497  1.00  0.00     0.163 HD
ATOM     82  O   UNL     1       7.176   1.836  -8.335  1.00  0.00    -0.275 OA
BRANCH  80  83
ATOM     83  C   UNL     1       9.169   1.442  -7.027  1.00  0.00     0.079 C 
ATOM     84  C   UNL     1       9.791   2.831  -7.002  1.00  0.00     0.014 C 
ATOM     85  C   UNL     1       9.866   0.732  -8.190  1.00  0.00     0.026 C 
ATOM     86  C   UNL     1      10.017   3.174  -8.468  1.00  0.00     0.014 C 
ATOM     87  C   UNL     1      10.342   1.842  -9.164  1.00  0.00     0.026 C 
ATOM     88  C   UNL     1       9.678   1.715 -10.549  1.00  0.00     0.074 C 
ATOM     89  C   UNL     1      11.835   1.686  -9.485  1.00  0.00     0.267 C 
ATOM     90  C   UNL     1      10.786   1.266 -11.492  1.00  0.00     0.261 C 
ATOM     91  N   UNL     1      11.857   0.763 -10.627  1.00  0.00    -0.346 N 
ATOM     92  H   UNL     1      12.758   0.795 -11.105  1.00  0.00     0.346 HD
ATOM     93  H   UNL     1      11.724  -0.211 -10.354  1.00  0.00     0.346 HD
ENDBRANCH  80  83
ENDBRANCH  78  79
ENDBRANCH  77  78
ENDBRANCH  76  77
ENDBRANCH  75  76
ENDBRANCH   1  75
TORSDOF 16
