REMARK SMILES COc1ccc(-c2cccc(/C=C\C(=O)NCCCCCCNC(=O)c3ccc(-c4c5nc(c(-c6c(F)cc(S(=O)(=O)[O-])cc6F)c6ccc([nH]6)c(-c6c(F)cc(S(=O)(=O)[O-])cc6F)c6nc(c(-c7c(F)cc(S(=O)(=O)[O-])cc7F)c7ccc4[nH]7)C=C6)C=C5)cc3)c2)c(Cl)c1OC
REMARK SMILES IDX 19 1 18 2 17 3 16 4 14 5 15 6 13 8 12 9 11 10 7 11 8 12
REMARK SMILES IDX 92 13 9 14 10 15 6 16 3 17 4 18 95 19 5 20 93 21 94 22 2 23
REMARK SMILES IDX 1 24 96 25 97 26 20 27 21 28 22 29 23 30 24 31 25 33 26 34
REMARK SMILES IDX 27 35 91 36 28 37 90 38 29 39 30 40 31 41 84 42 32 43 89 44
REMARK SMILES IDX 83 45 85 46 33 47 88 48 82 49 81 50 34 52 68 53 47 54 67 55
REMARK SMILES IDX 48 56 51 57 66 58 86 59 49 60 50 61 65 63 87 64 52 65 35 66
REMARK SMILES IDX 36 67 45 68 37 69 38 70 44 71 46 72 39 73 40 74 41 75 42 76
REMARK SMILES IDX 43 77 69 78 70 79 79 80 71 81 72 82 78 83 80 84 73 85 74 86
REMARK SMILES IDX 75 87 76 88 77 89 53 90 54 91 63 92 55 93 56 94 62 95 64 96
REMARK SMILES IDX 57 97 58 98 59 99 60 100 61 101
REMARK H PARENT 16 7 23 32 85 51 51 62
REMARK Flexibility Score: inf
ROOT
ATOM      1  C   UNL     1       4.390  -5.441   8.861  1.00  0.00     0.002 C 
ENDROOT
BRANCH   1   2
ATOM      2  C   UNL     1       3.014  -5.813   8.294  1.00  0.00     0.021 C 
BRANCH   2   3
ATOM      3  C   UNL     1       2.996  -6.588   6.982  1.00  0.00     0.116 C 
BRANCH   3   4
ATOM      4  N   UNL     1       3.355  -7.987   7.084  1.00  0.00    -0.353 N 
ATOM      5  C   UNL     1       2.959  -9.051   6.335  1.00  0.00     0.243 C 
ATOM      6  O   UNL     1       3.445 -10.157   6.582  1.00  0.00    -0.270 OA
ATOM      7  H   UNL     1       3.985  -8.201   7.809  1.00  0.00     0.163 HD
BRANCH   5   8
ATOM      8  C   UNL     1       1.889  -8.984   5.297  1.00  0.00     0.072 C 
ATOM      9  C   UNL     1       1.616  -8.139   4.285  1.00  0.00     0.014 C 
BRANCH   9  10
ATOM     10  C   UNL     1       2.329  -6.915   3.913  1.00  0.00    -0.025 A 
ATOM     11  C   UNL     1       2.248  -4.499   3.478  1.00  0.00    -0.016 A 
ATOM     12  C   UNL     1       3.654  -4.503   3.628  1.00  0.00     0.009 A 
ATOM     13  C   UNL     1       1.601  -5.737   3.638  1.00  0.00     0.017 A 
ATOM     14  C   UNL     1       4.387  -5.681   3.760  1.00  0.00     0.001 A 
ATOM     15  C   UNL     1       3.724  -6.894   3.869  1.00  0.00     0.008 A 
BRANCH  11  16
ATOM     16  C   UNL     1       1.567  -3.241   3.034  1.00  0.00     0.004 A 
ATOM     17  C   UNL     1       0.507  -0.875   1.884  1.00  0.00     0.162 A 
ATOM     18  C   UNL     1       1.792  -1.284   1.567  1.00  0.00     0.051 A 
ATOM     19  C   UNL     1      -0.249  -1.571   2.851  1.00  0.00     0.180 A 
ATOM     20  C   UNL     1       2.287  -2.461   2.100  1.00  0.00     0.014 A 
ATOM     21  C   UNL     1       0.294  -2.746   3.441  1.00  0.00     0.094 A 
ATOM     22  Cl  UNL     1      -0.521  -3.524   4.768  1.00  0.00    -0.079 Cl
BRANCH  17  23
ATOM     23  O   UNL     1      -0.037   0.241   1.293  1.00  0.00    -0.493 OA
ATOM     24  C   UNL     1       0.188   0.299  -0.118  1.00  0.00     0.278 C 
ENDBRANCH  17  23
BRANCH  19  25
ATOM     25  O   UNL     1      -1.415  -0.925   3.184  1.00  0.00    -0.491 OA
ATOM     26  C   UNL     1      -2.588  -1.663   3.479  1.00  0.00     0.278 C 
ENDBRANCH  19  25
ENDBRANCH  11  16
ENDBRANCH   9  10
ENDBRANCH   5   8
ENDBRANCH   3   4
ENDBRANCH   2   3
ENDBRANCH   1   2
BRANCH   1  27
ATOM     27  C   UNL     1       5.385  -4.706   7.951  1.00  0.00     0.002 C 
BRANCH  27  28
ATOM     28  C   UNL     1       4.879  -3.513   7.133  1.00  0.00     0.021 C 
BRANCH  28  29
ATOM     29  C   UNL     1       4.137  -2.405   7.876  1.00  0.00     0.116 C 
BRANCH  29  30
ATOM     30  N   UNL     1       4.958  -1.724   8.857  1.00  0.00    -0.352 N 
ATOM     31  C   UNL     1       5.177  -0.381   9.051  1.00  0.00     0.251 C 
ATOM     32  H   UNL     1       5.434  -2.316   9.483  1.00  0.00     0.163 HD
ATOM     33  O   UNL     1       6.014  -0.031   9.881  1.00  0.00    -0.269 OA
BRANCH  31  34
ATOM     34  C   UNL     1       4.451   0.652   8.267  1.00  0.00     0.039 A 
ATOM     35  C   UNL     1       5.171   1.766   7.818  1.00  0.00     0.014 A 
ATOM     36  C   UNL     1       3.076   0.582   8.023  1.00  0.00     0.014 A 
ATOM     37  C   UNL     1       4.531   2.775   7.089  1.00  0.00     0.010 A 
ATOM     38  C   UNL     1       2.445   1.568   7.253  1.00  0.00     0.010 A 
ATOM     39  C   UNL     1       3.166   2.675   6.778  1.00  0.00    -0.014 A 
BRANCH  39  40
ATOM     40  C   UNL     1       2.496   3.713   5.947  1.00  0.00     0.031 A 
ATOM     41  C   UNL     1       1.452   4.622   6.540  1.00  0.00     0.074 A 
ATOM     42  C   UNL     1       2.809   3.822   4.640  1.00  0.00     0.049 A 
ATOM     43  N   UNL     1       0.739   5.553   5.957  1.00  0.00    -0.248 NA
ATOM     44  C   UNL     1       1.167   4.458   7.973  1.00  0.00     0.031 C 
ATOM     45  C   UNL     1       3.783   2.988   3.935  1.00  0.00     0.029 A 
ATOM     46  N   UNL     1       2.336   4.672   3.670  1.00  0.00    -0.354 N 
ATOM     47  C   UNL     1      -0.086   6.079   6.945  1.00  0.00     0.074 A 
ATOM     48  C   UNL     1       0.193   5.340   8.159  1.00  0.00     0.031 C 
ATOM     49  C   UNL     1       3.845   3.375   2.650  1.00  0.00     0.029 A 
ATOM     50  C   UNL     1       2.888   4.456   2.429  1.00  0.00     0.049 A 
ATOM     51  H   UNL     1       1.665   5.371   3.847  1.00  0.00     0.167 HD
ATOM     52  C   UNL     1      -0.980   7.094   6.854  1.00  0.00     0.037 A 
ATOM     53  C   UNL     1       2.639   5.044   1.242  1.00  0.00     0.037 A 
ATOM     54  C   UNL     1      -1.248   7.837   5.648  1.00  0.00     0.049 A 
ATOM     55  C   UNL     1       1.611   6.138   1.157  1.00  0.00     0.074 A 
ATOM     56  C   UNL     1      -2.096   8.919   5.474  1.00  0.00     0.029 A 
ATOM     57  N   UNL     1      -0.684   7.573   4.409  1.00  0.00    -0.354 N 
ATOM     58  N   UNL     1       0.879   6.656   2.113  1.00  0.00    -0.248 NA
ATOM     59  C   UNL     1       1.372   6.724  -0.170  1.00  0.00     0.031 C 
ATOM     60  C   UNL     1      -2.075   9.282   4.123  1.00  0.00     0.029 A 
ATOM     61  C   UNL     1      -1.182   8.455   3.462  1.00  0.00     0.049 A 
ATOM     62  H   UNL     1      -0.027   6.863   4.228  1.00  0.00     0.167 HD
ATOM     63  C   UNL     1       0.108   7.642   1.508  1.00  0.00     0.074 A 
ATOM     64  C   UNL     1       0.470   7.657   0.106  1.00  0.00     0.031 C 
ATOM     65  C   UNL     1      -0.815   8.463   2.067  1.00  0.00     0.037 A 
BRANCH  52  66
ATOM     66  C   UNL     1      -1.742   7.467   8.096  1.00  0.00     0.058 A 
ATOM     67  C   UNL     1      -1.124   8.136   9.165  1.00  0.00     0.135 A 
ATOM     68  C   UNL     1      -3.117   7.199   8.201  1.00  0.00     0.135 A 
ATOM     69  F   UNL     1       0.190   8.409   9.122  1.00  0.00    -0.206 F 
ATOM     70  C   UNL     1      -1.834   8.500  10.305  1.00  0.00     0.059 A 
ATOM     71  C   UNL     1      -3.852   7.575   9.322  1.00  0.00     0.059 A 
ATOM     72  F   UNL     1      -3.760   6.566   7.207  1.00  0.00    -0.206 F 
ATOM     73  C   UNL     1      -3.199   8.213  10.375  1.00  0.00     0.060 A 
BRANCH  73  74
ATOM     74  S   UNL     1      -4.107   8.696  11.859  1.00  0.00     0.124 S 
ATOM     75  O   UNL     1      -3.641   7.703  12.821  1.00  0.00    -0.237 OA
ATOM     76  O   UNL     1      -3.642  10.061  12.082  1.00  0.00    -0.237 OA
ATOM     77  O   UNL     1      -5.506   8.572  11.457  1.00  0.00    -0.744 OA
ENDBRANCH  73  74
ENDBRANCH  52  66
BRANCH  53  78
ATOM     78  C   UNL     1       3.361   4.585   0.025  1.00  0.00     0.058 A 
ATOM     79  C   UNL     1       4.331   5.379  -0.600  1.00  0.00     0.135 A 
ATOM     80  C   UNL     1       3.093   3.326  -0.529  1.00  0.00     0.135 A 
ATOM     81  F   UNL     1       4.613   6.598  -0.115  1.00  0.00    -0.206 F 
ATOM     82  C   UNL     1       5.008   4.942  -1.735  1.00  0.00     0.059 A 
ATOM     83  C   UNL     1       3.769   2.856  -1.648  1.00  0.00     0.059 A 
ATOM     84  F   UNL     1       2.181   2.529   0.043  1.00  0.00    -0.206 F 
ATOM     85  C   UNL     1       4.721   3.675  -2.249  1.00  0.00     0.060 A 
BRANCH  85  86
ATOM     86  S   UNL     1       5.646   3.083  -3.683  1.00  0.00     0.124 S 
ATOM     87  O   UNL     1       5.036   3.851  -4.763  1.00  0.00    -0.237 OA
ATOM     88  O   UNL     1       7.016   3.443  -3.335  1.00  0.00    -0.237 OA
ATOM     89  O   UNL     1       5.365   1.650  -3.690  1.00  0.00    -0.744 OA
ENDBRANCH  85  86
ENDBRANCH  53  78
BRANCH  65  90
ATOM     90  C   UNL     1      -1.477   9.471   1.169  1.00  0.00     0.058 A 
ATOM     91  C   UNL     1      -2.453   9.095   0.233  1.00  0.00     0.135 A 
ATOM     92  C   UNL     1      -1.156  10.834   1.270  1.00  0.00     0.135 A 
ATOM     93  F   UNL     1      -2.790   7.804   0.089  1.00  0.00    -0.206 F 
ATOM     94  C   UNL     1      -3.072  10.034  -0.587  1.00  0.00     0.059 A 
ATOM     95  C   UNL     1      -1.780  11.792   0.477  1.00  0.00     0.059 A 
ATOM     96  F   UNL     1      -0.234  11.247   2.154  1.00  0.00    -0.206 F 
ATOM     97  C   UNL     1      -2.728  11.381  -0.458  1.00  0.00     0.060 A 
BRANCH  97  98
ATOM     98  S   UNL     1      -3.557  12.593  -1.509  1.00  0.00     0.124 S 
ATOM     99  O   UNL     1      -2.894  12.373  -2.790  1.00  0.00    -0.237 OA
ATOM    100  O   UNL     1      -4.952  12.171  -1.437  1.00  0.00    -0.237 OA
ATOM    101  O   UNL     1      -3.259  13.866  -0.858  1.00  0.00    -0.744 OA
ENDBRANCH  97  98
ENDBRANCH  65  90
ENDBRANCH  39  40
ENDBRANCH  31  34
ENDBRANCH  29  30
ENDBRANCH  28  29
ENDBRANCH  27  28
ENDBRANCH   1  27
TORSDOF 20
