REMARK SMILES C[C@H](Oc1ccnc2c(F)cc(F)cc12)C(=O)NCCCCCCNC(=O)c1ccc(-c2c3nc(c(-c4c(F)cc(S(=O)(=O)[O-])cc4F)c4ccc([nH]4)c(-c4c(F)cc(S(=O)(=O)[O-])cc4F)c4nc(c(-c5c(F)cc(S(=O)(=O)[O-])cc5F)c5ccc2[nH]5)C=C4)C=C3)cc1
REMARK SMILES IDX 22 1 21 2 20 3 19 4 18 5 16 6 17 7 2 9 1 10 3 11 4 12 5 13
REMARK SMILES IDX 15 14 6 15 8 16 14 17 7 18 9 19 12 20 10 21 11 22 13 23
REMARK SMILES IDX 23 24 24 25 25 26 26 27 27 29 28 30 29 31 93 32 30 33 92 34
REMARK SMILES IDX 31 35 32 36 33 37 86 38 34 39 91 40 85 41 87 42 35 43 90 44
REMARK SMILES IDX 84 45 83 46 36 48 70 49 49 50 69 51 50 52 53 53 68 54 88 55
REMARK SMILES IDX 51 56 52 57 67 59 89 60 54 61 37 62 38 63 47 64 39 65 40 66
REMARK SMILES IDX 46 67 48 68 41 69 42 70 43 71 44 72 45 73 71 74 72 75 81 76
REMARK SMILES IDX 73 77 74 78 80 79 82 80 75 81 76 82 77 83 78 84 79 85 55 86
REMARK SMILES IDX 56 87 65 88 57 89 58 90 64 91 66 92 59 93 60 94 61 95 62 96
REMARK SMILES IDX 63 97
REMARK H PARENT 18 8 25 28 87 47 53 58
REMARK Flexibility Score: inf
ROOT
ATOM      1  C   UNL     1      -3.536  -0.404   3.922  1.00  0.00     0.002 C 
ENDROOT
BRANCH   1   2
ATOM      2  C   UNL     1      -3.084   0.472   2.754  1.00  0.00     0.002 C 
BRANCH   2   3
ATOM      3  C   UNL     1      -1.570   0.546   2.525  1.00  0.00     0.021 C 
BRANCH   3   4
ATOM      4  C   UNL     1      -0.865  -0.793   2.312  1.00  0.00     0.116 C 
BRANCH   4   5
ATOM      5  N   UNL     1      -1.451  -1.561   1.233  1.00  0.00    -0.353 N 
ATOM      6  C   UNL     1      -0.976  -1.840  -0.009  1.00  0.00     0.260 C 
ATOM      7  O   UNL     1      -1.702  -2.487  -0.772  1.00  0.00    -0.271 OA
ATOM      8  H   UNL     1      -2.337  -1.942   1.431  1.00  0.00     0.163 HD
BRANCH   6   9
ATOM      9  C   UNL     1       0.434  -1.396  -0.469  1.00  0.00     0.258 C 
ATOM     10  C   UNL     1       1.452  -2.352   0.161  1.00  0.00     0.064 C 
BRANCH   9  11
ATOM     11  O   UNL     1       0.901  -0.078  -0.225  1.00  0.00    -0.480 OA
BRANCH  11  12
ATOM     12  C   UNL     1       0.141   1.005  -0.588  1.00  0.00     0.131 A 
ATOM     13  C   UNL     1      -1.044   0.934  -1.307  1.00  0.00     0.067 A 
ATOM     14  C   UNL     1       0.599   2.258  -0.114  1.00  0.00     0.048 A 
ATOM     15  C   UNL     1      -1.788   2.088  -1.442  1.00  0.00     0.115 A 
ATOM     16  C   UNL     1      -0.236   3.381  -0.303  1.00  0.00     0.110 A 
ATOM     17  C   UNL     1       1.838   2.421   0.547  1.00  0.00     0.053 A 
ATOM     18  N   UNL     1      -1.417   3.285  -0.947  1.00  0.00    -0.253 NA
ATOM     19  C   UNL     1       0.195   4.608   0.213  1.00  0.00     0.152 A 
ATOM     20  C   UNL     1       2.234   3.667   1.014  1.00  0.00     0.127 A 
ATOM     21  F   UNL     1      -0.586   5.694   0.084  1.00  0.00    -0.204 F 
ATOM     22  C   UNL     1       1.415   4.767   0.864  1.00  0.00     0.080 A 
ATOM     23  F   UNL     1       3.423   3.801   1.614  1.00  0.00    -0.207 F 
ENDBRANCH  11  12
ENDBRANCH   9  11
ENDBRANCH   6   9
ENDBRANCH   4   5
ENDBRANCH   3   4
ENDBRANCH   2   3
ENDBRANCH   1   2
BRANCH   1  24
ATOM     24  C   UNL     1      -2.840  -0.125   5.255  1.00  0.00     0.021 C 
BRANCH  24  25
ATOM     25  C   UNL     1      -2.894   1.327   5.714  1.00  0.00     0.116 C 
BRANCH  25  26
ATOM     26  N   UNL     1      -4.244   1.744   6.051  1.00  0.00    -0.352 N 
ATOM     27  C   UNL     1      -4.721   2.183   7.261  1.00  0.00     0.251 C 
ATOM     28  H   UNL     1      -4.901   1.708   5.318  1.00  0.00     0.163 HD
ATOM     29  O   UNL     1      -5.926   2.328   7.444  1.00  0.00    -0.269 OA
BRANCH  27  30
ATOM     30  C   UNL     1      -3.761   2.456   8.349  1.00  0.00     0.039 A 
ATOM     31  C   UNL     1      -3.935   1.826   9.582  1.00  0.00     0.014 A 
ATOM     32  C   UNL     1      -2.677   3.313   8.132  1.00  0.00     0.014 A 
ATOM     33  C   UNL     1      -2.990   2.019  10.591  1.00  0.00     0.010 A 
ATOM     34  C   UNL     1      -1.709   3.464   9.120  1.00  0.00     0.010 A 
ATOM     35  C   UNL     1      -1.863   2.825  10.360  1.00  0.00    -0.014 A 
BRANCH  35  36
ATOM     36  C   UNL     1      -0.859   3.050  11.427  1.00  0.00     0.031 A 
ATOM     37  C   UNL     1      -0.767   4.398  12.084  1.00  0.00     0.074 A 
ATOM     38  C   UNL     1      -0.017   2.059  11.780  1.00  0.00     0.049 A 
ATOM     39  N   UNL     1       0.053   4.806  13.017  1.00  0.00    -0.248 NA
ATOM     40  C   UNL     1      -1.710   5.427  11.617  1.00  0.00     0.031 C 
ATOM     41  C   UNL     1       0.006   0.719  11.192  1.00  0.00     0.029 A 
ATOM     42  N   UNL     1       0.986   2.030  12.716  1.00  0.00    -0.354 N 
ATOM     43  C   UNL     1      -0.279   6.134  13.254  1.00  0.00     0.074 A 
ATOM     44  C   UNL     1      -1.334   6.481  12.327  1.00  0.00     0.031 C 
ATOM     45  C   UNL     1       0.962  -0.008  11.795  1.00  0.00     0.029 A 
ATOM     46  C   UNL     1       1.634   0.820  12.793  1.00  0.00     0.049 A 
ATOM     47  H   UNL     1       1.218   2.802  13.280  1.00  0.00     0.167 HD
ATOM     48  C   UNL     1       0.229   6.979  14.181  1.00  0.00     0.037 A 
ATOM     49  C   UNL     1       2.654   0.426  13.582  1.00  0.00     0.037 A 
ATOM     50  C   UNL     1       1.267   6.624  15.111  1.00  0.00     0.049 A 
ATOM     51  C   UNL     1       3.225   1.393  14.582  1.00  0.00     0.074 A 
ATOM     52  C   UNL     1       1.822   7.396  16.115  1.00  0.00     0.029 A 
ATOM     53  N   UNL     1       1.908   5.395  15.149  1.00  0.00    -0.354 N 
ATOM     54  N   UNL     1       2.866   2.631  14.829  1.00  0.00    -0.248 NA
ATOM     55  C   UNL     1       4.339   0.913  15.413  1.00  0.00     0.031 C 
ATOM     56  C   UNL     1       2.824   6.645  16.739  1.00  0.00     0.029 A 
ATOM     57  C   UNL     1       2.867   5.393  16.147  1.00  0.00     0.049 A 
ATOM     58  H   UNL     1       1.710   4.636  14.553  1.00  0.00     0.167 HD
ATOM     59  C   UNL     1       3.693   3.070  15.856  1.00  0.00     0.074 A 
ATOM     60  C   UNL     1       4.567   1.964  16.191  1.00  0.00     0.031 C 
ATOM     61  C   UNL     1       3.726   4.280  16.466  1.00  0.00     0.037 A 
BRANCH  48  62
ATOM     62  C   UNL     1      -0.348   8.364  14.245  1.00  0.00     0.058 A 
ATOM     63  C   UNL     1      -1.633   8.594  14.761  1.00  0.00     0.135 A 
ATOM     64  C   UNL     1       0.398   9.473  13.817  1.00  0.00     0.135 A 
ATOM     65  F   UNL     1      -2.394   7.565  15.165  1.00  0.00    -0.206 F 
ATOM     66  C   UNL     1      -2.168   9.875  14.832  1.00  0.00     0.059 A 
ATOM     67  C   UNL     1      -0.109  10.767  13.901  1.00  0.00     0.059 A 
ATOM     68  F   UNL     1       1.629   9.306  13.311  1.00  0.00    -0.206 F 
ATOM     69  C   UNL     1      -1.398  10.956  14.399  1.00  0.00     0.060 A 
BRANCH  69  70
ATOM     70  S   UNL     1      -2.105  12.613  14.508  1.00  0.00     0.124 S 
ATOM     71  O   UNL     1      -3.093  12.579  13.434  1.00  0.00    -0.237 OA
ATOM     72  O   UNL     1      -2.644  12.634  15.864  1.00  0.00    -0.237 OA
ATOM     73  O   UNL     1      -0.960  13.488  14.278  1.00  0.00    -0.744 OA
ENDBRANCH  69  70
ENDBRANCH  48  62
BRANCH  49  74
ATOM     74  C   UNL     1       3.176  -0.961  13.478  1.00  0.00     0.058 A 
ATOM     75  C   UNL     1       2.908  -1.906  14.479  1.00  0.00     0.135 A 
ATOM     76  C   UNL     1       3.931  -1.377  12.370  1.00  0.00     0.135 A 
ATOM     77  F   UNL     1       2.197  -1.553  15.560  1.00  0.00    -0.206 F 
ATOM     78  C   UNL     1       3.373  -3.214  14.390  1.00  0.00     0.059 A 
ATOM     79  C   UNL     1       4.391  -2.685  12.249  1.00  0.00     0.059 A 
ATOM     80  F   UNL     1       4.203  -0.513  11.380  1.00  0.00    -0.206 F 
ATOM     81  C   UNL     1       4.111  -3.595  13.268  1.00  0.00     0.060 A 
BRANCH  81  82
ATOM     82  S   UNL     1       4.656  -5.312  13.133  1.00  0.00     0.124 S 
ATOM     83  O   UNL     1       5.715  -5.364  14.134  1.00  0.00    -0.237 OA
ATOM     84  O   UNL     1       3.436  -6.046  13.456  1.00  0.00    -0.237 OA
ATOM     85  O   UNL     1       5.092  -5.418  11.744  1.00  0.00    -0.744 OA
ENDBRANCH  81  82
ENDBRANCH  49  74
BRANCH  61  86
ATOM     86  C   UNL     1       4.729   4.478  17.567  1.00  0.00     0.058 A 
ATOM     87  C   UNL     1       6.088   4.679  17.288  1.00  0.00     0.135 A 
ATOM     88  C   UNL     1       4.312   4.555  18.906  1.00  0.00     0.135 A 
ATOM     89  F   UNL     1       6.537   4.607  16.025  1.00  0.00    -0.206 F 
ATOM     90  C   UNL     1       7.004   4.946  18.300  1.00  0.00     0.059 A 
ATOM     91  C   UNL     1       5.206   4.842  19.932  1.00  0.00     0.059 A 
ATOM     92  F   UNL     1       3.019   4.378  19.223  1.00  0.00    -0.206 F 
ATOM     93  C   UNL     1       6.552   5.032  19.619  1.00  0.00     0.060 A 
BRANCH  93  94
ATOM     94  S   UNL     1       7.741   5.441  20.914  1.00  0.00     0.124 S 
ATOM     95  O   UNL     1       8.489   4.194  21.031  1.00  0.00    -0.237 OA
ATOM     96  O   UNL     1       8.468   6.563  20.328  1.00  0.00    -0.237 OA
ATOM     97  O   UNL     1       6.897   5.777  22.058  1.00  0.00    -0.744 OA
ENDBRANCH  93  94
ENDBRANCH  61  86
ENDBRANCH  35  36
ENDBRANCH  27  30
ENDBRANCH  25  26
ENDBRANCH  24  25
ENDBRANCH   1  24
TORSDOF 18
