REMARK SMILES Cc1ccc(NC(=O)C[C@@H](C(=O)NCCCCCCNC(=O)c2ccc(-c3c4nc(c(-c5c(F)cc(S(=O)(=O)[O-])cc5F)c5ccc([nH]5)c(-c5c(F)cc(S(=O)(=O)[O-])cc5F)c5nc(c(-c6c(F)cc(S(=O)(=O)[O-])cc6F)c6ccc3[nH]6)C=C5)C=C4)cc2)[C@@H](C)c2ccccc2)cc1Br
REMARK SMILES IDX 16 1 15 2 14 3 13 4 11 5 12 6 10 8 9 9 7 10 6 11 8 13 5 14
REMARK SMILES IDX 1 15 2 16 3 17 98 18 4 19 97 20 99 21 89 22 90 23 91 24
REMARK SMILES IDX 92 25 96 26 93 27 95 28 94 29 17 30 18 31 19 32 20 33 21 34
REMARK SMILES IDX 22 36 23 37 24 38 88 39 25 40 87 41 26 42 27 43 28 44 81 45
REMARK SMILES IDX 29 46 86 47 80 48 82 49 30 50 85 51 79 52 78 53 31 55 65 56
REMARK SMILES IDX 44 57 64 58 45 59 48 60 63 61 83 62 46 63 47 64 62 66 84 67
REMARK SMILES IDX 49 68 32 69 33 70 42 71 34 72 35 73 41 74 43 75 36 76 37 77
REMARK SMILES IDX 38 78 39 79 40 80 66 81 67 82 76 83 68 84 69 85 75 86 77 87
REMARK SMILES IDX 70 88 71 89 72 90 73 91 74 92 50 93 51 94 60 95 52 96 53 97
REMARK SMILES IDX 59 98 61 99 54 100 55 101 56 102 57 103 58 104
REMARK H PARENT 13 7 6 12 20 35 82 54 48 65
REMARK Flexibility Score: inf
ROOT
ATOM      1  C   UNL     1       5.153   1.460  -0.886  1.00  0.00     0.002 C 
ENDROOT
BRANCH   1   2
ATOM      2  C   UNL     1       4.484   2.839  -0.766  1.00  0.00     0.021 C 
BRANCH   2   3
ATOM      3  C   UNL     1       3.432   3.177  -1.829  1.00  0.00     0.116 C 
BRANCH   3   4
ATOM      4  N   UNL     1       2.432   2.135  -1.918  1.00  0.00    -0.356 N 
ATOM      5  C   UNL     1       1.109   2.067  -1.645  1.00  0.00     0.224 C 
ATOM      6  O   UNL     1       0.652   0.925  -1.675  1.00  0.00    -0.275 OA
ATOM      7  H   UNL     1       2.797   1.283  -2.252  1.00  0.00     0.163 HD
BRANCH   5   8
ATOM      8  C   UNL     1       0.249   3.301  -1.353  1.00  0.00     0.095 C 
BRANCH   8   9
ATOM      9  C   UNL     1       0.428   3.932   0.054  1.00  0.00     0.114 C 
BRANCH   9  10
ATOM     10  C   UNL     1       1.649   3.744   0.920  1.00  0.00     0.225 C 
ATOM     11  N   UNL     1       1.965   2.579   1.550  1.00  0.00    -0.326 N 
ATOM     12  H   UNL     1       2.692   2.658   2.209  1.00  0.00     0.169 HD
ATOM     13  O   UNL     1       2.416   4.700   1.088  1.00  0.00    -0.275 OA
BRANCH  11  14
ATOM     14  C   UNL     1       1.438   1.290   1.423  1.00  0.00     0.042 A 
ATOM     15  C   UNL     1       0.205  -2.653   0.219  1.00  0.00     0.045 C 
ATOM     16  C   UNL     1       0.600  -1.310   0.760  1.00  0.00    -0.037 A 
ATOM     17  C   UNL     1       1.958  -1.026   0.946  1.00  0.00     0.007 A 
ATOM     18  C   UNL     1      -0.336  -0.298   1.030  1.00  0.00     0.022 A 
ATOM     19  C   UNL     1       2.369   0.254   1.314  1.00  0.00     0.026 A 
ATOM     20  C   UNL     1       0.081   1.001   1.347  1.00  0.00     0.042 A 
ATOM     21  Br  UNL     1      -2.208  -0.620   0.945  1.00  0.00    -0.050 Br
ENDBRANCH  11  14
ENDBRANCH   9  10
ENDBRANCH   8   9
BRANCH   8  22
ATOM     22  C   UNL     1      -1.312   3.061  -1.555  1.00  0.00     0.029 C 
ATOM     23  C   UNL     1      -2.094   4.389  -1.378  1.00  0.00     0.013 C 
BRANCH  22  24
ATOM     24  C   UNL     1      -1.797   2.339  -2.816  1.00  0.00    -0.044 A 
ATOM     25  C   UNL     1      -2.271   3.003  -3.957  1.00  0.00     0.004 A 
ATOM     26  C   UNL     1      -1.888   0.935  -2.809  1.00  0.00     0.004 A 
ATOM     27  C   UNL     1      -2.807   2.289  -5.037  1.00  0.00     0.000 A 
ATOM     28  C   UNL     1      -2.376   0.217  -3.902  1.00  0.00     0.000 A 
ATOM     29  C   UNL     1      -2.846   0.897  -5.016  1.00  0.00     0.000 A 
ENDBRANCH  22  24
ENDBRANCH   8  22
ENDBRANCH   5   8
ENDBRANCH   3   4
ENDBRANCH   2   3
ENDBRANCH   1   2
BRANCH   1  30
ATOM     30  C   UNL     1       6.196   1.340  -1.993  1.00  0.00     0.002 C 
BRANCH  30  31
ATOM     31  C   UNL     1       7.281   2.415  -1.957  1.00  0.00     0.021 C 
BRANCH  31  32
ATOM     32  C   UNL     1       7.921   2.628  -0.589  1.00  0.00     0.116 C 
BRANCH  32  33
ATOM     33  N   UNL     1       8.700   1.477  -0.160  1.00  0.00    -0.352 N 
ATOM     34  C   UNL     1      10.047   1.419   0.102  1.00  0.00     0.251 C 
ATOM     35  H   UNL     1       8.201   0.637  -0.043  1.00  0.00     0.163 HD
ATOM     36  O   UNL     1      10.610   0.342   0.269  1.00  0.00    -0.269 OA
BRANCH  34  37
ATOM     37  C   UNL     1      10.809   2.683   0.153  1.00  0.00     0.039 A 
ATOM     38  C   UNL     1      11.937   2.831  -0.654  1.00  0.00     0.014 A 
ATOM     39  C   UNL     1      10.353   3.741   0.946  1.00  0.00     0.014 A 
ATOM     40  C   UNL     1      12.580   4.069  -0.708  1.00  0.00     0.010 A 
ATOM     41  C   UNL     1      10.944   4.993   0.824  1.00  0.00     0.010 A 
ATOM     42  C   UNL     1      12.069   5.168   0.004  1.00  0.00    -0.014 A 
BRANCH  42  43
ATOM     43  C   UNL     1      12.709   6.506  -0.087  1.00  0.00     0.031 A 
ATOM     44  C   UNL     1      13.311   7.133   1.142  1.00  0.00     0.074 A 
ATOM     45  C   UNL     1      12.703   7.174  -1.257  1.00  0.00     0.049 A 
ATOM     46  N   UNL     1      13.876   8.304   1.279  1.00  0.00    -0.248 NA
ATOM     47  C   UNL     1      13.245   6.351   2.388  1.00  0.00     0.031 C 
ATOM     48  C   UNL     1      12.102   6.693  -2.504  1.00  0.00     0.029 A 
ATOM     49  N   UNL     1      13.211   8.405  -1.590  1.00  0.00    -0.354 N 
ATOM     50  C   UNL     1      14.221   8.403   2.622  1.00  0.00     0.074 A 
ATOM     51  C   UNL     1      13.745   7.202   3.270  1.00  0.00     0.031 C 
ATOM     52  C   UNL     1      12.302   7.604  -3.470  1.00  0.00     0.029 A 
ATOM     53  C   UNL     1      13.008   8.751  -2.906  1.00  0.00     0.049 A 
ATOM     54  H   UNL     1      13.677   8.986  -0.947  1.00  0.00     0.167 HD
ATOM     55  C   UNL     1      14.897   9.393   3.252  1.00  0.00     0.037 A 
ATOM     56  C   UNL     1      13.347   9.868  -3.579  1.00  0.00     0.037 A 
ATOM     57  C   UNL     1      15.386  10.575   2.593  1.00  0.00     0.049 A 
ATOM     58  C   UNL     1      14.092  10.958  -2.856  1.00  0.00     0.074 A 
ATOM     59  C   UNL     1      16.132  11.611   3.126  1.00  0.00     0.029 A 
ATOM     60  N   UNL     1      15.171  10.884   1.257  1.00  0.00    -0.354 N 
ATOM     61  N   UNL     1      14.475  11.003  -1.602  1.00  0.00    -0.248 NA
ATOM     62  C   UNL     1      14.459  12.146  -3.639  1.00  0.00     0.031 C 
ATOM     63  C   UNL     1      16.325  12.570   2.127  1.00  0.00     0.029 A 
ATOM     64  C   UNL     1      15.749  12.106   0.954  1.00  0.00     0.049 A 
ATOM     65  H   UNL     1      14.681  10.318   0.618  1.00  0.00     0.167 HD
ATOM     66  C   UNL     1      15.150  12.210  -1.452  1.00  0.00     0.074 A 
ATOM     67  C   UNL     1      15.136  12.857  -2.748  1.00  0.00     0.031 C 
ATOM     68  C   UNL     1      15.729  12.735  -0.344  1.00  0.00     0.037 A 
BRANCH  55  69
ATOM     69  C   UNL     1      15.151   9.235   4.727  1.00  0.00     0.058 A 
ATOM     70  C   UNL     1      16.031   8.260   5.226  1.00  0.00     0.135 A 
ATOM     71  C   UNL     1      14.529  10.088   5.654  1.00  0.00     0.135 A 
ATOM     72  F   UNL     1      16.641   7.407   4.388  1.00  0.00    -0.206 F 
ATOM     73  C   UNL     1      16.259   8.115   6.590  1.00  0.00     0.059 A 
ATOM     74  C   UNL     1      14.768   9.981   7.021  1.00  0.00     0.059 A 
ATOM     75  F   UNL     1      13.677  11.037   5.234  1.00  0.00    -0.206 F 
ATOM     76  C   UNL     1      15.623   8.981   7.480  1.00  0.00     0.060 A 
BRANCH  76  77
ATOM     77  S   UNL     1      15.936   8.781   9.247  1.00  0.00     0.124 S 
ATOM     78  O   UNL     1      15.214   7.545   9.532  1.00  0.00    -0.237 OA
ATOM     79  O   UNL     1      17.392   8.690   9.297  1.00  0.00    -0.237 OA
ATOM     80  O   UNL     1      15.366   9.990   9.833  1.00  0.00    -0.744 OA
ENDBRANCH  76  77
ENDBRANCH  55  69
BRANCH  56  81
ATOM     81  C   UNL     1      13.005  10.001  -5.022  1.00  0.00     0.058 A 
ATOM     82  C   UNL     1      14.003   9.981  -6.007  1.00  0.00     0.135 A 
ATOM     83  C   UNL     1      11.674  10.138  -5.446  1.00  0.00     0.135 A 
ATOM     84  F   UNL     1      15.292   9.859  -5.654  1.00  0.00    -0.206 F 
ATOM     85  C   UNL     1      13.698  10.108  -7.359  1.00  0.00     0.059 A 
ATOM     86  C   UNL     1      11.341  10.239  -6.793  1.00  0.00     0.059 A 
ATOM     87  F   UNL     1      10.678  10.147  -4.545  1.00  0.00    -0.206 F 
ATOM     88  C   UNL     1      12.361  10.234  -7.742  1.00  0.00     0.060 A 
BRANCH  88  89
ATOM     89  S   UNL     1      11.972  10.348  -9.502  1.00  0.00     0.124 S 
ATOM     90  O   UNL     1      12.444  11.691  -9.821  1.00  0.00    -0.237 OA
ATOM     91  O   UNL     1      12.752   9.248 -10.059  1.00  0.00    -0.237 OA
ATOM     92  O   UNL     1      10.525  10.162  -9.538  1.00  0.00    -0.744 OA
ENDBRANCH  88  89
ENDBRANCH  56  81
BRANCH  68  93
ATOM     93  C   UNL     1      16.426  14.060  -0.487  1.00  0.00     0.058 A 
ATOM     94  C   UNL     1      15.713  15.255  -0.665  1.00  0.00     0.135 A 
ATOM     95  C   UNL     1      17.825  14.141  -0.388  1.00  0.00     0.135 A 
ATOM     96  F   UNL     1      14.374  15.235  -0.772  1.00  0.00    -0.206 F 
ATOM     97  C   UNL     1      16.363  16.481  -0.765  1.00  0.00     0.059 A 
ATOM     98  C   UNL     1      18.494  15.359  -0.454  1.00  0.00     0.059 A 
ATOM     99  F   UNL     1      18.556  13.029  -0.206  1.00  0.00    -0.206 F 
ATOM    100  C   UNL     1      17.754  16.523  -0.655  1.00  0.00     0.060 A 
BRANCH 100 101
ATOM    101  S   UNL     1      18.581  18.124  -0.752  1.00  0.00     0.124 S 
ATOM    102  O   UNL     1      18.453  18.436  -2.172  1.00  0.00    -0.237 OA
ATOM    103  O   UNL     1      17.780  18.944   0.152  1.00  0.00    -0.237 OA
ATOM    104  O   UNL     1      19.937  17.836  -0.293  1.00  0.00    -0.744 OA
ENDBRANCH 100 101
ENDBRANCH  68  93
ENDBRANCH  42  43
ENDBRANCH  34  37
ENDBRANCH  32  33
ENDBRANCH  31  32
ENDBRANCH  30  31
ENDBRANCH   1  30
TORSDOF 21
