REMARK SMILES O=C(NCCCCCCNC(=O)c1cc(S(=O)(=O)NNC(=O)[C@H]2C=C(c3ccccc3)N=N2)ccc1F)c1ccc(-c2c3nc(c(-c4c(F)cc(S(=O)(=O)[O-])cc4F)c4ccc([nH]4)c(-c4c(F)cc(S(=O)(=O)[O-])cc4F)c4nc(c(-c5c(F)cc(S(=O)(=O)[O-])cc5F)c5ccc2[nH]5)C=C4)C=C3)cc1
REMARK SMILES IDX 7 1 6 2 5 3 4 4 3 5 1 6 2 7 38 9 39 10 103 11 40 12 102 13
REMARK SMILES IDX 41 14 42 15 43 16 96 17 44 18 101 19 95 20 97 21 45 22
REMARK SMILES IDX 100 23 94 24 93 25 46 27 80 28 59 29 79 30 60 31 63 32 78 33
REMARK SMILES IDX 98 34 61 35 62 36 77 38 99 39 64 40 47 41 48 42 57 43 49 44
REMARK SMILES IDX 50 45 56 46 58 47 51 48 52 49 53 50 54 51 55 52 81 53 82 54
REMARK SMILES IDX 91 55 83 56 84 57 90 58 92 59 85 60 86 61 87 62 88 63 89 64
REMARK SMILES IDX 65 65 66 66 75 67 67 68 68 69 74 70 76 71 69 72 70 73 71 74
REMARK SMILES IDX 72 75 73 76 8 77 9 78 10 79 11 80 12 82 13 83 14 84 36 85
REMARK SMILES IDX 15 86 35 87 37 88 34 89 16 90 17 91 18 92 19 93 20 95 21 96
REMARK SMILES IDX 22 98 23 99 24 100 33 101 25 102 32 103 26 104 27 105 31 106
REMARK SMILES IDX 28 107 30 108 29 109
REMARK H PARENT 3 8 97 26 63 37 10 81 19 94 20 97
REMARK Flexibility Score: inf
ROOT
ATOM      1  C   UNL     1      18.249   1.944  19.587  1.00  0.00     0.002 C 
ENDROOT
BRANCH   1   2
ATOM      2  C   UNL     1      17.298   2.276  20.743  1.00  0.00     0.002 C 
BRANCH   2   3
ATOM      3  C   UNL     1      16.003   1.456  20.801  1.00  0.00     0.021 C 
BRANCH   3   4
ATOM      4  C   UNL     1      16.201  -0.058  20.753  1.00  0.00     0.116 C 
BRANCH   4   5
ATOM      5  N   UNL     1      16.973  -0.587  21.858  1.00  0.00    -0.352 N 
ATOM      6  O   UNL     1      17.635  -1.312  23.837  1.00  0.00    -0.269 OA
ATOM      7  C   UNL     1      16.712  -0.825  23.179  1.00  0.00     0.251 C 
ATOM      8  H   UNL     1      17.891  -0.831  21.600  1.00  0.00     0.163 HD
BRANCH   7   9
ATOM      9  C   UNL     1      15.428  -0.509  23.866  1.00  0.00     0.039 A 
ATOM     10  C   UNL     1      14.199  -0.317  23.233  1.00  0.00     0.014 A 
ATOM     11  C   UNL     1      15.473  -0.450  25.271  1.00  0.00     0.014 A 
ATOM     12  C   UNL     1      13.055  -0.028  23.975  1.00  0.00     0.010 A 
ATOM     13  C   UNL     1      14.325  -0.189  26.019  1.00  0.00     0.010 A 
ATOM     14  C   UNL     1      13.113   0.038  25.369  1.00  0.00    -0.014 A 
BRANCH  14  15
ATOM     15  C   UNL     1      11.854   0.221  26.096  1.00  0.00     0.031 A 
ATOM     16  C   UNL     1      10.846  -0.881  25.979  1.00  0.00     0.074 A 
ATOM     17  C   UNL     1      11.636   1.209  26.986  1.00  0.00     0.049 A 
ATOM     18  N   UNL     1       9.602  -0.820  25.617  1.00  0.00    -0.248 NA
ATOM     19  C   UNL     1      11.310  -2.244  26.288  1.00  0.00     0.031 C 
ATOM     20  C   UNL     1      12.603   2.172  27.515  1.00  0.00     0.029 A 
ATOM     21  N   UNL     1      10.503   1.474  27.700  1.00  0.00    -0.354 N 
ATOM     22  C   UNL     1       9.079  -2.100  25.806  1.00  0.00     0.074 A 
ATOM     23  C   UNL     1      10.193  -2.954  26.135  1.00  0.00     0.031 C 
ATOM     24  C   UNL     1      12.079   2.763  28.612  1.00  0.00     0.029 A 
ATOM     25  C   UNL     1      10.705   2.316  28.781  1.00  0.00     0.049 A 
ATOM     26  H   UNL     1       9.622   1.102  27.467  1.00  0.00     0.167 HD
ATOM     27  C   UNL     1       7.745  -2.376  25.823  1.00  0.00     0.037 A 
ATOM     28  C   UNL     1       9.835   2.559  29.791  1.00  0.00     0.037 A 
ATOM     29  C   UNL     1       6.952  -1.326  25.253  1.00  0.00     0.049 A 
ATOM     30  C   UNL     1       8.474   2.187  29.327  1.00  0.00     0.074 A 
ATOM     31  C   UNL     1       6.856  -0.743  24.006  1.00  0.00     0.029 A 
ATOM     32  N   UNL     1       6.254  -0.502  26.100  1.00  0.00    -0.354 N 
ATOM     33  N   UNL     1       7.804   2.812  28.398  1.00  0.00    -0.248 NA
ATOM     34  C   UNL     1       7.955   0.878  29.693  1.00  0.00     0.031 C 
ATOM     35  C   UNL     1       6.518   0.620  24.253  1.00  0.00     0.029 A 
ATOM     36  C   UNL     1       6.426   0.778  25.637  1.00  0.00     0.049 A 
ATOM     37  H   UNL     1       5.731  -0.777  26.888  1.00  0.00     0.167 HD
ATOM     38  C   UNL     1       7.030   1.833  27.795  1.00  0.00     0.074 A 
ATOM     39  C   UNL     1       7.066   0.703  28.714  1.00  0.00     0.031 C 
ATOM     40  C   UNL     1       6.652   1.928  26.487  1.00  0.00     0.037 A 
BRANCH  27  41
ATOM     41  C   UNL     1       7.134  -3.522  26.589  1.00  0.00     0.058 A 
ATOM     42  C   UNL     1       7.687  -4.005  27.795  1.00  0.00     0.135 A 
ATOM     43  C   UNL     1       5.849  -4.003  26.267  1.00  0.00     0.135 A 
ATOM     44  F   UNL     1       8.848  -3.533  28.270  1.00  0.00    -0.206 F 
ATOM     45  C   UNL     1       7.034  -4.927  28.606  1.00  0.00     0.059 A 
ATOM     46  C   UNL     1       5.154  -4.891  27.092  1.00  0.00     0.059 A 
ATOM     47  F   UNL     1       5.217  -3.572  25.163  1.00  0.00    -0.206 F 
ATOM     48  C   UNL     1       5.758  -5.350  28.259  1.00  0.00     0.060 A 
BRANCH  48  49
ATOM     49  S   UNL     1       4.873  -6.413  29.418  1.00  0.00     0.124 S 
ATOM     50  O   UNL     1       5.569  -7.683  29.239  1.00  0.00    -0.237 OA
ATOM     51  O   UNL     1       5.101  -5.735  30.690  1.00  0.00    -0.237 OA
ATOM     52  O   UNL     1       3.498  -6.372  28.928  1.00  0.00    -0.744 OA
ENDBRANCH  48  49
ENDBRANCH  27  41
BRANCH  28  53
ATOM     53  C   UNL     1      10.148   2.784  31.225  1.00  0.00     0.058 A 
ATOM     54  C   UNL     1      11.313   2.253  31.816  1.00  0.00     0.135 A 
ATOM     55  C   UNL     1       9.176   3.286  32.108  1.00  0.00     0.135 A 
ATOM     56  F   UNL     1      12.276   1.688  31.073  1.00  0.00    -0.206 F 
ATOM     57  C   UNL     1      11.489   2.191  33.195  1.00  0.00     0.059 A 
ATOM     58  C   UNL     1       9.324   3.221  33.497  1.00  0.00     0.059 A 
ATOM     59  F   UNL     1       8.026   3.786  31.631  1.00  0.00    -0.206 F 
ATOM     60  C   UNL     1      10.475   2.648  34.030  1.00  0.00     0.060 A 
BRANCH  60  61
ATOM     61  S   UNL     1      10.662   2.377  35.805  1.00  0.00     0.124 S 
ATOM     62  O   UNL     1      10.746   0.921  35.876  1.00  0.00    -0.237 OA
ATOM     63  O   UNL     1      11.899   3.096  36.093  1.00  0.00    -0.237 OA
ATOM     64  O   UNL     1       9.451   2.963  36.370  1.00  0.00    -0.744 OA
ENDBRANCH  60  61
ENDBRANCH  28  53
BRANCH  40  65
ATOM     65  C   UNL     1       6.776   3.262  25.797  1.00  0.00     0.058 A 
ATOM     66  C   UNL     1       5.633   3.818  25.201  1.00  0.00     0.135 A 
ATOM     67  C   UNL     1       8.001   3.910  25.562  1.00  0.00     0.135 A 
ATOM     68  F   UNL     1       4.440   3.215  25.340  1.00  0.00    -0.206 F 
ATOM     69  C   UNL     1       5.698   4.956  24.402  1.00  0.00     0.059 A 
ATOM     70  C   UNL     1       8.086   5.073  24.794  1.00  0.00     0.059 A 
ATOM     71  F   UNL     1       9.152   3.389  26.010  1.00  0.00    -0.206 F 
ATOM     72  C   UNL     1       6.931   5.576  24.199  1.00  0.00     0.060 A 
BRANCH  72  73
ATOM     73  S   UNL     1       7.002   7.017  23.114  1.00  0.00     0.124 S 
ATOM     74  O   UNL     1       6.768   6.417  21.803  1.00  0.00    -0.237 OA
ATOM     75  O   UNL     1       5.919   7.852  23.626  1.00  0.00    -0.237 OA
ATOM     76  O   UNL     1       8.347   7.546  23.324  1.00  0.00    -0.744 OA
ENDBRANCH  72  73
ENDBRANCH  40  65
ENDBRANCH  14  15
ENDBRANCH   7   9
ENDBRANCH   4   5
ENDBRANCH   3   4
ENDBRANCH   2   3
ENDBRANCH   1   2
BRANCH   1  77
ATOM     77  C   UNL     1      17.623   1.952  18.191  1.00  0.00     0.021 C 
BRANCH  77  78
ATOM     78  C   UNL     1      17.002   3.280  17.773  1.00  0.00     0.116 C 
BRANCH  78  79
ATOM     79  N   UNL     1      18.004   4.311  17.557  1.00  0.00    -0.352 N 
ATOM     80  C   UNL     1      18.216   5.088  16.448  1.00  0.00     0.254 C 
ATOM     81  H   UNL     1      18.615   4.473  18.312  1.00  0.00     0.163 HD
ATOM     82  O   UNL     1      19.187   5.836  16.380  1.00  0.00    -0.269 OA
BRANCH  80  83
ATOM     83  C   UNL     1      17.321   4.973  15.284  1.00  0.00     0.076 A 
ATOM     84  C   UNL     1      17.890   4.736  14.032  1.00  0.00     0.038 A 
ATOM     85  C   UNL     1      15.940   5.116  15.401  1.00  0.00     0.136 A 
ATOM     86  C   UNL     1      17.057   4.566  12.920  1.00  0.00     0.085 A 
ATOM     87  C   UNL     1      15.111   4.915  14.299  1.00  0.00     0.041 A 
ATOM     88  F   UNL     1      15.377   5.423  16.577  1.00  0.00    -0.206 F 
ATOM     89  C   UNL     1      15.666   4.616  13.054  1.00  0.00     0.025 A 
BRANCH  86  90
ATOM     90  S   UNL     1      17.854   4.418  11.346  1.00  0.00     0.257 S 
ATOM     91  O   UNL     1      18.702   5.586  11.197  1.00  0.00    -0.205 OA
ATOM     92  O   UNL     1      18.369   3.075  11.251  1.00  0.00    -0.205 OA
BRANCH  90  93
ATOM     93  N   UNL     1      16.625   4.558  10.188  1.00  0.00    -0.123 NA
ATOM     94  H   UNL     1      15.911   3.873  10.432  1.00  0.00     0.167 HD
BRANCH  93  95
ATOM     95  N   UNL     1      15.946   5.819  10.002  1.00  0.00    -0.275 N 
ATOM     96  C   UNL     1      15.595   6.360   8.790  1.00  0.00     0.265 C 
ATOM     97  H   UNL     1      15.715   6.332  10.810  1.00  0.00     0.186 HD
ATOM     98  O   UNL     1      14.865   7.358   8.786  1.00  0.00    -0.271 OA
BRANCH  96  99
ATOM     99  C   UNL     1      16.255   5.882   7.496  1.00  0.00     0.244 C 
ATOM    100  C   UNL     1      17.637   6.419   7.424  1.00  0.00     0.042 C 
ATOM    101  N   UNL     1      16.472   4.410   7.462  1.00  0.00    -0.171 NA
ATOM    102  C   UNL     1      18.427   5.346   7.380  1.00  0.00     0.091 C 
ATOM    103  N   UNL     1      17.713   4.170   7.365  1.00  0.00    -0.155 NA
BRANCH 102 104
ATOM    104  C   UNL     1      19.889   5.382   7.399  1.00  0.00     0.002 A 
ATOM    105  C   UNL     1      20.628   4.684   6.437  1.00  0.00     0.010 A 
ATOM    106  C   UNL     1      20.575   6.090   8.397  1.00  0.00     0.010 A 
ATOM    107  C   UNL     1      22.026   4.706   6.465  1.00  0.00     0.001 A 
ATOM    108  C   UNL     1      21.970   6.100   8.433  1.00  0.00     0.001 A 
ATOM    109  C   UNL     1      22.695   5.412   7.463  1.00  0.00     0.000 A 
ENDBRANCH 102 104
ENDBRANCH  96  99
ENDBRANCH  93  95
ENDBRANCH  90  93
ENDBRANCH  86  90
ENDBRANCH  80  83
ENDBRANCH  78  79
ENDBRANCH  77  78
ENDBRANCH   1  77
TORSDOF 21
