REMARK SMILES CCN1C(=O)/C(=C/c2ccccc2O[C@H](C)C(=O)NCCCCCCNC(=O)c2ccc(-c3c4nc(c(-c5c(F)cc(S(=O)(=O)[O-])cc5F)c5ccc([nH]5)c(-c5c(F)cc(S(=O)(=O)[O-])cc5F)c5nc(c(-c6c(F)cc(S(=O)(=O)[O-])cc6F)c6ccc3[nH]6)C=C5)C=C4)cc2)S/C1=[NH+]\c1ccc(C)cc1O
REMARK SMILES IDX 21 1 20 2 19 3 17 4 18 5 15 7 16 8 14 9 13 10 8 11 9 12
REMARK SMILES IDX 10 13 12 14 11 15 7 16 3 17 4 18 96 19 5 20 6 21 95 22 97 23
REMARK SMILES IDX 2 25 1 26 98 27 99 28 104 29 100 30 103 31 101 32 102 33
REMARK SMILES IDX 105 34 22 36 23 37 24 38 25 39 26 40 27 41 28 43 29 44 30 45
REMARK SMILES IDX 94 46 31 47 93 48 32 49 33 50 34 51 87 52 35 53 92 54 86 55
REMARK SMILES IDX 88 56 36 57 91 58 85 59 84 60 37 62 71 63 50 64 70 65 51 66
REMARK SMILES IDX 54 67 69 68 89 69 52 70 53 71 68 73 90 74 55 75 38 76 39 77
REMARK SMILES IDX 48 78 40 79 41 80 47 81 49 82 42 83 43 84 44 85 45 86 46 87
REMARK SMILES IDX 72 88 73 89 82 90 74 91 75 92 81 93 83 94 76 95 77 96 78 97
REMARK SMILES IDX 79 98 80 99 56 100 57 101 66 102 58 103 59 104 65 105 67 106
REMARK SMILES IDX 60 107 61 108 62 109 63 110 64 111
REMARK H PARENT 19 6 97 24 105 35 26 42 88 61 54 72
REMARK Flexibility Score: inf
ROOT
ATOM      1  C   UNL     1      -0.426  -7.224  -2.287  1.00  0.00     0.021 C 
ENDROOT
BRANCH   1   2
ATOM      2  C   UNL     1      -0.244  -5.736  -2.022  1.00  0.00     0.116 C 
BRANCH   2   3
ATOM      3  N   UNL     1       0.198  -5.455  -0.680  1.00  0.00    -0.353 N 
ATOM      4  C   UNL     1       1.383  -4.936  -0.256  1.00  0.00     0.260 C 
ATOM      5  O   UNL     1       1.490  -4.706   0.955  1.00  0.00    -0.271 OA
ATOM      6  H   UNL     1      -0.449  -5.669   0.031  1.00  0.00     0.163 HD
BRANCH   4   7
ATOM      7  C   UNL     1       2.592  -4.722  -1.207  1.00  0.00     0.258 C 
ATOM      8  C   UNL     1       3.390  -6.008  -1.359  1.00  0.00     0.064 C 
BRANCH   7   9
ATOM      9  O   UNL     1       2.403  -3.877  -2.330  1.00  0.00    -0.480 OA
BRANCH   9  10
ATOM     10  C   UNL     1       2.262  -4.163  -3.654  1.00  0.00     0.127 A 
ATOM     11  C   UNL     1       1.922  -3.055  -4.465  1.00  0.00     0.018 A 
ATOM     12  C   UNL     1       1.537  -3.256  -5.800  1.00  0.00     0.012 A 
ATOM     13  C   UNL     1       1.548  -4.534  -6.353  1.00  0.00     0.001 A 
ATOM     14  C   UNL     1       2.345  -5.423  -4.249  1.00  0.00     0.047 A 
ATOM     15  C   UNL     1       1.978  -5.609  -5.586  1.00  0.00     0.004 A 
BRANCH  11  16
ATOM     16  C   UNL     1       1.963  -1.660  -3.981  1.00  0.00     0.036 C 
ATOM     17  N   UNL     1       4.385   0.727  -2.751  1.00  0.00    -0.186 N 
ATOM     18  C   UNL     1       3.094   0.368  -3.096  1.00  0.00     0.348 C 
ATOM     19  C   UNL     1       5.334  -0.264  -2.793  1.00  0.00     0.324 C 
ATOM     20  O   UNL     1       2.126   1.119  -3.148  1.00  0.00    -0.240 OA
ATOM     21  C   UNL     1       3.045  -1.075  -3.444  1.00  0.00     0.110 C 
ATOM     22  S   UNL     1       4.580  -1.789  -3.150  1.00  0.00     0.007 SA
ATOM     23  N   UNL     1       6.599  -0.043  -2.632  1.00  0.00    -0.231 N 
ATOM     24  H   UNL     1       6.913   0.877  -2.479  1.00  0.00     0.313 HD
BRANCH  17  25
ATOM     25  C   UNL     1       4.688   2.105  -2.396  1.00  0.00     0.244 C 
ATOM     26  C   UNL     1       4.273   2.417  -0.965  1.00  0.00     0.055 C 
ENDBRANCH  17  25
BRANCH  23  27
ATOM     27  C   UNL     1       7.537  -1.099  -2.673  1.00  0.00     0.167 A 
ATOM     28  C   UNL     1       8.255  -1.402  -1.513  1.00  0.00     0.056 A 
ATOM     29  C   UNL     1       7.842  -1.824  -3.838  1.00  0.00     0.162 A 
ATOM     30  C   UNL     1       9.215  -2.422  -1.505  1.00  0.00     0.008 A 
ATOM     31  C   UNL     1       8.774  -2.861  -3.833  1.00  0.00     0.054 A 
ATOM     32  C   UNL     1       9.470  -3.170  -2.662  1.00  0.00    -0.047 A 
ATOM     33  C   UNL     1      10.510  -4.251  -2.655  1.00  0.00     0.044 C 
BRANCH  29  34
ATOM     34  O   UNL     1       7.243  -1.549  -5.039  1.00  0.00    -0.504 OA
ATOM     35  H   UNL     1       6.609  -0.862  -5.100  1.00  0.00     0.293 HD
ENDBRANCH  29  34
ENDBRANCH  23  27
ENDBRANCH  11  16
ENDBRANCH   9  10
ENDBRANCH   7   9
ENDBRANCH   4   7
ENDBRANCH   2   3
ENDBRANCH   1   2
BRANCH   1  36
ATOM     36  C   UNL     1      -1.833  -7.719  -1.954  1.00  0.00     0.002 C 
BRANCH  36  37
ATOM     37  C   UNL     1      -2.958  -7.004  -2.716  1.00  0.00     0.002 C 
BRANCH  37  38
ATOM     38  C   UNL     1      -2.821  -7.019  -4.242  1.00  0.00     0.021 C 
BRANCH  38  39
ATOM     39  C   UNL     1      -2.793  -8.416  -4.853  1.00  0.00     0.116 C 
BRANCH  39  40
ATOM     40  N   UNL     1      -3.990  -9.171  -4.512  1.00  0.00    -0.352 N 
ATOM     41  C   UNL     1      -4.936  -9.726  -5.335  1.00  0.00     0.251 C 
ATOM     42  H   UNL     1      -4.144  -9.302  -3.549  1.00  0.00     0.163 HD
ATOM     43  O   UNL     1      -6.010 -10.096  -4.872  1.00  0.00    -0.269 OA
BRANCH  41  44
ATOM     44  C   UNL     1      -4.655  -9.872  -6.777  1.00  0.00     0.039 A 
ATOM     45  C   UNL     1      -5.655  -9.558  -7.700  1.00  0.00     0.014 A 
ATOM     46  C   UNL     1      -3.410 -10.335  -7.215  1.00  0.00     0.014 A 
ATOM     47  C   UNL     1      -5.387  -9.659  -9.066  1.00  0.00     0.010 A 
ATOM     48  C   UNL     1      -3.121 -10.362  -8.575  1.00  0.00     0.010 A 
ATOM     49  C   UNL     1      -4.108 -10.031  -9.514  1.00  0.00    -0.014 A 
BRANCH  49  50
ATOM     50  C   UNL     1      -3.784 -10.076 -10.962  1.00  0.00     0.031 A 
ATOM     51  C   UNL     1      -3.398 -11.378 -11.610  1.00  0.00     0.074 A 
ATOM     52  C   UNL     1      -3.775  -8.933 -11.675  1.00  0.00     0.049 A 
ATOM     53  N   UNL     1      -3.015 -11.605 -12.840  1.00  0.00    -0.248 NA
ATOM     54  C   UNL     1      -3.419 -12.578 -10.758  1.00  0.00     0.031 C 
ATOM     55  C   UNL     1      -4.085  -7.603 -11.144  1.00  0.00     0.029 A 
ATOM     56  N   UNL     1      -3.485  -8.701 -12.996  1.00  0.00    -0.354 N 
ATOM     57  C   UNL     1      -2.740 -12.966 -12.907  1.00  0.00     0.074 A 
ATOM     58  C   UNL     1      -2.945 -13.504 -11.580  1.00  0.00     0.031 C 
ATOM     59  C   UNL     1      -3.989  -6.700 -12.133  1.00  0.00     0.029 A 
ATOM     60  C   UNL     1      -3.569  -7.376 -13.356  1.00  0.00     0.049 A 
ATOM     61  H   UNL     1      -3.240  -9.416 -13.627  1.00  0.00     0.167 HD
ATOM     62  C   UNL     1      -2.372 -13.703 -13.982  1.00  0.00     0.037 A 
ATOM     63  C   UNL     1      -3.323  -6.772 -14.535  1.00  0.00     0.037 A 
ATOM     64  C   UNL     1      -2.190 -13.160 -15.303  1.00  0.00     0.049 A 
ATOM     65  C   UNL     1      -2.907  -7.611 -15.713  1.00  0.00     0.074 A 
ATOM     66  C   UNL     1      -1.875 -13.831 -16.472  1.00  0.00     0.029 A 
ATOM     67  N   UNL     1      -2.302 -11.816 -15.633  1.00  0.00    -0.354 N 
ATOM     68  N   UNL     1      -2.715  -8.908 -15.774  1.00  0.00    -0.248 NA
ATOM     69  C   UNL     1      -2.682  -6.909 -16.983  1.00  0.00     0.031 C 
ATOM     70  C   UNL     1      -1.741 -12.888 -17.495  1.00  0.00     0.029 A 
ATOM     71  C   UNL     1      -2.035 -11.635 -16.980  1.00  0.00     0.049 A 
ATOM     72  H   UNL     1      -2.536 -11.098 -15.002  1.00  0.00     0.167 HD
ATOM     73  C   UNL     1      -2.374  -9.180 -17.094  1.00  0.00     0.074 A 
ATOM     74  C   UNL     1      -2.399  -7.915 -17.800  1.00  0.00     0.031 C 
ATOM     75  C   UNL     1      -2.069 -10.369 -17.670  1.00  0.00     0.037 A 
BRANCH  62  76
ATOM     76  C   UNL     1      -2.141 -15.176 -13.778  1.00  0.00     0.058 A 
ATOM     77  C   UNL     1      -3.198 -16.059 -13.501  1.00  0.00     0.135 A 
ATOM     78  C   UNL     1      -0.854 -15.722 -13.910  1.00  0.00     0.135 A 
ATOM     79  F   UNL     1      -4.448 -15.592 -13.349  1.00  0.00    -0.206 F 
ATOM     80  C   UNL     1      -2.984 -17.423 -13.337  1.00  0.00     0.059 A 
ATOM     81  C   UNL     1      -0.621 -17.088 -13.781  1.00  0.00     0.059 A 
ATOM     82  F   UNL     1       0.195 -14.925 -14.173  1.00  0.00    -0.206 F 
ATOM     83  C   UNL     1      -1.691 -17.929 -13.482  1.00  0.00     0.060 A 
BRANCH  83  84
ATOM     84  S   UNL     1      -1.435 -19.705 -13.282  1.00  0.00     0.124 S 
ATOM     85  O   UNL     1      -1.627 -19.866 -11.844  1.00  0.00    -0.237 OA
ATOM     86  O   UNL     1      -2.482 -20.267 -14.128  1.00  0.00    -0.237 OA
ATOM     87  O   UNL     1      -0.070 -19.908 -13.757  1.00  0.00    -0.744 OA
ENDBRANCH  83  84
ENDBRANCH  62  76
BRANCH  63  88
ATOM     88  C   UNL     1      -3.475  -5.297 -14.658  1.00  0.00     0.058 A 
ATOM     89  C   UNL     1      -4.510  -4.737 -15.422  1.00  0.00     0.135 A 
ATOM     90  C   UNL     1      -2.600  -4.418 -14.002  1.00  0.00     0.135 A 
ATOM     91  F   UNL     1      -5.370  -5.535 -16.073  1.00  0.00    -0.206 F 
ATOM     92  C   UNL     1      -4.663  -3.360 -15.546  1.00  0.00     0.059 A 
ATOM     93  C   UNL     1      -2.749  -3.037 -14.086  1.00  0.00     0.059 A 
ATOM     94  F   UNL     1      -1.604  -4.901 -13.243  1.00  0.00    -0.206 F 
ATOM     95  C   UNL     1      -3.778  -2.518 -14.870  1.00  0.00     0.060 A 
BRANCH  95  96
ATOM     96  S   UNL     1      -4.015  -0.732 -14.997  1.00  0.00     0.124 S 
ATOM     97  O   UNL     1      -3.600  -0.478 -16.371  1.00  0.00    -0.237 OA
ATOM     98  O   UNL     1      -5.442  -0.594 -14.723  1.00  0.00    -0.237 OA
ATOM     99  O   UNL     1      -3.132  -0.203 -13.962  1.00  0.00    -0.744 OA
ENDBRANCH  95  96
ENDBRANCH  63  88
BRANCH  75 100
ATOM    100  C   UNL     1      -1.773 -10.371 -19.145  1.00  0.00     0.058 A 
ATOM    101  C   UNL     1      -0.586  -9.830 -19.664  1.00  0.00     0.135 A 
ATOM    102  C   UNL     1      -2.664 -10.978 -20.046  1.00  0.00     0.135 A 
ATOM    103  F   UNL     1       0.297  -9.232 -18.848  1.00  0.00    -0.206 F 
ATOM    104  C   UNL     1      -0.305  -9.868 -21.026  1.00  0.00     0.059 A 
ATOM    105  C   UNL     1      -2.388 -11.057 -21.407  1.00  0.00     0.059 A 
ATOM    106  F   UNL     1      -3.809 -11.522 -19.603  1.00  0.00    -0.206 F 
ATOM    107  C   UNL     1      -1.210 -10.488 -21.889  1.00  0.00     0.060 A 
BRANCH 107 108
ATOM    108  S   UNL     1      -0.813 -10.564 -23.648  1.00  0.00     0.124 S 
ATOM    109  O   UNL     1      -1.005  -9.176 -24.053  1.00  0.00    -0.237 OA
ATOM    110  O   UNL     1       0.569 -11.036 -23.635  1.00  0.00    -0.237 OA
ATOM    111  O   UNL     1      -1.788 -11.513 -24.177  1.00  0.00    -0.744 OA
ENDBRANCH 107 108
ENDBRANCH  75 100
ENDBRANCH  49  50
ENDBRANCH  41  44
ENDBRANCH  39  40
ENDBRANCH  38  39
ENDBRANCH  37  38
ENDBRANCH  36  37
ENDBRANCH   1  36
TORSDOF 22
