REMARK SMILES COc1cc2cc(C(=O)NCCCCCCNC(=O)c3ccc(-c4c5nc(c(-c6c(F)cc(S(=O)(=O)[O-])cc6F)c6ccc([nH]6)c(-c6c(F)cc(S(=O)(=O)[O-])cc6F)c6nc(c(-c7c(F)cc(S(=O)(=O)[O-])cc7F)c7ccc4[nH]7)C=C6)C=C5)cc3)n(Cc3ccccc3)c2c(OC)c1OC
REMARK SMILES IDX 14 1 13 2 12 3 11 4 10 5 8 6 9 7 7 9 3 10 4 11 98 12 5 13
REMARK SMILES IDX 95 14 6 15 94 16 86 17 2 18 1 19 99 20 100 21 96 22 97 23
REMARK SMILES IDX 87 24 88 25 89 26 93 27 90 28 92 29 91 30 15 31 16 32 17 33
REMARK SMILES IDX 18 34 19 36 20 37 21 38 85 39 22 40 84 41 23 42 24 43 25 44
REMARK SMILES IDX 78 45 26 46 83 47 77 48 79 49 27 50 82 51 76 52 75 53 28 55
REMARK SMILES IDX 62 56 41 57 61 58 42 59 45 60 60 61 80 62 43 63 44 64 59 66
REMARK SMILES IDX 81 67 46 68 29 69 30 70 39 71 31 72 32 73 38 74 40 75 33 76
REMARK SMILES IDX 34 77 35 78 36 79 37 80 63 81 64 82 73 83 65 84 66 85 72 86
REMARK SMILES IDX 74 87 67 88 68 89 69 90 70 91 71 92 47 93 48 94 57 95 49 96
REMARK SMILES IDX 50 97 56 98 58 99 51 100 52 101 53 102 54 103 55 104
REMARK H PARENT 10 8 17 35 79 54 45 65
REMARK Flexibility Score: inf
ROOT
ATOM      1  C   UNL     1       3.920   9.232  -7.953  1.00  0.00     0.002 C 
ENDROOT
BRANCH   1   2
ATOM      2  C   UNL     1       3.073   8.036  -8.378  1.00  0.00     0.002 C 
BRANCH   2   3
ATOM      3  C   UNL     1       3.014   6.895  -7.361  1.00  0.00     0.021 C 
BRANCH   3   4
ATOM      4  C   UNL     1       2.139   7.128  -6.127  1.00  0.00     0.116 C 
BRANCH   4   5
ATOM      5  N   UNL     1       0.809   6.605  -6.357  1.00  0.00    -0.351 N 
ATOM      6  C   UNL     1       0.107   5.499  -5.975  1.00  0.00     0.267 C 
ATOM      7  O   UNL     1      -1.052   5.488  -6.411  1.00  0.00    -0.268 OA
ATOM      8  H   UNL     1       0.276   7.197  -6.935  1.00  0.00     0.163 HD
BRANCH   6   9
ATOM      9  C   UNL     1       0.562   4.416  -5.102  1.00  0.00     0.108 A 
ATOM     10  C   UNL     1       0.773   1.042  -1.904  1.00  0.00     0.165 A 
ATOM     11  C   UNL     1      -0.158   1.704  -2.706  1.00  0.00     0.061 A 
ATOM     12  C   UNL     1       2.151   1.287  -2.021  1.00  0.00     0.205 A 
ATOM     13  C   UNL     1       0.293   2.679  -3.609  1.00  0.00     0.008 A 
ATOM     14  C   UNL     1       2.622   2.284  -2.906  1.00  0.00     0.189 A 
ATOM     15  C   UNL     1      -0.366   3.603  -4.445  1.00  0.00     0.042 A 
ATOM     16  C   UNL     1       1.656   2.922  -3.741  1.00  0.00     0.096 A 
ATOM     17  N   UNL     1       1.786   3.806  -4.835  1.00  0.00    -0.329 N 
BRANCH  10  18
ATOM     18  O   UNL     1       0.261   0.163  -0.980  1.00  0.00    -0.493 OA
ATOM     19  C   UNL     1       0.328   0.727   0.333  1.00  0.00     0.278 C 
ENDBRANCH  10  18
BRANCH  12  20
ATOM     20  O   UNL     1       3.044   0.638  -1.198  1.00  0.00    -0.490 OA
ATOM     21  C   UNL     1       2.984  -0.786  -1.283  1.00  0.00     0.278 C 
ENDBRANCH  12  20
BRANCH  14  22
ATOM     22  O   UNL     1       3.904   2.745  -3.013  1.00  0.00    -0.491 OA
ATOM     23  C   UNL     1       4.955   2.127  -2.290  1.00  0.00     0.278 C 
ENDBRANCH  14  22
BRANCH  17  24
ATOM     24  C   UNL     1       3.060   3.929  -5.543  1.00  0.00     0.158 C 
BRANCH  24  25
ATOM     25  C   UNL     1       3.131   3.659  -7.029  1.00  0.00    -0.028 A 
ATOM     26  C   UNL     1       2.043   3.533  -7.899  1.00  0.00     0.005 A 
ATOM     27  C   UNL     1       4.429   3.633  -7.584  1.00  0.00     0.005 A 
ATOM     28  C   UNL     1       2.244   3.507  -9.283  1.00  0.00     0.000 A 
ATOM     29  C   UNL     1       4.630   3.574  -8.961  1.00  0.00     0.000 A 
ATOM     30  C   UNL     1       3.533   3.542  -9.813  1.00  0.00     0.000 A 
ENDBRANCH  24  25
ENDBRANCH  17  24
ENDBRANCH   6   9
ENDBRANCH   4   5
ENDBRANCH   3   4
ENDBRANCH   2   3
ENDBRANCH   1   2
BRANCH   1  31
ATOM     31  C   UNL     1       5.358   8.906  -7.538  1.00  0.00     0.021 C 
BRANCH  31  32
ATOM     32  C   UNL     1       6.167   8.098  -8.555  1.00  0.00     0.116 C 
BRANCH  32  33
ATOM     33  N   UNL     1       6.308   8.718  -9.856  1.00  0.00    -0.352 N 
ATOM     34  C   UNL     1       7.077   9.735 -10.351  1.00  0.00     0.251 C 
ATOM     35  H   UNL     1       5.718   8.319 -10.536  1.00  0.00     0.163 HD
ATOM     36  O   UNL     1       7.013   9.929 -11.568  1.00  0.00    -0.269 OA
BRANCH  34  37
ATOM     37  C   UNL     1       7.902  10.649  -9.518  1.00  0.00     0.039 A 
ATOM     38  C   UNL     1       8.299  10.408  -8.202  1.00  0.00     0.014 A 
ATOM     39  C   UNL     1       8.264  11.867 -10.119  1.00  0.00     0.014 A 
ATOM     40  C   UNL     1       8.903  11.412  -7.456  1.00  0.00     0.010 A 
ATOM     41  C   UNL     1       8.914  12.856  -9.393  1.00  0.00     0.010 A 
ATOM     42  C   UNL     1       9.175  12.650  -8.042  1.00  0.00    -0.014 A 
BRANCH  42  43
ATOM     43  C   UNL     1       9.860  13.660  -7.239  1.00  0.00     0.031 A 
ATOM     44  C   UNL     1      11.187  13.229  -6.708  1.00  0.00     0.074 A 
ATOM     45  C   UNL     1       9.397  14.919  -7.094  1.00  0.00     0.049 A 
ATOM     46  N   UNL     1      11.555  13.123  -5.473  1.00  0.00    -0.248 NA
ATOM     47  C   UNL     1      12.179  12.713  -7.667  1.00  0.00     0.031 C 
ATOM     48  C   UNL     1       8.239  15.537  -7.746  1.00  0.00     0.029 A 
ATOM     49  N   UNL     1       9.934  15.959  -6.398  1.00  0.00    -0.354 N 
ATOM     50  C   UNL     1      12.892  12.726  -5.499  1.00  0.00     0.074 A 
ATOM     51  C   UNL     1      13.171  12.340  -6.857  1.00  0.00     0.031 C 
ATOM     52  C   UNL     1       8.311  16.880  -7.609  1.00  0.00     0.029 A 
ATOM     53  C   UNL     1       9.440  17.209  -6.758  1.00  0.00     0.049 A 
ATOM     54  H   UNL     1      10.616  15.837  -5.698  1.00  0.00     0.167 HD
ATOM     55  C   UNL     1      13.725  12.939  -4.442  1.00  0.00     0.037 A 
ATOM     56  C   UNL     1       9.960  18.422  -6.429  1.00  0.00     0.037 A 
ATOM     57  C   UNL     1      12.986  13.212  -3.239  1.00  0.00     0.049 A 
ATOM     58  C   UNL     1      10.824  18.217  -5.236  1.00  0.00     0.074 A 
ATOM     59  C   UNL     1      12.068  12.504  -2.489  1.00  0.00     0.029 A 
ATOM     60  N   UNL     1      12.872  14.521  -2.836  1.00  0.00    -0.354 N 
ATOM     61  N   UNL     1      10.359  17.888  -4.060  1.00  0.00    -0.248 NA
ATOM     62  C   UNL     1      12.226  17.892  -5.461  1.00  0.00     0.031 C 
ATOM     63  C   UNL     1      11.123  13.476  -2.055  1.00  0.00     0.029 A 
ATOM     64  C   UNL     1      11.557  14.724  -2.502  1.00  0.00     0.049 A 
ATOM     65  H   UNL     1      13.596  15.187  -2.795  1.00  0.00     0.167 HD
ATOM     66  C   UNL     1      11.254  16.946  -3.574  1.00  0.00     0.074 A 
ATOM     67  C   UNL     1      12.423  17.046  -4.446  1.00  0.00     0.031 C 
ATOM     68  C   UNL     1      10.860  15.976  -2.696  1.00  0.00     0.037 A 
BRANCH  55  69
ATOM     69  C   UNL     1      15.199  13.241  -4.562  1.00  0.00     0.058 A 
ATOM     70  C   UNL     1      15.998  13.277  -3.400  1.00  0.00     0.135 A 
ATOM     71  C   UNL     1      15.787  13.787  -5.724  1.00  0.00     0.135 A 
ATOM     72  F   UNL     1      15.539  12.786  -2.238  1.00  0.00    -0.206 F 
ATOM     73  C   UNL     1      17.253  13.888  -3.376  1.00  0.00     0.059 A 
ATOM     74  C   UNL     1      17.057  14.354  -5.734  1.00  0.00     0.059 A 
ATOM     75  F   UNL     1      15.121  13.889  -6.880  1.00  0.00    -0.206 F 
ATOM     76  C   UNL     1      17.764  14.441  -4.546  1.00  0.00     0.060 A 
BRANCH  76  77
ATOM     77  S   UNL     1      19.323  15.341  -4.494  1.00  0.00     0.124 S 
ATOM     78  O   UNL     1      18.967  16.490  -3.663  1.00  0.00    -0.237 OA
ATOM     79  O   UNL     1      20.215  14.361  -3.878  1.00  0.00    -0.237 OA
ATOM     80  O   UNL     1      19.592  15.634  -5.894  1.00  0.00    -0.744 OA
ENDBRANCH  76  77
ENDBRANCH  55  69
BRANCH  56  81
ATOM     81  C   UNL     1       9.999  19.657  -7.264  1.00  0.00     0.058 A 
ATOM     82  C   UNL     1      10.336  20.914  -6.727  1.00  0.00     0.135 A 
ATOM     83  C   UNL     1       9.949  19.588  -8.672  1.00  0.00     0.135 A 
ATOM     84  F   UNL     1      10.444  21.073  -5.399  1.00  0.00    -0.206 F 
ATOM     85  C   UNL     1      10.629  22.023  -7.536  1.00  0.00     0.059 A 
ATOM     86  C   UNL     1      10.225  20.679  -9.497  1.00  0.00     0.059 A 
ATOM     87  F   UNL     1       9.715  18.427  -9.301  1.00  0.00    -0.206 F 
ATOM     88  C   UNL     1      10.585  21.890  -8.924  1.00  0.00     0.060 A 
BRANCH  88  89
ATOM     89  S   UNL     1      11.097  23.271  -9.977  1.00  0.00     0.124 S 
ATOM     90  O   UNL     1      10.073  24.269  -9.691  1.00  0.00    -0.237 OA
ATOM     91  O   UNL     1      12.434  23.564  -9.471  1.00  0.00    -0.237 OA
ATOM     92  O   UNL     1      11.055  22.705 -11.323  1.00  0.00    -0.744 OA
ENDBRANCH  88  89
ENDBRANCH  56  81
BRANCH  68  93
ATOM     93  C   UNL     1       9.495  16.082  -2.066  1.00  0.00     0.058 A 
ATOM     94  C   UNL     1       8.286  16.012  -2.782  1.00  0.00     0.135 A 
ATOM     95  C   UNL     1       9.409  16.060  -0.665  1.00  0.00     0.135 A 
ATOM     96  F   UNL     1       8.281  15.918  -4.118  1.00  0.00    -0.206 F 
ATOM     97  C   UNL     1       7.050  15.956  -2.136  1.00  0.00     0.059 A 
ATOM     98  C   UNL     1       8.190  15.971  -0.000  1.00  0.00     0.059 A 
ATOM     99  F   UNL     1      10.530  16.057   0.076  1.00  0.00    -0.206 F 
ATOM    100  C   UNL     1       7.012  15.930  -0.743  1.00  0.00     0.060 A 
BRANCH 100 101
ATOM    101  S   UNL     1       5.417  15.764   0.088  1.00  0.00     0.124 S 
ATOM    102  O   UNL     1       4.797  17.057  -0.176  1.00  0.00    -0.237 OA
ATOM    103  O   UNL     1       4.821  14.621  -0.597  1.00  0.00    -0.237 OA
ATOM    104  O   UNL     1       5.782  15.520   1.483  1.00  0.00    -0.744 OA
ENDBRANCH 100 101
ENDBRANCH  68  93
ENDBRANCH  42  43
ENDBRANCH  34  37
ENDBRANCH  32  33
ENDBRANCH  31  32
ENDBRANCH   1  31
TORSDOF 21
