REMARK SMILES COc1cc(S(=O)(=O)Nc2cccc(C(=O)NCCCCCCNC(=O)c3ccc(-c4c5nc(c(-c6c(F)cc(S(=O)(=O)[O-])cc6F)c6ccc([nH]6)c(-c6c(F)cc(S(=O)(=O)[O-])cc6F)c6nc(c(-c7c(F)cc(S(=O)(=O)[O-])cc7F)c7ccc4[nH]7)C=C6)C=C5)cc3)c2)c(OC)cc1C
REMARK SMILES IDX 20 1 19 2 18 3 17 4 15 5 16 6 14 8 10 9 11 10 93 11 12 12
REMARK SMILES IDX 13 13 9 14 6 16 7 17 8 18 5 19 3 20 4 21 98 22 97 23 99 24
REMARK SMILES IDX 94 25 2 26 1 27 95 28 96 29 21 30 22 31 23 32 24 33 25 34
REMARK SMILES IDX 26 36 27 37 28 38 92 39 29 40 91 41 30 42 31 43 32 44 85 45
REMARK SMILES IDX 33 46 90 47 84 48 86 49 34 50 89 51 83 52 82 53 35 55 69 56
REMARK SMILES IDX 48 57 68 58 49 59 52 60 67 61 87 62 50 63 51 64 66 66 88 67
REMARK SMILES IDX 53 68 36 69 37 70 46 71 38 72 39 73 45 74 47 75 40 76 41 77
REMARK SMILES IDX 42 78 43 79 44 80 70 81 71 82 80 83 72 84 73 85 79 86 81 87
REMARK SMILES IDX 74 88 75 89 76 90 77 91 78 92 54 93 55 94 64 95 56 96 57 97
REMARK SMILES IDX 63 98 65 99 58 100 59 101 60 102 61 103 62 104
REMARK H PARENT 17 7 9 15 24 35 86 54 52 65
REMARK Flexibility Score: inf
ROOT
ATOM      1  C   UNL     1       7.216  10.758  -2.881  1.00  0.00     0.002 C 
ENDROOT
BRANCH   1   2
ATOM      2  C   UNL     1       6.490   9.520  -3.427  1.00  0.00     0.021 C 
BRANCH   2   3
ATOM      3  C   UNL     1       5.347   9.014  -2.547  1.00  0.00     0.116 C 
BRANCH   3   4
ATOM      4  N   UNL     1       4.197   9.896  -2.630  1.00  0.00    -0.352 N 
ATOM      5  C   UNL     1       2.958   9.727  -3.192  1.00  0.00     0.251 C 
ATOM      6  O   UNL     1       2.114  10.610  -3.047  1.00  0.00    -0.269 OA
ATOM      7  H   UNL     1       4.330  10.774  -2.205  1.00  0.00     0.163 HD
BRANCH   5   8
ATOM      8  C   UNL     1       2.563   8.470  -3.871  1.00  0.00     0.041 A 
ATOM      9  C   UNL     1       0.878   6.720  -4.013  1.00  0.00     0.050 A 
ATOM     10  C   UNL     1       1.677   6.025  -4.917  1.00  0.00     0.027 A 
ATOM     11  C   UNL     1       1.297   7.970  -3.549  1.00  0.00     0.040 A 
ATOM     12  C   UNL     1       2.919   6.551  -5.295  1.00  0.00     0.003 A 
ATOM     13  C   UNL     1       3.367   7.770  -4.770  1.00  0.00     0.014 A 
BRANCH   9  14
ATOM     14  N   UNL     1      -0.349   6.242  -3.481  1.00  0.00    -0.279 N 
ATOM     15  H   UNL     1      -1.009   6.919  -3.204  1.00  0.00     0.180 HD
BRANCH  14  16
ATOM     16  S   UNL     1      -0.780   4.647  -3.279  1.00  0.00     0.265 S 
ATOM     17  O   UNL     1      -0.810   4.023  -4.588  1.00  0.00    -0.201 OA
ATOM     18  O   UNL     1      -1.982   4.682  -2.466  1.00  0.00    -0.201 OA
BRANCH  16  19
ATOM     19  C   UNL     1       0.421   3.747  -2.325  1.00  0.00     0.133 A 
ATOM     20  C   UNL     1       1.090   1.505  -1.652  1.00  0.00     0.123 A 
ATOM     21  C   UNL     1       0.172   2.363  -2.250  1.00  0.00     0.073 A 
ATOM     22  C   UNL     1       2.331   1.992  -1.243  1.00  0.00    -0.005 A 
ATOM     23  C   UNL     1       2.533   3.381  -1.238  1.00  0.00     0.055 A 
ATOM     24  C   UNL     1       3.441   1.094  -0.783  1.00  0.00     0.048 C 
ATOM     25  C   UNL     1       1.565   4.277  -1.724  1.00  0.00     0.139 A 
BRANCH  20  26
ATOM     26  O   UNL     1       0.734   0.188  -1.556  1.00  0.00    -0.496 OA
ATOM     27  C   UNL     1       0.644  -0.235  -0.193  1.00  0.00     0.278 C 
ENDBRANCH  20  26
BRANCH  25  28
ATOM     28  O   UNL     1       1.677   5.626  -1.568  1.00  0.00    -0.495 OA
ATOM     29  C   UNL     1       2.930   6.146  -1.127  1.00  0.00     0.278 C 
ENDBRANCH  25  28
ENDBRANCH  16  19
ENDBRANCH  14  16
ENDBRANCH   9  14
ENDBRANCH   5   8
ENDBRANCH   3   4
ENDBRANCH   2   3
ENDBRANCH   1   2
BRANCH   1  30
ATOM     30  C   UNL     1       7.851  10.621  -1.488  1.00  0.00     0.002 C 
BRANCH  30  31
ATOM     31  C   UNL     1       8.736   9.393  -1.267  1.00  0.00     0.021 C 
BRANCH  31  32
ATOM     32  C   UNL     1       9.994   9.386  -2.130  1.00  0.00     0.116 C 
BRANCH  32  33
ATOM     33  N   UNL     1      11.225   9.396  -1.350  1.00  0.00    -0.352 N 
ATOM     34  C   UNL     1      12.521   9.243  -1.814  1.00  0.00     0.251 C 
ATOM     35  H   UNL     1      11.124   9.527  -0.380  1.00  0.00     0.163 HD
ATOM     36  O   UNL     1      13.475   9.086  -1.073  1.00  0.00    -0.269 OA
BRANCH  34  37
ATOM     37  C   UNL     1      12.718   9.400  -3.269  1.00  0.00     0.039 A 
ATOM     38  C   UNL     1      13.331  10.579  -3.708  1.00  0.00     0.014 A 
ATOM     39  C   UNL     1      12.045   8.559  -4.150  1.00  0.00     0.014 A 
ATOM     40  C   UNL     1      13.118  11.009  -5.015  1.00  0.00     0.010 A 
ATOM     41  C   UNL     1      11.761   9.032  -5.415  1.00  0.00     0.010 A 
ATOM     42  C   UNL     1      12.258  10.277  -5.832  1.00  0.00    -0.014 A 
BRANCH  42  43
ATOM     43  C   UNL     1      11.761  10.754  -7.118  1.00  0.00     0.031 A 
ATOM     44  C   UNL     1      12.267  10.150  -8.370  1.00  0.00     0.074 A 
ATOM     45  C   UNL     1      10.763  11.664  -7.157  1.00  0.00     0.049 A 
ATOM     46  N   UNL     1      12.095  10.650  -9.546  1.00  0.00    -0.248 NA
ATOM     47  C   UNL     1      13.048   8.918  -8.379  1.00  0.00     0.031 C 
ATOM     48  C   UNL     1       9.929  12.018  -8.302  1.00  0.00     0.029 A 
ATOM     49  N   UNL     1      10.448  12.623  -6.190  1.00  0.00    -0.354 N 
ATOM     50  C   UNL     1      12.519   9.722 -10.469  1.00  0.00     0.074 A 
ATOM     51  C   UNL     1      13.123   8.666  -9.689  1.00  0.00     0.031 C 
ATOM     52  C   UNL     1       9.409  13.238  -8.098  1.00  0.00     0.029 A 
ATOM     53  C   UNL     1      10.012  13.771  -6.890  1.00  0.00     0.049 A 
ATOM     54  H   UNL     1      10.517  12.520  -5.213  1.00  0.00     0.167 HD
ATOM     55  C   UNL     1      12.224   9.905 -11.788  1.00  0.00     0.037 A 
ATOM     56  C   UNL     1      10.744  14.924  -6.828  1.00  0.00     0.037 A 
ATOM     57  C   UNL     1      11.597  11.205 -12.020  1.00  0.00     0.049 A 
ATOM     58  C   UNL     1      11.389  15.332  -8.140  1.00  0.00     0.074 A 
ATOM     59  C   UNL     1      10.292  11.651 -12.149  1.00  0.00     0.029 A 
ATOM     60  N   UNL     1      12.367  12.338 -11.834  1.00  0.00    -0.354 N 
ATOM     61  N   UNL     1      11.273  14.677  -9.264  1.00  0.00    -0.248 NA
ATOM     62  C   UNL     1      12.279  16.489  -8.267  1.00  0.00     0.031 C 
ATOM     63  C   UNL     1      10.288  13.069 -11.983  1.00  0.00     0.029 A 
ATOM     64  C   UNL     1      11.591  13.479 -11.768  1.00  0.00     0.049 A 
ATOM     65  H   UNL     1      13.348  12.333 -11.759  1.00  0.00     0.167 HD
ATOM     66  C   UNL     1      12.077  15.252 -10.213  1.00  0.00     0.074 A 
ATOM     67  C   UNL     1      12.672  16.395  -9.548  1.00  0.00     0.031 C 
ATOM     68  C   UNL     1      12.243  14.742 -11.468  1.00  0.00     0.037 A 
BRANCH  55  69
ATOM     69  C   UNL     1      12.321   8.807 -12.820  1.00  0.00     0.058 A 
ATOM     70  C   UNL     1      11.389   8.732 -13.876  1.00  0.00     0.135 A 
ATOM     71  C   UNL     1      13.269   7.765 -12.791  1.00  0.00     0.135 A 
ATOM     72  F   UNL     1      10.483   9.698 -14.079  1.00  0.00    -0.206 F 
ATOM     73  C   UNL     1      11.327   7.650 -14.757  1.00  0.00     0.059 A 
ATOM     74  C   UNL     1      13.189   6.640 -13.618  1.00  0.00     0.059 A 
ATOM     75  F   UNL     1      14.335   7.819 -11.980  1.00  0.00    -0.206 F 
ATOM     76  C   UNL     1      12.204   6.586 -14.594  1.00  0.00     0.060 A 
BRANCH  76  77
ATOM     77  S   UNL     1      12.026   5.141 -15.658  1.00  0.00     0.124 S 
ATOM     78  O   UNL     1      10.605   4.833 -15.524  1.00  0.00    -0.237 OA
ATOM     79  O   UNL     1      12.443   5.666 -16.953  1.00  0.00    -0.237 OA
ATOM     80  O   UNL     1      12.928   4.163 -15.056  1.00  0.00    -0.744 OA
ENDBRANCH  76  77
ENDBRANCH  55  69
BRANCH  56  81
ATOM     81  C   UNL     1      11.294  15.164  -5.463  1.00  0.00     0.058 A 
ATOM     82  C   UNL     1      10.371  15.383  -4.420  1.00  0.00     0.135 A 
ATOM     83  C   UNL     1      12.583  14.747  -5.110  1.00  0.00     0.135 A 
ATOM     84  F   UNL     1       9.127  15.804  -4.701  1.00  0.00    -0.206 F 
ATOM     85  C   UNL     1      10.655  15.029  -3.105  1.00  0.00     0.059 A 
ATOM     86  C   UNL     1      12.894  14.400  -3.793  1.00  0.00     0.059 A 
ATOM     87  F   UNL     1      13.507  14.529  -6.057  1.00  0.00    -0.206 F 
ATOM     88  C   UNL     1      11.898  14.472  -2.818  1.00  0.00     0.060 A 
BRANCH  88  89
ATOM     89  S   UNL     1      12.121  13.689  -1.202  1.00  0.00     0.124 S 
ATOM     90  O   UNL     1      11.858  14.795  -0.289  1.00  0.00    -0.237 OA
ATOM     91  O   UNL     1      11.102  12.641  -1.233  1.00  0.00    -0.237 OA
ATOM     92  O   UNL     1      13.501  13.220  -1.246  1.00  0.00    -0.744 OA
ENDBRANCH  88  89
ENDBRANCH  56  81
BRANCH  68  93
ATOM     93  C   UNL     1      13.074  15.422 -12.517  1.00  0.00     0.058 A 
ATOM     94  C   UNL     1      12.899  16.780 -12.831  1.00  0.00     0.135 A 
ATOM     95  C   UNL     1      13.980  14.705 -13.325  1.00  0.00     0.135 A 
ATOM     96  F   UNL     1      12.020  17.532 -12.147  1.00  0.00    -0.206 F 
ATOM     97  C   UNL     1      13.611  17.401 -13.856  1.00  0.00     0.059 A 
ATOM     98  C   UNL     1      14.665  15.291 -14.384  1.00  0.00     0.059 A 
ATOM     99  F   UNL     1      14.249  13.412 -13.089  1.00  0.00    -0.206 F 
ATOM    100  C   UNL     1      14.494  16.648 -14.627  1.00  0.00     0.060 A 
BRANCH 100 101
ATOM    101  S   UNL     1      15.408  17.440 -15.963  1.00  0.00     0.124 S 
ATOM    102  O   UNL     1      14.463  18.438 -16.454  1.00  0.00    -0.237 OA
ATOM    103  O   UNL     1      16.566  17.966 -15.248  1.00  0.00    -0.237 OA
ATOM    104  O   UNL     1      15.680  16.340 -16.883  1.00  0.00    -0.744 OA
ENDBRANCH 100 101
ENDBRANCH  68  93
ENDBRANCH  42  43
ENDBRANCH  34  37
ENDBRANCH  32  33
ENDBRANCH  31  32
ENDBRANCH  30  31
ENDBRANCH   1  30
TORSDOF 21
