REMARK SMILES COc1cc([C@@H]2CC(=O)Nc3c(C(=O)NCCCCCCNC(=O)c4ccc(-c5c6nc(c(-c7c(F)cc(S(=O)(=O)[O-])cc7F)c7ccc([nH]7)c(-c7c(F)cc(S(=O)(=O)[O-])cc7F)c7nc(c(-c8c(F)cc(S(=O)(=O)[O-])cc8F)c8ccc5[nH]8)C=C7)C=C6)cc4)cn(-c4ccc(F)cc4)c32)c(OC)c2c1OCO2
REMARK SMILES IDX 19 1 18 2 17 3 16 4 15 5 13 6 14 7 12 9 6 10 7 11 100 12
REMARK SMILES IDX 8 13 11 14 92 15 9 16 10 17 91 18 5 20 3 21 4 22 105 23
REMARK SMILES IDX 104 24 106 25 101 26 108 27 107 28 2 29 1 30 102 31 103 32
REMARK SMILES IDX 93 33 94 34 99 35 95 36 98 37 96 38 97 39 20 40 21 41 22 42
REMARK SMILES IDX 23 43 24 45 25 46 26 47 90 48 27 49 89 50 28 51 29 52 30 53
REMARK SMILES IDX 83 54 31 55 88 56 82 57 84 58 32 59 87 60 81 61 80 62 33 64
REMARK SMILES IDX 67 65 46 66 66 67 47 68 50 69 65 70 85 71 48 72 49 73 64 75
REMARK SMILES IDX 86 76 51 77 34 78 35 79 44 80 36 81 37 82 43 83 45 84 38 85
REMARK SMILES IDX 39 86 40 87 41 88 42 89 68 90 69 91 78 92 70 93 71 94 77 95
REMARK SMILES IDX 79 96 72 97 73 98 74 99 75 100 76 101 52 102 53 103 62 104
REMARK SMILES IDX 54 105 55 106 61 107 63 108 56 109 57 110 58 111 59 112
REMARK SMILES IDX 60 113
REMARK H PARENT 15 8 10 19 22 44 84 63 50 74
REMARK Flexibility Score: inf
ROOT
ATOM      1  C   UNL     1       1.291 -13.406   1.255  1.00  0.00     0.002 C 
ENDROOT
BRANCH   1   2
ATOM      2  C   UNL     1      -0.068 -12.852   0.796  1.00  0.00     0.002 C 
BRANCH   2   3
ATOM      3  C   UNL     1      -0.225 -11.338   0.957  1.00  0.00     0.021 C 
BRANCH   3   4
ATOM      4  C   UNL     1       0.819 -10.538   0.171  1.00  0.00     0.116 C 
BRANCH   4   5
ATOM      5  N   UNL     1       0.327 -10.257  -1.150  1.00  0.00    -0.352 N 
ATOM      6  C   UNL     1      -0.356  -9.200  -1.682  1.00  0.00     0.254 C 
ATOM      7  O   UNL     1      -0.629  -9.320  -2.881  1.00  0.00    -0.269 OA
ATOM      8  H   UNL     1       0.520 -10.969  -1.802  1.00  0.00     0.163 HD
BRANCH   6   9
ATOM      9  C   UNL     1      -0.669  -7.958  -0.963  1.00  0.00     0.081 A 
ATOM     10  C   UNL     1      -0.822  -5.211   1.575  1.00  0.00     0.082 C 
ATOM     11  C   UNL     1      -1.003  -6.016   2.862  1.00  0.00     0.115 C 
ATOM     12  C   UNL     1      -0.867  -6.106   0.363  1.00  0.00     0.055 A 
ATOM     13  C   UNL     1      -0.482  -7.434   2.805  1.00  0.00     0.225 C 
ATOM     14  C   UNL     1      -0.690  -7.476   0.384  1.00  0.00     0.076 A 
ATOM     15  N   UNL     1      -1.171  -5.741  -0.928  1.00  0.00    -0.317 N 
ATOM     16  O   UNL     1      -0.134  -8.044   3.818  1.00  0.00    -0.275 OA
ATOM     17  N   UNL     1      -0.526  -8.088   1.605  1.00  0.00    -0.324 N 
ATOM     18  C   UNL     1      -1.081  -6.857  -1.714  1.00  0.00     0.107 A 
ATOM     19  H   UNL     1      -0.435  -9.069   1.615  1.00  0.00     0.170 HD
BRANCH  10  20
ATOM     20  C   UNL     1       0.410  -4.299   1.619  1.00  0.00     0.012 A 
ATOM     21  C   UNL     1       1.157  -1.961   1.512  1.00  0.00     0.165 A 
ATOM     22  C   UNL     1       0.168  -2.909   1.777  1.00  0.00     0.059 A 
ATOM     23  C   UNL     1       2.413  -2.427   1.181  1.00  0.00     0.211 A 
ATOM     24  C   UNL     1       2.697  -3.782   1.131  1.00  0.00     0.211 A 
ATOM     25  O   UNL     1       3.498  -1.663   0.862  1.00  0.00    -0.449 OA
ATOM     26  C   UNL     1       1.725  -4.750   1.364  1.00  0.00     0.168 A 
ATOM     27  O   UNL     1       3.999  -4.003   0.784  1.00  0.00    -0.449 OA
ATOM     28  C   UNL     1       4.487  -2.667   0.602  1.00  0.00     0.468 C 
BRANCH  21  29
ATOM     29  O   UNL     1       0.754  -0.659   1.580  1.00  0.00    -0.493 OA
ATOM     30  C   UNL     1       1.344   0.209   0.619  1.00  0.00     0.278 C 
ENDBRANCH  21  29
BRANCH  26  31
ATOM     31  O   UNL     1       1.908  -6.100   1.349  1.00  0.00    -0.492 OA
ATOM     32  C   UNL     1       3.158  -6.622   0.930  1.00  0.00     0.278 C 
ENDBRANCH  26  31
ENDBRANCH  10  20
BRANCH  15  33
ATOM     33  C   UNL     1      -1.551  -4.471  -1.404  1.00  0.00     0.046 A 
ATOM     34  C   UNL     1      -0.669  -3.395  -1.298  1.00  0.00     0.029 A 
ATOM     35  C   UNL     1      -2.824  -4.302  -1.955  1.00  0.00     0.029 A 
ATOM     36  C   UNL     1      -1.101  -2.116  -1.632  1.00  0.00     0.041 A 
ATOM     37  C   UNL     1      -3.248  -3.018  -2.299  1.00  0.00     0.041 A 
ATOM     38  C   UNL     1      -2.393  -1.935  -2.111  1.00  0.00     0.123 A 
ATOM     39  F   UNL     1      -2.814  -0.697  -2.401  1.00  0.00    -0.207 F 
ENDBRANCH  15  33
ENDBRANCH   6   9
ENDBRANCH   4   5
ENDBRANCH   3   4
ENDBRANCH   2   3
ENDBRANCH   1   2
BRANCH   1  40
ATOM     40  C   UNL     1       1.730 -13.022   2.679  1.00  0.00     0.021 C 
BRANCH  40  41
ATOM     41  C   UNL     1       0.944 -13.757   3.749  1.00  0.00     0.116 C 
BRANCH  41  42
ATOM     42  N   UNL     1       1.216 -15.199   3.711  1.00  0.00    -0.352 N 
ATOM     43  C   UNL     1       0.655 -16.222   4.455  1.00  0.00     0.251 C 
ATOM     44  H   UNL     1       1.898 -15.480   3.059  1.00  0.00     0.163 HD
ATOM     45  O   UNL     1       1.208 -17.302   4.554  1.00  0.00    -0.269 OA
BRANCH  43  46
ATOM     46  C   UNL     1      -0.640 -15.972   5.107  1.00  0.00     0.039 A 
ATOM     47  C   UNL     1      -0.962 -16.485   6.368  1.00  0.00     0.014 A 
ATOM     48  C   UNL     1      -1.535 -15.170   4.413  1.00  0.00     0.014 A 
ATOM     49  C   UNL     1      -2.185 -16.135   6.934  1.00  0.00     0.010 A 
ATOM     50  C   UNL     1      -2.591 -14.623   5.071  1.00  0.00     0.010 A 
ATOM     51  C   UNL     1      -2.986 -15.202   6.267  1.00  0.00    -0.014 A 
BRANCH  51  52
ATOM     52  C   UNL     1      -4.272 -14.757   6.766  1.00  0.00     0.031 A 
ATOM     53  C   UNL     1      -4.210 -13.956   8.010  1.00  0.00     0.074 A 
ATOM     54  C   UNL     1      -5.358 -14.805   5.962  1.00  0.00     0.049 A 
ATOM     55  N   UNL     1      -4.634 -14.293   9.181  1.00  0.00    -0.248 NA
ATOM     56  C   UNL     1      -3.425 -12.710   8.002  1.00  0.00     0.031 C 
ATOM     57  C   UNL     1      -5.446 -15.261   4.565  1.00  0.00     0.029 A 
ATOM     58  N   UNL     1      -6.595 -14.294   6.183  1.00  0.00    -0.354 N 
ATOM     59  C   UNL     1      -4.396 -13.194  10.001  1.00  0.00     0.074 A 
ATOM     60  C   UNL     1      -3.445 -12.379   9.295  1.00  0.00     0.031 C 
ATOM     61  C   UNL     1      -6.577 -14.783   4.004  1.00  0.00     0.029 A 
ATOM     62  C   UNL     1      -7.360 -14.126   5.030  1.00  0.00     0.049 A 
ATOM     63  H   UNL     1      -6.924 -14.062   7.081  1.00  0.00     0.167 HD
ATOM     64  C   UNL     1      -5.201 -12.924  11.069  1.00  0.00     0.037 A 
ATOM     65  C   UNL     1      -8.508 -13.406   4.951  1.00  0.00     0.037 A 
ATOM     66  C   UNL     1      -6.076 -14.042  11.340  1.00  0.00     0.049 A 
ATOM     67  C   UNL     1      -9.037 -13.321   6.349  1.00  0.00     0.074 A 
ATOM     68  C   UNL     1      -5.872 -15.377  11.638  1.00  0.00     0.029 A 
ATOM     69  N   UNL     1      -7.379 -13.953  10.900  1.00  0.00    -0.354 N 
ATOM     70  N   UNL     1      -9.421 -14.371   7.034  1.00  0.00    -0.248 NA
ATOM     71  C   UNL     1      -8.632 -12.176   7.154  1.00  0.00     0.031 C 
ATOM     72  C   UNL     1      -6.862 -16.073  10.884  1.00  0.00     0.029 A 
ATOM     73  C   UNL     1      -7.671 -15.127  10.251  1.00  0.00     0.049 A 
ATOM     74  H   UNL     1      -7.987 -13.190  11.028  1.00  0.00     0.167 HD
ATOM     75  C   UNL     1      -8.913 -14.176   8.315  1.00  0.00     0.074 A 
ATOM     76  C   UNL     1      -8.488 -12.776   8.341  1.00  0.00     0.031 C 
ATOM     77  C   UNL     1      -8.588 -15.226   9.132  1.00  0.00     0.037 A 
BRANCH  64  78
ATOM     78  C   UNL     1      -5.477 -11.549  11.639  1.00  0.00     0.058 A 
ATOM     79  C   UNL     1      -6.248 -11.449  12.817  1.00  0.00     0.135 A 
ATOM     80  C   UNL     1      -5.264 -10.333  10.953  1.00  0.00     0.135 A 
ATOM     81  F   UNL     1      -6.498 -12.535  13.567  1.00  0.00    -0.206 F 
ATOM     82  C   UNL     1      -6.853 -10.259  13.219  1.00  0.00     0.059 A 
ATOM     83  C   UNL     1      -5.811  -9.124  11.368  1.00  0.00     0.059 A 
ATOM     84  F   UNL     1      -4.600 -10.262   9.795  1.00  0.00    -0.206 F 
ATOM     85  C   UNL     1      -6.646  -9.106  12.472  1.00  0.00     0.060 A 
BRANCH  85  86
ATOM     86  S   UNL     1      -7.531  -7.601  12.909  1.00  0.00     0.124 S 
ATOM     87  O   UNL     1      -8.903  -7.965  12.575  1.00  0.00    -0.237 OA
ATOM     88  O   UNL     1      -7.229  -7.475  14.331  1.00  0.00    -0.237 OA
ATOM     89  O   UNL     1      -6.919  -6.590  12.051  1.00  0.00    -0.744 OA
ENDBRANCH  85  86
ENDBRANCH  64  78
BRANCH  65  90
ATOM     90  C   UNL     1      -8.885 -12.478   3.844  1.00  0.00     0.058 A 
ATOM     91  C   UNL     1     -10.167 -11.907   3.754  1.00  0.00     0.135 A 
ATOM     92  C   UNL     1      -7.915 -11.937   2.970  1.00  0.00     0.135 A 
ATOM     93  F   UNL     1     -11.151 -12.335   4.559  1.00  0.00    -0.206 F 
ATOM     94  C   UNL     1     -10.458 -10.846   2.880  1.00  0.00     0.059 A 
ATOM     95  C   UNL     1      -8.184 -10.896   2.083  1.00  0.00     0.059 A 
ATOM     96  F   UNL     1      -6.637 -12.342   3.007  1.00  0.00    -0.206 F 
ATOM     97  C   UNL     1      -9.452 -10.336   2.058  1.00  0.00     0.060 A 
BRANCH  97  98
ATOM     98  S   UNL     1      -9.759  -8.866   1.048  1.00  0.00     0.124 S 
ATOM     99  O   UNL     1     -10.691  -9.374   0.047  1.00  0.00    -0.237 OA
ATOM    100  O   UNL     1     -10.313  -7.932   2.022  1.00  0.00    -0.237 OA
ATOM    101  O   UNL     1      -8.432  -8.517   0.543  1.00  0.00    -0.744 OA
ENDBRANCH  97  98
ENDBRANCH  65  90
BRANCH  77 102
ATOM    102  C   UNL     1      -8.994 -16.629   8.736  1.00  0.00     0.058 A 
ATOM    103  C   UNL     1      -8.534 -17.295   7.585  1.00  0.00     0.135 A 
ATOM    104  C   UNL     1      -9.703 -17.402   9.668  1.00  0.00     0.135 A 
ATOM    105  F   UNL     1      -7.755 -16.672   6.693  1.00  0.00    -0.206 F 
ATOM    106  C   UNL     1      -8.794 -18.648   7.354  1.00  0.00     0.059 A 
ATOM    107  C   UNL     1      -9.947 -18.760   9.476  1.00  0.00     0.059 A 
ATOM    108  F   UNL     1     -10.113 -16.851  10.822  1.00  0.00    -0.206 F 
ATOM    109  C   UNL     1      -9.500 -19.375   8.309  1.00  0.00     0.060 A 
BRANCH 109 110
ATOM    110  S   UNL     1      -9.771 -21.141   8.047  1.00  0.00     0.124 S 
ATOM    111  O   UNL     1     -10.734 -21.143   6.951  1.00  0.00    -0.237 OA
ATOM    112  O   UNL     1      -8.433 -21.624   7.716  1.00  0.00    -0.237 OA
ATOM    113  O   UNL     1     -10.290 -21.602   9.333  1.00  0.00    -0.744 OA
ENDBRANCH 109 110
ENDBRANCH  77 102
ENDBRANCH  51  52
ENDBRANCH  43  46
ENDBRANCH  41  42
ENDBRANCH  40  41
ENDBRANCH   1  40
TORSDOF 20
