REMARK SMILES C[C@@](NC(=O)[C@H]1COc2ccccc21)(C(=O)NCCCCCCNC(=O)c1ccc(-c2c3nc(c(-c4c(F)cc(S(=O)(=O)[O-])cc4F)c4ccc([nH]4)c(-c4c(F)cc(S(=O)(=O)[O-])cc4F)c4nc(c(-c5c(F)cc(S(=O)(=O)[O-])cc5F)c5ccc2[nH]5)C=C4)C=C3)cc1)C(F)(F)F
REMARK SMILES IDX 21 1 20 2 19 3 18 4 17 5 15 6 16 7 2 9 1 10 3 11 4 12 5 14
REMARK SMILES IDX 6 15 7 16 14 17 8 18 9 19 13 20 10 21 12 22 11 23 93 24
REMARK SMILES IDX 94 25 95 26 96 27 22 28 23 29 24 30 25 31 26 33 27 34 28 35
REMARK SMILES IDX 92 36 29 37 91 38 30 39 31 40 32 41 85 42 33 43 90 44 84 45
REMARK SMILES IDX 86 46 34 47 89 48 83 49 82 50 35 52 69 53 48 54 68 55 49 56
REMARK SMILES IDX 52 57 67 58 87 59 50 60 51 61 66 63 88 64 53 65 36 66 37 67
REMARK SMILES IDX 46 68 38 69 39 70 45 71 47 72 40 73 41 74 42 75 43 76 44 77
REMARK SMILES IDX 70 78 71 79 80 80 72 81 73 82 79 83 81 84 74 85 75 86 76 87
REMARK SMILES IDX 77 88 78 89 54 90 55 91 64 92 56 93 57 94 63 95 65 96 58 97
REMARK SMILES IDX 59 98 60 99 61 100 62 101
REMARK H PARENT 17 8 3 13 24 32 86 51 52 62
REMARK Flexibility Score: inf
ROOT
ATOM      1  C   UNL     1      -2.920  -3.663   2.136  1.00  0.00     0.002 C 
ENDROOT
BRANCH   1   2
ATOM      2  C   UNL     1      -2.625  -2.217   2.555  1.00  0.00     0.002 C 
BRANCH   2   3
ATOM      3  C   UNL     1      -1.137  -1.866   2.615  1.00  0.00     0.021 C 
BRANCH   3   4
ATOM      4  C   UNL     1      -0.502  -1.706   1.235  1.00  0.00     0.116 C 
BRANCH   4   5
ATOM      5  N   UNL     1      -0.761  -0.389   0.670  1.00  0.00    -0.354 N 
ATOM      6  C   UNL     1      -0.209   0.242  -0.415  1.00  0.00     0.254 C 
ATOM      7  O   UNL     1      -0.504   1.431  -0.569  1.00  0.00    -0.272 OA
ATOM      8  H   UNL     1      -1.445   0.135   1.145  1.00  0.00     0.163 HD
BRANCH   6   9
ATOM      9  C   UNL     1       0.899  -0.428  -1.240  1.00  0.00     0.212 C 
ATOM     10  C   UNL     1       2.188  -0.258  -0.390  1.00  0.00     0.056 C 
BRANCH   9  11
ATOM     11  N   UNL     1       0.689  -1.890  -1.481  1.00  0.00    -0.334 N 
ATOM     12  C   UNL     1      -0.176  -2.604  -2.236  1.00  0.00     0.232 C 
ATOM     13  H   UNL     1       1.318  -2.456  -0.979  1.00  0.00     0.164 HD
ATOM     14  O   UNL     1       0.307  -3.686  -2.615  1.00  0.00    -0.274 OA
BRANCH  12  15
ATOM     15  C   UNL     1      -1.626  -2.329  -2.606  1.00  0.00     0.150 C 
ATOM     16  C   UNL     1      -2.472  -3.426  -1.911  1.00  0.00     0.248 C 
ATOM     17  C   UNL     1      -2.416  -1.146  -2.182  1.00  0.00     0.010 A 
ATOM     18  O   UNL     1      -3.291  -2.832  -0.877  1.00  0.00    -0.492 OA
ATOM     19  C   UNL     1      -3.311  -1.504  -1.187  1.00  0.00     0.123 A 
ATOM     20  C   UNL     1      -2.483   0.133  -2.708  1.00  0.00     0.008 A 
ATOM     21  C   UNL     1      -4.174  -0.603  -0.590  1.00  0.00     0.047 A 
ATOM     22  C   UNL     1      -3.334   1.072  -2.114  1.00  0.00     0.001 A 
ATOM     23  C   UNL     1      -4.160   0.713  -1.042  1.00  0.00     0.004 A 
ENDBRANCH  12  15
ENDBRANCH   9  11
BRANCH   9  24
ATOM     24  C   UNL     1       1.175   0.344  -2.551  1.00  0.00     0.420 C 
ATOM     25  F   UNL     1       1.393   1.664  -2.382  1.00  0.00    -0.168 F 
ATOM     26  F   UNL     1       2.306  -0.148  -3.138  1.00  0.00    -0.168 F 
ATOM     27  F   UNL     1       0.205   0.191  -3.474  1.00  0.00    -0.168 F 
ENDBRANCH   9  24
ENDBRANCH   6   9
ENDBRANCH   4   5
ENDBRANCH   3   4
ENDBRANCH   2   3
ENDBRANCH   1   2
BRANCH   1  28
ATOM     28  C   UNL     1      -2.387  -4.748   3.066  1.00  0.00     0.021 C 
BRANCH  28  29
ATOM     29  C   UNL     1      -2.677  -4.529   4.540  1.00  0.00     0.116 C 
BRANCH  29  30
ATOM     30  N   UNL     1      -4.096  -4.393   4.834  1.00  0.00    -0.352 N 
ATOM     31  C   UNL     1      -4.788  -4.895   5.912  1.00  0.00     0.251 C 
ATOM     32  H   UNL     1      -4.626  -3.880   4.182  1.00  0.00     0.163 HD
ATOM     33  O   UNL     1      -6.003  -4.781   5.991  1.00  0.00    -0.269 OA
BRANCH  31  34
ATOM     34  C   UNL     1      -4.026  -5.620   6.949  1.00  0.00     0.039 A 
ATOM     35  C   UNL     1      -4.409  -6.918   7.285  1.00  0.00     0.014 A 
ATOM     36  C   UNL     1      -2.870  -5.052   7.492  1.00  0.00     0.014 A 
ATOM     37  C   UNL     1      -3.586  -7.678   8.115  1.00  0.00     0.010 A 
ATOM     38  C   UNL     1      -2.006  -5.843   8.237  1.00  0.00     0.010 A 
ATOM     39  C   UNL     1      -2.357  -7.161   8.562  1.00  0.00    -0.014 A 
BRANCH  39  40
ATOM     40  C   UNL     1      -1.430  -7.990   9.372  1.00  0.00     0.031 A 
ATOM     41  C   UNL     1      -1.073  -7.571  10.772  1.00  0.00     0.074 A 
ATOM     42  C   UNL     1      -0.869  -9.088   8.826  1.00  0.00     0.049 A 
ATOM     43  N   UNL     1      -0.287  -8.159  11.635  1.00  0.00    -0.248 NA
ATOM     44  C   UNL     1      -1.645  -6.302  11.253  1.00  0.00     0.031 C 
ATOM     45  C   UNL     1      -1.074  -9.550   7.450  1.00  0.00     0.029 A 
ATOM     46  N   UNL     1      -0.017 -10.019   9.362  1.00  0.00    -0.354 N 
ATOM     47  C   UNL     1      -0.253  -7.325  12.746  1.00  0.00     0.074 A 
ATOM     48  C   UNL     1      -1.043  -6.158  12.424  1.00  0.00     0.031 C 
ATOM     49  C   UNL     1      -0.411 -10.703   7.269  1.00  0.00     0.029 A 
ATOM     50  C   UNL     1       0.288 -11.048   8.502  1.00  0.00     0.049 A 
ATOM     51  H   UNL     1       0.343  -9.957  10.276  1.00  0.00     0.167 HD
ATOM     52  C   UNL     1       0.355  -7.526  13.939  1.00  0.00     0.037 A 
ATOM     53  C   UNL     1       1.033 -12.154   8.696  1.00  0.00     0.037 A 
ATOM     54  C   UNL     1       1.102  -8.712  14.265  1.00  0.00     0.049 A 
ATOM     55  C   UNL     1       1.659 -12.380  10.044  1.00  0.00     0.074 A 
ATOM     56  C   UNL     1       1.681  -9.062  15.472  1.00  0.00     0.029 A 
ATOM     57  N   UNL     1       1.372  -9.743  13.377  1.00  0.00    -0.354 N 
ATOM     58  N   UNL     1       1.606 -11.624  11.116  1.00  0.00    -0.248 NA
ATOM     59  C   UNL     1       2.437 -13.614  10.213  1.00  0.00     0.031 C 
ATOM     60  C   UNL     1       2.336 -10.288  15.301  1.00  0.00     0.029 A 
ATOM     61  C   UNL     1       2.129 -10.721  14.000  1.00  0.00     0.049 A 
ATOM     62  H   UNL     1       1.070  -9.775  12.440  1.00  0.00     0.167 HD
ATOM     63  C   UNL     1       2.326 -12.302  12.094  1.00  0.00     0.074 A 
ATOM     64  C   UNL     1       2.787 -13.536  11.489  1.00  0.00     0.031 C 
ATOM     65  C   UNL     1       2.584 -11.937  13.375  1.00  0.00     0.037 A 
BRANCH  52  66
ATOM     66  C   UNL     1       0.229  -6.439  14.972  1.00  0.00     0.058 A 
ATOM     67  C   UNL     1      -0.997  -6.149  15.595  1.00  0.00     0.135 A 
ATOM     68  C   UNL     1       1.345  -5.671  15.339  1.00  0.00     0.135 A 
ATOM     69  F   UNL     1      -2.101  -6.839  15.269  1.00  0.00    -0.206 F 
ATOM     70  C   UNL     1      -1.121  -5.109  16.510  1.00  0.00     0.059 A 
ATOM     71  C   UNL     1       1.251  -4.646  16.276  1.00  0.00     0.059 A 
ATOM     72  F   UNL     1       2.541  -5.904  14.776  1.00  0.00    -0.206 F 
ATOM     73  C   UNL     1       0.009  -4.358  16.840  1.00  0.00     0.060 A 
BRANCH  73  74
ATOM     74  S   UNL     1      -0.170  -2.999  18.014  1.00  0.00     0.124 S 
ATOM     75  O   UNL     1      -0.831  -1.990  17.191  1.00  0.00    -0.237 OA
ATOM     76  O   UNL     1      -0.991  -3.596  19.063  1.00  0.00    -0.237 OA
ATOM     77  O   UNL     1       1.206  -2.696  18.395  1.00  0.00    -0.744 OA
ENDBRANCH  73  74
ENDBRANCH  52  66
BRANCH  53  78
ATOM     78  C   UNL     1       1.169 -13.159   7.609  1.00  0.00     0.058 A 
ATOM     79  C   UNL     1       0.514 -14.398   7.694  1.00  0.00     0.135 A 
ATOM     80  C   UNL     1       1.928 -12.900   6.458  1.00  0.00     0.135 A 
ATOM     81  F   UNL     1      -0.220 -14.694   8.777  1.00  0.00    -0.206 F 
ATOM     82  C   UNL     1       0.617 -15.349   6.684  1.00  0.00     0.059 A 
ATOM     83  C   UNL     1       2.027 -13.827   5.424  1.00  0.00     0.059 A 
ATOM     84  F   UNL     1       2.559 -11.724   6.319  1.00  0.00    -0.206 F 
ATOM     85  C   UNL     1       1.373 -15.052   5.550  1.00  0.00     0.060 A 
BRANCH  85  86
ATOM     86  S   UNL     1       1.450 -16.270   4.218  1.00  0.00     0.124 S 
ATOM     87  O   UNL     1       2.332 -17.279   4.792  1.00  0.00    -0.237 OA
ATOM     88  O   UNL     1       0.049 -16.654   4.073  1.00  0.00    -0.237 OA
ATOM     89  O   UNL     1       2.001 -15.509   3.101  1.00  0.00    -0.744 OA
ENDBRANCH  85  86
ENDBRANCH  53  78
BRANCH  65  90
ATOM     90  C   UNL     1       3.389 -12.897  14.206  1.00  0.00     0.058 A 
ATOM     91  C   UNL     1       4.762 -13.085  13.988  1.00  0.00     0.135 A 
ATOM     92  C   UNL     1       2.781 -13.626  15.240  1.00  0.00     0.135 A 
ATOM     93  F   UNL     1       5.389 -12.415  13.008  1.00  0.00    -0.206 F 
ATOM     94  C   UNL     1       5.498 -13.994  14.741  1.00  0.00     0.059 A 
ATOM     95  C   UNL     1       3.504 -14.519  16.024  1.00  0.00     0.059 A 
ATOM     96  F   UNL     1       1.473 -13.472  15.499  1.00  0.00    -0.206 F 
ATOM     97  C   UNL     1       4.858 -14.710  15.753  1.00  0.00     0.060 A 
BRANCH  97  98
ATOM     98  S   UNL     1       5.821 -15.889  16.724  1.00  0.00     0.124 S 
ATOM     99  O   UNL     1       5.931 -17.010  15.796  1.00  0.00    -0.237 OA
ATOM    100  O   UNL     1       7.055 -15.153  16.979  1.00  0.00    -0.237 OA
ATOM    101  O   UNL     1       4.985 -16.123  17.898  1.00  0.00    -0.744 OA
ENDBRANCH  97  98
ENDBRANCH  65  90
ENDBRANCH  39  40
ENDBRANCH  31  34
ENDBRANCH  29  30
ENDBRANCH  28  29
ENDBRANCH   1  28
TORSDOF 19
