REMARK SMILES COc1cc(C(=O)NC2(C(=O)NCCCCCCNC(=O)c3ccc(-c4c5nc(c(-c6c(F)cc(S(=O)(=O)[O-])cc6F)c6ccc([nH]6)c(-c6c(F)cc(S(=O)(=O)[O-])cc6F)c6nc(c(-c7c(F)cc(S(=O)(=O)[O-])cc7F)c7ccc4[nH]7)C=C6)C=C5)cc3)CCCCC2)cc2c1OCCO2
REMARK SMILES IDX 15 1 14 2 13 3 12 4 10 5 11 6 9 8 88 9 92 10 89 11 91 12
REMARK SMILES IDX 90 13 8 14 6 15 7 16 5 18 3 19 4 20 95 21 94 22 96 23 93 24
REMARK SMILES IDX 99 25 97 26 98 27 2 28 1 29 16 30 17 31 18 32 19 33 20 34
REMARK SMILES IDX 21 36 22 37 23 38 87 39 24 40 86 41 25 42 26 43 27 44 80 45
REMARK SMILES IDX 28 46 85 47 79 48 81 49 29 50 84 51 78 52 77 53 30 55 64 56
REMARK SMILES IDX 43 57 63 58 44 59 47 60 62 61 82 62 45 63 46 64 61 66 83 67
REMARK SMILES IDX 48 68 31 69 32 70 41 71 33 72 34 73 40 74 42 75 35 76 36 77
REMARK SMILES IDX 37 78 38 79 39 80 65 81 66 82 75 83 67 84 68 85 74 86 76 87
REMARK SMILES IDX 69 88 70 89 71 90 72 91 73 92 49 93 50 94 59 95 51 96 52 97
REMARK SMILES IDX 58 98 60 99 53 100 54 101 55 102 56 103 57 104
REMARK H PARENT 12 7 8 17 19 35 81 54 47 65
REMARK Flexibility Score: inf
ROOT
ATOM      1  C   UNL     1      -6.560  -1.656   2.345  1.00  0.00     0.002 C 
ENDROOT
BRANCH   1   2
ATOM      2  C   UNL     1      -5.739  -1.678   1.056  1.00  0.00     0.021 C 
BRANCH   2   3
ATOM      3  C   UNL     1      -4.817  -2.892   0.939  1.00  0.00     0.116 C 
BRANCH   3   4
ATOM      4  N   UNL     1      -4.970  -3.667  -0.279  1.00  0.00    -0.354 N 
ATOM      5  C   UNL     1      -4.067  -4.052  -1.233  1.00  0.00     0.245 C 
ATOM      6  O   UNL     1      -4.440  -4.943  -2.009  1.00  0.00    -0.272 OA
ATOM      7  H   UNL     1      -5.891  -3.971  -0.450  1.00  0.00     0.163 HD
BRANCH   5   8
ATOM      8  C   UNL     1      -2.653  -3.362  -1.428  1.00  0.00     0.119 C 
ATOM      9  C   UNL     1      -1.817  -3.547  -0.149  1.00  0.00     0.038 C 
ATOM     10  C   UNL     1      -2.945  -1.946  -1.951  1.00  0.00     0.038 C 
ATOM     11  C   UNL     1      -1.504  -2.317   0.711  1.00  0.00     0.003 C 
ATOM     12  C   UNL     1      -2.876  -0.806  -0.956  1.00  0.00     0.003 C 
ATOM     13  C   UNL     1      -1.904  -0.929   0.207  1.00  0.00     0.000 C 
BRANCH   8  14
ATOM     14  N   UNL     1      -2.012  -4.126  -2.572  1.00  0.00    -0.338 N 
ATOM     15  C   UNL     1      -0.802  -4.136  -3.240  1.00  0.00     0.252 C 
ATOM     16  O   UNL     1      -0.713  -4.860  -4.234  1.00  0.00    -0.269 OA
ATOM     17  H   UNL     1      -2.628  -4.801  -2.939  1.00  0.00     0.164 HD
BRANCH  15  18
ATOM     18  C   UNL     1       0.429  -3.393  -2.812  1.00  0.00     0.047 A 
ATOM     19  C   UNL     1       1.552  -1.790  -1.362  1.00  0.00     0.165 A 
ATOM     20  C   UNL     1       0.402  -2.306  -1.954  1.00  0.00     0.064 A 
ATOM     21  C   UNL     1       2.795  -2.255  -1.751  1.00  0.00     0.203 A 
ATOM     22  C   UNL     1       2.864  -3.260  -2.722  1.00  0.00     0.166 A 
ATOM     23  O   UNL     1       3.896  -1.725  -1.138  1.00  0.00    -0.483 OA
ATOM     24  C   UNL     1       1.691  -3.838  -3.237  1.00  0.00     0.064 A 
ATOM     25  O   UNL     1       4.056  -3.750  -3.196  1.00  0.00    -0.486 OA
ATOM     26  C   UNL     1       5.051  -1.890  -1.953  1.00  0.00     0.271 C 
ATOM     27  C   UNL     1       5.173  -3.338  -2.394  1.00  0.00     0.271 C 
BRANCH  19  28
ATOM     28  O   UNL     1       1.367  -0.988  -0.269  1.00  0.00    -0.493 OA
ATOM     29  C   UNL     1       1.751   0.365  -0.474  1.00  0.00     0.278 C 
ENDBRANCH  19  28
ENDBRANCH  15  18
ENDBRANCH   8  14
ENDBRANCH   5   8
ENDBRANCH   3   4
ENDBRANCH   2   3
ENDBRANCH   1   2
BRANCH   1  30
ATOM     30  C   UNL     1      -5.752  -1.707   3.650  1.00  0.00     0.002 C 
BRANCH  30  31
ATOM     31  C   UNL     1      -4.777  -0.552   3.900  1.00  0.00     0.021 C 
BRANCH  31  32
ATOM     32  C   UNL     1      -5.385   0.849   3.865  1.00  0.00     0.116 C 
BRANCH  32  33
ATOM     33  N   UNL     1      -6.554   0.968   4.724  1.00  0.00    -0.352 N 
ATOM     34  C   UNL     1      -6.806   1.818   5.765  1.00  0.00     0.251 C 
ATOM     35  H   UNL     1      -7.280   0.335   4.524  1.00  0.00     0.163 HD
ATOM     36  O   UNL     1      -7.787   1.610   6.490  1.00  0.00    -0.269 OA
BRANCH  34  37
ATOM     37  C   UNL     1      -5.925   2.971   6.038  1.00  0.00     0.039 A 
ATOM     38  C   UNL     1      -5.604   3.280   7.364  1.00  0.00     0.014 A 
ATOM     39  C   UNL     1      -5.451   3.777   4.999  1.00  0.00     0.014 A 
ATOM     40  C   UNL     1      -4.769   4.364   7.643  1.00  0.00     0.010 A 
ATOM     41  C   UNL     1      -4.564   4.816   5.274  1.00  0.00     0.010 A 
ATOM     42  C   UNL     1      -4.220   5.125   6.598  1.00  0.00    -0.014 A 
BRANCH  42  43
ATOM     43  C   UNL     1      -3.294   6.254   6.872  1.00  0.00     0.031 A 
ATOM     44  C   UNL     1      -3.692   7.660   6.510  1.00  0.00     0.074 A 
ATOM     45  C   UNL     1      -2.076   6.007   7.393  1.00  0.00     0.049 A 
ATOM     46  N   UNL     1      -2.995   8.764   6.596  1.00  0.00    -0.248 NA
ATOM     47  C   UNL     1      -5.043   7.846   5.954  1.00  0.00     0.031 C 
ATOM     48  C   UNL     1      -1.563   4.683   7.753  1.00  0.00     0.029 A 
ATOM     49  N   UNL     1      -1.044   6.856   7.705  1.00  0.00    -0.354 N 
ATOM     50  C   UNL     1      -3.817   9.771   6.101  1.00  0.00     0.074 A 
ATOM     51  C   UNL     1      -5.041   9.139   5.662  1.00  0.00     0.031 C 
ATOM     52  C   UNL     1      -0.325   4.811   8.256  1.00  0.00     0.029 A 
ATOM     53  C   UNL     1       0.061   6.218   8.218  1.00  0.00     0.049 A 
ATOM     54  H   UNL     1      -1.091   7.830   7.573  1.00  0.00     0.167 HD
ATOM     55  C   UNL     1      -3.582  11.104   6.042  1.00  0.00     0.037 A 
ATOM     56  C   UNL     1       1.253   6.712   8.606  1.00  0.00     0.037 A 
ATOM     57  C   UNL     1      -2.368  11.729   6.500  1.00  0.00     0.049 A 
ATOM     58  C   UNL     1       1.497   8.194   8.511  1.00  0.00     0.074 A 
ATOM     59  C   UNL     1      -2.045  13.075   6.517  1.00  0.00     0.029 A 
ATOM     60  N   UNL     1      -1.278  11.050   7.026  1.00  0.00    -0.354 N 
ATOM     61  N   UNL     1       0.692   9.137   8.081  1.00  0.00    -0.248 NA
ATOM     62  C   UNL     1       2.808   8.682   8.960  1.00  0.00     0.031 C 
ATOM     63  C   UNL     1      -0.745  13.207   7.015  1.00  0.00     0.029 A 
ATOM     64  C   UNL     1      -0.276  11.948   7.356  1.00  0.00     0.049 A 
ATOM     65  H   UNL     1      -1.224  10.075   7.146  1.00  0.00     0.167 HD
ATOM     66  C   UNL     1       1.386  10.331   8.241  1.00  0.00     0.074 A 
ATOM     67  C   UNL     1       2.672   9.993   8.814  1.00  0.00     0.031 C 
ATOM     68  C   UNL     1       0.993  11.595   7.942  1.00  0.00     0.037 A 
BRANCH  55  69
ATOM     69  C   UNL     1      -4.665  11.979   5.471  1.00  0.00     0.058 A 
ATOM     70  C   UNL     1      -5.871  12.198   6.157  1.00  0.00     0.135 A 
ATOM     71  C   UNL     1      -4.484  12.638   4.244  1.00  0.00     0.135 A 
ATOM     72  F   UNL     1      -6.105  11.582   7.327  1.00  0.00    -0.206 F 
ATOM     73  C   UNL     1      -6.870  13.013   5.635  1.00  0.00     0.059 A 
ATOM     74  C   UNL     1      -5.458  13.482   3.716  1.00  0.00     0.059 A 
ATOM     75  F   UNL     1      -3.351  12.466   3.545  1.00  0.00    -0.206 F 
ATOM     76  C   UNL     1      -6.654  13.651   4.412  1.00  0.00     0.060 A 
BRANCH  76  77
ATOM     77  S   UNL     1      -7.958  14.710   3.752  1.00  0.00     0.124 S 
ATOM     78  O   UNL     1      -8.951  13.724   3.337  1.00  0.00    -0.237 OA
ATOM     79  O   UNL     1      -8.317  15.522   4.911  1.00  0.00    -0.237 OA
ATOM     80  O   UNL     1      -7.297  15.429   2.668  1.00  0.00    -0.744 OA
ENDBRANCH  76  77
ENDBRANCH  55  69
BRANCH  56  81
ATOM     81  C   UNL     1       2.302   5.801   9.140  1.00  0.00     0.058 A 
ATOM     82  C   UNL     1       2.671   5.844  10.493  1.00  0.00     0.135 A 
ATOM     83  C   UNL     1       2.960   4.878   8.313  1.00  0.00     0.135 A 
ATOM     84  F   UNL     1       2.075   6.713  11.323  1.00  0.00    -0.206 F 
ATOM     85  C   UNL     1       3.673   5.024  11.002  1.00  0.00     0.059 A 
ATOM     86  C   UNL     1       3.945   4.027   8.805  1.00  0.00     0.059 A 
ATOM     87  F   UNL     1       2.631   4.783   7.015  1.00  0.00    -0.206 F 
ATOM     88  C   UNL     1       4.305   4.119  10.149  1.00  0.00     0.060 A 
BRANCH  88  89
ATOM     89  S   UNL     1       5.586   3.040  10.825  1.00  0.00     0.124 S 
ATOM     90  O   UNL     1       6.690   3.975  11.008  1.00  0.00    -0.237 OA
ATOM     91  O   UNL     1       4.957   2.547  12.047  1.00  0.00    -0.237 OA
ATOM     92  O   UNL     1       5.770   2.042   9.777  1.00  0.00    -0.744 OA
ENDBRANCH  88  89
ENDBRANCH  56  81
BRANCH  68  93
ATOM     93  C   UNL     1       1.945  12.711   8.271  1.00  0.00     0.058 A 
ATOM     94  C   UNL     1       3.115  12.930   7.529  1.00  0.00     0.135 A 
ATOM     95  C   UNL     1       1.652  13.606   9.314  1.00  0.00     0.135 A 
ATOM     96  F   UNL     1       3.446  12.100   6.527  1.00  0.00    -0.206 F 
ATOM     97  C   UNL     1       3.975  13.983   7.824  1.00  0.00     0.059 A 
ATOM     98  C   UNL     1       2.482  14.683   9.607  1.00  0.00     0.059 A 
ATOM     99  F   UNL     1       0.539  13.448  10.048  1.00  0.00    -0.206 F 
ATOM    100  C   UNL     1       3.649  14.856   8.864  1.00  0.00     0.060 A 
BRANCH 100 101
ATOM    101  S   UNL     1       4.755  16.239   9.212  1.00  0.00     0.124 S 
ATOM    102  O   UNL     1       5.877  15.564   9.856  1.00  0.00    -0.237 OA
ATOM    103  O   UNL     1       5.017  16.773   7.879  1.00  0.00    -0.237 OA
ATOM    104  O   UNL     1       3.958  17.101  10.080  1.00  0.00    -0.744 OA
ENDBRANCH 100 101
ENDBRANCH  68  93
ENDBRANCH  42  43
ENDBRANCH  34  37
ENDBRANCH  32  33
ENDBRANCH  31  32
ENDBRANCH  30  31
ENDBRANCH   1  30
TORSDOF 19
