REMARK SMILES CC[C@@H]1CCCN1C(=O)N[C@H]1C=C[C@@H](C(=O)NCCCCCCNC(=O)c2ccc(-c3c4nc(c(-c5c(F)cc(S(=O)(=O)[O-])cc5F)c5ccc([nH]5)c(-c5c(F)cc(S(=O)(=O)[O-])cc5F)c5nc(c(-c6c(F)cc(S(=O)(=O)[O-])cc6F)c6ccc3[nH]6)C=C5)C=C4)cc2)C1
REMARK SMILES IDX 20 1 19 2 18 3 17 4 15 5 16 6 14 8 11 9 12 10 93 11 13 12
REMARK SMILES IDX 10 13 8 14 9 15 7 17 3 18 4 19 5 20 6 21 2 22 1 23 21 24
REMARK SMILES IDX 22 25 23 26 24 27 25 28 26 30 27 31 28 32 92 33 29 34 91 35
REMARK SMILES IDX 30 36 31 37 32 38 85 39 33 40 90 41 84 42 86 43 34 44 89 45
REMARK SMILES IDX 83 46 82 47 35 49 69 50 48 51 68 52 49 53 52 54 67 55 87 56
REMARK SMILES IDX 50 57 51 58 66 60 88 61 53 62 36 63 37 64 46 65 38 66 39 67
REMARK SMILES IDX 45 68 47 69 40 70 41 71 42 72 43 73 44 74 70 75 71 76 80 77
REMARK SMILES IDX 72 78 73 79 79 80 81 81 74 82 75 83 76 84 77 85 78 86 54 87
REMARK SMILES IDX 55 88 64 89 56 90 57 91 63 92 65 93 58 94 59 95 60 96 61 97
REMARK SMILES IDX 62 98
REMARK H PARENT 17 7 10 16 24 29 86 48 52 59
REMARK Flexibility Score: inf
ROOT
ATOM      1  C   UNL     1      -4.970  -0.578   5.393  1.00  0.00     0.002 C 
ENDROOT
BRANCH   1   2
ATOM      2  C   UNL     1      -4.292  -0.015   4.146  1.00  0.00     0.021 C 
BRANCH   2   3
ATOM      3  C   UNL     1      -2.785  -0.205   4.183  1.00  0.00     0.116 C 
BRANCH   3   4
ATOM      4  N   UNL     1      -2.463  -1.587   3.886  1.00  0.00    -0.356 N 
ATOM      5  C   UNL     1      -1.831  -2.112   2.803  1.00  0.00     0.227 C 
ATOM      6  O   UNL     1      -1.744  -3.338   2.710  1.00  0.00    -0.274 OA
ATOM      7  H   UNL     1      -2.743  -2.240   4.568  1.00  0.00     0.163 HD
BRANCH   5   8
ATOM      8  C   UNL     1      -1.167  -1.207   1.781  1.00  0.00     0.103 C 
ATOM      9  C   UNL     1      -1.127   0.994   0.833  1.00  0.00     0.107 C 
ATOM     10  C   UNL     1      -0.227   0.905   2.032  1.00  0.00    -0.006 C 
ATOM     11  C   UNL     1      -2.063  -0.196   1.031  1.00  0.00     0.047 C 
ATOM     12  C   UNL     1      -0.168  -0.343   2.497  1.00  0.00    -0.016 C 
BRANCH   9  13
ATOM     13  N   UNL     1      -1.601   2.313   0.744  1.00  0.00    -0.332 N 
ATOM     14  C   UNL     1      -0.865   3.413   0.482  1.00  0.00     0.318 C 
ATOM     15  O   UNL     1      -1.475   4.478   0.637  1.00  0.00    -0.249 OA
ATOM     16  H   UNL     1      -2.566   2.448   0.886  1.00  0.00     0.165 HD
BRANCH  14  17
ATOM     17  N   UNL     1       0.481   3.382   0.156  1.00  0.00    -0.322 N 
ATOM     18  C   UNL     1       1.471   2.432  -0.490  1.00  0.00     0.086 C 
ATOM     19  C   UNL     1       2.799   3.200  -0.300  1.00  0.00     0.027 C 
ATOM     20  C   UNL     1       2.427   4.641  -0.509  1.00  0.00     0.024 C 
ATOM     21  C   UNL     1       1.057   4.736   0.127  1.00  0.00     0.122 C 
BRANCH  18  22
ATOM     22  C   UNL     1       1.818   0.981  -0.061  1.00  0.00     0.022 C 
ATOM     23  C   UNL     1       2.569   0.190  -1.130  1.00  0.00     0.006 C 
ENDBRANCH  18  22
ENDBRANCH  14  17
ENDBRANCH   9  13
ENDBRANCH   5   8
ENDBRANCH   3   4
ENDBRANCH   2   3
ENDBRANCH   1   2
BRANCH   1  24
ATOM     24  C   UNL     1      -4.434   0.008   6.704  1.00  0.00     0.002 C 
BRANCH  24  25
ATOM     25  C   UNL     1      -4.411   1.539   6.748  1.00  0.00     0.021 C 
BRANCH  25  26
ATOM     26  C   UNL     1      -5.758   2.183   6.444  1.00  0.00     0.116 C 
BRANCH  26  27
ATOM     27  N   UNL     1      -6.790   1.693   7.344  1.00  0.00    -0.352 N 
ATOM     28  C   UNL     1      -7.612   2.405   8.172  1.00  0.00     0.251 C 
ATOM     29  H   UNL     1      -6.913   0.716   7.358  1.00  0.00     0.163 HD
ATOM     30  O   UNL     1      -8.246   1.831   9.056  1.00  0.00    -0.269 OA
BRANCH  28  31
ATOM     31  C   UNL     1      -7.719   3.864   7.995  1.00  0.00     0.039 A 
ATOM     32  C   UNL     1      -7.665   4.688   9.119  1.00  0.00     0.014 A 
ATOM     33  C   UNL     1      -7.863   4.410   6.716  1.00  0.00     0.014 A 
ATOM     34  C   UNL     1      -7.711   6.071   8.954  1.00  0.00     0.010 A 
ATOM     35  C   UNL     1      -7.830   5.789   6.549  1.00  0.00     0.010 A 
ATOM     36  C   UNL     1      -7.764   6.633   7.667  1.00  0.00    -0.014 A 
BRANCH  36  37
ATOM     37  C   UNL     1      -7.754   8.102   7.471  1.00  0.00     0.031 A 
ATOM     38  C   UNL     1      -8.939   8.787   6.849  1.00  0.00     0.074 A 
ATOM     39  C   UNL     1      -6.653   8.806   7.801  1.00  0.00     0.049 A 
ATOM     40  N   UNL     1      -9.095  10.048   6.540  1.00  0.00    -0.248 NA
ATOM     41  C   UNL     1     -10.092   7.939   6.504  1.00  0.00     0.031 C 
ATOM     42  C   UNL     1      -5.427   8.240   8.369  1.00  0.00     0.029 A 
ATOM     43  N   UNL     1      -6.382  10.146   7.698  1.00  0.00    -0.354 N 
ATOM     44  C   UNL     1     -10.352  10.143   5.957  1.00  0.00     0.074 A 
ATOM     45  C   UNL     1     -10.896   8.803   5.903  1.00  0.00     0.031 C 
ATOM     46  C   UNL     1      -4.545   9.229   8.584  1.00  0.00     0.029 A 
ATOM     47  C   UNL     1      -5.123  10.490   8.130  1.00  0.00     0.049 A 
ATOM     48  H   UNL     1      -7.029  10.801   7.347  1.00  0.00     0.167 HD
ATOM     49  C   UNL     1     -11.003  11.250   5.527  1.00  0.00     0.037 A 
ATOM     50  C   UNL     1      -4.501  11.684   8.147  1.00  0.00     0.037 A 
ATOM     51  C   UNL     1     -10.457  12.580   5.601  1.00  0.00     0.049 A 
ATOM     52  C   UNL     1      -5.239  12.897   7.649  1.00  0.00     0.074 A 
ATOM     53  C   UNL     1     -11.054  13.776   5.243  1.00  0.00     0.029 A 
ATOM     54  N   UNL     1      -9.183  12.891   6.056  1.00  0.00    -0.354 N 
ATOM     55  N   UNL     1      -6.455  12.980   7.163  1.00  0.00    -0.248 NA
ATOM     56  C   UNL     1      -4.525  14.179   7.707  1.00  0.00     0.031 C 
ATOM     57  C   UNL     1     -10.124  14.803   5.431  1.00  0.00     0.029 A 
ATOM     58  C   UNL     1      -8.967  14.256   5.964  1.00  0.00     0.049 A 
ATOM     59  H   UNL     1      -8.529  12.237   6.394  1.00  0.00     0.167 HD
ATOM     60  C   UNL     1      -6.662  14.327   6.884  1.00  0.00     0.074 A 
ATOM     61  C   UNL     1      -5.451  15.022   7.270  1.00  0.00     0.031 C 
ATOM     62  C   UNL     1      -7.755  14.933   6.358  1.00  0.00     0.037 A 
BRANCH  49  63
ATOM     63  C   UNL     1     -12.377  11.071   4.938  1.00  0.00     0.058 A 
ATOM     64  C   UNL     1     -13.475  10.691   5.727  1.00  0.00     0.135 A 
ATOM     65  C   UNL     1     -12.608  11.320   3.575  1.00  0.00     0.135 A 
ATOM     66  F   UNL     1     -13.311  10.424   7.033  1.00  0.00    -0.206 F 
ATOM     67  C   UNL     1     -14.745  10.536   5.181  1.00  0.00     0.059 A 
ATOM     68  C   UNL     1     -13.876  11.202   3.014  1.00  0.00     0.059 A 
ATOM     69  F   UNL     1     -11.595  11.684   2.773  1.00  0.00    -0.206 F 
ATOM     70  C   UNL     1     -14.936  10.795   3.823  1.00  0.00     0.060 A 
BRANCH  70  71
ATOM     71  S   UNL     1     -16.593  10.600   3.135  1.00  0.00     0.124 S 
ATOM     72  O   UNL     1     -16.745   9.148   3.149  1.00  0.00    -0.237 OA
ATOM     73  O   UNL     1     -17.417  11.332   4.091  1.00  0.00    -0.237 OA
ATOM     74  O   UNL     1     -16.487  11.205   1.811  1.00  0.00    -0.744 OA
ENDBRANCH  70  71
ENDBRANCH  49  63
BRANCH  50  75
ATOM     75  C   UNL     1      -3.111  11.791   8.666  1.00  0.00     0.058 A 
ATOM     76  C   UNL     1      -2.838  12.456   9.871  1.00  0.00     0.135 A 
ATOM     77  C   UNL     1      -2.029  11.218   7.978  1.00  0.00     0.135 A 
ATOM     78  F   UNL     1      -3.837  13.024  10.564  1.00  0.00    -0.206 F 
ATOM     79  C   UNL     1      -1.543  12.568  10.365  1.00  0.00     0.059 A 
ATOM     80  C   UNL     1      -0.729  11.292   8.467  1.00  0.00     0.059 A 
ATOM     81  F   UNL     1      -2.238  10.555   6.830  1.00  0.00    -0.206 F 
ATOM     82  C   UNL     1      -0.494  11.979   9.656  1.00  0.00     0.060 A 
BRANCH  82  83
ATOM     83  S   UNL     1       1.177  12.092  10.331  1.00  0.00     0.124 S 
ATOM     84  O   UNL     1       1.489  13.499  10.110  1.00  0.00    -0.237 OA
ATOM     85  O   UNL     1       0.973  11.693  11.720  1.00  0.00    -0.237 OA
ATOM     86  O   UNL     1       1.932  11.142   9.519  1.00  0.00    -0.744 OA
ENDBRANCH  82  83
ENDBRANCH  50  75
BRANCH  62  87
ATOM     87  C   UNL     1      -7.710  16.429   6.202  1.00  0.00     0.058 A 
ATOM     88  C   UNL     1      -6.909  17.049   5.230  1.00  0.00     0.135 A 
ATOM     89  C   UNL     1      -8.521  17.250   7.003  1.00  0.00     0.135 A 
ATOM     90  F   UNL     1      -6.110  16.312   4.442  1.00  0.00    -0.206 F 
ATOM     91  C   UNL     1      -6.894  18.431   5.075  1.00  0.00     0.059 A 
ATOM     92  C   UNL     1      -8.546  18.632   6.844  1.00  0.00     0.059 A 
ATOM     93  F   UNL     1      -9.314  16.709   7.941  1.00  0.00    -0.206 F 
ATOM     94  C   UNL     1      -7.719  19.214   5.885  1.00  0.00     0.060 A 
BRANCH  94  95
ATOM     95  S   UNL     1      -7.715  21.004   5.650  1.00  0.00     0.124 S 
ATOM     96  O   UNL     1      -6.418  21.371   6.209  1.00  0.00    -0.237 OA
ATOM     97  O   UNL     1      -7.838  21.128   4.200  1.00  0.00    -0.237 OA
ATOM     98  O   UNL     1      -8.877  21.451   6.412  1.00  0.00    -0.744 OA
ENDBRANCH  94  95
ENDBRANCH  62  87
ENDBRANCH  36  37
ENDBRANCH  28  31
ENDBRANCH  26  27
ENDBRANCH  25  26
ENDBRANCH  24  25
ENDBRANCH   1  24
TORSDOF 19
