REMARK SMILES O=C(NCCCCCCNC(=O)[C@H](c1ccccc1)N1C(=O)/C(=C\c2ccc(Br)cc2)SC1=S)c1ccc(-c2c3nc(c(-c4c(F)cc(S(=O)(=O)[O-])cc4F)c4ccc([nH]4)c(-c4c(F)cc(S(=O)(=O)[O-])cc4F)c4nc(c(-c5c(F)cc(S(=O)(=O)[O-])cc5F)c5ccc2[nH]5)C=C4)C=C3)cc1
REMARK SMILES IDX 6 1 5 2 4 3 3 4 1 5 2 6 35 8 36 9 100 10 37 11 99 12 38 13
REMARK SMILES IDX 39 14 40 15 93 16 41 17 98 18 92 19 94 20 42 21 97 22 91 23
REMARK SMILES IDX 90 24 43 26 77 27 56 28 76 29 57 30 60 31 75 32 95 33 58 34
REMARK SMILES IDX 59 35 74 37 96 38 61 39 44 40 45 41 54 42 46 43 47 44 53 45
REMARK SMILES IDX 55 46 48 47 49 48 50 49 51 50 52 51 78 52 79 53 88 54 80 55
REMARK SMILES IDX 81 56 87 57 89 58 82 59 83 60 84 61 85 62 86 63 62 64 63 65
REMARK SMILES IDX 72 66 64 67 65 68 71 69 73 70 66 71 67 72 68 73 69 74 70 75
REMARK SMILES IDX 7 76 8 77 9 78 10 79 11 80 12 82 13 83 20 84 21 85 33 86
REMARK SMILES IDX 22 87 23 88 32 89 34 90 24 91 25 92 26 93 31 94 27 95 30 96
REMARK SMILES IDX 28 97 29 98 14 99 15 100 19 101 16 102 18 103 17 104
REMARK H PARENT 3 7 94 25 60 36 10 81
REMARK Flexibility Score: inf
ROOT
ATOM      1  C   UNL     1       7.774  -8.959   0.355  1.00  0.00     0.002 C 
ENDROOT
BRANCH   1   2
ATOM      2  C   UNL     1       7.033 -10.161   0.945  1.00  0.00     0.021 C 
BRANCH   2   3
ATOM      3  C   UNL     1       5.554 -10.229   0.578  1.00  0.00     0.116 C 
BRANCH   3   4
ATOM      4  N   UNL     1       5.367 -10.389  -0.855  1.00  0.00    -0.352 N 
ATOM      5  O   UNL     1       4.967 -11.522  -2.759  1.00  0.00    -0.269 OA
ATOM      6  C   UNL     1       4.816 -11.439  -1.544  1.00  0.00     0.251 C 
ATOM      7  H   UNL     1       5.681  -9.638  -1.409  1.00  0.00     0.163 HD
BRANCH   6   8
ATOM      8  C   UNL     1       4.049 -12.471  -0.816  1.00  0.00     0.039 A 
ATOM      9  C   UNL     1       3.100 -12.106   0.144  1.00  0.00     0.014 A 
ATOM     10  C   UNL     1       4.264 -13.816  -1.120  1.00  0.00     0.014 A 
ATOM     11  C   UNL     1       2.444 -13.089   0.879  1.00  0.00     0.010 A 
ATOM     12  C   UNL     1       3.553 -14.800  -0.431  1.00  0.00     0.010 A 
ATOM     13  C   UNL     1       2.653 -14.445   0.588  1.00  0.00    -0.014 A 
BRANCH  13  14
ATOM     14  C   UNL     1       1.892 -15.492   1.312  1.00  0.00     0.031 A 
ATOM     15  C   UNL     1       2.599 -16.482   2.193  1.00  0.00     0.074 A 
ATOM     16  C   UNL     1       0.558 -15.567   1.140  1.00  0.00     0.049 A 
ATOM     17  N   UNL     1       2.114 -17.520   2.823  1.00  0.00    -0.248 NA
ATOM     18  C   UNL     1       4.045 -16.285   2.381  1.00  0.00     0.031 C 
ATOM     19  C   UNL     1      -0.234 -14.659   0.308  1.00  0.00     0.029 A 
ATOM     20  N   UNL     1      -0.363 -16.452   1.638  1.00  0.00    -0.354 N 
ATOM     21  C   UNL     1       3.194 -18.116   3.462  1.00  0.00     0.074 A 
ATOM     22  C   UNL     1       4.365 -17.335   3.124  1.00  0.00     0.031 C 
ATOM     23  C   UNL     1      -1.522 -15.030   0.357  1.00  0.00     0.029 A 
ATOM     24  C   UNL     1      -1.637 -16.236   1.169  1.00  0.00     0.049 A 
ATOM     25  H   UNL     1      -0.134 -17.172   2.269  1.00  0.00     0.167 HD
ATOM     26  C   UNL     1       3.204 -19.214   4.258  1.00  0.00     0.037 A 
ATOM     27  C   UNL     1      -2.766 -16.949   1.341  1.00  0.00     0.037 A 
ATOM     28  C   UNL     1       2.028 -19.981   4.583  1.00  0.00     0.049 A 
ATOM     29  C   UNL     1      -2.729 -18.182   2.195  1.00  0.00     0.074 A 
ATOM     30  C   UNL     1       1.923 -21.090   5.403  1.00  0.00     0.029 A 
ATOM     31  N   UNL     1       0.753 -19.726   4.093  1.00  0.00    -0.354 N 
ATOM     32  N   UNL     1      -1.706 -18.718   2.818  1.00  0.00    -0.248 NA
ATOM     33  C   UNL     1      -3.993 -18.907   2.376  1.00  0.00     0.031 C 
ATOM     34  C   UNL     1       0.598 -21.537   5.368  1.00  0.00     0.029 A 
ATOM     35  C   UNL     1      -0.139 -20.670   4.575  1.00  0.00     0.049 A 
ATOM     36  H   UNL     1       0.518 -18.984   3.491  1.00  0.00     0.167 HD
ATOM     37  C   UNL     1      -2.208 -19.827   3.489  1.00  0.00     0.074 A 
ATOM     38  C   UNL     1      -3.625 -19.885   3.194  1.00  0.00     0.031 C 
ATOM     39  C   UNL     1      -1.552 -20.708   4.284  1.00  0.00     0.037 A 
BRANCH  26  40
ATOM     40  C   UNL     1       4.533 -19.669   4.798  1.00  0.00     0.058 A 
ATOM     41  C   UNL     1       5.236 -18.930   5.764  1.00  0.00     0.135 A 
ATOM     42  C   UNL     1       5.112 -20.866   4.345  1.00  0.00     0.135 A 
ATOM     43  F   UNL     1       4.737 -17.773   6.227  1.00  0.00    -0.206 F 
ATOM     44  C   UNL     1       6.486 -19.336   6.223  1.00  0.00     0.059 A 
ATOM     45  C   UNL     1       6.348 -21.306   4.812  1.00  0.00     0.059 A 
ATOM     46  F   UNL     1       4.483 -21.616   3.427  1.00  0.00    -0.206 F 
ATOM     47  C   UNL     1       7.038 -20.521   5.734  1.00  0.00     0.060 A 
BRANCH  47  48
ATOM     48  S   UNL     1       8.679 -21.010   6.305  1.00  0.00     0.124 S 
ATOM     49  O   UNL     1       9.527 -20.056   5.597  1.00  0.00    -0.237 OA
ATOM     50  O   UNL     1       8.579 -20.817   7.748  1.00  0.00    -0.237 OA
ATOM     51  O   UNL     1       8.793 -22.397   5.867  1.00  0.00    -0.744 OA
ENDBRANCH  47  48
ENDBRANCH  26  40
BRANCH  27  52
ATOM     52  C   UNL     1      -4.015 -16.495   0.676  1.00  0.00     0.058 A 
ATOM     53  C   UNL     1      -5.056 -15.915   1.414  1.00  0.00     0.135 A 
ATOM     54  C   UNL     1      -4.156 -16.558  -0.720  1.00  0.00     0.135 A 
ATOM     55  F   UNL     1      -4.968 -15.836   2.750  1.00  0.00    -0.206 F 
ATOM     56  C   UNL     1      -6.191 -15.406   0.792  1.00  0.00     0.059 A 
ATOM     57  C   UNL     1      -5.270 -16.034  -1.367  1.00  0.00     0.059 A 
ATOM     58  F   UNL     1      -3.178 -17.088  -1.471  1.00  0.00    -0.206 F 
ATOM     59  C   UNL     1      -6.283 -15.460  -0.601  1.00  0.00     0.060 A 
BRANCH  59  60
ATOM     60  S   UNL     1      -7.719 -14.712  -1.401  1.00  0.00     0.124 S 
ATOM     61  O   UNL     1      -8.773 -15.661  -1.060  1.00  0.00    -0.237 OA
ATOM     62  O   UNL     1      -7.792 -13.412  -0.742  1.00  0.00    -0.237 OA
ATOM     63  O   UNL     1      -7.337 -14.672  -2.809  1.00  0.00    -0.744 OA
ENDBRANCH  59  60
ENDBRANCH  27  52
BRANCH  39  64
ATOM     64  C   UNL     1      -2.362 -21.789   4.943  1.00  0.00     0.058 A 
ATOM     65  C   UNL     1      -2.841 -22.899   4.231  1.00  0.00     0.135 A 
ATOM     66  C   UNL     1      -2.584 -21.753   6.330  1.00  0.00     0.135 A 
ATOM     67  F   UNL     1      -2.666 -22.977   2.902  1.00  0.00    -0.206 F 
ATOM     68  C   UNL     1      -3.515 -23.935   4.871  1.00  0.00     0.059 A 
ATOM     69  C   UNL     1      -3.232 -22.789   6.994  1.00  0.00     0.059 A 
ATOM     70  F   UNL     1      -2.142 -20.715   7.058  1.00  0.00    -0.206 F 
ATOM     71  C   UNL     1      -3.697 -23.875   6.254  1.00  0.00     0.060 A 
BRANCH  71  72
ATOM     72  S   UNL     1      -4.508 -25.259   7.082  1.00  0.00     0.124 S 
ATOM     73  O   UNL     1      -5.897 -25.073   6.676  1.00  0.00    -0.237 OA
ATOM     74  O   UNL     1      -3.826 -26.412   6.503  1.00  0.00    -0.237 OA
ATOM     75  O   UNL     1      -4.231 -25.020   8.496  1.00  0.00    -0.744 OA
ENDBRANCH  71  72
ENDBRANCH  39  64
ENDBRANCH  13  14
ENDBRANCH   6   8
ENDBRANCH   3   4
ENDBRANCH   2   3
ENDBRANCH   1   2
BRANCH   1  76
ATOM     76  C   UNL     1       7.205  -7.593   0.750  1.00  0.00     0.002 C 
BRANCH  76  77
ATOM     77  C   UNL     1       7.039  -7.371   2.257  1.00  0.00     0.021 C 
BRANCH  77  78
ATOM     78  C   UNL     1       8.332  -7.530   3.055  1.00  0.00     0.116 C 
BRANCH  78  79
ATOM     79  N   UNL     1       9.254  -6.442   2.806  1.00  0.00    -0.354 N 
ATOM     80  C   UNL     1       9.611  -5.385   3.590  1.00  0.00     0.247 C 
ATOM     81  H   UNL     1       9.697  -6.471   1.927  1.00  0.00     0.163 HD
ATOM     82  O   UNL     1      10.579  -4.722   3.192  1.00  0.00    -0.272 OA
BRANCH  80  83
ATOM     83  C   UNL     1       8.989  -5.137   4.989  1.00  0.00     0.211 C 
BRANCH  83  84
ATOM     84  N   UNL     1       9.404  -3.818   5.512  1.00  0.00    -0.276 N 
ATOM     85  C   UNL     1       9.050  -2.681   4.808  1.00  0.00     0.267 C 
ATOM     86  C   UNL     1      10.146  -3.613   6.653  1.00  0.00     0.149 C 
ATOM     87  O   UNL     1       8.602  -2.646   3.671  1.00  0.00    -0.268 OA
ATOM     88  C   UNL     1       9.324  -1.465   5.617  1.00  0.00     0.081 C 
ATOM     89  S   UNL     1      10.338  -1.880   6.942  1.00  0.00    -0.054 SA
ATOM     90  S   UNL     1      10.780  -4.743   7.704  1.00  0.00    -0.052 S 
ATOM     91  C   UNL     1       8.810  -0.243   5.414  1.00  0.00     0.029 C 
BRANCH  91  92
ATOM     92  C   UNL     1       7.835   0.076   4.364  1.00  0.00    -0.024 A 
ATOM     93  C   UNL     1       8.183   0.952   3.331  1.00  0.00     0.009 A 
ATOM     94  C   UNL     1       6.562  -0.514   4.366  1.00  0.00     0.009 A 
ATOM     95  C   UNL     1       7.282   1.208   2.293  1.00  0.00     0.016 A 
ATOM     96  C   UNL     1       5.665  -0.268   3.324  1.00  0.00     0.016 A 
ATOM     97  C   UNL     1       6.033   0.590   2.290  1.00  0.00     0.018 A 
ATOM     98  Br  UNL     1       4.830   0.908   0.867  1.00  0.00    -0.051 Br
ENDBRANCH  91  92
ENDBRANCH  83  84
BRANCH  83  99
ATOM     99  C   UNL     1       7.487  -5.364   5.194  1.00  0.00    -0.016 A 
ATOM    100  C   UNL     1       6.496  -4.661   4.491  1.00  0.00     0.006 A 
ATOM    101  C   UNL     1       7.062  -6.318   6.141  1.00  0.00     0.006 A 
ATOM    102  C   UNL     1       5.138  -4.907   4.715  1.00  0.00     0.000 A 
ATOM    103  C   UNL     1       5.705  -6.589   6.338  1.00  0.00     0.000 A 
ATOM    104  C   UNL     1       4.743  -5.879   5.628  1.00  0.00     0.000 A 
ENDBRANCH  83  99
ENDBRANCH  80  83
ENDBRANCH  78  79
ENDBRANCH  77  78
ENDBRANCH  76  77
ENDBRANCH   1  76
TORSDOF 19
