REMARK SMILES Cc1c(CC(=O)NCCCCCCNC(=O)c2ccc(-c3c4nc(c(-c5c(F)cc(S(=O)(=O)[O-])cc5F)c5ccc([nH]5)c(-c5c(F)cc(S(=O)(=O)[O-])cc5F)c5nc(c(-c6c(F)cc(S(=O)(=O)[O-])cc6F)c6ccc3[nH]6)C=C5)C=C4)cc2)cc(-c2ccc(S(C)(=O)=O)cc2)n1-c1ccccc1
REMARK SMILES IDX 10 1 9 2 8 3 7 4 5 5 6 6 4 8 3 9 1 10 2 11 95 12 83 13 84 14
REMARK SMILES IDX 96 15 97 16 101 17 98 18 100 19 99 20 85 21 86 22 94 23
REMARK SMILES IDX 87 24 93 25 88 26 89 27 90 28 91 29 92 30 11 31 12 32 13 33
REMARK SMILES IDX 14 34 15 35 16 37 17 38 18 39 82 40 19 41 81 42 20 43 21 44
REMARK SMILES IDX 22 45 75 46 23 47 80 48 74 49 76 50 24 51 79 52 73 53 72 54
REMARK SMILES IDX 25 56 59 57 38 58 58 59 39 60 42 61 57 62 77 63 40 64 41 65
REMARK SMILES IDX 56 67 78 68 43 69 26 70 27 71 36 72 28 73 29 74 35 75 37 76
REMARK SMILES IDX 30 77 31 78 32 79 33 80 34 81 60 82 61 83 70 84 62 85 63 86
REMARK SMILES IDX 69 87 71 88 64 89 65 90 66 91 67 92 68 93 44 94 45 95 54 96
REMARK SMILES IDX 46 97 47 98 53 99 55 100 48 101 49 102 50 103 51 104 52 105
REMARK H PARENT 7 7 14 36 76 55 42 66
REMARK Flexibility Score: inf
ROOT
ATOM      1  C   UNL     1       4.976  -0.917  -3.687  1.00  0.00     0.002 C 
ENDROOT
BRANCH   1   2
ATOM      2  C   UNL     1       3.482  -1.258  -3.601  1.00  0.00     0.021 C 
BRANCH   2   3
ATOM      3  C   UNL     1       3.180  -2.707  -3.219  1.00  0.00     0.116 C 
BRANCH   3   4
ATOM      4  N   UNL     1       3.350  -2.935  -1.794  1.00  0.00    -0.356 N 
ATOM      5  C   UNL     1       2.402  -2.999  -0.810  1.00  0.00     0.224 C 
ATOM      6  O   UNL     1       2.780  -3.154   0.354  1.00  0.00    -0.275 OA
ATOM      7  H   UNL     1       4.279  -3.061  -1.495  1.00  0.00     0.163 HD
BRANCH   5   8
ATOM      8  C   UNL     1       0.923  -2.957  -1.154  1.00  0.00     0.137 C 
BRANCH   8   9
ATOM      9  C   UNL     1       0.472  -1.651  -1.723  1.00  0.00    -0.017 A 
ATOM     10  C   UNL     1       1.069   0.006   0.172  1.00  0.00     0.065 C 
ATOM     11  C   UNL     1       0.576  -0.374  -1.184  1.00  0.00     0.024 A 
ATOM     12  N   UNL     1       0.076   0.543  -2.112  1.00  0.00    -0.314 N 
ATOM     13  C   UNL     1      -0.189  -1.519  -2.959  1.00  0.00     0.033 A 
ATOM     14  C   UNL     1      -0.390  -0.179  -3.206  1.00  0.00     0.053 A 
BRANCH  12  15
ATOM     15  C   UNL     1       0.047   1.963  -1.975  1.00  0.00     0.046 A 
ATOM     16  C   UNL     1      -1.114   2.678  -2.302  1.00  0.00     0.026 A 
ATOM     17  C   UNL     1       1.195   2.650  -1.563  1.00  0.00     0.026 A 
ATOM     18  C   UNL     1      -1.125   4.071  -2.210  1.00  0.00     0.002 A 
ATOM     19  C   UNL     1       1.181   4.045  -1.490  1.00  0.00     0.002 A 
ATOM     20  C   UNL     1       0.022   4.754  -1.810  1.00  0.00     0.000 A 
ENDBRANCH  12  15
BRANCH  14  21
ATOM     21  C   UNL     1      -0.897   0.366  -4.455  1.00  0.00    -0.001 A 
ATOM     22  C   UNL     1      -0.120   1.235  -5.231  1.00  0.00     0.011 A 
ATOM     23  C   UNL     1      -2.157  -0.053  -4.900  1.00  0.00     0.011 A 
ATOM     24  C   UNL     1      -0.629   1.720  -6.427  1.00  0.00     0.021 A 
ATOM     25  C   UNL     1      -2.671   0.425  -6.091  1.00  0.00     0.021 A 
ATOM     26  C   UNL     1      -1.911   1.323  -6.828  1.00  0.00     0.067 A 
BRANCH  26  27
ATOM     27  S   UNL     1      -2.670   2.118  -8.209  1.00  0.00     0.175 S 
ATOM     28  C   UNL     1      -2.621   3.806  -7.635  1.00  0.00     0.163 C 
ATOM     29  O   UNL     1      -1.784   1.875  -9.329  1.00  0.00    -0.224 OA
ATOM     30  O   UNL     1      -4.055   1.699  -8.248  1.00  0.00    -0.224 OA
ENDBRANCH  26  27
ENDBRANCH  14  21
ENDBRANCH   8   9
ENDBRANCH   5   8
ENDBRANCH   3   4
ENDBRANCH   2   3
ENDBRANCH   1   2
BRANCH   1  31
ATOM     31  C   UNL     1       5.753  -1.566  -4.840  1.00  0.00     0.002 C 
BRANCH  31  32
ATOM     32  C   UNL     1       5.091  -1.553  -6.230  1.00  0.00     0.021 C 
BRANCH  32  33
ATOM     33  C   UNL     1       4.460  -0.231  -6.711  1.00  0.00     0.116 C 
BRANCH  33  34
ATOM     34  N   UNL     1       5.319   0.543  -7.574  1.00  0.00    -0.352 N 
ATOM     35  C   UNL     1       4.980   1.540  -8.467  1.00  0.00     0.251 C 
ATOM     36  H   UNL     1       6.279   0.332  -7.517  1.00  0.00     0.163 HD
ATOM     37  O   UNL     1       5.892   2.094  -9.075  1.00  0.00    -0.269 OA
BRANCH  35  38
ATOM     38  C   UNL     1       3.556   1.891  -8.783  1.00  0.00     0.039 A 
ATOM     39  C   UNL     1       2.912   1.166  -9.774  1.00  0.00     0.014 A 
ATOM     40  C   UNL     1       2.943   3.082  -8.347  1.00  0.00     0.014 A 
ATOM     41  C   UNL     1       1.684   1.626 -10.304  1.00  0.00     0.010 A 
ATOM     42  C   UNL     1       1.727   3.584  -8.942  1.00  0.00     0.010 A 
ATOM     43  C   UNL     1       1.081   2.889  -9.974  1.00  0.00    -0.014 A 
BRANCH  43  44
ATOM     44  C   UNL     1       0.153   3.477 -11.091  1.00  0.00     0.031 A 
ATOM     45  C   UNL     1       0.970   3.369 -12.327  1.00  0.00     0.074 A 
ATOM     46  C   UNL     1      -1.017   4.190 -11.273  1.00  0.00     0.049 A 
ATOM     47  N   UNL     1       2.182   3.857 -12.343  1.00  0.00    -0.248 NA
ATOM     48  C   UNL     1       0.647   2.489 -13.445  1.00  0.00     0.031 C 
ATOM     49  C   UNL     1      -1.791   4.910 -10.270  1.00  0.00     0.029 A 
ATOM     50  N   UNL     1      -1.824   4.431 -12.409  1.00  0.00    -0.354 N 
ATOM     51  C   UNL     1       2.620   3.685 -13.625  1.00  0.00     0.074 A 
ATOM     52  C   UNL     1       1.771   2.627 -14.156  1.00  0.00     0.031 C 
ATOM     53  C   UNL     1      -3.027   5.258 -10.724  1.00  0.00     0.029 A 
ATOM     54  C   UNL     1      -3.132   4.948 -12.139  1.00  0.00     0.049 A 
ATOM     55  H   UNL     1      -1.508   4.256 -13.324  1.00  0.00     0.167 HD
ATOM     56  C   UNL     1       3.061   4.815 -14.250  1.00  0.00     0.037 A 
ATOM     57  C   UNL     1      -4.167   5.281 -12.990  1.00  0.00     0.037 A 
ATOM     58  C   UNL     1       2.163   5.257 -15.281  1.00  0.00     0.049 A 
ATOM     59  C   UNL     1      -3.479   5.821 -14.169  1.00  0.00     0.074 A 
ATOM     60  C   UNL     1       1.505   4.624 -16.315  1.00  0.00     0.029 A 
ATOM     61  N   UNL     1       1.497   6.443 -15.055  1.00  0.00    -0.354 N 
ATOM     62  N   UNL     1      -2.890   6.978 -14.147  1.00  0.00    -0.248 NA
ATOM     63  C   UNL     1      -3.485   5.132 -15.452  1.00  0.00     0.031 C 
ATOM     64  C   UNL     1       0.227   5.229 -16.377  1.00  0.00     0.029 A 
ATOM     65  C   UNL     1       0.222   6.363 -15.575  1.00  0.00     0.049 A 
ATOM     66  H   UNL     1       1.874   7.226 -14.593  1.00  0.00     0.167 HD
ATOM     67  C   UNL     1      -2.071   6.937 -15.229  1.00  0.00     0.074 A 
ATOM     68  C   UNL     1      -2.657   5.944 -16.110  1.00  0.00     0.031 C 
ATOM     69  C   UNL     1      -0.771   7.271 -15.041  1.00  0.00     0.037 A 
BRANCH  56  70
ATOM     70  C   UNL     1       3.866   5.740 -13.372  1.00  0.00     0.058 A 
ATOM     71  C   UNL     1       5.259   5.751 -13.487  1.00  0.00     0.135 A 
ATOM     72  C   UNL     1       3.295   6.520 -12.342  1.00  0.00     0.135 A 
ATOM     73  F   UNL     1       5.859   5.049 -14.462  1.00  0.00    -0.206 F 
ATOM     74  C   UNL     1       6.057   6.470 -12.599  1.00  0.00     0.059 A 
ATOM     75  C   UNL     1       4.073   7.221 -11.424  1.00  0.00     0.059 A 
ATOM     76  F   UNL     1       1.960   6.600 -12.215  1.00  0.00    -0.206 F 
ATOM     77  C   UNL     1       5.458   7.184 -11.557  1.00  0.00     0.060 A 
BRANCH  77  78
ATOM     78  S   UNL     1       6.516   8.004 -10.344  1.00  0.00     0.124 S 
ATOM     79  O   UNL     1       7.580   7.025 -10.135  1.00  0.00    -0.237 OA
ATOM     80  O   UNL     1       6.915   9.210 -11.062  1.00  0.00    -0.237 OA
ATOM     81  O   UNL     1       5.635   8.203  -9.197  1.00  0.00    -0.744 OA
ENDBRANCH  77  78
ENDBRANCH  56  70
BRANCH  57  82
ATOM     82  C   UNL     1      -5.669   5.587 -13.035  1.00  0.00     0.058 A 
ATOM     83  C   UNL     1      -6.196   6.527 -13.975  1.00  0.00     0.135 A 
ATOM     84  C   UNL     1      -6.630   4.702 -12.518  1.00  0.00     0.135 A 
ATOM     85  F   UNL     1      -5.421   7.473 -14.524  1.00  0.00    -0.206 F 
ATOM     86  C   UNL     1      -7.502   6.490 -14.478  1.00  0.00     0.059 A 
ATOM     87  C   UNL     1      -7.968   4.668 -12.988  1.00  0.00     0.059 A 
ATOM     88  F   UNL     1      -6.270   3.777 -11.617  1.00  0.00    -0.206 F 
ATOM     89  C   UNL     1      -8.376   5.525 -14.012  1.00  0.00     0.060 A 
BRANCH  89  90
ATOM     90  S   UNL     1      -9.966   5.335 -14.871  1.00  0.00     0.124 S 
ATOM     91  O   UNL     1     -10.617   6.616 -14.618  1.00  0.00    -0.237 OA
ATOM     92  O   UNL     1      -9.543   5.104 -16.250  1.00  0.00    -0.237 OA
ATOM     93  O   UNL     1     -10.574   4.183 -14.212  1.00  0.00    -0.744 OA
ENDBRANCH  89  90
ENDBRANCH  57  82
BRANCH  69  94
ATOM     94  C   UNL     1      -0.463   8.479 -14.161  1.00  0.00     0.058 A 
ATOM     95  C   UNL     1      -1.010   8.797 -12.895  1.00  0.00     0.135 A 
ATOM     96  C   UNL     1       0.421   9.435 -14.695  1.00  0.00     0.135 A 
ATOM     97  F   UNL     1      -1.758   7.928 -12.199  1.00  0.00    -0.206 F 
ATOM     98  C   UNL     1      -0.787  10.031 -12.272  1.00  0.00     0.059 A 
ATOM     99  C   UNL     1       0.703  10.646 -14.065  1.00  0.00     0.059 A 
ATOM    100  F   UNL     1       1.029   9.200 -15.870  1.00  0.00    -0.206 F 
ATOM    101  C   UNL     1       0.053  10.960 -12.877  1.00  0.00     0.060 A 
BRANCH 101 102
ATOM    102  S   UNL     1       0.280  12.582 -12.116  1.00  0.00     0.124 S 
ATOM    103  O   UNL     1      -0.987  13.238 -12.427  1.00  0.00    -0.237 OA
ATOM    104  O   UNL     1       0.488  12.255 -10.710  1.00  0.00    -0.237 OA
ATOM    105  O   UNL     1       1.442  13.124 -12.815  1.00  0.00    -0.744 OA
ENDBRANCH 101 102
ENDBRANCH  69  94
ENDBRANCH  43  44
ENDBRANCH  35  38
ENDBRANCH  33  34
ENDBRANCH  32  33
ENDBRANCH  31  32
ENDBRANCH   1  31
TORSDOF 20
