REMARK SMILES Cc1ccccc1OCC(=O)c1nc(C)c(C(=O)NCCCCCCNC(=O)c2ccc(-c3c4nc(c(-c5c(F)cc(S(=O)(=O)[O-])cc5F)c5ccc([nH]5)c(-c5c(F)cc(S(=O)(=O)[O-])cc5F)c5nc(c(-c6c(F)cc(S(=O)(=O)[O-])cc6F)c6ccc3[nH]6)C=C5)C=C4)cc2)s1
REMARK SMILES IDX 22 1 21 2 20 3 19 4 17 5 18 6 16 8 12 9 13 10 95 11 14 12
REMARK SMILES IDX 15 13 10 14 11 15 9 16 8 17 7 18 1 19 2 20 3 21 4 22 6 23
REMARK SMILES IDX 5 24 23 25 24 26 25 27 26 28 27 29 28 31 29 32 30 33 94 34
REMARK SMILES IDX 31 35 93 36 32 37 33 38 34 39 87 40 35 41 92 42 86 43 88 44
REMARK SMILES IDX 36 45 91 46 85 47 84 48 37 50 71 51 50 52 70 53 51 54 54 55
REMARK SMILES IDX 69 56 89 57 52 58 53 59 68 61 90 62 55 63 38 64 39 65 48 66
REMARK SMILES IDX 40 67 41 68 47 69 49 70 42 71 43 72 44 73 45 74 46 75 72 76
REMARK SMILES IDX 73 77 82 78 74 79 75 80 81 81 83 82 76 83 77 84 78 85 79 86
REMARK SMILES IDX 80 87 56 88 57 89 66 90 58 91 59 92 65 93 67 94 60 95 61 96
REMARK SMILES IDX 62 97 63 98 64 99
REMARK H PARENT 19 7 26 30 88 49 54 60
REMARK Flexibility Score: inf
ROOT
ATOM      1  C   UNL     1       2.195   4.687   9.661  1.00  0.00     0.002 C 
ENDROOT
BRANCH   1   2
ATOM      2  C   UNL     1       2.682   4.177   8.299  1.00  0.00     0.021 C 
BRANCH   2   3
ATOM      3  C   UNL     1       1.882   3.001   7.730  1.00  0.00     0.116 C 
BRANCH   3   4
ATOM      4  N   UNL     1       0.892   3.451   6.782  1.00  0.00    -0.351 N 
ATOM      5  C   UNL     1       0.806   3.482   5.417  1.00  0.00     0.263 C 
ATOM      6  O   UNL     1      -0.286   3.916   5.024  1.00  0.00    -0.268 OA
ATOM      7  H   UNL     1       0.092   3.823   7.220  1.00  0.00     0.163 HD
BRANCH   5   8
ATOM      8  C   UNL     1       1.838   3.035   4.481  1.00  0.00     0.115 A 
ATOM      9  C   UNL     1       2.825   2.412   2.301  1.00  0.00     0.164 A 
ATOM     10  N   UNL     1       3.715   2.320   3.260  1.00  0.00    -0.237 NA
ATOM     11  S   UNL     1       1.285   2.887   2.825  1.00  0.00    -0.105 S 
ATOM     12  C   UNL     1       3.199   2.732   4.486  1.00  0.00     0.062 A 
ATOM     13  C   UNL     1       4.232   2.811   5.548  1.00  0.00     0.068 C 
BRANCH   9  14
ATOM     14  C   UNL     1       3.184   2.138   0.913  1.00  0.00     0.228 C 
ATOM     15  O   UNL     1       4.281   1.661   0.590  1.00  0.00    -0.288 OA
BRANCH  14  16
ATOM     16  C   UNL     1       2.234   2.555  -0.216  1.00  0.00     0.313 C 
BRANCH  16  17
ATOM     17  O   UNL     1       0.859   2.279  -0.201  1.00  0.00    -0.485 OA
BRANCH  17  18
ATOM     18  C   UNL     1       0.321   1.030  -0.184  1.00  0.00     0.122 A 
ATOM     19  C   UNL     1       2.369  -0.519  -0.546  1.00  0.00     0.048 C 
ATOM     20  C   UNL     1       0.913  -0.233  -0.319  1.00  0.00    -0.009 A 
ATOM     21  C   UNL     1       0.086  -1.375  -0.197  1.00  0.00     0.007 A 
ATOM     22  C   UNL     1      -1.290  -1.276   0.005  1.00  0.00     0.001 A 
ATOM     23  C   UNL     1      -1.073   1.109   0.006  1.00  0.00     0.047 A 
ATOM     24  C   UNL     1      -1.875  -0.026   0.097  1.00  0.00     0.004 A 
ENDBRANCH  17  18
ENDBRANCH  16  17
ENDBRANCH  14  16
ENDBRANCH   9  14
ENDBRANCH   5   8
ENDBRANCH   3   4
ENDBRANCH   2   3
ENDBRANCH   1   2
BRANCH   1  25
ATOM     25  C   UNL     1       2.132   3.643  10.788  1.00  0.00     0.002 C 
BRANCH  25  26
ATOM     26  C   UNL     1       3.361   2.743  10.936  1.00  0.00     0.021 C 
BRANCH  26  27
ATOM     27  C   UNL     1       4.584   3.474  11.480  1.00  0.00     0.116 C 
BRANCH  27  28
ATOM     28  N   UNL     1       4.929   3.060  12.832  1.00  0.00    -0.352 N 
ATOM     29  C   UNL     1       6.035   3.428  13.575  1.00  0.00     0.251 C 
ATOM     30  H   UNL     1       4.298   2.444  13.271  1.00  0.00     0.163 HD
ATOM     31  O   UNL     1       6.339   2.887  14.623  1.00  0.00    -0.269 OA
BRANCH  29  32
ATOM     32  C   UNL     1       6.782   4.606  13.095  1.00  0.00     0.039 A 
ATOM     33  C   UNL     1       6.624   5.796  13.815  1.00  0.00     0.014 A 
ATOM     34  C   UNL     1       7.370   4.590  11.833  1.00  0.00     0.014 A 
ATOM     35  C   UNL     1       6.924   7.006  13.198  1.00  0.00     0.010 A 
ATOM     36  C   UNL     1       7.597   5.796  11.198  1.00  0.00     0.010 A 
ATOM     37  C   UNL     1       7.335   7.002  11.864  1.00  0.00    -0.014 A 
BRANCH  37  38
ATOM     38  C   UNL     1       7.412   8.213  11.056  1.00  0.00     0.031 A 
ATOM     39  C   UNL     1       8.724   8.815  10.728  1.00  0.00     0.074 A 
ATOM     40  C   UNL     1       6.282   8.785  10.586  1.00  0.00     0.049 A 
ATOM     41  N   UNL     1       8.898  10.072  10.488  1.00  0.00    -0.248 NA
ATOM     42  C   UNL     1       9.963   8.043  10.683  1.00  0.00     0.031 C 
ATOM     43  C   UNL     1       6.180   9.828   9.569  1.00  0.00     0.029 A 
ATOM     44  N   UNL     1       4.986   8.663  11.083  1.00  0.00    -0.354 N 
ATOM     45  C   UNL     1      10.180  10.233  10.020  1.00  0.00     0.074 A 
ATOM     46  C   UNL     1      10.823   8.953  10.212  1.00  0.00     0.031 C 
ATOM     47  C   UNL     1       4.976  10.413   9.662  1.00  0.00     0.029 A 
ATOM     48  C   UNL     1       4.312   9.869  10.835  1.00  0.00     0.049 A 
ATOM     49  H   UNL     1       4.609   7.871  11.530  1.00  0.00     0.167 HD
ATOM     50  C   UNL     1      10.541  11.386   9.391  1.00  0.00     0.037 A 
ATOM     51  C   UNL     1       3.805  10.622  11.856  1.00  0.00     0.037 A 
ATOM     52  C   UNL     1       9.438  12.335   9.325  1.00  0.00     0.049 A 
ATOM     53  C   UNL     1       4.434  11.994  11.979  1.00  0.00     0.074 A 
ATOM     54  C   UNL     1       8.484  12.581   8.351  1.00  0.00     0.029 A 
ATOM     55  N   UNL     1       8.988  12.957  10.483  1.00  0.00    -0.354 N 
ATOM     56  N   UNL     1       5.545  12.343  11.392  1.00  0.00    -0.248 NA
ATOM     57  C   UNL     1       3.876  13.074  12.791  1.00  0.00     0.031 C 
ATOM     58  C   UNL     1       7.420  13.299   8.945  1.00  0.00     0.029 A 
ATOM     59  C   UNL     1       7.738  13.512  10.274  1.00  0.00     0.049 A 
ATOM     60  H   UNL     1       9.487  12.997  11.331  1.00  0.00     0.167 HD
ATOM     61  C   UNL     1       5.882  13.620  11.761  1.00  0.00     0.074 A 
ATOM     62  C   UNL     1       4.789  14.047  12.613  1.00  0.00     0.031 C 
ATOM     63  C   UNL     1       7.041  14.211  11.342  1.00  0.00     0.037 A 
BRANCH  50  64
ATOM     64  C   UNL     1      11.806  11.483   8.579  1.00  0.00     0.058 A 
ATOM     65  C   UNL     1      11.806  12.070   7.297  1.00  0.00     0.135 A 
ATOM     66  C   UNL     1      13.040  10.952   9.000  1.00  0.00     0.135 A 
ATOM     67  F   UNL     1      10.711  12.655   6.793  1.00  0.00    -0.206 F 
ATOM     68  C   UNL     1      12.918  12.047   6.457  1.00  0.00     0.059 A 
ATOM     69  C   UNL     1      14.157  10.877   8.160  1.00  0.00     0.059 A 
ATOM     70  F   UNL     1      13.191  10.478  10.248  1.00  0.00    -0.206 F 
ATOM     71  C   UNL     1      14.082  11.421   6.883  1.00  0.00     0.060 A 
BRANCH  71  72
ATOM     72  S   UNL     1      15.460  11.290   5.727  1.00  0.00     0.124 S 
ATOM     73  O   UNL     1      14.807  10.787   4.521  1.00  0.00    -0.237 OA
ATOM     74  O   UNL     1      15.933  12.668   5.663  1.00  0.00    -0.237 OA
ATOM     75  O   UNL     1      16.360  10.344   6.379  1.00  0.00    -0.744 OA
ENDBRANCH  71  72
ENDBRANCH  50  64
BRANCH  51  76
ATOM     76  C   UNL     1       3.295   9.805  12.991  1.00  0.00     0.058 A 
ATOM     77  C   UNL     1       2.152   9.011  12.773  1.00  0.00     0.135 A 
ATOM     78  C   UNL     1       4.108   9.483  14.086  1.00  0.00     0.135 A 
ATOM     79  F   UNL     1       1.333   9.283  11.743  1.00  0.00    -0.206 F 
ATOM     80  C   UNL     1       1.904   7.862  13.517  1.00  0.00     0.059 A 
ATOM     81  C   UNL     1       3.874   8.337  14.850  1.00  0.00     0.059 A 
ATOM     82  F   UNL     1       5.211  10.201  14.344  1.00  0.00    -0.206 F 
ATOM     83  C   UNL     1       2.805   7.503  14.516  1.00  0.00     0.060 A 
BRANCH  83  84
ATOM     84  S   UNL     1       2.637   5.863  15.260  1.00  0.00     0.124 S 
ATOM     85  O   UNL     1       1.307   5.935  15.854  1.00  0.00    -0.237 OA
ATOM     86  O   UNL     1       2.759   4.991  14.094  1.00  0.00    -0.237 OA
ATOM     87  O   UNL     1       3.749   5.806  16.201  1.00  0.00    -0.744 OA
ENDBRANCH  83  84
ENDBRANCH  51  76
BRANCH  63  88
ATOM     88  C   UNL     1       7.594  15.534  11.817  1.00  0.00     0.058 A 
ATOM     89  C   UNL     1       7.426  16.036  13.117  1.00  0.00     0.135 A 
ATOM     90  C   UNL     1       8.462  16.279  10.981  1.00  0.00     0.135 A 
ATOM     91  F   UNL     1       6.703  15.372  14.031  1.00  0.00    -0.206 F 
ATOM     92  C   UNL     1       8.035  17.219  13.546  1.00  0.00     0.059 A 
ATOM     93  C   UNL     1       9.121  17.430  11.404  1.00  0.00     0.059 A 
ATOM     94  F   UNL     1       8.711  15.901   9.717  1.00  0.00    -0.206 F 
ATOM     95  C   UNL     1       8.884  17.907  12.684  1.00  0.00     0.060 A 
BRANCH  95  96
ATOM     96  S   UNL     1       9.735  19.393  13.246  1.00  0.00     0.124 S 
ATOM     97  O   UNL     1       8.812  20.438  12.813  1.00  0.00    -0.237 OA
ATOM     98  O   UNL     1       9.826  19.192  14.689  1.00  0.00    -0.237 OA
ATOM     99  O   UNL     1      11.007  19.335  12.532  1.00  0.00    -0.744 OA
ENDBRANCH  95  96
ENDBRANCH  63  88
ENDBRANCH  37  38
ENDBRANCH  29  32
ENDBRANCH  27  28
ENDBRANCH  26  27
ENDBRANCH  25  26
ENDBRANCH   1  25
TORSDOF 20
