REMARK SMILES C[C@H]1[C@@H](C(=O)NCCCCCCNC(=O)c2ccc(-c3c4nc(c(-c5c(F)cc(S(=O)(=O)[O-])cc5F)c5ccc([nH]5)c(-c5c(F)cc(S(=O)(=O)[O-])cc5F)c5nc(c(-c6c(F)cc(S(=O)(=O)[O-])cc6F)c6ccc3[nH]6)C=C5)C=C4)cc2)CCN1S(=O)(=O)Cc1cccc(C#N)c1
REMARK SMILES IDX 9 1 8 2 7 3 6 4 4 5 5 6 3 8 1 9 2 10 84 11 82 12 83 13 85 14
REMARK SMILES IDX 86 15 87 16 88 17 89 18 90 19 96 20 91 21 93 22 92 23 94 24
REMARK SMILES IDX 95 25 10 26 11 27 12 28 13 29 14 30 15 32 16 33 17 34 81 35
REMARK SMILES IDX 18 36 80 37 19 38 20 39 21 40 74 41 22 42 79 43 73 44 75 45
REMARK SMILES IDX 23 46 78 47 72 48 71 49 24 51 58 52 37 53 57 54 38 55 41 56
REMARK SMILES IDX 56 57 76 58 39 59 40 60 55 62 77 63 42 64 25 65 26 66 35 67
REMARK SMILES IDX 27 68 28 69 34 70 36 71 29 72 30 73 31 74 32 75 33 76 59 77
REMARK SMILES IDX 60 78 69 79 61 80 62 81 68 82 70 83 63 84 64 85 65 86 66 87
REMARK SMILES IDX 67 88 43 89 44 90 53 91 45 92 46 93 52 94 54 95 47 96 48 97
REMARK SMILES IDX 49 98 50 99 51 100
REMARK H PARENT 6 7 13 31 75 50 41 61
REMARK Flexibility Score: inf
ROOT
ATOM      1  C   UNL     1       4.353   1.239  -3.186  1.00  0.00     0.002 C 
ENDROOT
BRANCH   1   2
ATOM      2  C   UNL     1       3.495   0.708  -2.045  1.00  0.00     0.021 C 
BRANCH   2   3
ATOM      3  C   UNL     1       2.816   1.775  -1.168  1.00  0.00     0.116 C 
BRANCH   3   4
ATOM      4  N   UNL     1       1.497   2.077  -1.693  1.00  0.00    -0.356 N 
ATOM      5  C   UNL     1       0.244   1.681  -1.341  1.00  0.00     0.224 C 
ATOM      6  O   UNL     1      -0.644   1.978  -2.148  1.00  0.00    -0.275 OA
ATOM      7  H   UNL     1       1.512   2.695  -2.460  1.00  0.00     0.163 HD
BRANCH   5   8
ATOM      8  C   UNL     1      -0.101   1.052   0.022  1.00  0.00     0.098 C 
ATOM      9  C   UNL     1       1.492  -0.962  -0.449  1.00  0.00     0.026 C 
ATOM     10  C   UNL     1       0.571  -0.250   0.514  1.00  0.00     0.082 C 
ATOM     11  N   UNL     1      -0.491  -1.259   0.741  1.00  0.00    -0.198 NA
ATOM     12  C   UNL     1      -1.607   0.732   0.131  1.00  0.00     0.032 C 
ATOM     13  C   UNL     1      -1.692  -0.781   0.030  1.00  0.00     0.103 C 
BRANCH  11  14
ATOM     14  S   UNL     1      -0.685  -1.987   2.240  1.00  0.00     0.218 S 
ATOM     15  O   UNL     1      -1.145  -0.936   3.129  1.00  0.00    -0.212 OA
ATOM     16  O   UNL     1      -1.511  -3.159   2.038  1.00  0.00    -0.212 OA
BRANCH  14  17
ATOM     17  C   UNL     1       0.964  -2.491   2.827  1.00  0.00     0.189 C 
BRANCH  17  18
ATOM     18  C   UNL     1       1.670  -3.520   1.975  1.00  0.00    -0.030 A 
ATOM     19  C   UNL     1       1.189  -4.829   1.852  1.00  0.00     0.005 A 
ATOM     20  C   UNL     1       2.896  -3.211   1.353  1.00  0.00     0.024 A 
ATOM     21  C   UNL     1       1.874  -5.777   1.083  1.00  0.00     0.002 A 
ATOM     22  C   UNL     1       3.552  -4.137   0.527  1.00  0.00     0.052 A 
ATOM     23  C   UNL     1       3.041  -5.428   0.402  1.00  0.00     0.019 A 
BRANCH  22  24
ATOM     24  C   UNL     1       4.698  -3.732  -0.234  1.00  0.00     0.099 C 
ATOM     25  N   UNL     1       5.587  -3.355  -0.883  1.00  0.00    -0.192 NA
ENDBRANCH  22  24
ENDBRANCH  17  18
ENDBRANCH  14  17
ENDBRANCH  11  14
ENDBRANCH   5   8
ENDBRANCH   3   4
ENDBRANCH   2   3
ENDBRANCH   1   2
BRANCH   1  26
ATOM     26  C   UNL     1       5.644   1.912  -2.727  1.00  0.00     0.002 C 
BRANCH  26  27
ATOM     27  C   UNL     1       6.531   1.057  -1.815  1.00  0.00     0.021 C 
BRANCH  27  28
ATOM     28  C   UNL     1       6.907  -0.308  -2.389  1.00  0.00     0.116 C 
BRANCH  28  29
ATOM     29  N   UNL     1       7.623  -0.172  -3.648  1.00  0.00    -0.352 N 
ATOM     30  C   UNL     1       8.941  -0.429  -3.928  1.00  0.00     0.251 C 
ATOM     31  H   UNL     1       7.086   0.151  -4.407  1.00  0.00     0.163 HD
ATOM     32  O   UNL     1       9.447   0.016  -4.954  1.00  0.00    -0.269 OA
BRANCH  30  33
ATOM     33  C   UNL     1       9.746  -1.234  -2.987  1.00  0.00     0.039 A 
ATOM     34  C   UNL     1      11.047  -0.826  -2.687  1.00  0.00     0.014 A 
ATOM     35  C   UNL     1       9.222  -2.397  -2.414  1.00  0.00     0.014 A 
ATOM     36  C   UNL     1      11.805  -1.559  -1.772  1.00  0.00     0.010 A 
ATOM     37  C   UNL     1       9.948  -3.079  -1.443  1.00  0.00     0.010 A 
ATOM     38  C   UNL     1      11.250  -2.673  -1.118  1.00  0.00    -0.014 A 
BRANCH  38  39
ATOM     39  C   UNL     1      12.022  -3.421  -0.093  1.00  0.00     0.031 A 
ATOM     40  C   UNL     1      12.379  -4.865  -0.318  1.00  0.00     0.074 A 
ATOM     41  C   UNL     1      12.359  -2.810   1.060  1.00  0.00     0.049 A 
ATOM     42  N   UNL     1      13.016  -5.691   0.473  1.00  0.00    -0.248 NA
ATOM     43  C   UNL     1      11.947  -5.469  -1.589  1.00  0.00     0.031 C 
ATOM     44  C   UNL     1      12.030  -1.426   1.409  1.00  0.00     0.029 A 
ATOM     45  N   UNL     1      13.048  -3.272   2.153  1.00  0.00    -0.354 N 
ATOM     46  C   UNL     1      13.055  -6.907  -0.200  1.00  0.00     0.074 A 
ATOM     47  C   UNL     1      12.325  -6.729  -1.435  1.00  0.00     0.031 C 
ATOM     48  C   UNL     1      12.543  -1.143   2.617  1.00  0.00     0.029 A 
ATOM     49  C   UNL     1      13.194  -2.336   3.150  1.00  0.00     0.049 A 
ATOM     50  H   UNL     1      13.405  -4.187   2.218  1.00  0.00     0.167 HD
ATOM     51  C   UNL     1      13.665  -8.059   0.169  1.00  0.00     0.037 A 
ATOM     52  C   UNL     1      13.776  -2.430   4.361  1.00  0.00     0.037 A 
ATOM     53  C   UNL     1      14.395  -8.222   1.401  1.00  0.00     0.049 A 
ATOM     54  C   UNL     1      14.418  -3.730   4.763  1.00  0.00     0.074 A 
ATOM     55  C   UNL     1      15.089  -9.332   1.847  1.00  0.00     0.029 A 
ATOM     56  N   UNL     1      14.516  -7.253   2.387  1.00  0.00    -0.354 N 
ATOM     57  N   UNL     1      14.506  -4.851   4.085  1.00  0.00    -0.248 NA
ATOM     58  C   UNL     1      15.044  -3.780   6.090  1.00  0.00     0.031 C 
ATOM     59  C   UNL     1      15.573  -9.058   3.130  1.00  0.00     0.029 A 
ATOM     60  C   UNL     1      15.244  -7.752   3.455  1.00  0.00     0.049 A 
ATOM     61  H   UNL     1      14.139  -6.345   2.335  1.00  0.00     0.167 HD
ATOM     62  C   UNL     1      15.222  -5.729   4.892  1.00  0.00     0.074 A 
ATOM     63  C   UNL     1      15.556  -5.003   6.100  1.00  0.00     0.031 C 
ATOM     64  C   UNL     1      15.571  -7.018   4.654  1.00  0.00     0.037 A 
BRANCH  51  65
ATOM     65  C   UNL     1      13.563  -9.236  -0.765  1.00  0.00     0.058 A 
ATOM     66  C   UNL     1      14.195  -9.243  -2.020  1.00  0.00     0.135 A 
ATOM     67  C   UNL     1      12.853 -10.388  -0.388  1.00  0.00     0.135 A 
ATOM     68  F   UNL     1      14.876  -8.166  -2.442  1.00  0.00    -0.206 F 
ATOM     69  C   UNL     1      14.100 -10.334  -2.878  1.00  0.00     0.059 A 
ATOM     70  C   UNL     1      12.774 -11.504  -1.216  1.00  0.00     0.059 A 
ATOM     71  F   UNL     1      12.229 -10.439   0.799  1.00  0.00    -0.206 F 
ATOM     72  C   UNL     1      13.388 -11.461  -2.466  1.00  0.00     0.060 A 
BRANCH  72  73
ATOM     73  S   UNL     1      13.280 -12.869  -3.590  1.00  0.00     0.124 S 
ATOM     74  O   UNL     1      12.409 -12.341  -4.636  1.00  0.00    -0.237 OA
ATOM     75  O   UNL     1      14.674 -13.071  -3.970  1.00  0.00    -0.237 OA
ATOM     76  O   UNL     1      12.698 -13.922  -2.764  1.00  0.00    -0.744 OA
ENDBRANCH  72  73
ENDBRANCH  51  65
BRANCH  52  77
ATOM     77  C   UNL     1      13.788  -1.254   5.274  1.00  0.00     0.058 A 
ATOM     78  C   UNL     1      14.985  -0.592   5.588  1.00  0.00     0.135 A 
ATOM     79  C   UNL     1      12.603  -0.760   5.842  1.00  0.00     0.135 A 
ATOM     80  F   UNL     1      16.147  -1.029   5.077  1.00  0.00    -0.206 F 
ATOM     81  C   UNL     1      15.010   0.504   6.444  1.00  0.00     0.059 A 
ATOM     82  C   UNL     1      12.598   0.353   6.675  1.00  0.00     0.059 A 
ATOM     83  F   UNL     1      11.428  -1.346   5.563  1.00  0.00    -0.206 F 
ATOM     84  C   UNL     1      13.809   0.973   6.979  1.00  0.00     0.060 A 
BRANCH  84  85
ATOM     85  S   UNL     1      13.847   2.426   8.050  1.00  0.00     0.124 S 
ATOM     86  O   UNL     1      14.496   1.896   9.243  1.00  0.00    -0.237 OA
ATOM     87  O   UNL     1      14.634   3.366   7.258  1.00  0.00    -0.237 OA
ATOM     88  O   UNL     1      12.436   2.771   8.199  1.00  0.00    -0.744 OA
ENDBRANCH  84  85
ENDBRANCH  52  77
BRANCH  64  89
ATOM     89  C   UNL     1      16.386  -7.723   5.706  1.00  0.00     0.058 A 
ATOM     90  C   UNL     1      15.839  -8.087   6.947  1.00  0.00     0.135 A 
ATOM     91  C   UNL     1      17.718  -8.086   5.446  1.00  0.00     0.135 A 
ATOM     92  F   UNL     1      14.573  -7.759   7.251  1.00  0.00    -0.206 F 
ATOM     93  C   UNL     1      16.592  -8.762   7.902  1.00  0.00     0.059 A 
ATOM     94  C   UNL     1      18.478  -8.793   6.373  1.00  0.00     0.059 A 
ATOM     95  F   UNL     1      18.289  -7.772   4.272  1.00  0.00    -0.206 F 
ATOM     96  C   UNL     1      17.909  -9.116   7.604  1.00  0.00     0.060 A 
BRANCH  96  97
ATOM     97  S   UNL     1      18.860 -10.024   8.840  1.00  0.00     0.124 S 
ATOM     98  O   UNL     1      19.078  -9.000   9.855  1.00  0.00    -0.237 OA
ATOM     99  O   UNL     1      17.943 -11.098   9.209  1.00  0.00    -0.237 OA
ATOM    100  O   UNL     1      20.051 -10.448   8.110  1.00  0.00    -0.744 OA
ENDBRANCH  96  97
ENDBRANCH  64  89
ENDBRANCH  38  39
ENDBRANCH  30  33
ENDBRANCH  28  29
ENDBRANCH  27  28
ENDBRANCH  26  27
ENDBRANCH   1  26
TORSDOF 20
