REMARK SMILES NS(=O)(=O)c1ccc(N2N=C(C(=O)NCCCCCCNC(=O)c3ccc(-c4c5nc(c(-c6c(F)cc(S(=O)(=O)[O-])cc6F)c6ccc([nH]6)c(-c6c(F)cc(S(=O)(=O)[O-])cc6F)c6nc(c(-c7c(F)cc(S(=O)(=O)[O-])cc7F)c7ccc4[nH]7)C=C6)C=C5)cc3)C[C@H]2c2ccco2)cc1
REMARK SMILES IDX 17 1 16 2 15 3 14 4 12 5 13 6 11 8 9 9 10 10 91 11 90 12
REMARK SMILES IDX 8 13 5 14 6 15 98 16 7 17 97 18 2 19 3 20 4 21 1 22 92 25
REMARK SMILES IDX 93 26 96 27 94 28 95 29 18 30 19 31 20 32 21 33 22 34 23 36
REMARK SMILES IDX 24 37 25 38 89 39 26 40 88 41 27 42 28 43 29 44 82 45 30 46
REMARK SMILES IDX 87 47 81 48 83 49 31 50 86 51 80 52 79 53 32 55 66 56 45 57
REMARK SMILES IDX 65 58 46 59 49 60 64 61 84 62 47 63 48 64 63 66 85 67 50 68
REMARK SMILES IDX 33 69 34 70 43 71 35 72 36 73 42 74 44 75 37 76 38 77 39 78
REMARK SMILES IDX 40 79 41 80 67 81 68 82 77 83 69 84 70 85 76 86 78 87 71 88
REMARK SMILES IDX 72 89 73 90 74 91 75 92 51 93 52 94 61 95 53 96 54 97 60 98
REMARK SMILES IDX 62 99 55 100 56 101 57 102 58 103 59 104
REMARK H PARENT 14 7 1 23 1 24 21 35 83 54 49 65
REMARK Flexibility Score: inf
ROOT
ATOM      1  C   UNL     1       1.905 -10.420   8.955  1.00  0.00     0.002 C 
ENDROOT
BRANCH   1   2
ATOM      2  C   UNL     1       1.167  -9.121   8.623  1.00  0.00     0.021 C 
BRANCH   2   3
ATOM      3  C   UNL     1       2.052  -7.879   8.655  1.00  0.00     0.116 C 
BRANCH   3   4
ATOM      4  N   UNL     1       2.909  -7.820   7.486  1.00  0.00    -0.351 N 
ATOM      5  C   UNL     1       3.054  -6.936   6.448  1.00  0.00     0.267 C 
ATOM      6  O   UNL     1       3.826  -7.244   5.542  1.00  0.00    -0.268 OA
ATOM      7  H   UNL     1       3.524  -8.586   7.425  1.00  0.00     0.163 HD
BRANCH   5   8
ATOM      8  C   UNL     1       2.354  -5.587   6.379  1.00  0.00     0.128 C 
ATOM      9  N   UNL     1       1.941  -3.599   5.706  1.00  0.00    -0.254 N 
ATOM     10  N   UNL     1       2.568  -4.769   5.391  1.00  0.00    -0.171 NA
ATOM     11  C   UNL     1       1.085  -3.697   6.898  1.00  0.00     0.180 C 
ATOM     12  C   UNL     1       1.413  -5.096   7.421  1.00  0.00     0.099 C 
BRANCH   9  13
ATOM     13  C   UNL     1       1.636  -2.686   4.697  1.00  0.00     0.060 A 
ATOM     14  C   UNL     1       0.929  -0.796   2.746  1.00  0.00     0.082 A 
ATOM     15  C   UNL     1       0.746  -2.157   2.490  1.00  0.00     0.024 A 
ATOM     16  C   UNL     1       1.489  -0.370   3.949  1.00  0.00     0.024 A 
ATOM     17  C   UNL     1       1.111  -3.095   3.462  1.00  0.00     0.029 A 
ATOM     18  C   UNL     1       1.844  -1.317   4.909  1.00  0.00     0.029 A 
BRANCH  14  19
ATOM     19  S   UNL     1       0.467   0.402   1.536  1.00  0.00     0.238 S 
ATOM     20  O   UNL     1       1.090   1.670   1.855  1.00  0.00    -0.207 OA
ATOM     21  O   UNL     1      -0.943   0.277   1.272  1.00  0.00    -0.207 OA
BRANCH  19  22
ATOM     22  N   UNL     1       1.258  -0.131   0.154  1.00  0.00    -0.225 NA
ATOM     23  H   UNL     1       1.055   0.502  -0.619  1.00  0.00     0.137 HD
ATOM     24  H   UNL     1       0.936  -1.070  -0.081  1.00  0.00     0.137 HD
ENDBRANCH  19  22
ENDBRANCH  14  19
ENDBRANCH   9  13
BRANCH  11  25
ATOM     25  C   UNL     1       1.215  -2.640   7.958  1.00  0.00     0.128 A 
ATOM     26  C   UNL     1       0.708  -1.359   8.074  1.00  0.00     0.048 A 
ATOM     27  O   UNL     1       1.921  -2.945   9.090  1.00  0.00    -0.467 OA
ATOM     28  C   UNL     1       1.146  -0.856   9.323  1.00  0.00     0.042 A 
ATOM     29  C   UNL     1       1.862  -1.869   9.912  1.00  0.00     0.195 A 
ENDBRANCH  11  25
ENDBRANCH   5   8
ENDBRANCH   3   4
ENDBRANCH   2   3
ENDBRANCH   1   2
BRANCH   1  30
ATOM     30  C   UNL     1       2.617 -10.430  10.312  1.00  0.00     0.002 C 
BRANCH  30  31
ATOM     31  C   UNL     1       1.750 -10.024  11.508  1.00  0.00     0.021 C 
BRANCH  31  32
ATOM     32  C   UNL     1       0.492 -10.866  11.697  1.00  0.00     0.116 C 
BRANCH  32  33
ATOM     33  N   UNL     1       0.808 -12.266  11.920  1.00  0.00    -0.352 N 
ATOM     34  C   UNL     1       0.437 -13.091  12.951  1.00  0.00     0.251 C 
ATOM     35  H   UNL     1       1.370 -12.685  11.229  1.00  0.00     0.163 HD
ATOM     36  O   UNL     1       0.984 -14.182  13.082  1.00  0.00    -0.269 OA
BRANCH  34  37
ATOM     37  C   UNL     1      -0.604 -12.661  13.910  1.00  0.00     0.039 A 
ATOM     38  C   UNL     1      -0.414 -12.920  15.269  1.00  0.00     0.014 A 
ATOM     39  C   UNL     1      -1.773 -12.028  13.474  1.00  0.00     0.014 A 
ATOM     40  C   UNL     1      -1.373 -12.503  16.194  1.00  0.00     0.010 A 
ATOM     41  C   UNL     1      -2.691 -11.545  14.404  1.00  0.00     0.010 A 
ATOM     42  C   UNL     1      -2.505 -11.784  15.773  1.00  0.00    -0.014 A 
BRANCH  42  43
ATOM     43  C   UNL     1      -3.493 -11.276  16.761  1.00  0.00     0.031 A 
ATOM     44  C   UNL     1      -4.914 -11.772  16.744  1.00  0.00     0.074 A 
ATOM     45  C   UNL     1      -3.116 -10.332  17.646  1.00  0.00     0.049 A 
ATOM     46  N   UNL     1      -5.916 -11.428  17.512  1.00  0.00    -0.248 NA
ATOM     47  C   UNL     1      -5.264 -12.766  15.716  1.00  0.00     0.031 C 
ATOM     48  C   UNL     1      -1.782  -9.729  17.722  1.00  0.00     0.029 A 
ATOM     49  N   UNL     1      -3.817  -9.707  18.647  1.00  0.00    -0.354 N 
ATOM     50  C   UNL     1      -7.013 -12.149  17.055  1.00  0.00     0.074 A 
ATOM     51  C   UNL     1      -6.567 -12.913  15.911  1.00  0.00     0.031 C 
ATOM     52  C   UNL     1      -1.756  -8.842  18.728  1.00  0.00     0.029 A 
ATOM     53  C   UNL     1      -3.077  -8.781  19.345  1.00  0.00     0.049 A 
ATOM     54  H   UNL     1      -4.761  -9.903  18.846  1.00  0.00     0.167 HD
ATOM     55  C   UNL     1      -8.270 -12.188  17.558  1.00  0.00     0.037 A 
ATOM     56  C   UNL     1      -3.424  -7.967  20.361  1.00  0.00     0.037 A 
ATOM     57  C   UNL     1      -8.698 -11.443  18.714  1.00  0.00     0.049 A 
ATOM     58  C   UNL     1      -4.825  -8.038  20.908  1.00  0.00     0.074 A 
ATOM     59  C   UNL     1      -9.930 -11.470  19.345  1.00  0.00     0.029 A 
ATOM     60  N   UNL     1      -7.915 -10.533  19.409  1.00  0.00    -0.354 N 
ATOM     61  N   UNL     1      -5.826  -8.790  20.515  1.00  0.00    -0.248 NA
ATOM     62  C   UNL     1      -5.141  -7.160  22.042  1.00  0.00     0.031 C 
ATOM     63  C   UNL     1      -9.910 -10.534  20.384  1.00  0.00     0.029 A 
ATOM     64  C   UNL     1      -8.646  -9.969  20.442  1.00  0.00     0.049 A 
ATOM     65  H   UNL     1      -6.977 -10.318  19.198  1.00  0.00     0.167 HD
ATOM     66  C   UNL     1      -6.882  -8.493  21.370  1.00  0.00     0.074 A 
ATOM     67  C   UNL     1      -6.391  -7.509  22.312  1.00  0.00     0.031 C 
ATOM     68  C   UNL     1      -8.144  -8.990  21.374  1.00  0.00     0.037 A 
BRANCH  55  69
ATOM     69  C   UNL     1      -9.281 -13.062  16.865  1.00  0.00     0.058 A 
ATOM     70  C   UNL     1      -9.206 -14.464  16.912  1.00  0.00     0.135 A 
ATOM     71  C   UNL     1     -10.377 -12.491  16.196  1.00  0.00     0.135 A 
ATOM     72  F   UNL     1      -8.173 -15.066  17.524  1.00  0.00    -0.206 F 
ATOM     73  C   UNL     1     -10.167 -15.266  16.305  1.00  0.00     0.059 A 
ATOM     74  C   UNL     1     -11.366 -13.273  15.608  1.00  0.00     0.059 A 
ATOM     75  F   UNL     1     -10.499 -11.156  16.117  1.00  0.00    -0.206 F 
ATOM     76  C   UNL     1     -11.246 -14.661  15.659  1.00  0.00     0.060 A 
BRANCH  76  77
ATOM     77  S   UNL     1     -12.497 -15.718  14.898  1.00  0.00     0.124 S 
ATOM     78  O   UNL     1     -11.767 -16.256  13.754  1.00  0.00    -0.237 OA
ATOM     79  O   UNL     1     -12.791 -16.668  15.966  1.00  0.00    -0.237 OA
ATOM     80  O   UNL     1     -13.575 -14.790  14.573  1.00  0.00    -0.744 OA
ENDBRANCH  76  77
ENDBRANCH  55  69
BRANCH  56  81
ATOM     81  C   UNL     1      -2.427  -7.021  20.931  1.00  0.00     0.058 A 
ATOM     82  C   UNL     1      -1.923  -7.188  22.230  1.00  0.00     0.135 A 
ATOM     83  C   UNL     1      -1.957  -5.928  20.185  1.00  0.00     0.135 A 
ATOM     84  F   UNL     1      -2.344  -8.214  22.985  1.00  0.00    -0.206 F 
ATOM     85  C   UNL     1      -1.008  -6.295  22.778  1.00  0.00     0.059 A 
ATOM     86  C   UNL     1      -1.019  -5.039  20.700  1.00  0.00     0.059 A 
ATOM     87  F   UNL     1      -2.392  -5.732  18.931  1.00  0.00    -0.206 F 
ATOM     88  C   UNL     1      -0.561  -5.223  22.003  1.00  0.00     0.060 A 
BRANCH  88  89
ATOM     89  S   UNL     1       0.655  -4.090  22.710  1.00  0.00     0.124 S 
ATOM     90  O   UNL     1      -0.153  -3.359  23.678  1.00  0.00    -0.237 OA
ATOM     91  O   UNL     1       1.643  -5.010  23.265  1.00  0.00    -0.237 OA
ATOM     92  O   UNL     1       1.107  -3.321  21.554  1.00  0.00    -0.744 OA
ENDBRANCH  88  89
ENDBRANCH  56  81
BRANCH  68  93
ATOM     93  C   UNL     1      -9.076  -8.502  22.451  1.00  0.00     0.058 A 
ATOM     94  C   UNL     1      -9.580  -7.192  22.457  1.00  0.00     0.135 A 
ATOM     95  C   UNL     1      -9.498  -9.370  23.472  1.00  0.00     0.135 A 
ATOM     96  F   UNL     1      -9.206  -6.319  21.508  1.00  0.00    -0.206 F 
ATOM     97  C   UNL     1     -10.441  -6.749  23.456  1.00  0.00     0.059 A 
ATOM     98  C   UNL     1     -10.384  -8.959  24.462  1.00  0.00     0.059 A 
ATOM     99  F   UNL     1      -9.057 -10.638  23.507  1.00  0.00    -0.206 F 
ATOM    100  C   UNL     1     -10.837  -7.641  24.455  1.00  0.00     0.060 A 
BRANCH 100 101
ATOM    101  S   UNL     1     -11.967  -7.058  25.736  1.00  0.00     0.124 S 
ATOM    102  O   UNL     1     -11.094  -6.199  26.529  1.00  0.00    -0.237 OA
ATOM    103  O   UNL     1     -12.994  -6.372  24.957  1.00  0.00    -0.237 OA
ATOM    104  O   UNL     1     -12.403  -8.288  26.391  1.00  0.00    -0.744 OA
ENDBRANCH 100 101
ENDBRANCH  68  93
ENDBRANCH  42  43
ENDBRANCH  34  37
ENDBRANCH  32  33
ENDBRANCH  31  32
ENDBRANCH  30  31
ENDBRANCH   1  30
TORSDOF 20
