REMARK SMILES Cc1cccc(C(=O)NCCCCCCNC(=O)c2ccc(-c3c4nc(c(-c5c(F)cc(S(=O)(=O)[O-])cc5F)c5ccc([nH]5)c(-c5c(F)cc(S(=O)(=O)[O-])cc5F)c5nc(c(-c6c(F)cc(S(=O)(=O)[O-])cc6F)c6ccc3[nH]6)C=C5)C=C4)cc2)c1O[C@H](C)[C@H](C)O
REMARK SMILES IDX 12 1 11 2 10 3 9 4 7 5 8 6 6 8 1 9 2 10 3 11 85 12 4 13 5 14
REMARK SMILES IDX 86 15 87 16 88 17 89 18 90 19 91 20 13 22 14 23 15 24 16 25
REMARK SMILES IDX 17 26 18 28 19 29 20 30 84 31 21 32 83 33 22 34 23 35 24 36
REMARK SMILES IDX 77 37 25 38 82 39 76 40 78 41 26 42 81 43 75 44 74 45 27 47
REMARK SMILES IDX 61 48 40 49 60 50 41 51 44 52 59 53 79 54 42 55 43 56 58 58
REMARK SMILES IDX 80 59 45 60 28 61 29 62 38 63 30 64 31 65 37 66 39 67 32 68
REMARK SMILES IDX 33 69 34 70 35 71 36 72 62 73 63 74 72 75 64 76 65 77 71 78
REMARK SMILES IDX 73 79 66 80 67 81 68 82 69 83 70 84 46 85 47 86 56 87 48 88
REMARK SMILES IDX 49 89 55 90 57 91 50 92 51 93 52 94 53 95 54 96
REMARK H PARENT 9 7 91 21 16 27 78 46 44 57
REMARK Flexibility Score: inf
ROOT
ATOM      1  C   UNL     1       4.065   4.911  -0.797  1.00  0.00     0.002 C 
ENDROOT
BRANCH   1   2
ATOM      2  C   UNL     1       3.487   3.669  -1.467  1.00  0.00     0.021 C 
BRANCH   2   3
ATOM      3  C   UNL     1       4.156   3.135  -2.772  1.00  0.00     0.116 C 
BRANCH   3   4
ATOM      4  N   UNL     1       4.425   1.635  -2.888  1.00  0.00    -0.352 N 
ATOM      5  C   UNL     1       4.044   0.345  -3.290  1.00  0.00     0.255 C 
ATOM      6  O   UNL     1       5.056  -0.387  -3.240  1.00  0.00    -0.269 OA
ATOM      7  H   UNL     1       5.308   1.512  -2.470  1.00  0.00     0.163 HD
BRANCH   5   8
ATOM      8  C   UNL     1       2.763  -0.382  -3.783  1.00  0.00     0.082 A 
ATOM      9  C   UNL     1      -1.071  -0.665  -4.228  1.00  0.00     0.048 C 
ATOM     10  C   UNL     1       0.401  -1.026  -4.304  1.00  0.00    -0.008 A 
ATOM     11  C   UNL     1       0.802  -2.099  -5.078  1.00  0.00     0.007 A 
ATOM     12  C   UNL     1       1.366  -0.288  -3.551  1.00  0.00     0.135 A 
ATOM     13  C   UNL     1       2.152  -2.375  -5.171  1.00  0.00     0.001 A 
ATOM     14  C   UNL     1       3.096  -1.513  -4.580  1.00  0.00     0.018 A 
BRANCH  12  15
ATOM     15  O   UNL     1       0.652   0.356  -2.580  1.00  0.00    -0.487 OA
BRANCH  15  16
ATOM     16  C   UNL     1       1.217   1.507  -1.990  1.00  0.00     0.198 C 
ATOM     17  C   UNL     1       1.403   2.404  -3.245  1.00  0.00     0.056 C 
BRANCH  16  18
ATOM     18  C   UNL     1       2.017   0.878  -0.758  1.00  0.00     0.151 C 
ATOM     19  C   UNL     1       1.586   1.444   0.593  1.00  0.00     0.042 C 
BRANCH  18  20
ATOM     20  O   UNL     1       3.414   0.659  -0.689  1.00  0.00    -0.390 OA
ATOM     21  H   UNL     1       3.861   1.487  -0.453  1.00  0.00     0.211 HD
ENDBRANCH  18  20
ENDBRANCH  16  18
ENDBRANCH  15  16
ENDBRANCH  12  15
ENDBRANCH   5   8
ENDBRANCH   3   4
ENDBRANCH   2   3
ENDBRANCH   1   2
BRANCH   1  22
ATOM     22  C   UNL     1       3.871   6.228  -1.542  1.00  0.00     0.002 C 
BRANCH  22  23
ATOM     23  C   UNL     1       2.433   6.624  -1.898  1.00  0.00     0.021 C 
BRANCH  23  24
ATOM     24  C   UNL     1       1.491   6.830  -0.722  1.00  0.00     0.116 C 
BRANCH  24  25
ATOM     25  N   UNL     1       1.643   8.162  -0.166  1.00  0.00    -0.352 N 
ATOM     26  C   UNL     1       0.584   8.929   0.274  1.00  0.00     0.251 C 
ATOM     27  H   UNL     1       2.550   8.538  -0.099  1.00  0.00     0.163 HD
ATOM     28  O   UNL     1       0.086   9.868  -0.337  1.00  0.00    -0.269 OA
BRANCH  26  29
ATOM     29  C   UNL     1      -0.023   8.420   1.508  1.00  0.00     0.039 A 
ATOM     30  C   UNL     1       0.423   8.908   2.743  1.00  0.00     0.014 A 
ATOM     31  C   UNL     1      -0.679   7.199   1.370  1.00  0.00     0.014 A 
ATOM     32  C   UNL     1       0.369   8.065   3.840  1.00  0.00     0.010 A 
ATOM     33  C   UNL     1      -0.594   6.321   2.409  1.00  0.00     0.010 A 
ATOM     34  C   UNL     1      -0.045   6.755   3.620  1.00  0.00    -0.014 A 
BRANCH  34  35
ATOM     35  C   UNL     1      -0.046   5.724   4.625  1.00  0.00     0.031 A 
ATOM     36  C   UNL     1      -1.316   5.532   5.334  1.00  0.00     0.074 A 
ATOM     37  C   UNL     1       1.020   4.900   4.666  1.00  0.00     0.049 A 
ATOM     38  N   UNL     1      -1.424   4.948   6.466  1.00  0.00    -0.248 NA
ATOM     39  C   UNL     1      -2.594   6.040   4.828  1.00  0.00     0.031 C 
ATOM     40  C   UNL     1       1.164   3.606   5.316  1.00  0.00     0.029 A 
ATOM     41  N   UNL     1       2.316   5.211   4.234  1.00  0.00    -0.354 N 
ATOM     42  C   UNL     1      -2.764   4.692   6.659  1.00  0.00     0.074 A 
ATOM     43  C   UNL     1      -3.457   5.505   5.695  1.00  0.00     0.031 C 
ATOM     44  C   UNL     1       2.475   3.375   5.520  1.00  0.00     0.029 A 
ATOM     45  C   UNL     1       3.192   4.586   5.145  1.00  0.00     0.049 A 
ATOM     46  H   UNL     1       2.564   5.755   3.452  1.00  0.00     0.167 HD
ATOM     47  C   UNL     1      -3.101   3.673   7.496  1.00  0.00     0.037 A 
ATOM     48  C   UNL     1       3.891   5.384   6.011  1.00  0.00     0.037 A 
ATOM     49  C   UNL     1      -1.882   3.092   8.067  1.00  0.00     0.049 A 
ATOM     50  C   UNL     1       3.405   5.277   7.454  1.00  0.00     0.074 A 
ATOM     51  C   UNL     1      -1.084   2.008   7.743  1.00  0.00     0.029 A 
ATOM     52  N   UNL     1      -1.099   3.904   8.858  1.00  0.00    -0.354 N 
ATOM     53  N   UNL     1       2.356   4.597   7.836  1.00  0.00    -0.248 NA
ATOM     54  C   UNL     1       4.043   5.965   8.575  1.00  0.00     0.031 C 
ATOM     55  C   UNL     1       0.195   2.200   8.355  1.00  0.00     0.029 A 
ATOM     56  C   UNL     1       0.164   3.393   9.054  1.00  0.00     0.049 A 
ATOM     57  H   UNL     1      -1.409   4.756   9.242  1.00  0.00     0.167 HD
ATOM     58  C   UNL     1       2.145   4.761   9.181  1.00  0.00     0.074 A 
ATOM     59  C   UNL     1       3.225   5.643   9.595  1.00  0.00     0.031 C 
ATOM     60  C   UNL     1       1.094   4.185   9.848  1.00  0.00     0.037 A 
BRANCH  47  61
ATOM     61  C   UNL     1      -4.468   3.046   7.606  1.00  0.00     0.058 A 
ATOM     62  C   UNL     1      -4.582   1.703   8.024  1.00  0.00     0.135 A 
ATOM     63  C   UNL     1      -5.695   3.682   7.321  1.00  0.00     0.135 A 
ATOM     64  F   UNL     1      -3.510   0.983   8.377  1.00  0.00    -0.206 F 
ATOM     65  C   UNL     1      -5.798   1.029   8.096  1.00  0.00     0.059 A 
ATOM     66  C   UNL     1      -6.925   3.014   7.345  1.00  0.00     0.059 A 
ATOM     67  F   UNL     1      -5.762   4.993   7.054  1.00  0.00    -0.206 F 
ATOM     68  C   UNL     1      -6.966   1.684   7.739  1.00  0.00     0.060 A 
BRANCH  68  69
ATOM     69  S   UNL     1      -8.517   0.774   7.836  1.00  0.00     0.124 S 
ATOM     70  O   UNL     1      -8.259  -0.361   6.954  1.00  0.00    -0.237 OA
ATOM     71  O   UNL     1      -8.597   0.466   9.260  1.00  0.00    -0.237 OA
ATOM     72  O   UNL     1      -9.505   1.730   7.345  1.00  0.00    -0.744 OA
ENDBRANCH  68  69
ENDBRANCH  47  61
BRANCH  48  73
ATOM     73  C   UNL     1       4.385   6.628   5.330  1.00  0.00     0.058 A 
ATOM     74  C   UNL     1       5.273   6.482   4.239  1.00  0.00     0.135 A 
ATOM     75  C   UNL     1       3.698   7.846   5.429  1.00  0.00     0.135 A 
ATOM     76  F   UNL     1       5.966   5.341   4.085  1.00  0.00    -0.206 F 
ATOM     77  C   UNL     1       5.366   7.434   3.223  1.00  0.00     0.059 A 
ATOM     78  C   UNL     1       3.789   8.820   4.430  1.00  0.00     0.059 A 
ATOM     79  F   UNL     1       2.832   8.054   6.431  1.00  0.00    -0.206 F 
ATOM     80  C   UNL     1       4.585   8.583   3.309  1.00  0.00     0.060 A 
BRANCH  80  81
ATOM     81  S   UNL     1       4.507   9.679   1.875  1.00  0.00     0.124 S 
ATOM     82  O   UNL     1       5.870  10.190   1.804  1.00  0.00    -0.237 OA
ATOM     83  O   UNL     1       4.118   8.748   0.818  1.00  0.00    -0.237 OA
ATOM     84  O   UNL     1       3.478  10.645   2.239  1.00  0.00    -0.744 OA
ENDBRANCH  80  81
ENDBRANCH  48  73
BRANCH  60  85
ATOM     85  C   UNL     1       0.811   4.357  11.327  1.00  0.00     0.058 A 
ATOM     86  C   UNL     1       1.824   4.366  12.296  1.00  0.00     0.135 A 
ATOM     87  C   UNL     1      -0.512   4.414  11.840  1.00  0.00     0.135 A 
ATOM     88  F   UNL     1       3.108   4.181  11.953  1.00  0.00    -0.206 F 
ATOM     89  C   UNL     1       1.552   4.537  13.656  1.00  0.00     0.059 A 
ATOM     90  C   UNL     1      -0.808   4.516  13.191  1.00  0.00     0.059 A 
ATOM     91  F   UNL     1      -1.596   4.407  11.056  1.00  0.00    -0.206 F 
ATOM     92  C   UNL     1       0.232   4.622  14.091  1.00  0.00     0.060 A 
BRANCH  92  93
ATOM     93  S   UNL     1      -0.125   4.861  15.836  1.00  0.00     0.124 S 
ATOM     94  O   UNL     1       0.780   3.909  16.472  1.00  0.00    -0.237 OA
ATOM     95  O   UNL     1       0.212   6.271  16.009  1.00  0.00    -0.237 OA
ATOM     96  O   UNL     1      -1.544   4.538  15.944  1.00  0.00    -0.744 OA
ENDBRANCH  92  93
ENDBRANCH  60  85
ENDBRANCH  34  35
ENDBRANCH  26  29
ENDBRANCH  24  25
ENDBRANCH  23  24
ENDBRANCH  22  23
ENDBRANCH   1  22
TORSDOF 20
