REMARK SMILES COc1cccc(CSc2nc3ccccc3c(=O)n2CCC(=O)NCCCCCCNC(=O)c2ccc(-c3c4nc(c(-c5c(F)cc(S(=O)(=O)[O-])cc5F)c5ccc([nH]5)c(-c5c(F)cc(S(=O)(=O)[O-])cc5F)c5nc(c(-c6c(F)cc(S(=O)(=O)[O-])cc6F)c6ccc3[nH]6)C=C5)C=C4)cc2)c1
REMARK SMILES IDX 27 1 26 2 25 3 23 4 24 5 22 7 21 8 20 9 10 10 11 11 12 12
REMARK SMILES IDX 18 13 13 14 17 15 19 16 14 17 16 18 15 19 9 20 8 21 7 22
REMARK SMILES IDX 3 23 4 24 101 25 5 26 6 27 2 28 1 29 28 30 29 31 30 32 31 33
REMARK SMILES IDX 32 34 33 35 34 37 35 38 36 39 100 40 37 41 99 42 38 43 39 44
REMARK SMILES IDX 40 45 93 46 41 47 98 48 92 49 94 50 42 51 97 52 91 53 90 54
REMARK SMILES IDX 43 56 77 57 56 58 76 59 57 60 60 61 75 62 95 63 58 64 59 65
REMARK SMILES IDX 74 67 96 68 61 69 44 70 45 71 54 72 46 73 47 74 53 75 55 76
REMARK SMILES IDX 48 77 49 78 50 79 51 80 52 81 78 82 79 83 88 84 80 85 81 86
REMARK SMILES IDX 87 87 89 88 82 89 83 90 84 91 85 92 86 93 62 94 63 95 72 96
REMARK SMILES IDX 64 97 65 98 71 99 73 100 66 101 67 102 68 103 69 104 70 105
REMARK H PARENT 25 6 32 36 94 55 60 66
REMARK Flexibility Score: inf
ROOT
ATOM      1  C   UNL     1       6.554   1.391  -6.239  1.00  0.00     0.021 C 
ENDROOT
BRANCH   1   2
ATOM      2  C   UNL     1       7.242   0.824  -5.000  1.00  0.00     0.116 C 
BRANCH   2   3
ATOM      3  N   UNL     1       6.810   1.519  -3.793  1.00  0.00    -0.356 N 
ATOM      4  C   UNL     1       5.918   1.172  -2.827  1.00  0.00     0.221 C 
ATOM      5  O   UNL     1       5.698   1.984  -1.923  1.00  0.00    -0.275 OA
ATOM      6  H   UNL     1       7.241   2.393  -3.652  1.00  0.00     0.163 HD
BRANCH   4   7
ATOM      7  C   UNL     1       5.213  -0.169  -2.831  1.00  0.00     0.122 C 
BRANCH   7   8
ATOM      8  C   UNL     1       3.686  -0.002  -2.837  1.00  0.00     0.138 C 
BRANCH   8   9
ATOM      9  N   UNL     1       3.103  -0.155  -4.168  1.00  0.00    -0.287 N 
ATOM     10  C   UNL     1       3.321   0.693  -5.231  1.00  0.00     0.171 A 
ATOM     11  N   UNL     1       3.563   0.221  -6.418  1.00  0.00    -0.224 NA
ATOM     12  C   UNL     1       3.556  -1.169  -6.603  1.00  0.00     0.079 A 
ATOM     13  C   UNL     1       2.531  -1.413  -4.417  1.00  0.00     0.262 A 
ATOM     14  C   UNL     1       4.231  -1.751  -7.676  1.00  0.00     0.029 A 
ATOM     15  C   UNL     1       2.870  -1.998  -5.730  1.00  0.00     0.066 A 
ATOM     16  O   UNL     1       1.903  -2.057  -3.605  1.00  0.00    -0.269 OA
ATOM     17  C   UNL     1       4.164  -3.128  -7.904  1.00  0.00     0.002 A 
ATOM     18  C   UNL     1       2.716  -3.365  -5.989  1.00  0.00     0.016 A 
ATOM     19  C   UNL     1       3.364  -3.928  -7.089  1.00  0.00     0.001 A 
BRANCH  10  20
ATOM     20  S   UNL     1       3.332   2.441  -5.165  1.00  0.00    -0.083 SA
BRANCH  20  21
ATOM     21  C   UNL     1       2.851   3.137  -3.588  1.00  0.00     0.113 C 
BRANCH  21  22
ATOM     22  C   UNL     1       1.435   2.847  -3.183  1.00  0.00    -0.034 A 
ATOM     23  C   UNL     1      -0.109   1.664  -1.730  1.00  0.00     0.119 A 
ATOM     24  C   UNL     1      -1.153   2.001  -2.592  1.00  0.00     0.046 A 
ATOM     25  C   UNL     1       1.167   2.148  -1.995  1.00  0.00     0.051 A 
ATOM     26  C   UNL     1      -0.924   2.814  -3.703  1.00  0.00     0.004 A 
ATOM     27  C   UNL     1       0.367   3.232  -4.001  1.00  0.00     0.005 A 
BRANCH  23  28
ATOM     28  O   UNL     1      -0.446   0.848  -0.686  1.00  0.00    -0.497 OA
ATOM     29  C   UNL     1       0.627   0.304   0.078  1.00  0.00     0.278 C 
ENDBRANCH  23  28
ENDBRANCH  21  22
ENDBRANCH  20  21
ENDBRANCH  10  20
ENDBRANCH   8   9
ENDBRANCH   7   8
ENDBRANCH   4   7
ENDBRANCH   2   3
ENDBRANCH   1   2
BRANCH   1  30
ATOM     30  C   UNL     1       7.377   2.268  -7.178  1.00  0.00     0.002 C 
BRANCH  30  31
ATOM     31  C   UNL     1       8.447   1.553  -8.001  1.00  0.00     0.002 C 
BRANCH  31  32
ATOM     32  C   UNL     1       8.031   0.234  -8.658  1.00  0.00     0.021 C 
BRANCH  32  33
ATOM     33  C   UNL     1       6.800   0.294  -9.561  1.00  0.00     0.116 C 
BRANCH  33  34
ATOM     34  N   UNL     1       7.047   0.971 -10.816  1.00  0.00    -0.352 N 
ATOM     35  C   UNL     1       7.184   0.446 -12.078  1.00  0.00     0.251 C 
ATOM     36  H   UNL     1       7.128   1.951 -10.757  1.00  0.00     0.163 HD
ATOM     37  O   UNL     1       7.569   1.167 -12.995  1.00  0.00    -0.269 OA
BRANCH  35  38
ATOM     38  C   UNL     1       6.895  -0.984 -12.344  1.00  0.00     0.039 A 
ATOM     39  C   UNL     1       7.828  -1.726 -13.075  1.00  0.00     0.014 A 
ATOM     40  C   UNL     1       5.693  -1.580 -11.947  1.00  0.00     0.014 A 
ATOM     41  C   UNL     1       7.574  -3.068 -13.379  1.00  0.00     0.010 A 
ATOM     42  C   UNL     1       5.463  -2.935 -12.209  1.00  0.00     0.010 A 
ATOM     43  C   UNL     1       6.396  -3.691 -12.938  1.00  0.00    -0.014 A 
BRANCH  43  44
ATOM     44  C   UNL     1       6.114  -5.118 -13.262  1.00  0.00     0.031 A 
ATOM     45  C   UNL     1       4.976  -5.474 -14.184  1.00  0.00     0.074 A 
ATOM     46  C   UNL     1       6.854  -6.098 -12.707  1.00  0.00     0.049 A 
ATOM     47  N   UNL     1       4.525  -6.655 -14.524  1.00  0.00    -0.248 NA
ATOM     48  C   UNL     1       4.241  -4.354 -14.793  1.00  0.00     0.031 C 
ATOM     49  C   UNL     1       7.979  -5.894 -11.793  1.00  0.00     0.029 A 
ATOM     50  N   UNL     1       6.766  -7.465 -12.823  1.00  0.00    -0.354 N 
ATOM     51  C   UNL     1       3.448  -6.423 -15.374  1.00  0.00     0.074 A 
ATOM     52  C   UNL     1       3.289  -4.987 -15.465  1.00  0.00     0.031 C 
ATOM     53  C   UNL     1       8.479  -7.089 -11.437  1.00  0.00     0.029 A 
ATOM     54  C   UNL     1       7.691  -8.146 -12.065  1.00  0.00     0.049 A 
ATOM     55  H   UNL     1       6.103  -7.915 -13.395  1.00  0.00     0.167 HD
ATOM     56  C   UNL     1       2.674  -7.320 -16.032  1.00  0.00     0.037 A 
ATOM     57  C   UNL     1       7.875  -9.469 -11.883  1.00  0.00     0.037 A 
ATOM     58  C   UNL     1       2.846  -8.749 -15.958  1.00  0.00     0.049 A 
ATOM     59  C   UNL     1       6.985 -10.448 -12.604  1.00  0.00     0.074 A 
ATOM     60  C   UNL     1       2.130  -9.736 -16.614  1.00  0.00     0.029 A 
ATOM     61  N   UNL     1       3.801  -9.395 -15.188  1.00  0.00    -0.354 N 
ATOM     62  N   UNL     1       5.992 -10.208 -13.427  1.00  0.00    -0.248 NA
ATOM     63  C   UNL     1       7.243 -11.878 -12.377  1.00  0.00     0.031 C 
ATOM     64  C   UNL     1       2.624 -10.980 -16.209  1.00  0.00     0.029 A 
ATOM     65  C   UNL     1       3.682 -10.767 -15.341  1.00  0.00     0.049 A 
ATOM     66  H   UNL     1       4.465  -8.946 -14.617  1.00  0.00     0.167 HD
ATOM     67  C   UNL     1       5.533 -11.453 -13.842  1.00  0.00     0.074 A 
ATOM     68  C   UNL     1       6.356 -12.445 -13.183  1.00  0.00     0.031 C 
ATOM     69  C   UNL     1       4.522 -11.747 -14.697  1.00  0.00     0.037 A 
BRANCH  56  70
ATOM     70  C   UNL     1       1.562  -6.786 -16.893  1.00  0.00     0.058 A 
ATOM     71  C   UNL     1       1.821  -6.132 -18.108  1.00  0.00     0.135 A 
ATOM     72  C   UNL     1       0.220  -6.975 -16.525  1.00  0.00     0.135 A 
ATOM     73  F   UNL     1       3.085  -5.913 -18.503  1.00  0.00    -0.206 F 
ATOM     74  C   UNL     1       0.789  -5.661 -18.915  1.00  0.00     0.059 A 
ATOM     75  C   UNL     1      -0.828  -6.536 -17.330  1.00  0.00     0.059 A 
ATOM     76  F   UNL     1      -0.085  -7.597 -15.376  1.00  0.00    -0.206 F 
ATOM     77  C   UNL     1      -0.532  -5.868 -18.517  1.00  0.00     0.060 A 
BRANCH  77  78
ATOM     78  S   UNL     1      -1.859  -5.258 -19.580  1.00  0.00     0.124 S 
ATOM     79  O   UNL     1      -1.776  -3.819 -19.350  1.00  0.00    -0.237 OA
ATOM     80  O   UNL     1      -1.435  -5.713 -20.900  1.00  0.00    -0.237 OA
ATOM     81  O   UNL     1      -3.050  -5.912 -19.047  1.00  0.00    -0.744 OA
ENDBRANCH  77  78
ENDBRANCH  56  70
BRANCH  57  82
ATOM     82  C   UNL     1       8.954  -9.954 -10.981  1.00  0.00     0.058 A 
ATOM     83  C   UNL     1      10.086 -10.608 -11.491  1.00  0.00     0.135 A 
ATOM     84  C   UNL     1       8.874  -9.779  -9.590  1.00  0.00     0.135 A 
ATOM     85  F   UNL     1      10.205 -10.808 -12.813  1.00  0.00    -0.206 F 
ATOM     86  C   UNL     1      11.089 -11.089 -10.656  1.00  0.00     0.059 A 
ATOM     87  C   UNL     1       9.877 -10.227  -8.737  1.00  0.00     0.059 A 
ATOM     88  F   UNL     1       7.819  -9.146  -9.052  1.00  0.00    -0.206 F 
ATOM     89  C   UNL     1      10.976 -10.893  -9.279  1.00  0.00     0.060 A 
BRANCH  89  90
ATOM     90  S   UNL     1      12.302 -11.484  -8.205  1.00  0.00     0.124 S 
ATOM     91  O   UNL     1      12.070 -12.924  -8.219  1.00  0.00    -0.237 OA
ATOM     92  O   UNL     1      13.495 -11.021  -8.908  1.00  0.00    -0.237 OA
ATOM     93  O   UNL     1      12.030 -10.812  -6.938  1.00  0.00    -0.744 OA
ENDBRANCH  89  90
ENDBRANCH  57  82
BRANCH  69  94
ATOM     94  C   UNL     1       4.277 -13.195 -15.020  1.00  0.00     0.058 A 
ATOM     95  C   UNL     1       3.678 -14.070 -14.101  1.00  0.00     0.135 A 
ATOM     96  C   UNL     1       4.586 -13.697 -16.296  1.00  0.00     0.135 A 
ATOM     97  F   UNL     1       3.368 -13.643 -12.866  1.00  0.00    -0.206 F 
ATOM     98  C   UNL     1       3.409 -15.396 -14.428  1.00  0.00     0.059 A 
ATOM     99  C   UNL     1       4.302 -15.011 -16.653  1.00  0.00     0.059 A 
ATOM    100  F   UNL     1       5.152 -12.900 -17.216  1.00  0.00    -0.206 F 
ATOM    101  C   UNL     1       3.721 -15.856 -15.709  1.00  0.00     0.060 A 
BRANCH 101 102
ATOM    102  S   UNL     1       3.324 -17.565 -16.137  1.00  0.00     0.124 S 
ATOM    103  O   UNL     1       4.354 -18.298 -15.409  1.00  0.00    -0.237 OA
ATOM    104  O   UNL     1       1.964 -17.707 -15.625  1.00  0.00    -0.237 OA
ATOM    105  O   UNL     1       3.445 -17.588 -17.592  1.00  0.00    -0.744 OA
ENDBRANCH 101 102
ENDBRANCH  69  94
ENDBRANCH  43  44
ENDBRANCH  35  38
ENDBRANCH  33  34
ENDBRANCH  32  33
ENDBRANCH  31  32
ENDBRANCH  30  31
ENDBRANCH   1  30
TORSDOF 22
