REMARK SMILES CC1(C)CC[C@@]2(C(=O)NCCCCCCNC(=O)c3ccc(-c4c5nc(c(-c6c(F)cc(S(=O)(=O)[O-])cc6F)c6ccc([nH]6)c(-c6c(F)cc(S(=O)(=O)[O-])cc6F)c6nc(c(-c7c(F)cc(S(=O)(=O)[O-])cc7F)c7ccc4[nH]7)C=C6)C=C5)cc3)CC[C@@]3(C)C(=CC[C@H]4[C@@]5(C)CC[C@H](O)C(C)(C)[C@@H]5CC[C@]43C)[C@@H]2C1
REMARK SMILES IDX 13 1 12 2 11 3 10 4 9 5 7 6 8 7 6 9 1 10 2 11 3 12 4 13
REMARK SMILES IDX 108 14 5 15 107 16 89 17 85 18 87 19 90 20 86 21 88 22
REMARK SMILES IDX 105 23 91 24 92 25 104 26 106 27 93 28 103 29 94 30 95 31
REMARK SMILES IDX 102 32 96 33 99 34 97 35 100 36 101 37 98 38 14 40 15 41
REMARK SMILES IDX 16 42 17 43 18 45 19 46 20 47 84 48 21 49 83 50 22 51 23 52
REMARK SMILES IDX 24 53 77 54 25 55 82 56 76 57 78 58 26 59 81 60 75 61 74 62
REMARK SMILES IDX 27 64 61 65 40 66 60 67 41 68 44 69 59 70 79 71 42 72 43 73
REMARK SMILES IDX 58 75 80 76 45 77 28 78 29 79 38 80 30 81 31 82 37 83 39 84
REMARK SMILES IDX 32 85 33 86 34 87 35 88 36 89 62 90 63 91 72 92 64 93 65 94
REMARK SMILES IDX 71 95 73 96 66 97 67 98 68 99 69 100 70 101 46 102 47 103
REMARK SMILES IDX 56 104 48 105 49 106 55 107 57 108 50 109 51 110 52 111
REMARK SMILES IDX 53 112 54 113
REMARK H PARENT 9 8 98 39 16 44 78 63 44 74
REMARK Flexibility Score: inf
ROOT
ATOM      1  C   UNL     1       2.917   0.004  -4.362  1.00  0.00     0.002 C 
ENDROOT
BRANCH   1   2
ATOM      2  C   UNL     1       1.662   0.756  -4.782  1.00  0.00     0.002 C 
BRANCH   2   3
ATOM      3  C   UNL     1       0.301   0.345  -4.186  1.00  0.00     0.021 C 
BRANCH   3   4
ATOM      4  C   UNL     1       0.035   0.511  -2.692  1.00  0.00     0.116 C 
BRANCH   4   5
ATOM      5  N   UNL     1       0.172   1.798  -2.057  1.00  0.00    -0.356 N 
ATOM      6  C   UNL     1      -0.708   2.417  -1.182  1.00  0.00     0.226 C 
ATOM      7  O   UNL     1      -1.915   2.482  -1.408  1.00  0.00    -0.274 OA
ATOM      8  H   UNL     1       0.992   2.299  -2.271  1.00  0.00     0.163 HD
BRANCH   6   9
ATOM      9  C   UNL     1      -0.101   2.873   0.199  1.00  0.00     0.056 C 
ATOM     10  C   UNL     1       1.291  -0.285   2.280  1.00  0.00     0.011 C 
ATOM     11  C   UNL     1       0.891   0.093   0.840  1.00  0.00    -0.035 C 
ATOM     12  C   UNL     1       0.997  -1.239   0.042  1.00  0.00     0.011 C 
ATOM     13  C   UNL     1      -0.595   0.489   0.876  1.00  0.00     0.007 C 
ATOM     14  C   UNL     1       1.878   1.219   0.264  1.00  0.00     0.015 C 
ATOM     15  C   UNL     1      -0.781   1.950   1.236  1.00  0.00     0.018 C 
ATOM     16  C   UNL     1       1.441   2.760   0.273  1.00  0.00     0.031 C 
ATOM     17  C   UNL     1       2.013   3.807  -0.804  1.00  0.00    -0.064 C 
ATOM     18  C   UNL     1      -0.469   4.310   0.622  1.00  0.00     0.018 C 
ATOM     19  C   UNL     1       1.513   5.303  -0.766  1.00  0.00    -0.006 C 
ATOM     20  C   UNL     1       2.802   3.410  -1.818  1.00  0.00    -0.027 C 
ATOM     21  C   UNL     1       0.026   5.371  -0.344  1.00  0.00     0.013 C 
ATOM     22  C   UNL     1       2.352   5.944   0.389  1.00  0.00     0.017 C 
ATOM     23  C   UNL     1       1.735   6.184  -2.184  1.00  0.00    -0.020 C 
ATOM     24  C   UNL     1       2.910   4.120  -3.136  1.00  0.00     0.032 C 
ATOM     25  C   UNL     1       1.876   5.248  -3.431  1.00  0.00     0.006 C 
ATOM     26  C   UNL     1       0.688   7.337  -2.490  1.00  0.00     0.008 C 
ATOM     27  C   UNL     1       3.111   6.957  -2.116  1.00  0.00     0.012 C 
ATOM     28  C   UNL     1       0.596   4.954  -4.395  1.00  0.00    -0.025 C 
ATOM     29  C   UNL     1       0.059   7.362  -3.916  1.00  0.00     0.005 C 
ATOM     30  C   UNL     1       1.215   4.892  -5.822  1.00  0.00     0.012 C 
ATOM     31  C   UNL     1      -0.158   3.659  -4.154  1.00  0.00     0.010 C 
ATOM     32  C   UNL     1      -0.552   6.001  -4.212  1.00  0.00     0.003 C 
ATOM     33  C   UNL     1      -1.350   3.339  -5.060  1.00  0.00     0.033 C 
ATOM     34  C   UNL     1      -1.798   5.853  -5.198  1.00  0.00    -0.006 C 
ATOM     35  C   UNL     1      -2.405   4.427  -4.992  1.00  0.00     0.120 C 
ATOM     36  C   UNL     1      -1.497   6.082  -6.691  1.00  0.00     0.014 C 
ATOM     37  C   UNL     1      -2.915   6.854  -4.822  1.00  0.00     0.014 C 
BRANCH  35  38
ATOM     38  O   UNL     1      -3.427   4.140  -5.947  1.00  0.00    -0.393 OA
ATOM     39  H   UNL     1      -3.043   4.133  -6.838  1.00  0.00     0.210 HD
ENDBRANCH  35  38
ENDBRANCH   6   9
ENDBRANCH   4   5
ENDBRANCH   3   4
ENDBRANCH   2   3
ENDBRANCH   1   2
BRANCH   1  40
ATOM     40  C   UNL     1       2.882  -1.494  -4.599  1.00  0.00     0.021 C 
BRANCH  40  41
ATOM     41  C   UNL     1       2.227  -1.919  -5.902  1.00  0.00     0.116 C 
BRANCH  41  42
ATOM     42  N   UNL     1       2.828  -1.356  -7.102  1.00  0.00    -0.352 N 
ATOM     43  C   UNL     1       2.703  -1.882  -8.367  1.00  0.00     0.251 C 
ATOM     44  H   UNL     1       3.364  -0.537  -7.000  1.00  0.00     0.163 HD
ATOM     45  O   UNL     1       3.227  -1.365  -9.347  1.00  0.00    -0.269 OA
BRANCH  43  46
ATOM     46  C   UNL     1       1.936  -3.135  -8.476  1.00  0.00     0.039 A 
ATOM     47  C   UNL     1       2.636  -4.325  -8.665  1.00  0.00     0.014 A 
ATOM     48  C   UNL     1       0.578  -3.132  -8.139  1.00  0.00     0.014 A 
ATOM     49  C   UNL     1       1.971  -5.535  -8.483  1.00  0.00     0.010 A 
ATOM     50  C   UNL     1      -0.058  -4.340  -7.880  1.00  0.00     0.010 A 
ATOM     51  C   UNL     1       0.629  -5.551  -8.065  1.00  0.00    -0.014 A 
BRANCH  51  52
ATOM     52  C   UNL     1      -0.084  -6.838  -7.876  1.00  0.00     0.031 A 
ATOM     53  C   UNL     1      -1.226  -7.179  -8.792  1.00  0.00     0.074 A 
ATOM     54  C   UNL     1       0.282  -7.678  -6.888  1.00  0.00     0.049 A 
ATOM     55  N   UNL     1      -1.986  -8.242  -8.803  1.00  0.00    -0.248 NA
ATOM     56  C   UNL     1      -1.581  -6.179  -9.815  1.00  0.00     0.031 C 
ATOM     57  C   UNL     1       1.342  -7.428  -5.909  1.00  0.00     0.029 A 
ATOM     58  N   UNL     1      -0.197  -8.918  -6.546  1.00  0.00    -0.354 N 
ATOM     59  C   UNL     1      -2.906  -8.035  -9.824  1.00  0.00     0.074 A 
ATOM     60  C   UNL     1      -2.659  -6.718 -10.362  1.00  0.00     0.031 C 
ATOM     61  C   UNL     1       1.454  -8.493  -5.098  1.00  0.00     0.029 A 
ATOM     62  C   UNL     1       0.458  -9.490  -5.480  1.00  0.00     0.049 A 
ATOM     63  H   UNL     1      -0.940  -9.357  -7.019  1.00  0.00     0.167 HD
ATOM     64  C   UNL     1      -3.849  -8.883 -10.295  1.00  0.00     0.037 A 
ATOM     65  C   UNL     1       0.275 -10.686  -4.885  1.00  0.00     0.037 A 
ATOM     66  C   UNL     1      -4.064 -10.205  -9.776  1.00  0.00     0.049 A 
ATOM     67  C   UNL     1      -0.779 -11.613  -5.431  1.00  0.00     0.074 A 
ATOM     68  C   UNL     1      -4.957 -11.166 -10.212  1.00  0.00     0.029 A 
ATOM     69  N   UNL     1      -3.372 -10.755  -8.706  1.00  0.00    -0.354 N 
ATOM     70  N   UNL     1      -1.597 -11.428  -6.441  1.00  0.00    -0.248 NA
ATOM     71  C   UNL     1      -0.931 -12.915  -4.766  1.00  0.00     0.031 C 
ATOM     72  C   UNL     1      -4.834 -12.284  -9.380  1.00  0.00     0.029 A 
ATOM     73  C   UNL     1      -3.830 -12.036  -8.456  1.00  0.00     0.049 A 
ATOM     74  H   UNL     1      -2.661 -10.300  -8.200  1.00  0.00     0.167 HD
ATOM     75  C   UNL     1      -2.341 -12.598  -6.548  1.00  0.00     0.074 A 
ATOM     76  C   UNL     1      -1.865 -13.490  -5.511  1.00  0.00     0.031 C 
ATOM     77  C   UNL     1      -3.330 -12.909  -7.423  1.00  0.00     0.037 A 
BRANCH  64  78
ATOM     78  C   UNL     1      -4.703  -8.407 -11.437  1.00  0.00     0.058 A 
ATOM     79  C   UNL     1      -4.175  -8.236 -12.728  1.00  0.00     0.135 A 
ATOM     80  C   UNL     1      -6.068  -8.143 -11.248  1.00  0.00     0.135 A 
ATOM     81  F   UNL     1      -2.870  -8.451 -12.959  1.00  0.00    -0.206 F 
ATOM     82  C   UNL     1      -4.965  -7.798 -13.784  1.00  0.00     0.059 A 
ATOM     83  C   UNL     1      -6.885  -7.732 -12.298  1.00  0.00     0.059 A 
ATOM     84  F   UNL     1      -6.622  -8.284 -10.033  1.00  0.00    -0.206 F 
ATOM     85  C   UNL     1      -6.320  -7.551 -13.560  1.00  0.00     0.060 A 
BRANCH  85  86
ATOM     86  S   UNL     1      -7.336  -7.004 -14.948  1.00  0.00     0.124 S 
ATOM     87  O   UNL     1      -6.874  -5.631 -15.123  1.00  0.00    -0.237 OA
ATOM     88  O   UNL     1      -6.954  -7.940 -16.001  1.00  0.00    -0.237 OA
ATOM     89  O   UNL     1      -8.700  -7.149 -14.450  1.00  0.00    -0.744 OA
ENDBRANCH  85  86
ENDBRANCH  64  78
BRANCH  65  90
ATOM     90  C   UNL     1       1.120 -11.088  -3.727  1.00  0.00     0.058 A 
ATOM     91  C   UNL     1       2.064 -12.120  -3.842  1.00  0.00     0.135 A 
ATOM     92  C   UNL     1       0.995 -10.456  -2.480  1.00  0.00     0.135 A 
ATOM     93  F   UNL     1       2.218 -12.760  -5.011  1.00  0.00    -0.206 F 
ATOM     94  C   UNL     1       2.836 -12.528  -2.758  1.00  0.00     0.059 A 
ATOM     95  C   UNL     1       1.774 -10.828  -1.389  1.00  0.00     0.059 A 
ATOM     96  F   UNL     1       0.120  -9.451  -2.320  1.00  0.00    -0.206 F 
ATOM     97  C   UNL     1       2.683 -11.875  -1.534  1.00  0.00     0.060 A 
BRANCH  97  98
ATOM     98  S   UNL     1       3.713 -12.389  -0.141  1.00  0.00     0.124 S 
ATOM     99  O   UNL     1       3.100 -13.661   0.223  1.00  0.00    -0.237 OA
ATOM    100  O   UNL     1       5.037 -12.468  -0.751  1.00  0.00    -0.237 OA
ATOM    101  O   UNL     1       3.539 -11.304   0.821  1.00  0.00    -0.744 OA
ENDBRANCH  97  98
ENDBRANCH  65  90
BRANCH  77 102
ATOM    102  C   UNL     1      -3.940 -14.278  -7.320  1.00  0.00     0.058 A 
ATOM    103  C   UNL     1      -4.807 -14.620  -6.271  1.00  0.00     0.135 A 
ATOM    104  C   UNL     1      -3.702 -15.237  -8.317  1.00  0.00     0.135 A 
ATOM    105  F   UNL     1      -5.063 -13.739  -5.291  1.00  0.00    -0.206 F 
ATOM    106  C   UNL     1      -5.399 -15.876  -6.202  1.00  0.00     0.059 A 
ATOM    107  C   UNL     1      -4.306 -16.489  -8.283  1.00  0.00     0.059 A 
ATOM    108  F   UNL     1      -2.890 -14.954  -9.349  1.00  0.00    -0.206 F 
ATOM    109  C   UNL     1      -5.145 -16.803  -7.215  1.00  0.00     0.060 A 
BRANCH 109 110
ATOM    110  S   UNL     1      -5.949 -18.417  -7.131  1.00  0.00     0.124 S 
ATOM    111  O   UNL     1      -5.189 -19.068  -6.069  1.00  0.00    -0.237 OA
ATOM    112  O   UNL     1      -7.326 -18.063  -6.801  1.00  0.00    -0.237 OA
ATOM    113  O   UNL     1      -5.752 -18.964  -8.470  1.00  0.00    -0.744 OA
ENDBRANCH 109 110
ENDBRANCH  77 102
ENDBRANCH  51  52
ENDBRANCH  43  46
ENDBRANCH  41  42
ENDBRANCH  40  41
ENDBRANCH   1  40
TORSDOF 17
