REMARK SMILES Cc1ccc(-c2cnnc(-n3nc(C)c4c3NC(=O)C[C@@H]4c3ccc(C(=O)NCCCCCCNC(=O)c4ccc(-c5c6nc(c(-c7c(F)cc(S(=O)(=O)[O-])cc7F)c7ccc([nH]7)c(-c7c(F)cc(S(=O)(=O)[O-])cc7F)c7nc(c(-c8c(F)cc(S(=O)(=O)[O-])cc8F)c8ccc5[nH]8)C=C7)C=C6)cc4)cc3)n2)cc1
REMARK SMILES IDX 31 1 30 2 29 3 28 4 26 5 27 6 25 8 22 9 23 10 105 11 24 12
REMARK SMILES IDX 104 13 21 14 11 15 12 16 16 17 13 18 15 19 17 20 14 21 18 22
REMARK SMILES IDX 20 24 19 25 10 26 6 27 7 28 106 29 8 30 9 31 5 32 1 33 2 34
REMARK SMILES IDX 3 35 108 36 4 37 107 38 32 39 33 40 34 41 35 42 36 43 37 45
REMARK SMILES IDX 38 46 39 47 103 48 40 49 102 50 41 51 42 52 43 53 96 54
REMARK SMILES IDX 44 55 101 56 95 57 97 58 45 59 100 60 94 61 93 62 46 64
REMARK SMILES IDX 80 65 59 66 79 67 60 68 63 69 78 70 98 71 61 72 62 73 77 75
REMARK SMILES IDX 99 76 64 77 47 78 48 79 57 80 49 81 50 82 56 83 58 84 51 85
REMARK SMILES IDX 52 86 53 87 54 88 55 89 81 90 82 91 91 92 83 93 84 94 90 95
REMARK SMILES IDX 92 96 85 97 86 98 87 99 88 100 89 101 65 102 66 103 75 104
REMARK SMILES IDX 67 105 68 106 74 107 76 108 69 109 70 110 71 111 72 112
REMARK SMILES IDX 73 113
REMARK H PARENT 28 7 17 23 35 44 97 63 63 74
REMARK Flexibility Score: inf
ROOT
ATOM      1  C   UNL     1     -12.588   7.921  -6.223  1.00  0.00     0.002 C 
ENDROOT
BRANCH   1   2
ATOM      2  C   UNL     1     -11.487   6.910  -5.868  1.00  0.00     0.021 C 
BRANCH   2   3
ATOM      3  C   UNL     1     -11.738   5.494  -6.390  1.00  0.00     0.116 C 
BRANCH   3   4
ATOM      4  N   UNL     1     -11.578   5.422  -7.837  1.00  0.00    -0.352 N 
ATOM      5  C   UNL     1     -10.678   4.741  -8.618  1.00  0.00     0.251 C 
ATOM      6  O   UNL     1     -10.839   4.689  -9.835  1.00  0.00    -0.269 OA
ATOM      7  H   UNL     1     -12.231   5.956  -8.344  1.00  0.00     0.163 HD
BRANCH   5   8
ATOM      8  C   UNL     1      -9.551   3.995  -8.014  1.00  0.00     0.039 A 
ATOM      9  C   UNL     1      -7.706   2.358  -6.675  1.00  0.00    -0.040 A 
ATOM     10  C   UNL     1      -8.327   1.918  -7.859  1.00  0.00     0.005 A 
ATOM     11  C   UNL     1      -7.880   3.697  -6.299  1.00  0.00     0.005 A 
ATOM     12  C   UNL     1      -9.239   2.735  -8.528  1.00  0.00     0.014 A 
ATOM     13  C   UNL     1      -8.805   4.506  -6.955  1.00  0.00     0.014 A 
BRANCH   9  14
ATOM     14  C   UNL     1      -6.938   1.339  -5.861  1.00  0.00     0.064 C 
ATOM     15  N   UNL     1      -5.835   2.108  -2.504  1.00  0.00    -0.180 N 
ATOM     16  N   UNL     1      -7.131   2.471  -2.298  1.00  0.00    -0.168 NA
ATOM     17  C   UNL     1      -5.586   2.108  -3.868  1.00  0.00     0.143 A 
ATOM     18  C   UNL     1      -7.747   2.176  -3.446  1.00  0.00     0.066 A 
ATOM     19  C   UNL     1      -6.806   1.798  -4.445  1.00  0.00     0.026 A 
ATOM     20  N   UNL     1      -4.481   2.358  -4.660  1.00  0.00    -0.310 N 
ATOM     21  C   UNL     1      -9.210   2.413  -3.524  1.00  0.00     0.069 C 
ATOM     22  C   UNL     1      -4.570   2.071  -6.067  1.00  0.00     0.226 C 
ATOM     23  H   UNL     1      -3.654   2.724  -4.271  1.00  0.00     0.171 HD
ATOM     24  C   UNL     1      -5.569   1.005  -6.452  1.00  0.00     0.113 C 
ATOM     25  O   UNL     1      -3.778   2.597  -6.811  1.00  0.00    -0.275 OA
BRANCH  15  26
ATOM     26  C   UNL     1      -5.127   1.390  -1.490  1.00  0.00     0.272 A 
ATOM     27  C   UNL     1      -3.298   0.342  -0.615  1.00  0.00     0.095 A 
ATOM     28  C   UNL     1      -4.112  -0.275   0.321  1.00  0.00     0.164 A 
ATOM     29  N   UNL     1      -3.801   1.151  -1.593  1.00  0.00    -0.208 NA
ATOM     30  N   UNL     1      -5.430  -0.050   0.347  1.00  0.00    -0.153 NA
ATOM     31  N   UNL     1      -5.930   0.829  -0.544  1.00  0.00    -0.109 NA
BRANCH  27  32
ATOM     32  C   UNL     1      -1.839   0.230  -0.504  1.00  0.00     0.002 A 
ATOM     33  C   UNL     1       2.446  -0.028   0.073  1.00  0.00     0.044 C 
ATOM     34  C   UNL     1       0.959   0.067  -0.104  1.00  0.00    -0.051 A 
ATOM     35  C   UNL     1       0.186  -1.096  -0.182  1.00  0.00     0.004 A 
ATOM     36  C   UNL     1       0.329   1.309  -0.210  1.00  0.00     0.004 A 
ATOM     37  C   UNL     1      -1.197  -1.015  -0.378  1.00  0.00     0.011 A 
ATOM     38  C   UNL     1      -1.052   1.388  -0.412  1.00  0.00     0.011 A 
ENDBRANCH  27  32
ENDBRANCH  15  26
ENDBRANCH   9  14
ENDBRANCH   5   8
ENDBRANCH   3   4
ENDBRANCH   2   3
ENDBRANCH   1   2
BRANCH   1  39
ATOM     39  C   UNL     1     -14.019   7.554  -5.790  1.00  0.00     0.002 C 
BRANCH  39  40
ATOM     40  C   UNL     1     -14.196   7.172  -4.321  1.00  0.00     0.021 C 
BRANCH  40  41
ATOM     41  C   UNL     1     -14.009   8.334  -3.364  1.00  0.00     0.116 C 
BRANCH  41  42
ATOM     42  N   UNL     1     -15.203   9.127  -3.116  1.00  0.00    -0.352 N 
ATOM     43  C   UNL     1     -15.415   9.836  -1.934  1.00  0.00     0.251 C 
ATOM     44  H   UNL     1     -15.894   9.165  -3.815  1.00  0.00     0.163 HD
ATOM     45  O   UNL     1     -16.437   9.749  -1.268  1.00  0.00    -0.269 OA
BRANCH  43  46
ATOM     46  C   UNL     1     -14.367  10.827  -1.595  1.00  0.00     0.039 A 
ATOM     47  C   UNL     1     -14.691  12.187  -1.527  1.00  0.00     0.014 A 
ATOM     48  C   UNL     1     -13.041  10.413  -1.618  1.00  0.00     0.014 A 
ATOM     49  C   UNL     1     -13.685  13.134  -1.689  1.00  0.00     0.010 A 
ATOM     50  C   UNL     1     -12.085  11.319  -1.963  1.00  0.00     0.010 A 
ATOM     51  C   UNL     1     -12.412  12.675  -2.002  1.00  0.00    -0.014 A 
BRANCH  51  52
ATOM     52  C   UNL     1     -11.259  13.489  -2.293  1.00  0.00     0.031 A 
ATOM     53  C   UNL     1     -10.298  13.689  -1.190  1.00  0.00     0.074 A 
ATOM     54  C   UNL     1     -10.991  13.723  -3.595  1.00  0.00     0.049 A 
ATOM     55  N   UNL     1      -9.399  14.602  -1.178  1.00  0.00    -0.248 NA
ATOM     56  C   UNL     1     -10.296  12.886   0.037  1.00  0.00     0.031 C 
ATOM     57  C   UNL     1      -9.713  14.045  -4.213  1.00  0.00     0.029 A 
ATOM     58  N   UNL     1     -11.903  13.833  -4.641  1.00  0.00    -0.354 N 
ATOM     59  C   UNL     1      -8.517  14.304  -0.157  1.00  0.00     0.074 A 
ATOM     60  C   UNL     1      -9.182  13.310   0.642  1.00  0.00     0.031 C 
ATOM     61  C   UNL     1      -9.934  14.553  -5.440  1.00  0.00     0.029 A 
ATOM     62  C   UNL     1     -11.373  14.719  -5.590  1.00  0.00     0.049 A 
ATOM     63  H   UNL     1     -12.769  13.369  -4.703  1.00  0.00     0.167 HD
ATOM     64  C   UNL     1      -7.257  14.818  -0.234  1.00  0.00     0.037 A 
ATOM     65  C   UNL     1     -11.986  15.926  -5.805  1.00  0.00     0.037 A 
ATOM     66  C   UNL     1      -7.147  15.612  -1.452  1.00  0.00     0.049 A 
ATOM     67  C   UNL     1     -11.145  17.083  -5.319  1.00  0.00     0.074 A 
ATOM     68  C   UNL     1      -6.697  15.280  -2.718  1.00  0.00     0.029 A 
ATOM     69  N   UNL     1      -7.877  16.784  -1.575  1.00  0.00    -0.354 N 
ATOM     70  N   UNL     1     -10.272  16.991  -4.354  1.00  0.00    -0.248 NA
ATOM     71  C   UNL     1     -11.175  18.411  -5.925  1.00  0.00     0.031 C 
ATOM     72  C   UNL     1      -7.195  16.248  -3.619  1.00  0.00     0.029 A 
ATOM     73  C   UNL     1      -7.943  17.165  -2.898  1.00  0.00     0.049 A 
ATOM     74  H   UNL     1      -8.288  17.273  -0.826  1.00  0.00     0.167 HD
ATOM     75  C   UNL     1      -9.628  18.193  -4.207  1.00  0.00     0.074 A 
ATOM     76  C   UNL     1     -10.230  19.048  -5.211  1.00  0.00     0.031 C 
ATOM     77  C   UNL     1      -8.633  18.381  -3.290  1.00  0.00     0.037 A 
BRANCH  64  78
ATOM     78  C   UNL     1      -6.039  14.401   0.563  1.00  0.00     0.058 A 
ATOM     79  C   UNL     1      -4.749  14.659   0.038  1.00  0.00     0.135 A 
ATOM     80  C   UNL     1      -6.041  13.748   1.810  1.00  0.00     0.135 A 
ATOM     81  F   UNL     1      -4.571  15.327  -1.110  1.00  0.00    -0.206 F 
ATOM     82  C   UNL     1      -3.573  14.245   0.652  1.00  0.00     0.059 A 
ATOM     83  C   UNL     1      -4.869  13.303   2.439  1.00  0.00     0.059 A 
ATOM     84  F   UNL     1      -7.172  13.543   2.495  1.00  0.00    -0.206 F 
ATOM     85  C   UNL     1      -3.639  13.550   1.846  1.00  0.00     0.060 A 
BRANCH  85  86
ATOM     86  S   UNL     1      -2.093  13.011   2.595  1.00  0.00     0.124 S 
ATOM     87  O   UNL     1      -1.547  12.134   1.562  1.00  0.00    -0.237 OA
ATOM     88  O   UNL     1      -1.391  14.274   2.791  1.00  0.00    -0.237 OA
ATOM     89  O   UNL     1      -2.523  12.336   3.816  1.00  0.00    -0.744 OA
ENDBRANCH  85  86
ENDBRANCH  64  78
BRANCH  65  90
ATOM     90  C   UNL     1     -13.476  15.829  -5.701  1.00  0.00     0.058 A 
ATOM     91  C   UNL     1     -14.132  15.098  -6.712  1.00  0.00     0.135 A 
ATOM     92  C   UNL     1     -14.119  15.929  -4.456  1.00  0.00     0.135 A 
ATOM     93  F   UNL     1     -13.583  15.008  -7.935  1.00  0.00    -0.206 F 
ATOM     94  C   UNL     1     -15.245  14.311  -6.438  1.00  0.00     0.059 A 
ATOM     95  C   UNL     1     -15.244  15.153  -4.164  1.00  0.00     0.059 A 
ATOM     96  F   UNL     1     -13.564  16.637  -3.462  1.00  0.00    -0.206 F 
ATOM     97  C   UNL     1     -15.736  14.278  -5.135  1.00  0.00     0.060 A 
BRANCH  97  98
ATOM     98  S   UNL     1     -16.883  12.946  -4.696  1.00  0.00     0.124 S 
ATOM     99  O   UNL     1     -17.955  13.137  -5.666  1.00  0.00    -0.237 OA
ATOM    100  O   UNL     1     -16.053  11.755  -4.894  1.00  0.00    -0.237 OA
ATOM    101  O   UNL     1     -17.228  13.245  -3.312  1.00  0.00    -0.744 OA
ENDBRANCH  97  98
ENDBRANCH  65  90
BRANCH  77 102
ATOM    102  C   UNL     1      -8.117  19.709  -2.784  1.00  0.00     0.058 A 
ATOM    103  C   UNL     1      -8.828  20.914  -2.890  1.00  0.00     0.135 A 
ATOM    104  C   UNL     1      -6.913  19.785  -2.034  1.00  0.00     0.135 A 
ATOM    105  F   UNL     1     -10.051  20.965  -3.434  1.00  0.00    -0.206 F 
ATOM    106  C   UNL     1      -8.330  22.122  -2.403  1.00  0.00     0.059 A 
ATOM    107  C   UNL     1      -6.437  20.964  -1.471  1.00  0.00     0.059 A 
ATOM    108  F   UNL     1      -6.147  18.709  -1.800  1.00  0.00    -0.206 F 
ATOM    109  C   UNL     1      -7.128  22.138  -1.706  1.00  0.00     0.060 A 
BRANCH 109 110
ATOM    110  S   UNL     1      -6.482  23.700  -1.099  1.00  0.00     0.124 S 
ATOM    111  O   UNL     1      -5.864  24.240  -2.306  1.00  0.00    -0.237 OA
ATOM    112  O   UNL     1      -7.688  24.386  -0.643  1.00  0.00    -0.237 OA
ATOM    113  O   UNL     1      -5.559  23.299  -0.042  1.00  0.00    -0.744 OA
ENDBRANCH 109 110
ENDBRANCH  77 102
ENDBRANCH  51  52
ENDBRANCH  43  46
ENDBRANCH  41  42
ENDBRANCH  40  41
ENDBRANCH  39  40
ENDBRANCH   1  39
TORSDOF 19
