REMARK SMILES C[C@@H]1C(C(=O)NCCCCCCNC(=O)c2ccc(-c3c4nc(c(-c5c(F)cc(S(=O)(=O)[O-])cc5F)c5ccc([nH]5)c(-c5c(F)cc(S(=O)(=O)[O-])cc5F)c5nc(c(-c6c(F)cc(S(=O)(=O)[O-])cc6F)c6ccc3[nH]6)C=C5)C=C4)cc2)=NC2=C1C(=O)C[C@H](c1ccccc1)C2
REMARK SMILES IDX 10 1 9 2 8 3 7 4 6 5 4 6 5 7 3 9 1 10 2 11 84 12 82 13 83 14
REMARK SMILES IDX 85 15 95 16 86 17 87 18 88 19 89 20 90 21 94 22 91 23 93 24
REMARK SMILES IDX 92 25 11 26 12 27 13 28 14 29 15 31 16 32 17 33 81 34 18 35
REMARK SMILES IDX 80 36 19 37 20 38 21 39 74 40 22 41 79 42 73 43 75 44 23 45
REMARK SMILES IDX 78 46 72 47 71 48 24 50 58 51 37 52 57 53 38 54 41 55 56 56
REMARK SMILES IDX 76 57 39 58 40 59 55 61 77 62 42 63 25 64 26 65 35 66 27 67
REMARK SMILES IDX 28 68 34 69 36 70 29 71 30 72 31 73 32 74 33 75 59 76 60 77
REMARK SMILES IDX 69 78 61 79 62 80 68 81 70 82 63 83 64 84 65 85 66 86 67 87
REMARK SMILES IDX 43 88 44 89 53 90 45 91 46 92 52 93 54 94 47 95 48 96 49 97
REMARK SMILES IDX 50 98 51 99
REMARK H PARENT 6 8 13 30 75 49 41 60
REMARK Flexibility Score: inf
ROOT
ATOM      1  C   UNL     1      -0.972  -1.016  -3.794  1.00  0.00     0.002 C 
ENDROOT
BRANCH   1   2
ATOM      2  C   UNL     1      -1.995  -1.412  -2.724  1.00  0.00     0.002 C 
BRANCH   2   3
ATOM      3  C   UNL     1      -1.507  -1.717  -1.310  1.00  0.00     0.021 C 
BRANCH   3   4
ATOM      4  C   UNL     1      -0.530  -0.770  -0.615  1.00  0.00     0.116 C 
BRANCH   4   5
ATOM      5  N   UNL     1      -0.825   0.648  -0.604  1.00  0.00    -0.351 N 
ATOM      6  C   UNL     1      -0.242   1.651   0.166  1.00  0.00     0.266 C 
ATOM      7  O   UNL     1      -0.319   2.818  -0.206  1.00  0.00    -0.268 OA
ATOM      8  H   UNL     1      -1.531   0.943  -1.224  1.00  0.00     0.163 HD
BRANCH   6   9
ATOM      9  C   UNL     1       0.362   1.354   1.542  1.00  0.00     0.113 C 
ATOM     10  C   UNL     1       2.713   0.604   1.928  1.00  0.00     0.020 C 
ATOM     11  C   UNL     1       1.252   0.174   1.832  1.00  0.00     0.076 C 
ATOM     12  C   UNL     1       0.638  -0.003   3.180  1.00  0.00     0.026 C 
ATOM     13  N   UNL     1       0.052   2.066   2.600  1.00  0.00    -0.251 NA
ATOM     14  C   UNL     1       0.196   1.171   3.643  1.00  0.00     0.049 C 
ATOM     15  C   UNL     1      -0.189  -1.179   3.529  1.00  0.00     0.161 C 
ATOM     16  C   UNL     1      -0.707   1.226   4.842  1.00  0.00     0.065 C 
ATOM     17  O   UNL     1       0.236  -2.296   3.242  1.00  0.00    -0.294 OA
ATOM     18  C   UNL     1      -1.610  -0.967   4.096  1.00  0.00     0.089 C 
ATOM     19  C   UNL     1      -2.015   0.500   4.469  1.00  0.00     0.033 C 
BRANCH  19  20
ATOM     20  C   UNL     1      -2.851   1.285   3.434  1.00  0.00    -0.044 A 
ATOM     21  C   UNL     1      -2.727   2.688   3.318  1.00  0.00     0.004 A 
ATOM     22  C   UNL     1      -3.754   0.662   2.564  1.00  0.00     0.004 A 
ATOM     23  C   UNL     1      -3.311   3.400   2.269  1.00  0.00     0.000 A 
ATOM     24  C   UNL     1      -4.370   1.382   1.530  1.00  0.00     0.000 A 
ATOM     25  C   UNL     1      -4.117   2.740   1.358  1.00  0.00     0.000 A 
ENDBRANCH  19  20
ENDBRANCH   6   9
ENDBRANCH   4   5
ENDBRANCH   3   4
ENDBRANCH   2   3
ENDBRANCH   1   2
BRANCH   1  26
ATOM     26  C   UNL     1       0.249  -1.918  -4.012  1.00  0.00     0.021 C 
BRANCH  26  27
ATOM     27  C   UNL     1      -0.059  -3.366  -4.363  1.00  0.00     0.116 C 
BRANCH  27  28
ATOM     28  N   UNL     1      -0.709  -3.539  -5.666  1.00  0.00    -0.352 N 
ATOM     29  C   UNL     1      -1.055  -4.729  -6.282  1.00  0.00     0.251 C 
ATOM     30  H   UNL     1      -0.923  -2.715  -6.159  1.00  0.00     0.163 HD
ATOM     31  O   UNL     1      -1.236  -4.776  -7.504  1.00  0.00    -0.269 OA
BRANCH  29  32
ATOM     32  C   UNL     1      -1.224  -5.938  -5.457  1.00  0.00     0.039 A 
ATOM     33  C   UNL     1      -0.831  -7.212  -5.883  1.00  0.00     0.014 A 
ATOM     34  C   UNL     1      -1.780  -5.758  -4.195  1.00  0.00     0.014 A 
ATOM     35  C   UNL     1      -0.942  -8.281  -4.993  1.00  0.00     0.010 A 
ATOM     36  C   UNL     1      -1.691  -6.752  -3.264  1.00  0.00     0.010 A 
ATOM     37  C   UNL     1      -1.364  -8.034  -3.677  1.00  0.00    -0.014 A 
BRANCH  37  38
ATOM     38  C   UNL     1      -1.357  -9.068  -2.647  1.00  0.00     0.031 A 
ATOM     39  C   UNL     1       0.004  -9.610  -2.393  1.00  0.00     0.074 A 
ATOM     40  C   UNL     1      -2.414  -9.258  -1.820  1.00  0.00     0.049 A 
ATOM     41  N   UNL     1       0.476 -10.764  -2.731  1.00  0.00    -0.248 NA
ATOM     42  C   UNL     1       1.039  -8.681  -1.896  1.00  0.00     0.031 C 
ATOM     43  C   UNL     1      -3.659  -8.472  -1.778  1.00  0.00     0.029 A 
ATOM     44  N   UNL     1      -2.567 -10.095  -0.753  1.00  0.00    -0.354 N 
ATOM     45  C   UNL     1       1.756 -10.805  -2.178  1.00  0.00     0.074 A 
ATOM     46  C   UNL     1       2.137  -9.438  -1.965  1.00  0.00     0.031 C 
ATOM     47  C   UNL     1      -4.304  -8.689  -0.612  1.00  0.00     0.029 A 
ATOM     48  C   UNL     1      -3.634  -9.766   0.090  1.00  0.00     0.049 A 
ATOM     49  H   UNL     1      -1.977 -10.865  -0.590  1.00  0.00     0.167 HD
ATOM     50  C   UNL     1       2.208 -11.945  -1.581  1.00  0.00     0.037 A 
ATOM     51  C   UNL     1      -3.943 -10.338   1.282  1.00  0.00     0.037 A 
ATOM     52  C   UNL     1       1.324 -13.041  -1.889  1.00  0.00     0.049 A 
ATOM     53  C   UNL     1      -3.279 -11.663   1.304  1.00  0.00     0.074 A 
ATOM     54  C   UNL     1       1.050 -13.840  -2.976  1.00  0.00     0.029 A 
ATOM     55  N   UNL     1       0.258 -13.129  -1.032  1.00  0.00    -0.354 N 
ATOM     56  N   UNL     1      -3.579 -12.628   0.475  1.00  0.00    -0.248 NA
ATOM     57  C   UNL     1      -1.998 -11.800   1.986  1.00  0.00     0.031 C 
ATOM     58  C   UNL     1      -0.287 -14.304  -2.801  1.00  0.00     0.029 A 
ATOM     59  C   UNL     1      -0.775 -13.833  -1.584  1.00  0.00     0.049 A 
ATOM     60  H   UNL     1       0.238 -12.734  -0.130  1.00  0.00     0.167 HD
ATOM     61  C   UNL     1      -2.371 -13.248   0.221  1.00  0.00     0.074 A 
ATOM     62  C   UNL     1      -1.478 -12.812   1.286  1.00  0.00     0.031 C 
ATOM     63  C   UNL     1      -2.101 -13.774  -1.008  1.00  0.00     0.037 A 
BRANCH  50  64
ATOM     64  C   UNL     1       3.081 -12.010  -0.335  1.00  0.00     0.058 A 
ATOM     65  C   UNL     1       3.518 -13.276   0.121  1.00  0.00     0.135 A 
ATOM     66  C   UNL     1       3.259 -10.953   0.585  1.00  0.00     0.135 A 
ATOM     67  F   UNL     1       3.402 -14.361  -0.662  1.00  0.00    -0.206 F 
ATOM     68  C   UNL     1       4.021 -13.483   1.408  1.00  0.00     0.059 A 
ATOM     69  C   UNL     1       3.803 -11.129   1.853  1.00  0.00     0.059 A 
ATOM     70  F   UNL     1       2.835  -9.708   0.348  1.00  0.00    -0.206 F 
ATOM     71  C   UNL     1       4.149 -12.401   2.272  1.00  0.00     0.060 A 
BRANCH  71  72
ATOM     72  S   UNL     1       4.736 -12.665   3.954  1.00  0.00     0.124 S 
ATOM     73  O   UNL     1       3.630 -13.416   4.536  1.00  0.00    -0.237 OA
ATOM     74  O   UNL     1       5.970 -13.411   3.727  1.00  0.00    -0.237 OA
ATOM     75  O   UNL     1       4.917 -11.309   4.462  1.00  0.00    -0.744 OA
ENDBRANCH  71  72
ENDBRANCH  50  64
BRANCH  51  76
ATOM     76  C   UNL     1      -4.533  -9.723   2.502  1.00  0.00     0.058 A 
ATOM     77  C   UNL     1      -5.117 -10.501   3.518  1.00  0.00     0.135 A 
ATOM     78  C   UNL     1      -4.268  -8.378   2.828  1.00  0.00     0.135 A 
ATOM     79  F   UNL     1      -5.389 -11.797   3.301  1.00  0.00    -0.206 F 
ATOM     80  C   UNL     1      -5.378  -9.991   4.798  1.00  0.00     0.059 A 
ATOM     81  C   UNL     1      -4.519  -7.847   4.095  1.00  0.00     0.059 A 
ATOM     82  F   UNL     1      -3.671  -7.564   1.944  1.00  0.00    -0.206 F 
ATOM     83  C   UNL     1      -5.054  -8.665   5.084  1.00  0.00     0.060 A 
BRANCH  83  84
ATOM     84  S   UNL     1      -5.240  -8.045   6.776  1.00  0.00     0.124 S 
ATOM     85  O   UNL     1      -6.690  -8.034   6.937  1.00  0.00    -0.237 OA
ATOM     86  O   UNL     1      -4.520  -9.046   7.555  1.00  0.00    -0.237 OA
ATOM     87  O   UNL     1      -4.612  -6.727   6.725  1.00  0.00    -0.744 OA
ENDBRANCH  83  84
ENDBRANCH  51  76
BRANCH  63  88
ATOM     88  C   UNL     1      -3.249 -14.220  -1.859  1.00  0.00     0.058 A 
ATOM     89  C   UNL     1      -4.160 -13.376  -2.513  1.00  0.00     0.135 A 
ATOM     90  C   UNL     1      -3.338 -15.596  -2.117  1.00  0.00     0.135 A 
ATOM     91  F   UNL     1      -4.095 -12.044  -2.367  1.00  0.00    -0.206 F 
ATOM     92  C   UNL     1      -5.129 -13.887  -3.382  1.00  0.00     0.059 A 
ATOM     93  C   UNL     1      -4.271 -16.122  -2.998  1.00  0.00     0.059 A 
ATOM     94  F   UNL     1      -2.464 -16.443  -1.548  1.00  0.00    -0.206 F 
ATOM     95  C   UNL     1      -5.170 -15.263  -3.623  1.00  0.00     0.060 A 
BRANCH  95  96
ATOM     96  S   UNL     1      -6.360 -15.926  -4.809  1.00  0.00     0.124 S 
ATOM     97  O   UNL     1      -7.625 -15.746  -4.106  1.00  0.00    -0.237 OA
ATOM     98  O   UNL     1      -6.153 -15.071  -5.974  1.00  0.00    -0.237 OA
ATOM     99  O   UNL     1      -5.934 -17.313  -4.981  1.00  0.00    -0.744 OA
ENDBRANCH  95  96
ENDBRANCH  63  88
ENDBRANCH  37  38
ENDBRANCH  29  32
ENDBRANCH  27  28
ENDBRANCH  26  27
ENDBRANCH   1  26
TORSDOF 17
