REMARK SMILES Cc1ccc(S(=O)(=O)N2C[C@@H](CC(=O)NCCCCCCNC(=O)c3ccc(-c4c5nc(c(-c6c(F)cc(S(=O)(=O)[O-])cc6F)c6ccc([nH]6)c(-c6c(F)cc(S(=O)(=O)[O-])cc6F)c6nc(c(-c7c(F)cc(S(=O)(=O)[O-])cc7F)c7ccc4[nH]7)C=C6)C=C5)cc3)c3ccccc32)c(C)c1
REMARK SMILES IDX 18 1 17 2 16 3 15 4 13 5 14 6 12 8 11 9 9 10 10 11 96 12
REMARK SMILES IDX 91 13 95 14 92 15 94 16 93 17 6 18 7 19 8 20 5 21 1 22 2 23
REMARK SMILES IDX 3 24 99 25 4 26 97 27 98 28 19 29 20 30 21 31 22 32 23 33
REMARK SMILES IDX 24 35 25 36 26 37 90 38 27 39 89 40 28 41 29 42 30 43 83 44
REMARK SMILES IDX 31 45 88 46 82 47 84 48 32 49 87 50 81 51 80 52 33 54 67 55
REMARK SMILES IDX 46 56 66 57 47 58 50 59 65 60 85 61 48 62 49 63 64 65 86 66
REMARK SMILES IDX 51 67 34 68 35 69 44 70 36 71 37 72 43 73 45 74 38 75 39 76
REMARK SMILES IDX 40 77 41 78 42 79 68 80 69 81 78 82 70 83 71 84 77 85 79 86
REMARK SMILES IDX 72 87 73 88 74 89 75 90 76 91 52 92 53 93 62 94 54 95 55 96
REMARK SMILES IDX 61 97 63 98 56 99 57 100 58 101 59 102 60 103
REMARK H PARENT 15 7 22 34 84 53 50 64
REMARK Flexibility Score: inf
ROOT
ATOM      1  C   UNL     1       0.609  -9.052   2.899  1.00  0.00     0.002 C 
ENDROOT
BRANCH   1   2
ATOM      2  C   UNL     1      -0.063  -7.946   2.091  1.00  0.00     0.021 C 
BRANCH   2   3
ATOM      3  C   UNL     1       0.241  -7.945   0.596  1.00  0.00     0.116 C 
BRANCH   3   4
ATOM      4  N   UNL     1      -0.817  -8.642  -0.117  1.00  0.00    -0.356 N 
ATOM      5  C   UNL     1      -1.903  -8.127  -0.760  1.00  0.00     0.220 C 
ATOM      6  O   UNL     1      -2.838  -8.881  -1.035  1.00  0.00    -0.275 OA
ATOM      7  H   UNL     1      -0.737  -9.623  -0.140  1.00  0.00     0.163 HD
BRANCH   5   8
ATOM      8  C   UNL     1      -1.926  -6.676  -1.190  1.00  0.00     0.110 C 
BRANCH   8   9
ATOM      9  C   UNL     1      -2.985  -5.829  -0.469  1.00  0.00     0.051 C 
ATOM     10  N   UNL     1      -2.164  -3.536  -0.472  1.00  0.00    -0.265 N 
ATOM     11  C   UNL     1      -3.120  -4.464  -1.180  1.00  0.00     0.144 C 
ATOM     12  C   UNL     1      -2.017  -4.081   0.852  1.00  0.00     0.055 A 
ATOM     13  C   UNL     1      -2.568  -5.364   0.899  1.00  0.00    -0.018 A 
ATOM     14  C   UNL     1      -1.403  -3.528   1.963  1.00  0.00     0.027 A 
ATOM     15  C   UNL     1      -2.690  -6.032   2.105  1.00  0.00     0.006 A 
ATOM     16  C   UNL     1      -1.454  -4.230   3.169  1.00  0.00     0.002 A 
ATOM     17  C   UNL     1      -2.127  -5.456   3.248  1.00  0.00     0.000 A 
BRANCH  10  18
ATOM     18  S   UNL     1      -2.633  -1.888  -0.593  1.00  0.00     0.264 S 
ATOM     19  O   UNL     1      -3.537  -1.616   0.503  1.00  0.00    -0.201 OA
ATOM     20  O   UNL     1      -3.038  -1.659  -1.969  1.00  0.00    -0.201 OA
BRANCH  18  21
ATOM     21  C   UNL     1      -1.140  -0.938  -0.365  1.00  0.00     0.090 A 
ATOM     22  C   UNL     1       2.542   1.259   0.081  1.00  0.00     0.044 C 
ATOM     23  C   UNL     1       1.267   0.480  -0.057  1.00  0.00    -0.051 A 
ATOM     24  C   UNL     1       1.290  -0.887  -0.332  1.00  0.00     0.005 A 
ATOM     25  C   UNL     1       0.031   1.135   0.043  1.00  0.00     0.008 A 
ATOM     26  C   UNL     1       0.097  -1.590  -0.496  1.00  0.00     0.023 A 
ATOM     27  C   UNL     1      -1.188   0.444  -0.104  1.00  0.00    -0.030 A 
ATOM     28  C   UNL     1      -2.444   1.271  -0.053  1.00  0.00     0.046 C 
ENDBRANCH  18  21
ENDBRANCH  10  18
ENDBRANCH   8   9
ENDBRANCH   5   8
ENDBRANCH   3   4
ENDBRANCH   2   3
ENDBRANCH   1   2
BRANCH   1  29
ATOM     29  C   UNL     1       2.113  -8.877   3.107  1.00  0.00     0.002 C 
BRANCH  29  30
ATOM     30  C   UNL     1       2.555  -7.515   3.652  1.00  0.00     0.021 C 
BRANCH  30  31
ATOM     31  C   UNL     1       1.831  -7.046   4.913  1.00  0.00     0.116 C 
BRANCH  31  32
ATOM     32  N   UNL     1       2.043  -7.949   6.031  1.00  0.00    -0.352 N 
ATOM     33  C   UNL     1       2.785  -7.774   7.172  1.00  0.00     0.251 C 
ATOM     34  H   UNL     1       1.585  -8.818   5.959  1.00  0.00     0.163 HD
ATOM     35  O   UNL     1       3.044  -8.742   7.882  1.00  0.00    -0.269 OA
BRANCH  33  36
ATOM     36  C   UNL     1       3.279  -6.430   7.545  1.00  0.00     0.039 A 
ATOM     37  C   UNL     1       4.588  -6.298   8.016  1.00  0.00     0.014 A 
ATOM     38  C   UNL     1       2.445  -5.310   7.477  1.00  0.00     0.014 A 
ATOM     39  C   UNL     1       5.072  -5.038   8.379  1.00  0.00     0.010 A 
ATOM     40  C   UNL     1       2.952  -4.045   7.768  1.00  0.00     0.010 A 
ATOM     41  C   UNL     1       4.266  -3.896   8.237  1.00  0.00    -0.014 A 
BRANCH  41  42
ATOM     42  C   UNL     1       4.773  -2.546   8.603  1.00  0.00     0.031 A 
ATOM     43  C   UNL     1       4.131  -1.777   9.727  1.00  0.00     0.074 A 
ATOM     44  C   UNL     1       5.780  -1.994   7.897  1.00  0.00     0.049 A 
ATOM     45  N   UNL     1       4.394  -0.570  10.160  1.00  0.00    -0.248 NA
ATOM     46  C   UNL     1       3.031  -2.442  10.444  1.00  0.00     0.031 C 
ATOM     47  C   UNL     1       6.460  -2.620   6.761  1.00  0.00     0.029 A 
ATOM     48  N   UNL     1       6.403  -0.777   8.025  1.00  0.00    -0.354 N 
ATOM     49  C   UNL     1       3.488  -0.328  11.187  1.00  0.00     0.074 A 
ATOM     50  C   UNL     1       2.631  -1.489  11.274  1.00  0.00     0.031 C 
ATOM     51  C   UNL     1       7.418  -1.793   6.311  1.00  0.00     0.029 A 
ATOM     52  C   UNL     1       7.397  -0.564   7.098  1.00  0.00     0.049 A 
ATOM     53  H   UNL     1       6.160  -0.118   8.715  1.00  0.00     0.167 HD
ATOM     54  C   UNL     1       3.394   0.753  11.999  1.00  0.00     0.037 A 
ATOM     55  C   UNL     1       8.196   0.503   6.900  1.00  0.00     0.037 A 
ATOM     56  C   UNL     1       4.264   1.898  11.921  1.00  0.00     0.049 A 
ATOM     57  C   UNL     1       8.070   1.695   7.812  1.00  0.00     0.074 A 
ATOM     58  C   UNL     1       4.280   3.023  12.727  1.00  0.00     0.029 A 
ATOM     59  N   UNL     1       5.271   2.067  10.981  1.00  0.00    -0.354 N 
ATOM     60  N   UNL     1       7.242   1.884   8.812  1.00  0.00    -0.248 NA
ATOM     61  C   UNL     1       8.993   2.813   7.576  1.00  0.00     0.031 C 
ATOM     62  C   UNL     1       5.263   3.893  12.245  1.00  0.00     0.029 A 
ATOM     63  C   UNL     1       5.902   3.285  11.177  1.00  0.00     0.049 A 
ATOM     64  H   UNL     1       5.503   1.417  10.279  1.00  0.00     0.167 HD
ATOM     65  C   UNL     1       7.571   3.125   9.349  1.00  0.00     0.074 A 
ATOM     66  C   UNL     1       8.676   3.637   8.566  1.00  0.00     0.031 C 
ATOM     67  C   UNL     1       7.011   3.778  10.397  1.00  0.00     0.037 A 
BRANCH  54  68
ATOM     68  C   UNL     1       2.310   0.748  13.046  1.00  0.00     0.058 A 
ATOM     69  C   UNL     1       2.349  -0.122  14.147  1.00  0.00     0.135 A 
ATOM     70  C   UNL     1       1.236   1.651  12.966  1.00  0.00     0.135 A 
ATOM     71  F   UNL     1       3.344  -1.016  14.268  1.00  0.00    -0.206 F 
ATOM     72  C   UNL     1       1.347  -0.122  15.113  1.00  0.00     0.059 A 
ATOM     73  C   UNL     1       0.240   1.691  13.937  1.00  0.00     0.059 A 
ATOM     74  F   UNL     1       1.148   2.507  11.936  1.00  0.00    -0.206 F 
ATOM     75  C   UNL     1       0.296   0.789  14.999  1.00  0.00     0.060 A 
BRANCH  75  76
ATOM     76  S   UNL     1      -0.993   0.779  16.263  1.00  0.00     0.124 S 
ATOM     77  O   UNL     1      -1.695  -0.462  15.951  1.00  0.00    -0.237 OA
ATOM     78  O   UNL     1      -0.217   0.774  17.499  1.00  0.00    -0.237 OA
ATOM     79  O   UNL     1      -1.739   2.005  15.999  1.00  0.00    -0.744 OA
ENDBRANCH  75  76
ENDBRANCH  54  68
BRANCH  55  80
ATOM     80  C   UNL     1       9.205   0.484   5.806  1.00  0.00     0.058 A 
ATOM     81  C   UNL     1      10.579   0.427   6.088  1.00  0.00     0.135 A 
ATOM     82  C   UNL     1       8.818   0.514   4.457  1.00  0.00     0.135 A 
ATOM     83  F   UNL     1      11.001   0.402   7.362  1.00  0.00    -0.206 F 
ATOM     84  C   UNL     1      11.533   0.422   5.076  1.00  0.00     0.059 A 
ATOM     85  C   UNL     1       9.752   0.481   3.427  1.00  0.00     0.059 A 
ATOM     86  F   UNL     1       7.516   0.551   4.131  1.00  0.00    -0.206 F 
ATOM     87  C   UNL     1      11.108   0.446   3.747  1.00  0.00     0.060 A 
BRANCH  87  88
ATOM     88  S   UNL     1      12.352   0.393   2.439  1.00  0.00     0.124 S 
ATOM     89  O   UNL     1      12.933   1.727   2.531  1.00  0.00    -0.237 OA
ATOM     90  O   UNL     1      13.206  -0.708   2.874  1.00  0.00    -0.237 OA
ATOM     91  O   UNL     1      11.565   0.128   1.238  1.00  0.00    -0.744 OA
ENDBRANCH  87  88
ENDBRANCH  55  80
BRANCH  67  92
ATOM     92  C   UNL     1       7.618   5.096  10.799  1.00  0.00     0.058 A 
ATOM     93  C   UNL     1       7.482   6.250  10.013  1.00  0.00     0.135 A 
ATOM     94  C   UNL     1       8.313   5.211  12.015  1.00  0.00     0.135 A 
ATOM     95  F   UNL     1       6.832   6.197   8.840  1.00  0.00    -0.206 F 
ATOM     96  C   UNL     1       8.043   7.464  10.401  1.00  0.00     0.059 A 
ATOM     97  C   UNL     1       8.853   6.421  12.438  1.00  0.00     0.059 A 
ATOM     98  F   UNL     1       8.462   4.141  12.813  1.00  0.00    -0.206 F 
ATOM     99  C   UNL     1       8.726   7.539  11.616  1.00  0.00     0.060 A 
BRANCH  99 100
ATOM    100  S   UNL     1       9.432   9.123  12.117  1.00  0.00     0.124 S 
ATOM    101  O   UNL     1      10.572   9.235  11.213  1.00  0.00    -0.237 OA
ATOM    102  O   UNL     1       8.331  10.048  11.866  1.00  0.00    -0.237 OA
ATOM    103  O   UNL     1       9.763   8.919  13.524  1.00  0.00    -0.744 OA
ENDBRANCH  99 100
ENDBRANCH  67  92
ENDBRANCH  41  42
ENDBRANCH  33  36
ENDBRANCH  31  32
ENDBRANCH  30  31
ENDBRANCH  29  30
ENDBRANCH   1  29
TORSDOF 19
