REMARK SMILES CCC[NH2+][C@]1(C(=O)NCCCCCCNC(=O)c2ccc(-c3c4nc(c(-c5c(F)cc(S(=O)(=O)[O-])cc5F)c5ccc([nH]5)c(-c5c(F)cc(S(=O)(=O)[O-])cc5F)c5nc(c(-c6c(F)cc(S(=O)(=O)[O-])cc6F)c6ccc3[nH]6)C=C5)C=C4)cc2)CCC[C@H](n2ccc(C)n2)C1
REMARK SMILES IDX 11 1 10 2 9 3 8 4 6 5 7 6 5 8 84 9 94 10 85 11 87 12 86 13
REMARK SMILES IDX 4 14 3 17 2 18 1 19 88 20 89 21 93 22 90 23 91 24 92 25
REMARK SMILES IDX 12 26 13 27 14 28 15 29 16 30 17 32 18 33 19 34 83 35 20 36
REMARK SMILES IDX 82 37 21 38 22 39 23 40 76 41 24 42 81 43 75 44 77 45 25 46
REMARK SMILES IDX 80 47 74 48 73 49 26 51 60 52 39 53 59 54 40 55 43 56 58 57
REMARK SMILES IDX 78 58 41 59 42 60 57 62 79 63 44 64 27 65 28 66 37 67 29 68
REMARK SMILES IDX 30 69 36 70 38 71 31 72 32 73 33 74 34 75 35 76 61 77 62 78
REMARK SMILES IDX 71 79 63 80 64 81 70 82 72 83 65 84 66 85 67 86 68 87 69 88
REMARK SMILES IDX 45 89 46 90 55 91 47 92 48 93 54 94 56 95 49 96 50 97 51 98
REMARK SMILES IDX 52 99 53 100
REMARK H PARENT 8 7 4 15 4 16 15 31 77 50 43 61
REMARK Flexibility Score: inf
ROOT
ATOM      1  C   UNL     1      -3.577   1.249   2.088  1.00  0.00     0.002 C 
ENDROOT
BRANCH   1   2
ATOM      2  C   UNL     1      -2.827   1.213   3.424  1.00  0.00     0.021 C 
BRANCH   2   3
ATOM      3  C   UNL     1      -2.080  -0.097   3.657  1.00  0.00     0.116 C 
BRANCH   3   4
ATOM      4  N   UNL     1      -0.955  -0.206   2.751  1.00  0.00    -0.351 N 
ATOM      5  C   UNL     1       0.390  -0.115   2.942  1.00  0.00     0.281 C 
ATOM      6  O   UNL     1       1.075  -0.257   1.921  1.00  0.00    -0.268 OA
ATOM      7  H   UNL     1      -1.212  -0.378   1.817  1.00  0.00     0.163 HD
BRANCH   5   8
ATOM      8  C   UNL     1       1.024   0.030   4.370  1.00  0.00     0.177 C 
ATOM      9  C   UNL     1       0.495   1.212   5.211  1.00  0.00     0.079 C 
ATOM     10  C   UNL     1       0.761  -1.342   5.073  1.00  0.00     0.106 C 
ATOM     11  C   UNL     1       0.926   1.132   6.677  1.00  0.00     0.009 C 
ATOM     12  C   UNL     1       1.140  -1.412   6.566  1.00  0.00     0.114 C 
ATOM     13  C   UNL     1       0.521  -0.204   7.298  1.00  0.00     0.028 C 
BRANCH   8  14
ATOM     14  N   UNL     1       2.497   0.181   4.265  1.00  0.00    -0.334 N 
ATOM     15  H   UNL     1       2.861   0.223   5.217  1.00  0.00     0.347 HD
ATOM     16  H   UNL     1       2.784  -0.619   3.700  1.00  0.00     0.347 HD
BRANCH  14  17
ATOM     17  C   UNL     1       3.041   1.326   3.550  1.00  0.00     0.261 C 
BRANCH  17  18
ATOM     18  C   UNL     1       4.569   1.210   3.458  1.00  0.00     0.058 C 
ATOM     19  C   UNL     1       5.042   0.125   2.499  1.00  0.00     0.010 C 
ENDBRANCH  17  18
ENDBRANCH  14  17
ENDBRANCH   8  14
BRANCH  12  20
ATOM     20  N   UNL     1       2.566  -1.598   6.830  1.00  0.00    -0.269 N 
ATOM     21  C   UNL     1       3.200  -1.481   8.039  1.00  0.00     0.109 A 
ATOM     22  N   UNL     1       3.403  -2.030   5.862  1.00  0.00    -0.178 NA
ATOM     23  C   UNL     1       4.544  -1.593   7.775  1.00  0.00     0.045 A 
ATOM     24  C   UNL     1       4.619  -1.880   6.396  1.00  0.00     0.059 A 
ATOM     25  C   UNL     1       5.831  -2.009   5.555  1.00  0.00     0.069 C 
ENDBRANCH  12  20
ENDBRANCH   5   8
ENDBRANCH   3   4
ENDBRANCH   2   3
ENDBRANCH   1   2
BRANCH   1  26
ATOM     26  C   UNL     1      -4.563   0.094   1.880  1.00  0.00     0.002 C 
BRANCH  26  27
ATOM     27  C   UNL     1      -5.573  -0.095   3.014  1.00  0.00     0.021 C 
BRANCH  27  28
ATOM     28  C   UNL     1      -6.431   1.133   3.293  1.00  0.00     0.116 C 
BRANCH  28  29
ATOM     29  N   UNL     1      -7.244   1.491   2.142  1.00  0.00    -0.352 N 
ATOM     30  C   UNL     1      -8.603   1.649   2.065  1.00  0.00     0.251 C 
ATOM     31  H   UNL     1      -6.751   1.639   1.303  1.00  0.00     0.163 HD
ATOM     32  O   UNL     1      -9.154   1.721   0.968  1.00  0.00    -0.269 OA
BRANCH  30  33
ATOM     33  C   UNL     1      -9.399   1.716   3.307  1.00  0.00     0.039 A 
ATOM     34  C   UNL     1     -10.586   0.986   3.393  1.00  0.00     0.014 A 
ATOM     35  C   UNL     1      -8.969   2.495   4.385  1.00  0.00     0.014 A 
ATOM     36  C   UNL     1     -11.316   0.997   4.583  1.00  0.00     0.010 A 
ATOM     37  C   UNL     1      -9.655   2.442   5.594  1.00  0.00     0.010 A 
ATOM     38  C   UNL     1     -10.840   1.700   5.703  1.00  0.00    -0.014 A 
BRANCH  38  39
ATOM     39  C   UNL     1     -11.571   1.672   6.995  1.00  0.00     0.031 A 
ATOM     40  C   UNL     1     -12.140   2.942   7.567  1.00  0.00     0.074 A 
ATOM     41  C   UNL     1     -11.671   0.514   7.678  1.00  0.00     0.049 A 
ATOM     42  N   UNL     1     -12.760   3.129   8.704  1.00  0.00    -0.248 NA
ATOM     43  C   UNL     1     -11.967   4.167   6.770  1.00  0.00     0.031 C 
ATOM     44  C   UNL     1     -11.120  -0.773   7.246  1.00  0.00     0.029 A 
ATOM     45  N   UNL     1     -12.265   0.232   8.882  1.00  0.00    -0.354 N 
ATOM     46  C   UNL     1     -13.041   4.490   8.763  1.00  0.00     0.074 A 
ATOM     47  C   UNL     1     -12.471   5.090   7.577  1.00  0.00     0.031 C 
ATOM     48  C   UNL     1     -11.426  -1.710   8.157  1.00  0.00     0.029 A 
ATOM     49  C   UNL     1     -12.154  -1.087   9.257  1.00  0.00     0.049 A 
ATOM     50  H   UNL     1     -12.727   0.910   9.427  1.00  0.00     0.167 HD
ATOM     51  C   UNL     1     -13.733   5.172   9.707  1.00  0.00     0.037 A 
ATOM     52  C   UNL     1     -12.583  -1.720  10.366  1.00  0.00     0.037 A 
ATOM     53  C   UNL     1     -14.312   4.561  10.876  1.00  0.00     0.049 A 
ATOM     54  C   UNL     1     -13.334  -0.937  11.410  1.00  0.00     0.074 A 
ATOM     55  C   UNL     1     -15.077   5.153  11.865  1.00  0.00     0.029 A 
ATOM     56  N   UNL     1     -14.185   3.222  11.217  1.00  0.00    -0.354 N 
ATOM     57  N   UNL     1     -13.649   0.337  11.418  1.00  0.00    -0.248 NA
ATOM     58  C   UNL     1     -13.792  -1.677  12.593  1.00  0.00     0.031 C 
ATOM     59  C   UNL     1     -15.366   4.185  12.832  1.00  0.00     0.029 A 
ATOM     60  C   UNL     1     -14.834   2.975  12.416  1.00  0.00     0.049 A 
ATOM     61  H   UNL     1     -13.704   2.547  10.686  1.00  0.00     0.167 HD
ATOM     62  C   UNL     1     -14.370   0.543  12.589  1.00  0.00     0.074 A 
ATOM     63  C   UNL     1     -14.453  -0.739  13.258  1.00  0.00     0.031 C 
ATOM     64  C   UNL     1     -14.915   1.690  13.066  1.00  0.00     0.037 A 
BRANCH  51  65
ATOM     65  C   UNL     1     -13.900   6.656   9.515  1.00  0.00     0.058 A 
ATOM     66  C   UNL     1     -14.699   7.184   8.488  1.00  0.00     0.135 A 
ATOM     67  C   UNL     1     -13.278   7.563  10.389  1.00  0.00     0.135 A 
ATOM     68  F   UNL     1     -15.306   6.365   7.613  1.00  0.00    -0.206 F 
ATOM     69  C   UNL     1     -14.848   8.556   8.312  1.00  0.00     0.059 A 
ATOM     70  C   UNL     1     -13.440   8.939  10.252  1.00  0.00     0.059 A 
ATOM     71  F   UNL     1     -12.503   7.115  11.389  1.00  0.00    -0.206 F 
ATOM     72  C   UNL     1     -14.213   9.426   9.200  1.00  0.00     0.060 A 
BRANCH  72  73
ATOM     73  S   UNL     1     -14.417  11.203   8.957  1.00  0.00     0.124 S 
ATOM     74  O   UNL     1     -13.617  11.425   7.756  1.00  0.00    -0.237 OA
ATOM     75  O   UNL     1     -15.861  11.331   8.790  1.00  0.00    -0.237 OA
ATOM     76  O   UNL     1     -13.877  11.779  10.185  1.00  0.00    -0.744 OA
ENDBRANCH  72  73
ENDBRANCH  51  65
BRANCH  52  77
ATOM     77  C   UNL     1     -12.331  -3.176  10.537  1.00  0.00     0.058 A 
ATOM     78  C   UNL     1     -13.385  -4.102  10.492  1.00  0.00     0.135 A 
ATOM     79  C   UNL     1     -11.034  -3.674  10.737  1.00  0.00     0.135 A 
ATOM     80  F   UNL     1     -14.644  -3.675  10.309  1.00  0.00    -0.206 F 
ATOM     81  C   UNL     1     -13.166  -5.465  10.660  1.00  0.00     0.059 A 
ATOM     82  C   UNL     1     -10.786  -5.036  10.878  1.00  0.00     0.059 A 
ATOM     83  F   UNL     1      -9.988  -2.834  10.770  1.00  0.00    -0.206 F 
ATOM     84  C   UNL     1     -11.861  -5.923  10.849  1.00  0.00     0.060 A 
BRANCH  84  85
ATOM     85  S   UNL     1     -11.584  -7.699  11.021  1.00  0.00     0.124 S 
ATOM     86  O   UNL     1     -12.133  -7.955  12.347  1.00  0.00    -0.237 OA
ATOM     87  O   UNL     1     -12.345  -8.237   9.898  1.00  0.00    -0.237 OA
ATOM     88  O   UNL     1     -10.134  -7.824  10.903  1.00  0.00    -0.744 OA
ENDBRANCH  84  85
ENDBRANCH  52  77
BRANCH  64  89
ATOM     89  C   UNL     1     -15.686   1.608  14.356  1.00  0.00     0.058 A 
ATOM     90  C   UNL     1     -15.048   1.406  15.590  1.00  0.00     0.135 A 
ATOM     91  C   UNL     1     -17.079   1.786  14.360  1.00  0.00     0.135 A 
ATOM     92  F   UNL     1     -13.720   1.223  15.643  1.00  0.00    -0.206 F 
ATOM     93  C   UNL     1     -15.768   1.359  16.780  1.00  0.00     0.059 A 
ATOM     94  C   UNL     1     -17.814   1.776  15.541  1.00  0.00     0.059 A 
ATOM     95  F   UNL     1     -17.739   1.993  13.209  1.00  0.00    -0.206 F 
ATOM     96  C   UNL     1     -17.151   1.549  16.746  1.00  0.00     0.060 A 
BRANCH  96  97
ATOM     97  S   UNL     1     -18.065   1.522  18.302  1.00  0.00     0.124 S 
ATOM     98  O   UNL     1     -18.029   0.103  18.640  1.00  0.00    -0.237 OA
ATOM     99  O   UNL     1     -17.262   2.397  19.150  1.00  0.00    -0.237 OA
ATOM    100  O   UNL     1     -19.378   2.046  17.934  1.00  0.00    -0.744 OA
ENDBRANCH  96  97
ENDBRANCH  64  89
ENDBRANCH  38  39
ENDBRANCH  30  33
ENDBRANCH  28  29
ENDBRANCH  27  28
ENDBRANCH  26  27
ENDBRANCH   1  26
TORSDOF 20
