REMARK SMILES CC1(C)CCN(c2ncccc2C(=O)NCCCCCCNC(=O)c2ccc(-c3c4nc(c(-c5c(F)cc(S(=O)(=O)[O-])cc5F)c5ccc([nH]5)c(-c5c(F)cc(S(=O)(=O)[O-])cc5F)c5nc(c(-c6c(F)cc(S(=O)(=O)[O-])cc6F)c6ccc3[nH]6)C=C5)C=C4)cc2)C1
REMARK SMILES IDX 19 1 18 2 17 3 16 4 15 5 13 6 14 7 12 9 7 10 8 11 9 12 11 13
REMARK SMILES IDX 10 14 6 15 1 16 2 17 3 18 4 19 91 20 5 21 20 22 21 23 22 24
REMARK SMILES IDX 23 25 24 27 25 28 26 29 90 30 27 31 89 32 28 33 29 34 30 35
REMARK SMILES IDX 83 36 31 37 88 38 82 39 84 40 32 41 87 42 81 43 80 44 33 46
REMARK SMILES IDX 67 47 46 48 66 49 47 50 50 51 65 52 85 53 48 54 49 55 64 57
REMARK SMILES IDX 86 58 51 59 34 60 35 61 44 62 36 63 37 64 43 65 45 66 38 67
REMARK SMILES IDX 39 68 40 69 41 70 42 71 68 72 69 73 78 74 70 75 71 76 77 77
REMARK SMILES IDX 79 78 72 79 73 80 74 81 75 82 76 83 52 84 53 85 62 86 54 87
REMARK SMILES IDX 55 88 61 89 63 90 56 91 57 92 58 93 59 94 60 95
REMARK H PARENT 15 8 22 26 84 45 50 56
REMARK Flexibility Score: inf
ROOT
ATOM      1  C   UNL     1       4.111   6.133   5.208  1.00  0.00     0.002 C 
ENDROOT
BRANCH   1   2
ATOM      2  C   UNL     1       3.078   6.215   4.076  1.00  0.00     0.002 C 
BRANCH   2   3
ATOM      3  C   UNL     1       3.627   5.897   2.675  1.00  0.00     0.021 C 
BRANCH   3   4
ATOM      4  C   UNL     1       4.322   4.539   2.596  1.00  0.00     0.116 C 
BRANCH   4   5
ATOM      5  N   UNL     1       3.342   3.481   2.664  1.00  0.00    -0.352 N 
ATOM      6  C   UNL     1       2.751   2.599   1.802  1.00  0.00     0.255 C 
ATOM      7  O   UNL     1       1.942   1.869   2.381  1.00  0.00    -0.269 OA
ATOM      8  H   UNL     1       3.007   3.363   3.582  1.00  0.00     0.163 HD
BRANCH   6   9
ATOM      9  C   UNL     1       3.068   2.450   0.335  1.00  0.00     0.082 A 
ATOM     10  C   UNL     1       2.571   1.340  -0.384  1.00  0.00     0.141 A 
ATOM     11  N   UNL     1       3.035   1.023  -1.627  1.00  0.00    -0.238 NA
ATOM     12  C   UNL     1       3.934   1.833  -2.215  1.00  0.00     0.113 A 
ATOM     13  C   UNL     1       3.920   3.315  -0.363  1.00  0.00     0.019 A 
ATOM     14  C   UNL     1       4.380   2.999  -1.640  1.00  0.00     0.021 A 
BRANCH  10  15
ATOM     15  N   UNL     1       1.536   0.554   0.058  1.00  0.00    -0.355 N 
ATOM     16  C   UNL     1      -1.095  -0.175  -1.612  1.00  0.00     0.013 C 
ATOM     17  C   UNL     1      -0.741  -0.090  -0.119  1.00  0.00    -0.016 C 
ATOM     18  C   UNL     1      -2.027  -0.010   0.706  1.00  0.00     0.013 C 
ATOM     19  C   UNL     1       0.135  -1.279   0.316  1.00  0.00     0.030 C 
ATOM     20  C   UNL     1       0.189   1.115   0.149  1.00  0.00     0.124 C 
ATOM     21  C   UNL     1       1.536  -0.879  -0.142  1.00  0.00     0.119 C 
ENDBRANCH  10  15
ENDBRANCH   6   9
ENDBRANCH   4   5
ENDBRANCH   3   4
ENDBRANCH   2   3
ENDBRANCH   1   2
BRANCH   1  22
ATOM     22  C   UNL     1       5.401   6.915   4.951  1.00  0.00     0.021 C 
BRANCH  22  23
ATOM     23  C   UNL     1       5.184   8.409   4.756  1.00  0.00     0.116 C 
BRANCH  23  24
ATOM     24  N   UNL     1       4.689   9.036   5.971  1.00  0.00    -0.352 N 
ATOM     25  C   UNL     1       5.230  10.082   6.677  1.00  0.00     0.251 C 
ATOM     26  H   UNL     1       3.855   8.661   6.336  1.00  0.00     0.163 HD
ATOM     27  O   UNL     1       4.837  10.334   7.809  1.00  0.00    -0.269 OA
BRANCH  25  28
ATOM     28  C   UNL     1       6.300  10.889   6.055  1.00  0.00     0.039 A 
ATOM     29  C   UNL     1       7.436  11.208   6.800  1.00  0.00     0.014 A 
ATOM     30  C   UNL     1       6.178  11.316   4.729  1.00  0.00     0.014 A 
ATOM     31  C   UNL     1       8.476  11.918   6.197  1.00  0.00     0.010 A 
ATOM     32  C   UNL     1       7.247  11.951   4.109  1.00  0.00     0.010 A 
ATOM     33  C   UNL     1       8.402  12.269   4.840  1.00  0.00    -0.014 A 
BRANCH  33  34
ATOM     34  C   UNL     1       9.507  12.993   4.162  1.00  0.00     0.031 A 
ATOM     35  C   UNL     1       9.262  14.368   3.600  1.00  0.00     0.074 A 
ATOM     36  C   UNL     1      10.698  12.388   3.988  1.00  0.00     0.049 A 
ATOM     37  N   UNL     1      10.055  15.121   2.884  1.00  0.00    -0.248 NA
ATOM     38  C   UNL     1       7.938  14.961   3.853  1.00  0.00     0.031 C 
ATOM     39  C   UNL     1      11.042  11.044   4.456  1.00  0.00     0.029 A 
ATOM     40  N   UNL     1      11.838  12.820   3.357  1.00  0.00    -0.354 N 
ATOM     41  C   UNL     1       9.323  16.265   2.587  1.00  0.00     0.074 A 
ATOM     42  C   UNL     1       8.005  16.083   3.151  1.00  0.00     0.031 C 
ATOM     43  C   UNL     1      12.310  10.769   4.112  1.00  0.00     0.029 A 
ATOM     44  C   UNL     1      12.856  11.894   3.359  1.00  0.00     0.049 A 
ATOM     45  H   UNL     1      11.919  13.708   2.941  1.00  0.00     0.167 HD
ATOM     46  C   UNL     1       9.723  17.377   1.925  1.00  0.00     0.037 A 
ATOM     47  C   UNL     1      14.083  11.942   2.805  1.00  0.00     0.037 A 
ATOM     48  C   UNL     1      11.047  17.556   1.388  1.00  0.00     0.049 A 
ATOM     49  C   UNL     1      14.499  13.181   2.057  1.00  0.00     0.074 A 
ATOM     50  C   UNL     1      11.569  18.664   0.745  1.00  0.00     0.029 A 
ATOM     51  N   UNL     1      12.055  16.604   1.430  1.00  0.00    -0.354 N 
ATOM     52  N   UNL     1      13.814  14.277   1.832  1.00  0.00    -0.248 NA
ATOM     53  C   UNL     1      15.855  13.194   1.491  1.00  0.00     0.031 C 
ATOM     54  C   UNL     1      12.876  18.362   0.349  1.00  0.00     0.029 A 
ATOM     55  C   UNL     1      13.190  17.091   0.803  1.00  0.00     0.049 A 
ATOM     56  H   UNL     1      11.976  15.714   1.843  1.00  0.00     0.167 HD
ATOM     57  C   UNL     1      14.668  15.124   1.134  1.00  0.00     0.074 A 
ATOM     58  C   UNL     1      15.920  14.415   0.975  1.00  0.00     0.031 C 
ATOM     59  C   UNL     1      14.437  16.378   0.671  1.00  0.00     0.037 A 
BRANCH  46  60
ATOM     60  C   UNL     1       8.720  18.483   1.744  1.00  0.00     0.058 A 
ATOM     61  C   UNL     1       8.259  19.249   2.828  1.00  0.00     0.135 A 
ATOM     62  C   UNL     1       8.239  18.808   0.465  1.00  0.00     0.135 A 
ATOM     63  F   UNL     1       8.672  18.974   4.075  1.00  0.00    -0.206 F 
ATOM     64  C   UNL     1       7.334  20.274   2.655  1.00  0.00     0.059 A 
ATOM     65  C   UNL     1       7.339  19.851   0.264  1.00  0.00     0.059 A 
ATOM     66  F   UNL     1       8.644  18.109  -0.607  1.00  0.00    -0.206 F 
ATOM     67  C   UNL     1       6.881  20.568   1.368  1.00  0.00     0.060 A 
BRANCH  67  68
ATOM     68  S   UNL     1       5.687  21.905   1.161  1.00  0.00     0.124 S 
ATOM     69  O   UNL     1       4.484  21.311   1.736  1.00  0.00    -0.237 OA
ATOM     70  O   UNL     1       6.292  22.985   1.935  1.00  0.00    -0.237 OA
ATOM     71  O   UNL     1       5.655  22.114  -0.283  1.00  0.00    -0.744 OA
ENDBRANCH  67  68
ENDBRANCH  46  60
BRANCH  47  72
ATOM     72  C   UNL     1      15.011  10.788   2.950  1.00  0.00     0.058 A 
ATOM     73  C   UNL     1      16.168  10.886   3.737  1.00  0.00     0.135 A 
ATOM     74  C   UNL     1      14.757   9.562   2.314  1.00  0.00     0.135 A 
ATOM     75  F   UNL     1      16.459  12.038   4.360  1.00  0.00    -0.206 F 
ATOM     76  C   UNL     1      17.051   9.819   3.873  1.00  0.00     0.059 A 
ATOM     77  C   UNL     1      15.609   8.472   2.458  1.00  0.00     0.059 A 
ATOM     78  F   UNL     1      13.655   9.409   1.563  1.00  0.00    -0.206 F 
ATOM     79  C   UNL     1      16.760   8.614   3.231  1.00  0.00     0.060 A 
BRANCH  79  80
ATOM     80  S   UNL     1      17.892   7.223   3.449  1.00  0.00     0.124 S 
ATOM     81  O   UNL     1      19.044   7.657   2.668  1.00  0.00    -0.237 OA
ATOM     82  O   UNL     1      18.072   7.201   4.897  1.00  0.00    -0.237 OA
ATOM     83  O   UNL     1      17.145   6.095   2.900  1.00  0.00    -0.744 OA
ENDBRANCH  79  80
ENDBRANCH  47  72
BRANCH  59  84
ATOM     84  C   UNL     1      15.574  17.096  -0.003  1.00  0.00     0.058 A 
ATOM     85  C   UNL     1      16.017  16.745  -1.288  1.00  0.00     0.135 A 
ATOM     86  C   UNL     1      16.172  18.206   0.617  1.00  0.00     0.135 A 
ATOM     87  F   UNL     1      15.484  15.689  -1.922  1.00  0.00    -0.206 F 
ATOM     88  C   UNL     1      17.022  17.462  -1.929  1.00  0.00     0.059 A 
ATOM     89  C   UNL     1      17.157  18.955  -0.017  1.00  0.00     0.059 A 
ATOM     90  F   UNL     1      15.779  18.589   1.843  1.00  0.00    -0.206 F 
ATOM     91  C   UNL     1      17.580  18.571  -1.288  1.00  0.00     0.060 A 
BRANCH  91  92
ATOM     92  S   UNL     1      18.841  19.527  -2.157  1.00  0.00     0.124 S 
ATOM     93  O   UNL     1      19.983  18.619  -2.111  1.00  0.00    -0.237 OA
ATOM     94  O   UNL     1      18.236  19.718  -3.471  1.00  0.00    -0.237 OA
ATOM     95  O   UNL     1      18.969  20.736  -1.350  1.00  0.00    -0.744 OA
ENDBRANCH  91  92
ENDBRANCH  59  84
ENDBRANCH  33  34
ENDBRANCH  25  28
ENDBRANCH  23  24
ENDBRANCH  22  23
ENDBRANCH   1  22
TORSDOF 17
