REMARK SMILES O=C(NCCCCCCNC(=O)[C@@H]1CC=CC[C@H]1C(=O)N1CC[NH+](Cc2ccc3c(c2)OCO3)CC1)c1ccc(-c2c3nc(c(-c4c(F)cc(S(=O)(=O)[O-])cc4F)c4ccc([nH]4)c(-c4c(F)cc(S(=O)(=O)[O-])cc4F)c4nc(c(-c5c(F)cc(S(=O)(=O)[O-])cc5F)c5ccc2[nH]5)C=C4)C=C3)cc1
REMARK SMILES IDX 6 1 5 2 4 3 3 4 1 5 2 6 37 8 38 9 102 10 39 11 101 12 40 13
REMARK SMILES IDX 41 14 42 15 95 16 43 17 100 18 94 19 96 20 44 21 99 22 93 23
REMARK SMILES IDX 92 24 45 26 79 27 58 28 78 29 59 30 62 31 77 32 97 33 60 34
REMARK SMILES IDX 61 35 76 37 98 38 63 39 46 40 47 41 56 42 48 43 49 44 55 45
REMARK SMILES IDX 57 46 50 47 51 48 52 49 53 50 54 51 80 52 81 53 90 54 82 55
REMARK SMILES IDX 83 56 89 57 91 58 84 59 85 60 86 61 87 62 88 63 64 64 65 65
REMARK SMILES IDX 74 66 66 67 67 68 73 69 75 70 68 71 69 72 70 73 71 74 72 75
REMARK SMILES IDX 7 76 8 77 9 78 10 79 11 80 12 82 13 83 14 84 18 85 15 86
REMARK SMILES IDX 17 87 16 88 19 89 20 90 21 91 22 92 36 93 23 94 35 95 24 96
REMARK SMILES IDX 25 98 26 99 27 100 31 101 28 102 30 103 29 104 32 105 34 106
REMARK SMILES IDX 33 107
REMARK H PARENT 3 7 96 25 62 36 10 81 24 97
REMARK Flexibility Score: inf
ROOT
ATOM      1  C   UNL     1       9.672  10.974   1.321  1.00  0.00     0.002 C 
ENDROOT
BRANCH   1   2
ATOM      2  C   UNL     1       8.841  10.755   0.047  1.00  0.00     0.021 C 
BRANCH   2   3
ATOM      3  C   UNL     1       7.702  11.670  -0.444  1.00  0.00     0.116 C 
BRANCH   3   4
ATOM      4  N   UNL     1       7.587  13.037  -0.014  1.00  0.00    -0.352 N 
ATOM      5  O   UNL     1       6.521  15.042   0.052  1.00  0.00    -0.269 OA
ATOM      6  C   UNL     1       6.535  13.884  -0.346  1.00  0.00     0.251 C 
ATOM      7  H   UNL     1       8.303  13.399   0.556  1.00  0.00     0.163 HD
BRANCH   6   8
ATOM      8  C   UNL     1       5.415  13.390  -1.207  1.00  0.00     0.039 A 
ATOM      9  C   UNL     1       4.383  12.618  -0.666  1.00  0.00     0.014 A 
ATOM     10  C   UNL     1       5.334  13.782  -2.546  1.00  0.00     0.014 A 
ATOM     11  C   UNL     1       3.317  12.178  -1.468  1.00  0.00     0.010 A 
ATOM     12  C   UNL     1       4.238  13.383  -3.337  1.00  0.00     0.010 A 
ATOM     13  C   UNL     1       3.215  12.574  -2.811  1.00  0.00    -0.014 A 
BRANCH  13  14
ATOM     14  C   UNL     1       1.996  12.260  -3.624  1.00  0.00     0.031 A 
ATOM     15  C   UNL     1       2.068  11.383  -4.852  1.00  0.00     0.074 A 
ATOM     16  C   UNL     1       0.816  12.833  -3.298  1.00  0.00     0.049 A 
ATOM     17  N   UNL     1       1.136  11.117  -5.735  1.00  0.00    -0.248 NA
ATOM     18  C   UNL     1       3.353  10.723  -5.127  1.00  0.00     0.031 C 
ATOM     19  C   UNL     1       0.600  13.715  -2.149  1.00  0.00     0.029 A 
ATOM     20  N   UNL     1      -0.415  12.791  -3.913  1.00  0.00    -0.354 N 
ATOM     21  C   UNL     1       1.724  10.286  -6.684  1.00  0.00     0.074 A 
ATOM     22  C   UNL     1       3.098  10.091  -6.268  1.00  0.00     0.031 C 
ATOM     23  C   UNL     1      -0.672  14.142  -2.150  1.00  0.00     0.029 A 
ATOM     24  C   UNL     1      -1.353  13.614  -3.329  1.00  0.00     0.049 A 
ATOM     25  H   UNL     1      -0.607  12.227  -4.697  1.00  0.00     0.167 HD
ATOM     26  C   UNL     1       1.171   9.742  -7.797  1.00  0.00     0.037 A 
ATOM     27  C   UNL     1      -2.601  13.954  -3.713  1.00  0.00     0.037 A 
ATOM     28  C   UNL     1      -0.205   9.919  -8.197  1.00  0.00     0.049 A 
ATOM     29  C   UNL     1      -3.174  13.367  -4.976  1.00  0.00     0.074 A 
ATOM     30  C   UNL     1      -0.872   9.329  -9.259  1.00  0.00     0.029 A 
ATOM     31  N   UNL     1      -1.117  10.758  -7.575  1.00  0.00    -0.354 N 
ATOM     32  N   UNL     1      -2.627  12.516  -5.810  1.00  0.00    -0.248 NA
ATOM     33  C   UNL     1      -4.529  13.793  -5.358  1.00  0.00     0.031 C 
ATOM     34  C   UNL     1      -2.163   9.861  -9.319  1.00  0.00     0.029 A 
ATOM     35  C   UNL     1      -2.322  10.739  -8.261  1.00  0.00     0.049 A 
ATOM     36  H   UNL     1      -0.935  11.289  -6.766  1.00  0.00     0.167 HD
ATOM     37  C   UNL     1      -3.574  12.297  -6.805  1.00  0.00     0.074 A 
ATOM     38  C   UNL     1      -4.738  13.082  -6.458  1.00  0.00     0.031 C 
ATOM     39  C   UNL     1      -3.481  11.521  -7.912  1.00  0.00     0.037 A 
BRANCH  26  40
ATOM     40  C   UNL     1       2.038   8.905  -8.703  1.00  0.00     0.058 A 
ATOM     41  C   UNL     1       2.421   7.599  -8.364  1.00  0.00     0.135 A 
ATOM     42  C   UNL     1       2.373   9.371  -9.987  1.00  0.00     0.135 A 
ATOM     43  F   UNL     1       2.133   7.103  -7.151  1.00  0.00    -0.206 F 
ATOM     44  C   UNL     1       3.107   6.785  -9.263  1.00  0.00     0.059 A 
ATOM     45  C   UNL     1       3.038   8.568 -10.910  1.00  0.00     0.059 A 
ATOM     46  F   UNL     1       2.026  10.611 -10.366  1.00  0.00    -0.206 F 
ATOM     47  C   UNL     1       3.403   7.276 -10.537  1.00  0.00     0.060 A 
BRANCH  47  48
ATOM     48  S   UNL     1       4.247   6.187 -11.706  1.00  0.00     0.124 S 
ATOM     49  O   UNL     1       5.582   6.111 -11.120  1.00  0.00    -0.237 OA
ATOM     50  O   UNL     1       3.451   4.967 -11.626  1.00  0.00    -0.237 OA
ATOM     51  O   UNL     1       4.160   6.909 -12.972  1.00  0.00    -0.744 OA
ENDBRANCH  47  48
ENDBRANCH  26  40
BRANCH  27  52
ATOM     52  C   UNL     1      -3.383  14.949  -2.926  1.00  0.00     0.058 A 
ATOM     53  C   UNL     1      -4.550  14.582  -2.240  1.00  0.00     0.135 A 
ATOM     54  C   UNL     1      -2.990  16.296  -2.868  1.00  0.00     0.135 A 
ATOM     55  F   UNL     1      -4.976  13.310  -2.275  1.00  0.00    -0.206 F 
ATOM     56  C   UNL     1      -5.314  15.517  -1.549  1.00  0.00     0.059 A 
ATOM     57  C   UNL     1      -3.719  17.243  -2.156  1.00  0.00     0.059 A 
ATOM     58  F   UNL     1      -1.875  16.700  -3.498  1.00  0.00    -0.206 F 
ATOM     59  C   UNL     1      -4.890  16.847  -1.515  1.00  0.00     0.060 A 
BRANCH  59  60
ATOM     60  S   UNL     1      -5.880  18.050  -0.601  1.00  0.00     0.124 S 
ATOM     61  O   UNL     1      -7.024  18.222  -1.489  1.00  0.00    -0.237 OA
ATOM     62  O   UNL     1      -6.142  17.346   0.650  1.00  0.00    -0.237 OA
ATOM     63  O   UNL     1      -4.988  19.201  -0.489  1.00  0.00    -0.744 OA
ENDBRANCH  59  60
ENDBRANCH  27  52
BRANCH  39  64
ATOM     64  C   UNL     1      -4.671  11.468  -8.831  1.00  0.00     0.058 A 
ATOM     65  C   UNL     1      -5.008  12.551  -9.658  1.00  0.00     0.135 A 
ATOM     66  C   UNL     1      -5.445  10.301  -8.935  1.00  0.00     0.135 A 
ATOM     67  F   UNL     1      -4.309  13.696  -9.590  1.00  0.00    -0.206 F 
ATOM     68  C   UNL     1      -6.076  12.483 -10.547  1.00  0.00     0.059 A 
ATOM     69  C   UNL     1      -6.500  10.201  -9.837  1.00  0.00     0.059 A 
ATOM     70  F   UNL     1      -5.164   9.233  -8.171  1.00  0.00    -0.206 F 
ATOM     71  C   UNL     1      -6.812  11.300 -10.635  1.00  0.00     0.060 A 
BRANCH  71  72
ATOM     72  S   UNL     1      -8.159  11.208 -11.834  1.00  0.00     0.124 S 
ATOM     73  O   UNL     1      -9.161  12.073 -11.221  1.00  0.00    -0.237 OA
ATOM     74  O   UNL     1      -7.532  11.725 -13.047  1.00  0.00    -0.237 OA
ATOM     75  O   UNL     1      -8.492   9.787 -11.864  1.00  0.00    -0.744 OA
ENDBRANCH  71  72
ENDBRANCH  39  64
ENDBRANCH  13  14
ENDBRANCH   6   8
ENDBRANCH   3   4
ENDBRANCH   2   3
ENDBRANCH   1   2
BRANCH   1  76
ATOM     76  C   UNL     1       9.113  10.737   2.733  1.00  0.00     0.002 C 
BRANCH  76  77
ATOM     77  C   UNL     1       8.426   9.412   3.077  1.00  0.00     0.021 C 
BRANCH  77  78
ATOM     78  C   UNL     1       9.205   8.098   3.014  1.00  0.00     0.116 C 
BRANCH  78  79
ATOM     79  N   UNL     1      10.018   7.756   4.161  1.00  0.00    -0.356 N 
ATOM     80  C   UNL     1      10.217   6.574   4.816  1.00  0.00     0.224 C 
ATOM     81  H   UNL     1      10.519   8.515   4.539  1.00  0.00     0.163 HD
ATOM     82  O   UNL     1      11.139   6.603   5.645  1.00  0.00    -0.275 OA
BRANCH  80  83
ATOM     83  C   UNL     1       9.303   5.312   4.693  1.00  0.00     0.095 C 
ATOM     84  C   UNL     1       9.831   4.290   5.760  1.00  0.00     0.041 C 
ATOM     85  C   UNL     1       9.192   4.635   3.305  1.00  0.00     0.095 C 
ATOM     86  C   UNL     1       9.377   2.870   5.646  1.00  0.00    -0.030 C 
ATOM     87  C   UNL     1       8.715   3.155   3.281  1.00  0.00     0.041 C 
ATOM     88  C   UNL     1       8.890   2.355   4.519  1.00  0.00    -0.030 C 
BRANCH  85  89
ATOM     89  C   UNL     1       8.349   5.253   2.178  1.00  0.00     0.227 C 
ATOM     90  O   UNL     1       8.922   5.527   1.115  1.00  0.00    -0.275 OA
ATOM     91  N   UNL     1       6.961   5.340   2.272  1.00  0.00    -0.331 N 
ATOM     92  C   UNL     1       6.221   5.385   1.013  1.00  0.00     0.181 C 
ATOM     93  C   UNL     1       6.214   5.889   3.406  1.00  0.00     0.181 C 
ATOM     94  C   UNL     1       4.751   4.916   1.141  1.00  0.00     0.284 C 
ATOM     95  C   UNL     1       4.784   5.343   3.538  1.00  0.00     0.284 C 
ATOM     96  N   UNL     1       3.989   5.362   2.314  1.00  0.00    -0.328 N 
ATOM     97  H   UNL     1       3.282   4.636   2.433  1.00  0.00     0.348 HD
BRANCH  96  98
ATOM     98  C   UNL     1       3.095   6.511   2.145  1.00  0.00     0.299 C 
BRANCH  98  99
ATOM     99  C   UNL     1       3.754   7.864   2.081  1.00  0.00     0.010 A 
ATOM    100  C   UNL     1       4.440   8.227   0.911  1.00  0.00     0.013 A 
ATOM    101  C   UNL     1       3.721   8.755   3.172  1.00  0.00     0.060 A 
ATOM    102  C   UNL     1       5.185   9.393   0.860  1.00  0.00     0.051 A 
ATOM    103  C   UNL     1       4.432   9.932   3.077  1.00  0.00     0.166 A 
ATOM    104  C   UNL     1       5.165  10.227   1.958  1.00  0.00     0.165 A 
ATOM    105  O   UNL     1       4.537  10.894   4.034  1.00  0.00    -0.454 OA
ATOM    106  O   UNL     1       5.858  11.389   2.092  1.00  0.00    -0.454 OA
ATOM    107  C   UNL     1       5.390  11.851   3.372  1.00  0.00     0.468 C 
ENDBRANCH  98  99
ENDBRANCH  96  98
ENDBRANCH  85  89
ENDBRANCH  80  83
ENDBRANCH  78  79
ENDBRANCH  77  78
ENDBRANCH  76  77
ENDBRANCH   1  76
TORSDOF 19
