REMARK SMILES CC1(C)[C@@](C)(C(=O)NCCCCCCNC(=O)c2ccc(-c3c4nc(c(-c5c(F)cc(S(=O)(=O)[O-])cc5F)c5ccc([nH]5)c(-c5c(F)cc(S(=O)(=O)[O-])cc5F)c5nc(c(-c6c(F)cc(S(=O)(=O)[O-])cc6F)c6ccc3[nH]6)C=C5)C=C4)cc2)CC[C@]1(C)C(=O)Nc1ccc(Cl)cc1Cl
REMARK SMILES IDX 12 1 11 2 10 3 9 4 8 5 6 6 7 7 4 9 1 10 2 11 3 12 86 13 5 14
REMARK SMILES IDX 84 15 85 16 87 17 88 18 89 19 90 20 91 22 92 23 97 24 93 25
REMARK SMILES IDX 96 26 98 27 94 28 95 29 13 30 14 31 15 32 16 33 17 35 18 36
REMARK SMILES IDX 19 37 83 38 20 39 82 40 21 41 22 42 23 43 76 44 24 45 81 46
REMARK SMILES IDX 75 47 77 48 25 49 80 50 74 51 73 52 26 54 60 55 39 56 59 57
REMARK SMILES IDX 40 58 43 59 58 60 78 61 41 62 42 63 57 65 79 66 44 67 27 68
REMARK SMILES IDX 28 69 37 70 29 71 30 72 36 73 38 74 31 75 32 76 33 77 34 78
REMARK SMILES IDX 35 79 61 80 62 81 71 82 63 83 64 84 70 85 72 86 65 87 66 88
REMARK SMILES IDX 67 89 68 90 69 91 45 92 46 93 55 94 47 95 48 96 54 97 56 98
REMARK SMILES IDX 49 99 50 100 51 101 52 102 53 103
REMARK H PARENT 8 8 90 21 15 34 77 53 43 64
REMARK Flexibility Score: inf
ROOT
ATOM      1  C   UNL     1      -0.779  -3.386   4.069  1.00  0.00     0.002 C 
ENDROOT
BRANCH   1   2
ATOM      2  C   UNL     1      -0.740  -1.927   3.624  1.00  0.00     0.002 C 
BRANCH   2   3
ATOM      3  C   UNL     1      -0.095  -1.693   2.263  1.00  0.00     0.021 C 
BRANCH   3   4
ATOM      4  C   UNL     1      -0.896  -2.213   1.052  1.00  0.00     0.116 C 
BRANCH   4   5
ATOM      5  N   UNL     1      -1.874  -1.233   0.588  1.00  0.00    -0.356 N 
ATOM      6  C   UNL     1      -1.999  -0.428  -0.507  1.00  0.00     0.226 C 
ATOM      7  O   UNL     1      -2.967   0.343  -0.458  1.00  0.00    -0.274 OA
ATOM      8  H   UNL     1      -2.625  -1.128   1.216  1.00  0.00     0.163 HD
BRANCH   6   9
ATOM      9  C   UNL     1      -1.064  -0.457  -1.774  1.00  0.00     0.052 C 
ATOM     10  C   UNL     1       1.029  -0.267  -0.349  1.00  0.00     0.013 C 
ATOM     11  C   UNL     1       0.403   0.143  -1.654  1.00  0.00    -0.007 C 
ATOM     12  C   UNL     1       1.266  -0.377  -2.836  1.00  0.00     0.013 C 
ATOM     13  C   UNL     1       0.266   1.716  -1.731  1.00  0.00     0.053 C 
ATOM     14  C   UNL     1      -1.130  -1.902  -2.327  1.00  0.00     0.022 C 
ATOM     15  C   UNL     1      -1.651   0.495  -2.853  1.00  0.00     0.018 C 
ATOM     16  C   UNL     1      -0.937   1.853  -2.727  1.00  0.00     0.018 C 
ATOM     17  C   UNL     1      -0.169   2.419  -0.427  1.00  0.00     0.022 C 
BRANCH  13  18
ATOM     18  C   UNL     1       1.537   2.500  -2.270  1.00  0.00     0.230 C 
ATOM     19  O   UNL     1       1.429   3.200  -3.289  1.00  0.00    -0.274 OA
ATOM     20  N   UNL     1       2.801   2.510  -1.721  1.00  0.00    -0.324 N 
ATOM     21  H   UNL     1       3.476   2.913  -2.313  1.00  0.00     0.170 HD
BRANCH  20  22
ATOM     22  C   UNL     1       3.334   2.068  -0.495  1.00  0.00     0.060 A 
ATOM     23  C   UNL     1       3.192   2.883   0.632  1.00  0.00     0.029 A 
ATOM     24  C   UNL     1       4.075   0.872  -0.367  1.00  0.00     0.066 A 
ATOM     25  C   UNL     1       3.597   2.423   1.892  1.00  0.00     0.023 A 
ATOM     26  C   UNL     1       4.402   0.375   0.903  1.00  0.00     0.043 A 
ATOM     27  Cl  UNL     1       4.529  -0.094  -1.722  1.00  0.00    -0.082 Cl
ATOM     28  C   UNL     1       4.134   1.144   2.029  1.00  0.00     0.042 A 
ATOM     29  Cl  UNL     1       4.451   0.508   3.595  1.00  0.00    -0.084 Cl
ENDBRANCH  20  22
ENDBRANCH  13  18
ENDBRANCH   6   9
ENDBRANCH   4   5
ENDBRANCH   3   4
ENDBRANCH   2   3
ENDBRANCH   1   2
BRANCH   1  30
ATOM     30  C   UNL     1       0.569  -4.113   4.043  1.00  0.00     0.021 C 
BRANCH  30  31
ATOM     31  C   UNL     1       1.693  -3.423   4.815  1.00  0.00     0.116 C 
BRANCH  31  32
ATOM     32  N   UNL     1       1.366  -3.273   6.223  1.00  0.00    -0.352 N 
ATOM     33  C   UNL     1       1.946  -3.861   7.320  1.00  0.00     0.251 C 
ATOM     34  H   UNL     1       0.621  -2.660   6.419  1.00  0.00     0.163 HD
ATOM     35  O   UNL     1       1.381  -3.823   8.406  1.00  0.00    -0.269 OA
BRANCH  33  36
ATOM     36  C   UNL     1       3.249  -4.546   7.182  1.00  0.00     0.039 A 
ATOM     37  C   UNL     1       3.425  -5.795   7.782  1.00  0.00     0.014 A 
ATOM     38  C   UNL     1       4.299  -3.948   6.479  1.00  0.00     0.014 A 
ATOM     39  C   UNL     1       4.640  -6.467   7.634  1.00  0.00     0.010 A 
ATOM     40  C   UNL     1       5.483  -4.651   6.272  1.00  0.00     0.010 A 
ATOM     41  C   UNL     1       5.670  -5.914   6.854  1.00  0.00    -0.014 A 
BRANCH  41  42
ATOM     42  C   UNL     1       6.943  -6.646   6.635  1.00  0.00     0.031 A 
ATOM     43  C   UNL     1       8.243  -6.079   7.137  1.00  0.00     0.074 A 
ATOM     44  C   UNL     1       6.936  -7.788   5.920  1.00  0.00     0.049 A 
ATOM     45  N   UNL     1       9.457  -6.547   6.998  1.00  0.00    -0.248 NA
ATOM     46  C   UNL     1       8.172  -4.804   7.867  1.00  0.00     0.031 C 
ATOM     47  C   UNL     1       5.748  -8.404   5.325  1.00  0.00     0.029 A 
ATOM     48  N   UNL     1       7.961  -8.626   5.556  1.00  0.00    -0.354 N 
ATOM     49  C   UNL     1      10.294  -5.616   7.601  1.00  0.00     0.074 A 
ATOM     50  C   UNL     1       9.454  -4.533   8.064  1.00  0.00     0.031 C 
ATOM     51  C   UNL     1       6.109  -9.525   4.682  1.00  0.00     0.029 A 
ATOM     52  C   UNL     1       7.556  -9.690   4.785  1.00  0.00     0.049 A 
ATOM     53  H   UNL     1       8.897  -8.479   5.822  1.00  0.00     0.167 HD
ATOM     54  C   UNL     1      11.638  -5.668   7.769  1.00  0.00     0.037 A 
ATOM     55  C   UNL     1       8.268 -10.679   4.211  1.00  0.00     0.037 A 
ATOM     56  C   UNL     1      12.461  -6.762   7.321  1.00  0.00     0.049 A 
ATOM     57  C   UNL     1       9.755 -10.732   4.427  1.00  0.00     0.074 A 
ATOM     58  C   UNL     1      13.818  -6.953   7.517  1.00  0.00     0.029 A 
ATOM     59  N   UNL     1      12.010  -7.841   6.574  1.00  0.00    -0.354 N 
ATOM     60  N   UNL     1      10.521  -9.892   5.083  1.00  0.00    -0.248 NA
ATOM     61  C   UNL     1      10.474 -11.869   3.839  1.00  0.00     0.031 C 
ATOM     62  C   UNL     1      14.198  -8.116   6.838  1.00  0.00     0.029 A 
ATOM     63  C   UNL     1      13.068  -8.684   6.271  1.00  0.00     0.049 A 
ATOM     64  H   UNL     1      11.076  -7.987   6.299  1.00  0.00     0.167 HD
ATOM     65  C   UNL     1      11.810 -10.408   5.002  1.00  0.00     0.074 A 
ATOM     66  C   UNL     1      11.716 -11.641   4.246  1.00  0.00     0.031 C 
ATOM     67  C   UNL     1      12.964  -9.906   5.509  1.00  0.00     0.037 A 
BRANCH  54  68
ATOM     68  C   UNL     1      12.301  -4.499   8.450  1.00  0.00     0.058 A 
ATOM     69  C   UNL     1      12.094  -4.213   9.809  1.00  0.00     0.135 A 
ATOM     70  C   UNL     1      13.167  -3.658   7.732  1.00  0.00     0.135 A 
ATOM     71  F   UNL     1      11.268  -4.976  10.543  1.00  0.00    -0.206 F 
ATOM     72  C   UNL     1      12.681  -3.109  10.419  1.00  0.00     0.059 A 
ATOM     73  C   UNL     1      13.792  -2.567   8.330  1.00  0.00     0.059 A 
ATOM     74  F   UNL     1      13.407  -3.885   6.431  1.00  0.00    -0.206 F 
ATOM     75  C   UNL     1      13.525  -2.288   9.669  1.00  0.00     0.060 A 
BRANCH  75  76
ATOM     76  S   UNL     1      14.260  -0.846  10.468  1.00  0.00     0.124 S 
ATOM     77  O   UNL     1      13.107   0.042  10.582  1.00  0.00    -0.237 OA
ATOM     78  O   UNL     1      14.757  -1.402  11.722  1.00  0.00    -0.237 OA
ATOM     79  O   UNL     1      15.288  -0.420   9.523  1.00  0.00    -0.744 OA
ENDBRANCH  75  76
ENDBRANCH  54  68
BRANCH  55  80
ATOM     80  C   UNL     1       7.566 -11.701   3.391  1.00  0.00     0.058 A 
ATOM     81  C   UNL     1       7.391 -13.012   3.856  1.00  0.00     0.135 A 
ATOM     82  C   UNL     1       7.003 -11.367   2.149  1.00  0.00     0.135 A 
ATOM     83  F   UNL     1       7.918 -13.382   5.033  1.00  0.00    -0.206 F 
ATOM     84  C   UNL     1       6.681 -13.957   3.122  1.00  0.00     0.059 A 
ATOM     85  C   UNL     1       6.267 -12.287   1.408  1.00  0.00     0.059 A 
ATOM     86  F   UNL     1       7.128 -10.121   1.667  1.00  0.00    -0.206 F 
ATOM     87  C   UNL     1       6.112 -13.581   1.903  1.00  0.00     0.060 A 
BRANCH  87  88
ATOM     88  S   UNL     1       5.115 -14.787   1.002  1.00  0.00     0.124 S 
ATOM     89  O   UNL     1       6.136 -15.705   0.510  1.00  0.00    -0.237 OA
ATOM     90  O   UNL     1       4.242 -15.305   2.051  1.00  0.00    -0.237 OA
ATOM     91  O   UNL     1       4.448 -13.979  -0.015  1.00  0.00    -0.744 OA
ENDBRANCH  87  88
ENDBRANCH  55  80
BRANCH  67  92
ATOM     92  C   UNL     1      14.223 -10.699   5.284  1.00  0.00     0.058 A 
ATOM     93  C   UNL     1      14.829 -10.782   4.021  1.00  0.00     0.135 A 
ATOM     94  C   UNL     1      14.861 -11.338   6.360  1.00  0.00     0.135 A 
ATOM     95  F   UNL     1      14.258 -10.195   2.957  1.00  0.00    -0.206 F 
ATOM     96  C   UNL     1      16.012 -11.490   3.828  1.00  0.00     0.059 A 
ATOM     97  C   UNL     1      16.059 -12.026   6.196  1.00  0.00     0.059 A 
ATOM     98  F   UNL     1      14.330 -11.283   7.592  1.00  0.00    -0.206 F 
ATOM     99  C   UNL     1      16.621 -12.106   4.923  1.00  0.00     0.060 A 
BRANCH  99 100
ATOM    100  S   UNL     1      18.173 -12.992   4.664  1.00  0.00     0.124 S 
ATOM    101  O   UNL     1      17.716 -14.184   3.958  1.00  0.00    -0.237 OA
ATOM    102  O   UNL     1      18.946 -12.041   3.871  1.00  0.00    -0.237 OA
ATOM    103  O   UNL     1      18.667 -13.216   6.020  1.00  0.00    -0.744 OA
ENDBRANCH  99 100
ENDBRANCH  67  92
ENDBRANCH  41  42
ENDBRANCH  33  36
ENDBRANCH  31  32
ENDBRANCH  30  31
ENDBRANCH   1  30
TORSDOF 18
