REMARK SMILES C[NH+]1CCC2(CC1)OC[C@H](C(=O)NCCCCCCNC(=O)c1ccc(-c3c4nc(c(-c5c(F)cc(S(=O)(=O)[O-])cc5F)c5ccc([nH]5)c(-c5c(F)cc(S(=O)(=O)[O-])cc5F)c5nc(c(-c6c(F)cc(S(=O)(=O)[O-])cc6F)c6ccc3[nH]6)C=C5)C=C4)cc1)N2C(=O)c1cc(C(F)(F)F)cc(C(F)(F)F)c1
REMARK SMILES IDX 16 1 15 2 14 3 13 4 11 5 12 6 10 8 1 9 2 10 3 11 7 12 4 14
REMARK SMILES IDX 6 15 5 16 8 17 89 18 9 19 90 20 91 21 92 22 93 23 105 24
REMARK SMILES IDX 94 25 100 26 99 27 95 28 96 29 97 30 98 31 101 32 102 33
REMARK SMILES IDX 103 34 104 35 17 36 18 37 19 38 20 39 21 40 22 42 23 43
REMARK SMILES IDX 24 44 88 45 25 46 87 47 26 48 27 49 28 50 81 51 29 52 86 53
REMARK SMILES IDX 80 54 82 55 30 56 85 57 79 58 78 59 31 61 65 62 44 63 64 64
REMARK SMILES IDX 45 65 48 66 63 67 83 68 46 69 47 70 62 72 84 73 49 74 32 75
REMARK SMILES IDX 33 76 42 77 34 78 35 79 41 80 43 81 36 82 37 83 38 84 39 85
REMARK SMILES IDX 40 86 66 87 67 88 76 89 68 90 69 91 75 92 77 93 70 94 71 95
REMARK SMILES IDX 72 96 73 97 74 98 50 99 51 100 60 101 52 102 53 103 59 104
REMARK SMILES IDX 61 105 54 106 55 107 56 108 57 109 58 110
REMARK H PARENT 13 7 2 13 20 41 82 60 48 71
REMARK Flexibility Score: inf
ROOT
ATOM      1  C   UNL     1      -4.540   8.141  -3.372  1.00  0.00     0.002 C 
ENDROOT
BRANCH   1   2
ATOM      2  C   UNL     1      -3.120   7.856  -3.880  1.00  0.00     0.021 C 
BRANCH   2   3
ATOM      3  C   UNL     1      -2.142   7.435  -2.786  1.00  0.00     0.116 C 
BRANCH   3   4
ATOM      4  N   UNL     1      -2.556   6.176  -2.199  1.00  0.00    -0.354 N 
ATOM      5  C   UNL     1      -1.959   4.954  -2.296  1.00  0.00     0.245 C 
ATOM      6  O   UNL     1      -2.639   3.966  -2.005  1.00  0.00    -0.273 OA
ATOM      7  H   UNL     1      -3.378   6.207  -1.657  1.00  0.00     0.163 HD
BRANCH   5   8
ATOM      8  C   UNL     1      -0.489   4.867  -2.754  1.00  0.00     0.203 C 
ATOM      9  C   UNL     1       1.216  -0.179   0.722  1.00  0.00     0.332 C 
ATOM     10  N   UNL     1       0.801   0.379  -0.557  1.00  0.00    -0.337 N 
ATOM     11  C   UNL     1      -0.459   1.113  -0.440  1.00  0.00     0.267 C 
ATOM     12  C   UNL     1       1.896   1.030  -1.279  1.00  0.00     0.267 C 
ATOM     13  H   UNL     1       0.568  -0.386  -1.191  1.00  0.00     0.347 HD
ATOM     14  C   UNL     1      -0.325   2.608  -0.322  1.00  0.00     0.120 C 
ATOM     15  C   UNL     1       1.943   2.550  -1.325  1.00  0.00     0.120 C 
ATOM     16  C   UNL     1       0.580   3.228  -1.392  1.00  0.00     0.155 C 
ATOM     17  O   UNL     1       0.832   4.567  -0.842  1.00  0.00    -0.352 OA
ATOM     18  N   UNL     1      -0.005   3.495  -2.732  1.00  0.00    -0.295 N 
ATOM     19  C   UNL     1       0.441   5.557  -1.793  1.00  0.00     0.198 C 
BRANCH  18  20
ATOM     20  C   UNL     1      -0.201   2.793  -3.918  1.00  0.00     0.256 C 
ATOM     21  O   UNL     1      -0.700   3.313  -4.919  1.00  0.00    -0.269 OA
BRANCH  20  22
ATOM     22  C   UNL     1       0.230   1.405  -4.117  1.00  0.00     0.041 A 
ATOM     23  C   UNL     1       1.348   1.131  -4.916  1.00  0.00     0.027 A 
ATOM     24  C   UNL     1      -0.545   0.357  -3.630  1.00  0.00     0.027 A 
ATOM     25  C   UNL     1       1.774  -0.197  -5.103  1.00  0.00     0.057 A 
ATOM     26  C   UNL     1      -0.062  -0.957  -3.675  1.00  0.00     0.057 A 
ATOM     27  C   UNL     1       1.089  -1.227  -4.434  1.00  0.00     0.026 A 
BRANCH  25  28
ATOM     28  C   UNL     1       2.951  -0.505  -5.997  1.00  0.00     0.416 C 
ATOM     29  F   UNL     1       2.695  -0.239  -7.306  1.00  0.00    -0.166 F 
ATOM     30  F   UNL     1       4.058   0.217  -5.671  1.00  0.00    -0.166 F 
ATOM     31  F   UNL     1       3.335  -1.812  -5.951  1.00  0.00    -0.166 F 
ENDBRANCH  25  28
BRANCH  26  32
ATOM     32  C   UNL     1      -0.705  -2.047  -2.850  1.00  0.00     0.416 C 
ATOM     33  F   UNL     1      -1.198  -3.058  -3.616  1.00  0.00    -0.166 F 
ATOM     34  F   UNL     1       0.179  -2.636  -1.994  1.00  0.00    -0.166 F 
ATOM     35  F   UNL     1      -1.743  -1.620  -2.079  1.00  0.00    -0.166 F 
ENDBRANCH  26  32
ENDBRANCH  20  22
ENDBRANCH  18  20
ENDBRANCH   5   8
ENDBRANCH   3   4
ENDBRANCH   2   3
ENDBRANCH   1   2
BRANCH   1  36
ATOM     36  C   UNL     1      -4.636   9.236  -2.305  1.00  0.00     0.002 C 
BRANCH  36  37
ATOM     37  C   UNL     1      -4.047  10.587  -2.714  1.00  0.00     0.021 C 
BRANCH  37  38
ATOM     38  C   UNL     1      -4.644  11.183  -3.985  1.00  0.00     0.116 C 
BRANCH  38  39
ATOM     39  N   UNL     1      -6.063  11.464  -3.845  1.00  0.00    -0.352 N 
ATOM     40  C   UNL     1      -6.751  12.626  -4.095  1.00  0.00     0.251 C 
ATOM     41  H   UNL     1      -6.611  10.711  -3.525  1.00  0.00     0.163 HD
ATOM     42  O   UNL     1      -7.918  12.732  -3.736  1.00  0.00    -0.269 OA
BRANCH  40  43
ATOM     43  C   UNL     1      -6.074  13.754  -4.774  1.00  0.00     0.039 A 
ATOM     44  C   UNL     1      -6.272  15.048  -4.287  1.00  0.00     0.014 A 
ATOM     45  C   UNL     1      -5.255  13.543  -5.888  1.00  0.00     0.014 A 
ATOM     46  C   UNL     1      -5.602  16.121  -4.878  1.00  0.00     0.010 A 
ATOM     47  C   UNL     1      -4.529  14.603  -6.427  1.00  0.00     0.010 A 
ATOM     48  C   UNL     1      -4.695  15.904  -5.930  1.00  0.00    -0.014 A 
BRANCH  48  49
ATOM     49  C   UNL     1      -3.905  17.027  -6.502  1.00  0.00     0.031 A 
ATOM     50  C   UNL     1      -4.080  17.429  -7.942  1.00  0.00     0.074 A 
ATOM     51  C   UNL     1      -2.993  17.653  -5.731  1.00  0.00     0.049 A 
ATOM     52  N   UNL     1      -3.465  18.366  -8.616  1.00  0.00    -0.248 NA
ATOM     53  C   UNL     1      -5.058  16.666  -8.735  1.00  0.00     0.031 C 
ATOM     54  C   UNL     1      -2.695  17.323  -4.335  1.00  0.00     0.029 A 
ATOM     55  N   UNL     1      -2.145  18.697  -6.010  1.00  0.00    -0.354 N 
ATOM     56  C   UNL     1      -3.967  18.298  -9.911  1.00  0.00     0.074 A 
ATOM     57  C   UNL     1      -4.903  17.195  -9.941  1.00  0.00     0.031 C 
ATOM     58  C   UNL     1      -1.761  18.168  -3.871  1.00  0.00     0.029 A 
ATOM     59  C   UNL     1      -1.360  19.072  -4.944  1.00  0.00     0.049 A 
ATOM     60  H   UNL     1      -2.103  19.135  -6.890  1.00  0.00     0.167 HD
ATOM     61  C   UNL     1      -3.689  19.094 -10.971  1.00  0.00     0.037 A 
ATOM     62  C   UNL     1      -0.421  20.033  -4.842  1.00  0.00     0.037 A 
ATOM     63  C   UNL     1      -2.775  20.206 -10.926  1.00  0.00     0.049 A 
ATOM     64  C   UNL     1      -0.126  20.896  -6.039  1.00  0.00     0.074 A 
ATOM     65  C   UNL     1      -2.481  21.118 -11.926  1.00  0.00     0.029 A 
ATOM     66  N   UNL     1      -2.000  20.555  -9.829  1.00  0.00    -0.354 N 
ATOM     67  N   UNL     1      -0.671  20.869  -7.232  1.00  0.00    -0.248 NA
ATOM     68  C   UNL     1       0.910  21.925  -5.876  1.00  0.00     0.031 C 
ATOM     69  C   UNL     1      -1.485  21.979 -11.455  1.00  0.00     0.029 A 
ATOM     70  C   UNL     1      -1.203  21.646 -10.140  1.00  0.00     0.049 A 
ATOM     71  H   UNL     1      -2.013  20.095  -8.959  1.00  0.00     0.167 HD
ATOM     72  C   UNL     1      -0.068  21.896  -7.950  1.00  0.00     0.074 A 
ATOM     73  C   UNL     1       0.872  22.535  -7.052  1.00  0.00     0.031 C 
ATOM     74  C   UNL     1      -0.274  22.277  -9.235  1.00  0.00     0.037 A 
BRANCH  61  75
ATOM     75  C   UNL     1      -4.377  18.797 -12.277  1.00  0.00     0.058 A 
ATOM     76  C   UNL     1      -5.752  19.015 -12.458  1.00  0.00     0.135 A 
ATOM     77  C   UNL     1      -3.638  18.343 -13.382  1.00  0.00     0.135 A 
ATOM     78  F   UNL     1      -6.512  19.434 -11.433  1.00  0.00    -0.206 F 
ATOM     79  C   UNL     1      -6.374  18.773 -13.679  1.00  0.00     0.059 A 
ATOM     80  C   UNL     1      -4.233  18.124 -14.621  1.00  0.00     0.059 A 
ATOM     81  F   UNL     1      -2.320  18.117 -13.267  1.00  0.00    -0.206 F 
ATOM     82  C   UNL     1      -5.604  18.331 -14.757  1.00  0.00     0.060 A 
BRANCH  82  83
ATOM     83  S   UNL     1      -6.424  18.043 -16.339  1.00  0.00     0.124 S 
ATOM     84  O   UNL     1      -7.197  16.839 -16.052  1.00  0.00    -0.237 OA
ATOM     85  O   UNL     1      -7.198  19.267 -16.515  1.00  0.00    -0.237 OA
ATOM     86  O   UNL     1      -5.314  17.867 -17.271  1.00  0.00    -0.744 OA
ENDBRANCH  82  83
ENDBRANCH  61  75
BRANCH  62  87
ATOM     87  C   UNL     1       0.297  20.247  -3.556  1.00  0.00     0.058 A 
ATOM     88  C   UNL     1       0.101  21.417  -2.807  1.00  0.00     0.135 A 
ATOM     89  C   UNL     1       1.199  19.295  -3.054  1.00  0.00     0.135 A 
ATOM     90  F   UNL     1      -0.746  22.360  -3.246  1.00  0.00    -0.206 F 
ATOM     91  C   UNL     1       0.792  21.649  -1.621  1.00  0.00     0.059 A 
ATOM     92  C   UNL     1       1.879  19.491  -1.856  1.00  0.00     0.059 A 
ATOM     93  F   UNL     1       1.411  18.150  -3.722  1.00  0.00    -0.206 F 
ATOM     94  C   UNL     1       1.679  20.679  -1.154  1.00  0.00     0.060 A 
BRANCH  94  95
ATOM     95  S   UNL     1       2.549  20.977   0.400  1.00  0.00     0.124 S 
ATOM     96  O   UNL     1       3.502  22.008   0.010  1.00  0.00    -0.237 OA
ATOM     97  O   UNL     1       1.465  21.406   1.279  1.00  0.00    -0.237 OA
ATOM     98  O   UNL     1       3.123  19.673   0.718  1.00  0.00    -0.744 OA
ENDBRANCH  94  95
ENDBRANCH  62  87
BRANCH  74  99
ATOM     99  C   UNL     1       0.504  23.462  -9.739  1.00  0.00     0.058 A 
ATOM    100  C   UNL     1       1.887  23.397  -9.973  1.00  0.00     0.135 A 
ATOM    101  C   UNL     1      -0.151  24.671 -10.030  1.00  0.00     0.135 A 
ATOM    102  F   UNL     1       2.565  22.268  -9.707  1.00  0.00    -0.206 F 
ATOM    103  C   UNL     1       2.598  24.496 -10.444  1.00  0.00     0.059 A 
ATOM    104  C   UNL     1       0.534  25.772 -10.533  1.00  0.00     0.059 A 
ATOM    105  F   UNL     1      -1.474  24.786  -9.836  1.00  0.00    -0.206 F 
ATOM    106  C   UNL     1       1.912  25.679 -10.723  1.00  0.00     0.060 A 
BRANCH 106 107
ATOM    107  S   UNL     1       2.843  27.090 -11.355  1.00  0.00     0.124 S 
ATOM    108  O   UNL     1       3.570  27.520 -10.165  1.00  0.00    -0.237 OA
ATOM    109  O   UNL     1       3.652  26.484 -12.407  1.00  0.00    -0.237 OA
ATOM    110  O   UNL     1       1.804  28.004 -11.819  1.00  0.00    -0.744 OA
ENDBRANCH 106 107
ENDBRANCH  74  99
ENDBRANCH  48  49
ENDBRANCH  40  43
ENDBRANCH  38  39
ENDBRANCH  37  38
ENDBRANCH  36  37
ENDBRANCH   1  36
TORSDOF 20
