REMARK SMILES C[N@H+](CC(=O)NCCCCCCNC(=O)c1ccc(-c2c3nc(c(-c4c(F)cc(S(=O)(=O)[O-])cc4F)c4ccc([nH]4)c(-c4c(F)cc(S(=O)(=O)[O-])cc4F)c4nc(c(-c5c(F)cc(S(=O)(=O)[O-])cc5F)c5ccc2[nH]5)C=C4)C=C3)cc1)Cc1csc(-c2ccco2)n1
REMARK SMILES IDX 9 1 8 2 7 3 6 4 4 5 5 6 3 8 2 9 1 10 82 12 83 13 84 14 92 15
REMARK SMILES IDX 85 16 86 17 87 18 88 19 91 20 89 21 90 22 10 23 11 24 12 25
REMARK SMILES IDX 13 26 14 27 15 29 16 30 17 31 81 32 18 33 80 34 19 35 20 36
REMARK SMILES IDX 21 37 74 38 22 39 79 40 73 41 75 42 23 43 78 44 72 45 71 46
REMARK SMILES IDX 24 48 58 49 37 50 57 51 38 52 41 53 56 54 76 55 39 56 40 57
REMARK SMILES IDX 55 59 77 60 42 61 25 62 26 63 35 64 27 65 28 66 34 67 36 68
REMARK SMILES IDX 29 69 30 70 31 71 32 72 33 73 59 74 60 75 69 76 61 77 62 78
REMARK SMILES IDX 68 79 70 80 63 81 64 82 65 83 66 84 67 85 43 86 44 87 53 88
REMARK SMILES IDX 45 89 46 90 52 91 54 92 47 93 48 94 49 95 50 96 51 97
REMARK H PARENT 6 7 2 11 13 28 75 47 41 58
REMARK Flexibility Score: inf
ROOT
ATOM      1  C   UNL     1       0.015   3.489   1.778  1.00  0.00     0.002 C 
ENDROOT
BRANCH   1   2
ATOM      2  C   UNL     1       0.440   2.071   1.392  1.00  0.00     0.021 C 
BRANCH   2   3
ATOM      3  C   UNL     1      -0.639   0.999   1.548  1.00  0.00     0.116 C 
BRANCH   3   4
ATOM      4  N   UNL     1      -1.691   1.078   0.552  1.00  0.00    -0.351 N 
ATOM      5  C   UNL     1      -1.853   0.290  -0.556  1.00  0.00     0.275 C 
ATOM      6  O   UNL     1      -2.890   0.388  -1.217  1.00  0.00    -0.269 OA
ATOM      7  H   UNL     1      -2.368   1.780   0.689  1.00  0.00     0.163 HD
BRANCH   5   8
ATOM      8  C   UNL     1      -0.765  -0.728  -0.929  1.00  0.00     0.363 C 
BRANCH   8   9
ATOM      9  N   UNL     1       0.526  -0.053  -1.149  1.00  0.00    -0.325 N 
ATOM     10  C   UNL     1       1.663  -0.831  -0.679  1.00  0.00     0.333 C 
ATOM     11  H   UNL     1       0.479   0.783  -0.567  1.00  0.00     0.348 HD
BRANCH   9  12
ATOM     12  C   UNL     1       0.721   0.425  -2.527  1.00  0.00     0.320 C 
BRANCH  12  13
ATOM     13  C   UNL     1       0.200   1.826  -2.677  1.00  0.00     0.106 A 
ATOM     14  C   UNL     1      -1.088   2.201  -3.017  1.00  0.00     0.097 A 
ATOM     15  N   UNL     1       1.078   2.895  -2.506  1.00  0.00    -0.232 NA
ATOM     16  S   UNL     1      -1.254   3.902  -2.939  1.00  0.00    -0.119 S 
ATOM     17  C   UNL     1       0.420   4.030  -2.595  1.00  0.00     0.159 A 
BRANCH  17  18
ATOM     18  C   UNL     1       1.048   5.312  -2.512  1.00  0.00     0.162 A 
ATOM     19  C   UNL     1       1.844   5.926  -3.466  1.00  0.00     0.053 A 
ATOM     20  O   UNL     1       0.896   6.166  -1.449  1.00  0.00    -0.462 OA
ATOM     21  C   UNL     1       2.172   7.211  -2.972  1.00  0.00     0.043 A 
ATOM     22  C   UNL     1       1.588   7.299  -1.732  1.00  0.00     0.196 A 
ENDBRANCH  17  18
ENDBRANCH  12  13
ENDBRANCH   9  12
ENDBRANCH   8   9
ENDBRANCH   5   8
ENDBRANCH   3   4
ENDBRANCH   2   3
ENDBRANCH   1   2
BRANCH   1  23
ATOM     23  C   UNL     1      -0.552   3.653   3.191  1.00  0.00     0.002 C 
BRANCH  23  24
ATOM     24  C   UNL     1       0.285   3.053   4.326  1.00  0.00     0.021 C 
BRANCH  24  25
ATOM     25  C   UNL     1       1.717   3.572   4.435  1.00  0.00     0.116 C 
BRANCH  25  26
ATOM     26  N   UNL     1       1.767   4.995   4.721  1.00  0.00    -0.352 N 
ATOM     27  C   UNL     1       2.335   5.669   5.772  1.00  0.00     0.251 C 
ATOM     28  H   UNL     1       1.323   5.566   4.054  1.00  0.00     0.163 HD
ATOM     29  O   UNL     1       2.098   6.866   5.917  1.00  0.00    -0.269 OA
BRANCH  27  30
ATOM     30  C   UNL     1       3.215   4.974   6.742  1.00  0.00     0.039 A 
ATOM     31  C   UNL     1       3.089   5.287   8.099  1.00  0.00     0.014 A 
ATOM     32  C   UNL     1       4.194   4.065   6.329  1.00  0.00     0.014 A 
ATOM     33  C   UNL     1       3.906   4.655   9.041  1.00  0.00     0.010 A 
ATOM     34  C   UNL     1       4.967   3.389   7.277  1.00  0.00     0.010 A 
ATOM     35  C   UNL     1       4.835   3.680   8.642  1.00  0.00    -0.014 A 
BRANCH  35  36
ATOM     36  C   UNL     1       5.658   2.961   9.651  1.00  0.00     0.031 A 
ATOM     37  C   UNL     1       7.152   3.140   9.696  1.00  0.00     0.074 A 
ATOM     38  C   UNL     1       5.057   2.112  10.509  1.00  0.00     0.049 A 
ATOM     39  N   UNL     1       8.024   2.596  10.506  1.00  0.00    -0.248 NA
ATOM     40  C   UNL     1       7.747   4.029   8.687  1.00  0.00     0.031 C 
ATOM     41  C   UNL     1       3.626   1.802  10.528  1.00  0.00     0.029 A 
ATOM     42  N   UNL     1       5.574   1.351  11.528  1.00  0.00    -0.354 N 
ATOM     43  C   UNL     1       9.268   3.065  10.101  1.00  0.00     0.074 A 
ATOM     44  C   UNL     1       9.042   3.904   8.943  1.00  0.00     0.031 C 
ATOM     45  C   UNL     1       3.376   0.936  11.523  1.00  0.00     0.029 A 
ATOM     46  C   UNL     1       4.628   0.609  12.197  1.00  0.00     0.049 A 
ATOM     47  H   UNL     1       6.530   1.338  11.759  1.00  0.00     0.167 HD
ATOM     48  C   UNL     1      10.484   2.836  10.654  1.00  0.00     0.037 A 
ATOM     49  C   UNL     1       4.754  -0.236  13.238  1.00  0.00     0.037 A 
ATOM     50  C   UNL     1      10.703   2.024  11.823  1.00  0.00     0.049 A 
ATOM     51  C   UNL     1       6.108  -0.445  13.857  1.00  0.00     0.074 A 
ATOM     52  C   UNL     1      11.888   1.788  12.499  1.00  0.00     0.029 A 
ATOM     53  N   UNL     1       9.716   1.313  12.492  1.00  0.00    -0.354 N 
ATOM     54  N   UNL     1       7.263   0.068  13.505  1.00  0.00    -0.248 NA
ATOM     55  C   UNL     1       6.175  -1.336  15.024  1.00  0.00     0.031 C 
ATOM     56  C   UNL     1      11.624   0.907  13.555  1.00  0.00     0.029 A 
ATOM     57  C   UNL     1      10.268   0.626  13.561  1.00  0.00     0.049 A 
ATOM     58  H   UNL     1       8.764   1.300  12.242  1.00  0.00     0.167 HD
ATOM     59  C   UNL     1       8.191  -0.424  14.416  1.00  0.00     0.074 A 
ATOM     60  C   UNL     1       7.458  -1.258  15.348  1.00  0.00     0.031 C 
ATOM     61  C   UNL     1       9.528  -0.206  14.477  1.00  0.00     0.037 A 
BRANCH  48  62
ATOM     62  C   UNL     1      11.678   3.482  10.006  1.00  0.00     0.058 A 
ATOM     63  C   UNL     1      11.907   4.865  10.098  1.00  0.00     0.135 A 
ATOM     64  C   UNL     1      12.628   2.707   9.322  1.00  0.00     0.135 A 
ATOM     65  F   UNL     1      11.024   5.655  10.729  1.00  0.00    -0.206 F 
ATOM     66  C   UNL     1      13.020   5.459   9.512  1.00  0.00     0.059 A 
ATOM     67  C   UNL     1      13.763   3.277   8.750  1.00  0.00     0.059 A 
ATOM     68  F   UNL     1      12.460   1.380   9.204  1.00  0.00    -0.206 F 
ATOM     69  C   UNL     1      13.943   4.657   8.839  1.00  0.00     0.060 A 
BRANCH  69  70
ATOM     70  S   UNL     1      15.387   5.441   8.092  1.00  0.00     0.124 S 
ATOM     71  O   UNL     1      14.798   6.079   6.920  1.00  0.00    -0.237 OA
ATOM     72  O   UNL     1      15.835   6.344   9.147  1.00  0.00    -0.237 OA
ATOM     73  O   UNL     1      16.278   4.318   7.814  1.00  0.00    -0.744 OA
ENDBRANCH  69  70
ENDBRANCH  48  62
BRANCH  49  74
ATOM     74  C   UNL     1       3.554  -0.925  13.781  1.00  0.00     0.058 A 
ATOM     75  C   UNL     1       3.009  -0.559  15.020  1.00  0.00     0.135 A 
ATOM     76  C   UNL     1       2.921  -1.953  13.065  1.00  0.00     0.135 A 
ATOM     77  F   UNL     1       3.583   0.415  15.743  1.00  0.00    -0.206 F 
ATOM     78  C   UNL     1       1.888  -1.197  15.541  1.00  0.00     0.059 A 
ATOM     79  C   UNL     1       1.785  -2.591  13.554  1.00  0.00     0.059 A 
ATOM     80  F   UNL     1       3.394  -2.328  11.867  1.00  0.00    -0.206 F 
ATOM     81  C   UNL     1       1.282  -2.212  14.798  1.00  0.00     0.060 A 
BRANCH  81  82
ATOM     82  S   UNL     1      -0.203  -3.002  15.456  1.00  0.00     0.124 S 
ATOM     83  O   UNL     1       0.358  -3.878  16.478  1.00  0.00    -0.237 OA
ATOM     84  O   UNL     1      -0.970  -1.859  15.944  1.00  0.00    -0.237 OA
ATOM     85  O   UNL     1      -0.769  -3.672  14.289  1.00  0.00    -0.744 OA
ENDBRANCH  81  82
ENDBRANCH  49  74
BRANCH  61  86
ATOM     86  C   UNL     1      10.279  -0.867  15.599  1.00  0.00     0.058 A 
ATOM     87  C   UNL     1      10.527  -2.248  15.604  1.00  0.00     0.135 A 
ATOM     88  C   UNL     1      10.770  -0.108  16.673  1.00  0.00     0.135 A 
ATOM     89  F   UNL     1      10.074  -3.020  14.603  1.00  0.00    -0.206 F 
ATOM     90  C   UNL     1      11.204  -2.861  16.653  1.00  0.00     0.059 A 
ATOM     91  C   UNL     1      11.472  -0.695  17.720  1.00  0.00     0.059 A 
ATOM     92  F   UNL     1      10.570   1.219  16.711  1.00  0.00    -0.206 F 
ATOM     93  C   UNL     1      11.668  -2.076  17.710  1.00  0.00     0.060 A 
BRANCH  93  94
ATOM     94  S   UNL     1      12.550  -2.878  19.067  1.00  0.00     0.124 S 
ATOM     95  O   UNL     1      11.450  -3.476  19.817  1.00  0.00    -0.237 OA
ATOM     96  O   UNL     1      13.422  -3.816  18.366  1.00  0.00    -0.237 OA
ATOM     97  O   UNL     1      13.233  -1.771  19.728  1.00  0.00    -0.744 OA
ENDBRANCH  93  94
ENDBRANCH  61  86
ENDBRANCH  35  36
ENDBRANCH  27  30
ENDBRANCH  25  26
ENDBRANCH  24  25
ENDBRANCH  23  24
ENDBRANCH   1  23
TORSDOF 20
