REMARK SMILES CC(C)Cc1cc2c(cc1Cl)C=C(C(=O)NCCCCCCNC(=O)c1ccc(-c3c4nc(c(-c5c(F)cc(S(=O)(=O)[O-])cc5F)c5ccc([nH]5)c(-c5c(F)cc(S(=O)(=O)[O-])cc5F)c5nc(c(-c6c(F)cc(S(=O)(=O)[O-])cc6F)c6ccc3[nH]6)C=C5)C=C4)cc1)[C@@H](C(F)(F)F)O2
REMARK SMILES IDX 20 1 19 2 18 3 17 4 16 5 14 6 15 7 13 9 5 10 6 11 10 12 7 13
REMARK SMILES IDX 9 14 11 15 8 16 97 17 12 18 92 19 4 20 2 21 1 22 3 23 93 24
REMARK SMILES IDX 94 25 95 26 96 27 21 28 22 29 23 30 24 31 25 33 26 34 27 35
REMARK SMILES IDX 91 36 28 37 90 38 29 39 30 40 31 41 84 42 32 43 89 44 83 45
REMARK SMILES IDX 85 46 33 47 88 48 82 49 81 50 34 52 68 53 47 54 67 55 48 56
REMARK SMILES IDX 51 57 66 58 86 59 49 60 50 61 65 63 87 64 52 65 35 66 36 67
REMARK SMILES IDX 45 68 37 69 38 70 44 71 46 72 39 73 40 74 41 75 42 76 43 77
REMARK SMILES IDX 69 78 70 79 79 80 71 81 72 82 78 83 80 84 73 85 74 86 75 87
REMARK SMILES IDX 76 88 77 89 53 90 54 91 63 92 55 93 56 94 62 95 64 96 57 97
REMARK SMILES IDX 58 98 59 99 60 100 61 101
REMARK H PARENT 16 8 23 32 85 51 51 62
REMARK Flexibility Score: inf
ROOT
ATOM      1  C   UNL     1      -5.242   1.714  10.182  1.00  0.00     0.002 C 
ENDROOT
BRANCH   1   2
ATOM      2  C   UNL     1      -3.774   1.942   9.797  1.00  0.00     0.002 C 
BRANCH   2   3
ATOM      3  C   UNL     1      -3.344   1.362   8.445  1.00  0.00     0.021 C 
BRANCH   3   4
ATOM      4  C   UNL     1      -4.170   1.851   7.259  1.00  0.00     0.116 C 
BRANCH   4   5
ATOM      5  N   UNL     1      -3.716   3.147   6.781  1.00  0.00    -0.352 N 
ATOM      6  C   UNL     1      -3.257   3.676   5.624  1.00  0.00     0.251 C 
ATOM      7  O   UNL     1      -3.011   4.887   5.666  1.00  0.00    -0.270 OA
ATOM      8  H   UNL     1      -3.752   3.824   7.495  1.00  0.00     0.163 HD
BRANCH   6   9
ATOM      9  C   UNL     1      -3.025   2.924   4.353  1.00  0.00     0.067 C 
ATOM     10  C   UNL     1      -1.361   1.589  -0.235  1.00  0.00    -0.025 A 
ATOM     11  C   UNL     1      -1.917   0.901   0.855  1.00  0.00     0.052 A 
ATOM     12  C   UNL     1      -1.237   2.984  -0.149  1.00  0.00     0.045 A 
ATOM     13  C   UNL     1      -2.293   1.583   2.009  1.00  0.00     0.128 A 
ATOM     14  C   UNL     1      -1.615   3.664   1.016  1.00  0.00     0.032 A 
ATOM     15  Cl  UNL     1      -0.595   3.924  -1.450  1.00  0.00    -0.084 Cl
ATOM     16  C   UNL     1      -2.127   2.960   2.108  1.00  0.00     0.019 A 
ATOM     17  O   UNL     1      -2.754   0.814   3.034  1.00  0.00    -0.475 OA
ATOM     18  C   UNL     1      -2.417   3.621   3.373  1.00  0.00     0.025 C 
ATOM     19  C   UNL     1      -3.442   1.498   4.115  1.00  0.00     0.314 C 
BRANCH  10  20
ATOM     20  C   UNL     1      -0.855   0.775  -1.405  1.00  0.00     0.040 C 
BRANCH  20  21
ATOM     21  C   UNL     1       0.671   0.542  -1.375  1.00  0.00    -0.013 C 
ATOM     22  C   UNL     1       1.135  -0.197  -0.115  1.00  0.00     0.008 C 
ATOM     23  C   UNL     1       1.097  -0.248  -2.614  1.00  0.00     0.008 C 
ENDBRANCH  20  21
ENDBRANCH  10  20
BRANCH  19  24
ATOM     24  C   UNL     1      -4.961   1.359   3.910  1.00  0.00     0.429 C 
ATOM     25  F   UNL     1      -5.336   0.060   3.992  1.00  0.00    -0.167 F 
ATOM     26  F   UNL     1      -5.671   2.026   4.849  1.00  0.00    -0.167 F 
ATOM     27  F   UNL     1      -5.362   1.826   2.706  1.00  0.00    -0.167 F 
ENDBRANCH  19  24
ENDBRANCH   6   9
ENDBRANCH   4   5
ENDBRANCH   3   4
ENDBRANCH   2   3
ENDBRANCH   1   2
BRANCH   1  28
ATOM     28  C   UNL     1      -5.758   0.281  10.029  1.00  0.00     0.021 C 
BRANCH  28  29
ATOM     29  C   UNL     1      -4.981  -0.775  10.806  1.00  0.00     0.116 C 
BRANCH  29  30
ATOM     30  N   UNL     1      -5.054  -0.579  12.245  1.00  0.00    -0.352 N 
ATOM     31  C   UNL     1      -5.398  -1.481  13.224  1.00  0.00     0.251 C 
ATOM     32  H   UNL     1      -4.825   0.325  12.562  1.00  0.00     0.163 HD
ATOM     33  O   UNL     1      -5.542  -1.109  14.384  1.00  0.00    -0.269 OA
BRANCH  31  34
ATOM     34  C   UNL     1      -5.630  -2.894  12.859  1.00  0.00     0.039 A 
ATOM     35  C   UNL     1      -4.706  -3.587  12.072  1.00  0.00     0.014 A 
ATOM     36  C   UNL     1      -6.809  -3.516  13.275  1.00  0.00     0.014 A 
ATOM     37  C   UNL     1      -5.031  -4.847  11.576  1.00  0.00     0.010 A 
ATOM     38  C   UNL     1      -7.103  -4.807  12.830  1.00  0.00     0.010 A 
ATOM     39  C   UNL     1      -6.239  -5.463  11.938  1.00  0.00    -0.014 A 
BRANCH  39  40
ATOM     40  C   UNL     1      -6.607  -6.778  11.352  1.00  0.00     0.031 A 
ATOM     41  C   UNL     1      -7.786  -6.891  10.423  1.00  0.00     0.074 A 
ATOM     42  C   UNL     1      -5.862  -7.864  11.631  1.00  0.00     0.049 A 
ATOM     43  N   UNL     1      -8.299  -7.958   9.864  1.00  0.00    -0.248 NA
ATOM     44  C   UNL     1      -8.483  -5.642  10.076  1.00  0.00     0.031 C 
ATOM     45  C   UNL     1      -4.681  -7.877  12.496  1.00  0.00     0.029 A 
ATOM     46  N   UNL     1      -5.981  -9.163  11.209  1.00  0.00    -0.354 N 
ATOM     47  C   UNL     1      -9.389  -7.516   9.124  1.00  0.00     0.074 A 
ATOM     48  C   UNL     1      -9.477  -6.085   9.318  1.00  0.00     0.031 C 
ATOM     49  C   UNL     1      -4.165  -9.115  12.515  1.00  0.00     0.029 A 
ATOM     50  C   UNL     1      -5.011  -9.995  11.714  1.00  0.00     0.049 A 
ATOM     51  H   UNL     1      -6.692  -9.470  10.602  1.00  0.00     0.167 HD
ATOM     52  C   UNL     1     -10.234  -8.237   8.348  1.00  0.00     0.037 A 
ATOM     53  C   UNL     1      -4.835 -11.322  11.571  1.00  0.00     0.037 A 
ATOM     54  C   UNL     1     -10.129  -9.658   8.139  1.00  0.00     0.049 A 
ATOM     55  C   UNL     1      -5.811 -12.106  10.742  1.00  0.00     0.074 A 
ATOM     56  C   UNL     1     -10.925 -10.476   7.355  1.00  0.00     0.029 A 
ATOM     57  N   UNL     1      -9.165 -10.474   8.713  1.00  0.00    -0.354 N 
ATOM     58  N   UNL     1      -6.851 -11.676  10.069  1.00  0.00    -0.248 NA
ATOM     59  C   UNL     1      -5.598 -13.557  10.665  1.00  0.00     0.031 C 
ATOM     60  C   UNL     1     -10.462 -11.791   7.482  1.00  0.00     0.029 A 
ATOM     61  C   UNL     1      -9.356 -11.787   8.316  1.00  0.00     0.049 A 
ATOM     62  H   UNL     1      -8.449 -10.164   9.315  1.00  0.00     0.167 HD
ATOM     63  C   UNL     1      -7.422 -12.805   9.494  1.00  0.00     0.074 A 
ATOM     64  C   UNL     1      -6.594 -13.932   9.874  1.00  0.00     0.031 C 
ATOM     65  C   UNL     1      -8.536 -12.900   8.726  1.00  0.00     0.037 A 
BRANCH  52  66
ATOM     66  C   UNL     1     -11.362  -7.501   7.680  1.00  0.00     0.058 A 
ATOM     67  C   UNL     1     -11.145  -6.666   6.573  1.00  0.00     0.135 A 
ATOM     68  C   UNL     1     -12.682  -7.658   8.133  1.00  0.00     0.135 A 
ATOM     69  F   UNL     1      -9.901  -6.466   6.111  1.00  0.00    -0.206 F 
ATOM     70  C   UNL     1     -12.194  -5.993   5.954  1.00  0.00     0.059 A 
ATOM     71  C   UNL     1     -13.749  -7.012   7.516  1.00  0.00     0.059 A 
ATOM     72  F   UNL     1     -12.945  -8.444   9.190  1.00  0.00    -0.206 F 
ATOM     73  C   UNL     1     -13.493  -6.170   6.434  1.00  0.00     0.060 A 
BRANCH  73  74
ATOM     74  S   UNL     1     -14.842  -5.286   5.622  1.00  0.00     0.124 S 
ATOM     75  O   UNL     1     -14.612  -3.920   6.082  1.00  0.00    -0.237 OA
ATOM     76  O   UNL     1     -14.571  -5.533   4.210  1.00  0.00    -0.237 OA
ATOM     77  O   UNL     1     -16.039  -5.933   6.150  1.00  0.00    -0.744 OA
ENDBRANCH  73  74
ENDBRANCH  52  66
BRANCH  53  78
ATOM     78  C   UNL     1      -3.693 -11.986  12.249  1.00  0.00     0.058 A 
ATOM     79  C   UNL     1      -2.586 -12.437  11.518  1.00  0.00     0.135 A 
ATOM     80  C   UNL     1      -3.665 -12.134  13.645  1.00  0.00     0.135 A 
ATOM     81  F   UNL     1      -2.574 -12.325  10.181  1.00  0.00    -0.206 F 
ATOM     82  C   UNL     1      -1.484 -13.007  12.147  1.00  0.00     0.059 A 
ATOM     83  C   UNL     1      -2.566 -12.680  14.298  1.00  0.00     0.059 A 
ATOM     84  F   UNL     1      -4.698 -11.706  14.387  1.00  0.00    -0.206 F 
ATOM     85  C   UNL     1      -1.480 -13.115  13.540  1.00  0.00     0.060 A 
BRANCH  85  86
ATOM     86  S   UNL     1      -0.008 -13.774  14.352  1.00  0.00     0.124 S 
ATOM     87  O   UNL     1      -0.116 -15.196  14.049  1.00  0.00    -0.237 OA
ATOM     88  O   UNL     1       1.065 -13.055  13.671  1.00  0.00    -0.237 OA
ATOM     89  O   UNL     1      -0.206 -13.408  15.752  1.00  0.00    -0.744 OA
ENDBRANCH  85  86
ENDBRANCH  53  78
BRANCH  65  90
ATOM     90  C   UNL     1      -8.926 -14.274   8.260  1.00  0.00     0.058 A 
ATOM     91  C   UNL     1      -9.509 -15.201   9.138  1.00  0.00     0.135 A 
ATOM     92  C   UNL     1      -8.737 -14.660   6.924  1.00  0.00     0.135 A 
ATOM     93  F   UNL     1      -9.703 -14.882  10.427  1.00  0.00    -0.206 F 
ATOM     94  C   UNL     1      -9.866 -16.476   8.713  1.00  0.00     0.059 A 
ATOM     95  C   UNL     1      -9.107 -15.922   6.472  1.00  0.00     0.059 A 
ATOM     96  F   UNL     1      -8.191 -13.805   6.044  1.00  0.00    -0.206 F 
ATOM     97  C   UNL     1      -9.658 -16.828   7.378  1.00  0.00     0.060 A 
BRANCH  97  98
ATOM     98  S   UNL     1     -10.135 -18.483   6.835  1.00  0.00     0.124 S 
ATOM     99  O   UNL     1      -9.062 -19.296   7.397  1.00  0.00    -0.237 OA
ATOM    100  O   UNL     1     -11.447 -18.650   7.452  1.00  0.00    -0.237 OA
ATOM    101  O   UNL     1     -10.144 -18.372   5.379  1.00  0.00    -0.744 OA
ENDBRANCH  97  98
ENDBRANCH  65  90
ENDBRANCH  39  40
ENDBRANCH  31  34
ENDBRANCH  29  30
ENDBRANCH  28  29
ENDBRANCH   1  28
TORSDOF 19
