REMARK SMILES O=C(NCCCCCCNC(=O)[C@@H]1CS[C@H](c2ncc(-c3ccccc3)s2)[NH2+]1)c1ccc(-c2c3nc(c(-c4c(F)cc(S(=O)(=O)[O-])cc4F)c4ccc([nH]4)c(-c4c(F)cc(S(=O)(=O)[O-])cc4F)c4nc(c(-c5c(F)cc(S(=O)(=O)[O-])cc5F)c5ccc2[nH]5)C=C4)C=C3)cc1
REMARK SMILES IDX 6 1 5 2 4 3 3 4 1 5 2 6 29 8 30 9 94 10 31 11 93 12 32 13
REMARK SMILES IDX 33 14 34 15 87 16 35 17 92 18 86 19 88 20 36 21 91 22 85 23
REMARK SMILES IDX 84 24 37 26 71 27 50 28 70 29 51 30 54 31 69 32 89 33 52 34
REMARK SMILES IDX 53 35 68 37 90 38 55 39 38 40 39 41 48 42 40 43 41 44 47 45
REMARK SMILES IDX 49 46 42 47 43 48 44 49 45 50 46 51 72 52 73 53 82 54 74 55
REMARK SMILES IDX 75 56 81 57 83 58 76 59 77 60 78 61 79 62 80 63 56 64 57 65
REMARK SMILES IDX 66 66 58 67 59 68 65 69 67 70 60 71 61 72 62 73 63 74 64 75
REMARK SMILES IDX 7 76 8 77 9 78 10 79 11 80 12 82 13 83 14 84 28 85 15 86
REMARK SMILES IDX 16 87 17 90 18 91 27 92 19 93 20 94 21 95 22 96 26 97 23 98
REMARK SMILES IDX 25 99 24 100
REMARK H PARENT 3 7 88 25 54 36 10 81 28 88 28 89
REMARK Flexibility Score: inf
ROOT
ATOM      1  C   UNL     1      10.025 -12.546  -2.365  1.00  0.00     0.002 C 
ENDROOT
BRANCH   1   2
ATOM      2  C   UNL     1       9.922 -13.119  -0.951  1.00  0.00     0.021 C 
BRANCH   2   3
ATOM      3  C   UNL     1       8.787 -14.108  -0.712  1.00  0.00     0.116 C 
BRANCH   3   4
ATOM      4  N   UNL     1       8.883 -15.311  -1.522  1.00  0.00    -0.352 N 
ATOM      5  O   UNL     1       8.937 -17.524  -1.955  1.00  0.00    -0.269 OA
ATOM      6  C   UNL     1       8.729 -16.625  -1.145  1.00  0.00     0.251 C 
ATOM      7  H   UNL     1       9.086 -15.165  -2.474  1.00  0.00     0.163 HD
BRANCH   6   8
ATOM      8  C   UNL     1       8.351 -16.955   0.249  1.00  0.00     0.039 A 
ATOM      9  C   UNL     1       7.314 -16.276   0.894  1.00  0.00     0.014 A 
ATOM     10  C   UNL     1       9.061 -17.951   0.926  1.00  0.00     0.014 A 
ATOM     11  C   UNL     1       7.092 -16.484   2.253  1.00  0.00     0.010 A 
ATOM     12  C   UNL     1       8.784 -18.212   2.272  1.00  0.00     0.010 A 
ATOM     13  C   UNL     1       7.827 -17.450   2.959  1.00  0.00    -0.014 A 
BRANCH  13  14
ATOM     14  C   UNL     1       7.565 -17.655   4.408  1.00  0.00     0.031 A 
ATOM     15  C   UNL     1       8.613 -17.331   5.440  1.00  0.00     0.074 A 
ATOM     16  C   UNL     1       6.355 -18.103   4.796  1.00  0.00     0.049 A 
ATOM     17  N   UNL     1       8.535 -17.406   6.745  1.00  0.00    -0.248 NA
ATOM     18  C   UNL     1       9.920 -16.872   4.946  1.00  0.00     0.031 C 
ATOM     19  C   UNL     1       5.262 -18.465   3.891  1.00  0.00     0.029 A 
ATOM     20  N   UNL     1       5.832 -18.309   6.047  1.00  0.00    -0.354 N 
ATOM     21  C   UNL     1       9.785 -17.033   7.227  1.00  0.00     0.074 A 
ATOM     22  C   UNL     1      10.610 -16.748   6.072  1.00  0.00     0.031 C 
ATOM     23  C   UNL     1       4.183 -18.798   4.615  1.00  0.00     0.029 A 
ATOM     24  C   UNL     1       4.520 -18.721   6.033  1.00  0.00     0.049 A 
ATOM     25  H   UNL     1       6.346 -18.175   6.876  1.00  0.00     0.167 HD
ATOM     26  C   UNL     1      10.204 -16.931   8.512  1.00  0.00     0.037 A 
ATOM     27  C   UNL     1       3.680 -19.006   7.046  1.00  0.00     0.037 A 
ATOM     28  C   UNL     1       9.371 -17.188   9.660  1.00  0.00     0.049 A 
ATOM     29  C   UNL     1       4.164 -18.870   8.460  1.00  0.00     0.074 A 
ATOM     30  C   UNL     1       9.692 -17.070  11.002  1.00  0.00     0.029 A 
ATOM     31  N   UNL     1       8.052 -17.615   9.603  1.00  0.00    -0.354 N 
ATOM     32  N   UNL     1       5.339 -18.483   8.895  1.00  0.00    -0.248 NA
ATOM     33  C   UNL     1       3.207 -19.207   9.522  1.00  0.00     0.031 C 
ATOM     34  C   UNL     1       8.577 -17.456  11.756  1.00  0.00     0.029 A 
ATOM     35  C   UNL     1       7.550 -17.778  10.884  1.00  0.00     0.049 A 
ATOM     36  H   UNL     1       7.547 -17.778   8.774  1.00  0.00     0.167 HD
ATOM     37  C   UNL     1       5.257 -18.509  10.282  1.00  0.00     0.074 A 
ATOM     38  C   UNL     1       3.913 -18.940  10.613  1.00  0.00     0.031 C 
ATOM     39  C   UNL     1       6.208 -18.201  11.198  1.00  0.00     0.037 A 
BRANCH  26  40
ATOM     40  C   UNL     1      11.638 -16.542   8.748  1.00  0.00     0.058 A 
ATOM     41  C   UNL     1      12.095 -15.232   8.536  1.00  0.00     0.135 A 
ATOM     42  C   UNL     1      12.563 -17.490   9.217  1.00  0.00     0.135 A 
ATOM     43  F   UNL     1      11.257 -14.290   8.076  1.00  0.00    -0.206 F 
ATOM     44  C   UNL     1      13.426 -14.883   8.749  1.00  0.00     0.059 A 
ATOM     45  C   UNL     1      13.893 -17.157   9.459  1.00  0.00     0.059 A 
ATOM     46  F   UNL     1      12.178 -18.756   9.440  1.00  0.00    -0.206 F 
ATOM     47  C   UNL     1      14.319 -15.855   9.204  1.00  0.00     0.060 A 
BRANCH  47  48
ATOM     48  S   UNL     1      16.046 -15.394   9.461  1.00  0.00     0.124 S 
ATOM     49  O   UNL     1      16.541 -15.354   8.089  1.00  0.00    -0.237 OA
ATOM     50  O   UNL     1      15.932 -14.101  10.130  1.00  0.00    -0.237 OA
ATOM     51  O   UNL     1      16.567 -16.479  10.287  1.00  0.00    -0.744 OA
ENDBRANCH  47  48
ENDBRANCH  26  40
BRANCH  27  52
ATOM     52  C   UNL     1       2.285 -19.419   6.748  1.00  0.00     0.058 A 
ATOM     53  C   UNL     1       1.212 -18.550   6.988  1.00  0.00     0.135 A 
ATOM     54  C   UNL     1       2.003 -20.672   6.181  1.00  0.00     0.135 A 
ATOM     55  F   UNL     1       1.434 -17.344   7.532  1.00  0.00    -0.206 F 
ATOM     56  C   UNL     1      -0.096 -18.909   6.683  1.00  0.00     0.059 A 
ATOM     57  C   UNL     1       0.706 -21.044   5.845  1.00  0.00     0.059 A 
ATOM     58  F   UNL     1       3.000 -21.530   5.916  1.00  0.00    -0.206 F 
ATOM     59  C   UNL     1      -0.339 -20.158   6.107  1.00  0.00     0.060 A 
BRANCH  59  60
ATOM     60  S   UNL     1      -2.031 -20.589   5.648  1.00  0.00     0.124 S 
ATOM     61  O   UNL     1      -2.609 -20.922   6.944  1.00  0.00    -0.237 OA
ATOM     62  O   UNL     1      -2.509 -19.354   5.034  1.00  0.00    -0.237 OA
ATOM     63  O   UNL     1      -1.852 -21.708   4.728  1.00  0.00    -0.744 OA
ENDBRANCH  59  60
ENDBRANCH  27  52
BRANCH  39  64
ATOM     64  C   UNL     1       5.815 -18.284  12.645  1.00  0.00     0.058 A 
ATOM     65  C   UNL     1       5.662 -19.515  13.299  1.00  0.00     0.135 A 
ATOM     66  C   UNL     1       5.610 -17.112  13.391  1.00  0.00     0.135 A 
ATOM     67  F   UNL     1       5.839 -20.664  12.627  1.00  0.00    -0.206 F 
ATOM     68  C   UNL     1       5.292 -19.584  14.639  1.00  0.00     0.059 A 
ATOM     69  C   UNL     1       5.261 -17.157  14.737  1.00  0.00     0.059 A 
ATOM     70  F   UNL     1       5.752 -15.909  12.814  1.00  0.00    -0.206 F 
ATOM     71  C   UNL     1       5.089 -18.399  15.348  1.00  0.00     0.060 A 
BRANCH  71  72
ATOM     72  S   UNL     1       4.623 -18.495  17.090  1.00  0.00     0.124 S 
ATOM     73  O   UNL     1       3.202 -18.811  16.995  1.00  0.00    -0.237 OA
ATOM     74  O   UNL     1       5.479 -19.567  17.588  1.00  0.00    -0.237 OA
ATOM     75  O   UNL     1       4.939 -17.163  17.598  1.00  0.00    -0.744 OA
ENDBRANCH  71  72
ENDBRANCH  39  64
ENDBRANCH  13  14
ENDBRANCH   6   8
ENDBRANCH   3   4
ENDBRANCH   2   3
ENDBRANCH   1   2
BRANCH   1  76
ATOM     76  C   UNL     1       8.743 -11.942  -2.942  1.00  0.00     0.002 C 
BRANCH  76  77
ATOM     77  C   UNL     1       8.047 -10.878  -2.087  1.00  0.00     0.021 C 
BRANCH  77  78
ATOM     78  C   UNL     1       8.891  -9.662  -1.712  1.00  0.00     0.116 C 
BRANCH  78  79
ATOM     79  N   UNL     1       9.339  -8.920  -2.875  1.00  0.00    -0.351 N 
ATOM     80  C   UNL     1       9.517  -7.571  -3.018  1.00  0.00     0.279 C 
ATOM     81  H   UNL     1       9.544  -9.461  -3.671  1.00  0.00     0.163 HD
ATOM     82  O   UNL     1       9.975  -7.173  -4.092  1.00  0.00    -0.268 OA
BRANCH  80  83
ATOM     83  C   UNL     1       9.063  -6.605  -1.900  1.00  0.00     0.284 C 
ATOM     84  C   UNL     1       9.339  -5.140  -2.270  1.00  0.00     0.151 C 
ATOM     85  N   UNL     1       9.665  -6.958  -0.574  1.00  0.00    -0.319 N 
ATOM     86  S   UNL     1      10.102  -4.409  -0.809  1.00  0.00    -0.085 SA
ATOM     87  C   UNL     1      10.748  -6.011  -0.255  1.00  0.00     0.303 C 
ATOM     88  H   UNL     1      10.043  -7.905  -0.614  1.00  0.00     0.348 HD
ATOM     89  H   UNL     1       8.946  -6.908   0.148  1.00  0.00     0.348 HD
BRANCH  87  90
ATOM     90  C   UNL     1      12.118  -6.327  -0.836  1.00  0.00     0.162 A 
ATOM     91  N   UNL     1      13.135  -5.480  -0.853  1.00  0.00    -0.242 NA
ATOM     92  S   UNL     1      12.500  -7.896  -1.451  1.00  0.00    -0.112 S 
ATOM     93  C   UNL     1      14.215  -6.047  -1.504  1.00  0.00     0.132 A 
ATOM     94  C   UNL     1      14.021  -7.326  -1.977  1.00  0.00     0.055 A 
BRANCH  94  95
ATOM     95  C   UNL     1      14.876  -8.167  -2.800  1.00  0.00    -0.007 A 
ATOM     96  C   UNL     1      14.543  -8.394  -4.143  1.00  0.00     0.009 A 
ATOM     97  C   UNL     1      16.035  -8.746  -2.274  1.00  0.00     0.009 A 
ATOM     98  C   UNL     1      15.356  -9.191  -4.949  1.00  0.00     0.001 A 
ATOM     99  C   UNL     1      16.846  -9.548  -3.081  1.00  0.00     0.001 A 
ATOM    100  C   UNL     1      16.507  -9.768  -4.417  1.00  0.00     0.000 A 
ENDBRANCH  94  95
ENDBRANCH  87  90
ENDBRANCH  80  83
ENDBRANCH  78  79
ENDBRANCH  77  78
ENDBRANCH  76  77
ENDBRANCH   1  76
TORSDOF 18
