REMARK SMILES Cc1ccc(C)c([C@H]2[NH2+][C@@H](C(=O)NCCCCCCNC(=O)c3ccc(-c4c5nc(c(-c6c(F)cc(S(=O)(=O)[O-])cc6F)c6ccc([nH]6)c(-c6c(F)cc(S(=O)(=O)[O-])cc6F)c6nc(c(-c7c(F)cc(S(=O)(=O)[O-])cc7F)c7ccc4[nH]7)C=C6)C=C5)cc3)Cc3c2[nH]c2ccccc32)c1
REMARK SMILES IDX 17 1 16 2 15 3 14 4 13 5 11 6 12 7 10 9 8 10 9 11 91 12
REMARK SMILES IDX 90 15 92 16 89 17 98 18 93 19 97 21 94 22 96 23 95 24 7 25
REMARK SMILES IDX 1 26 2 27 3 28 99 29 4 30 5 31 6 32 18 33 19 34 20 35 21 36
REMARK SMILES IDX 22 38 23 39 24 40 88 41 25 42 87 43 26 44 27 45 28 46 81 47
REMARK SMILES IDX 29 48 86 49 80 50 82 51 30 52 85 53 79 54 78 55 31 57 65 58
REMARK SMILES IDX 44 59 64 60 45 61 48 62 63 63 83 64 46 65 47 66 62 68 84 69
REMARK SMILES IDX 49 70 32 71 33 72 42 73 34 74 35 75 41 76 43 77 36 78 37 79
REMARK SMILES IDX 38 80 39 81 40 82 66 83 67 84 76 85 68 86 69 87 75 88 77 89
REMARK SMILES IDX 70 90 71 91 72 92 73 93 74 94 50 95 51 96 60 97 52 98 53 99
REMARK SMILES IDX 59 100 61 101 54 102 55 103 56 104 57 105 58 106
REMARK H PARENT 13 8 9 13 9 14 92 20 20 37 82 56 48 67
REMARK Flexibility Score: inf
ROOT
ATOM      1  C   UNL     1      -4.880  10.096  -0.935  1.00  0.00     0.002 C 
ENDROOT
BRANCH   1   2
ATOM      2  C   UNL     1      -3.364  10.085  -0.669  1.00  0.00     0.002 C 
BRANCH   2   3
ATOM      3  C   UNL     1      -2.864   9.034   0.312  1.00  0.00     0.021 C 
BRANCH   3   4
ATOM      4  C   UNL     1      -3.160   7.617  -0.155  1.00  0.00     0.116 C 
BRANCH   4   5
ATOM      5  N   UNL     1      -2.216   7.181  -1.168  1.00  0.00    -0.351 N 
ATOM      6  C   UNL     1      -1.271   6.211  -1.251  1.00  0.00     0.278 C 
ATOM      7  O   UNL     1      -0.632   6.188  -2.316  1.00  0.00    -0.268 OA
ATOM      8  H   UNL     1      -2.276   7.716  -1.992  1.00  0.00     0.163 HD
BRANCH   6   9
ATOM      9  C   UNL     1      -1.028   5.084  -0.217  1.00  0.00     0.277 C 
ATOM     10  C   UNL     1      -1.342   2.568  -0.137  1.00  0.00     0.262 C 
ATOM     11  N   UNL     1      -1.479   3.841  -0.878  1.00  0.00    -0.325 N 
ATOM     12  C   UNL     1      -1.461   2.805   1.357  1.00  0.00     0.083 A 
ATOM     13  H   UNL     1      -2.468   3.958  -1.100  1.00  0.00     0.347 HD
ATOM     14  H   UNL     1      -0.854   3.737  -1.678  1.00  0.00     0.347 HD
ATOM     15  C   UNL     1      -1.555   4.045   1.950  1.00  0.00    -0.006 A 
ATOM     16  N   UNL     1      -1.377   1.896   2.386  1.00  0.00    -0.353 N 
ATOM     17  C   UNL     1      -1.707   5.252   1.129  1.00  0.00     0.114 C 
ATOM     18  C   UNL     1      -1.548   3.916   3.349  1.00  0.00     0.003 A 
ATOM     19  C   UNL     1      -1.466   2.549   3.611  1.00  0.00     0.046 A 
ATOM     20  H   UNL     1      -1.270   0.924   2.273  1.00  0.00     0.166 HD
ATOM     21  C   UNL     1      -1.609   4.839   4.410  1.00  0.00     0.010 A 
ATOM     22  C   UNL     1      -1.462   2.065   4.927  1.00  0.00     0.026 A 
ATOM     23  C   UNL     1      -1.596   4.370   5.721  1.00  0.00     0.001 A 
ATOM     24  C   UNL     1      -1.530   3.002   5.973  1.00  0.00     0.002 A 
BRANCH  10  25
ATOM     25  C   UNL     1      -2.375   1.639  -0.802  1.00  0.00     0.019 A 
ATOM     26  C   UNL     1      -6.002   0.523  -0.236  1.00  0.00     0.044 C 
ATOM     27  C   UNL     1      -4.668   0.748  -0.881  1.00  0.00    -0.051 A 
ATOM     28  C   UNL     1      -4.483   0.381  -2.215  1.00  0.00     0.004 A 
ATOM     29  C   UNL     1      -3.622   1.384  -0.191  1.00  0.00     0.014 A 
ATOM     30  C   UNL     1      -3.261   0.607  -2.839  1.00  0.00     0.004 A 
ATOM     31  C   UNL     1      -2.194   1.209  -2.150  1.00  0.00    -0.042 A 
ATOM     32  C   UNL     1      -0.953   1.498  -2.959  1.00  0.00     0.045 C 
ENDBRANCH  10  25
ENDBRANCH   6   9
ENDBRANCH   4   5
ENDBRANCH   3   4
ENDBRANCH   2   3
ENDBRANCH   1   2
BRANCH   1  33
ATOM     33  C   UNL     1      -5.885   9.809   0.200  1.00  0.00     0.021 C 
BRANCH  33  34
ATOM     34  C   UNL     1      -6.110  10.849   1.302  1.00  0.00     0.116 C 
BRANCH  34  35
ATOM     35  N   UNL     1      -6.413  12.191   0.793  1.00  0.00    -0.352 N 
ATOM     36  C   UNL     1      -5.963  13.458   1.144  1.00  0.00     0.251 C 
ATOM     37  H   UNL     1      -7.064  12.195   0.055  1.00  0.00     0.163 HD
ATOM     38  O   UNL     1      -6.607  14.437   0.802  1.00  0.00    -0.269 OA
BRANCH  36  39
ATOM     39  C   UNL     1      -4.703  13.629   1.905  1.00  0.00     0.039 A 
ATOM     40  C   UNL     1      -4.338  14.812   2.554  1.00  0.00     0.014 A 
ATOM     41  C   UNL     1      -3.824  12.564   1.925  1.00  0.00     0.014 A 
ATOM     42  C   UNL     1      -3.083  14.880   3.170  1.00  0.00     0.010 A 
ATOM     43  C   UNL     1      -2.756  12.522   2.758  1.00  0.00     0.010 A 
ATOM     44  C   UNL     1      -2.290  13.724   3.229  1.00  0.00    -0.014 A 
BRANCH  44  45
ATOM     45  C   UNL     1      -0.962  13.667   3.803  1.00  0.00     0.031 A 
ATOM     46  C   UNL     1      -0.939  13.888   5.258  1.00  0.00     0.074 A 
ATOM     47  C   UNL     1       0.096  13.120   3.161  1.00  0.00     0.049 A 
ATOM     48  N   UNL     1      -0.542  14.943   5.882  1.00  0.00    -0.248 NA
ATOM     49  C   UNL     1      -1.605  12.893   6.114  1.00  0.00     0.031 C 
ATOM     50  C   UNL     1       0.141  12.435   1.860  1.00  0.00     0.029 A 
ATOM     51  N   UNL     1       1.362  12.957   3.621  1.00  0.00    -0.354 N 
ATOM     52  C   UNL     1      -0.673  14.639   7.229  1.00  0.00     0.074 A 
ATOM     53  C   UNL     1      -1.553  13.501   7.300  1.00  0.00     0.031 C 
ATOM     54  C   UNL     1       1.306  11.757   1.746  1.00  0.00     0.029 A 
ATOM     55  C   UNL     1       2.147  12.079   2.885  1.00  0.00     0.049 A 
ATOM     56  H   UNL     1       1.699  13.426   4.418  1.00  0.00     0.167 HD
ATOM     57  C   UNL     1       0.172  15.170   8.153  1.00  0.00     0.037 A 
ATOM     58  C   UNL     1       3.376  11.620   3.235  1.00  0.00     0.037 A 
ATOM     59  C   UNL     1       0.954  16.247   7.590  1.00  0.00     0.049 A 
ATOM     60  C   UNL     1       3.916  12.570   4.250  1.00  0.00     0.074 A 
ATOM     61  C   UNL     1       0.639  17.422   6.930  1.00  0.00     0.029 A 
ATOM     62  N   UNL     1       2.271  15.993   7.279  1.00  0.00    -0.354 N 
ATOM     63  N   UNL     1       4.207  13.821   4.001  1.00  0.00    -0.248 NA
ATOM     64  C   UNL     1       3.684  12.259   5.653  1.00  0.00     0.031 C 
ATOM     65  C   UNL     1       1.596  17.521   5.877  1.00  0.00     0.029 A 
ATOM     66  C   UNL     1       2.483  16.450   6.001  1.00  0.00     0.049 A 
ATOM     67  H   UNL     1       2.937  15.565   7.864  1.00  0.00     0.167 HD
ATOM     68  C   UNL     1       3.784  14.521   5.125  1.00  0.00     0.074 A 
ATOM     69  C   UNL     1       3.553  13.496   6.141  1.00  0.00     0.031 C 
ATOM     70  C   UNL     1       3.382  15.825   5.049  1.00  0.00     0.037 A 
BRANCH  57  71
ATOM     71  C   UNL     1       0.545  14.488   9.444  1.00  0.00     0.058 A 
ATOM     72  C   UNL     1       1.217  15.225  10.437  1.00  0.00     0.135 A 
ATOM     73  C   UNL     1       0.491  13.090   9.651  1.00  0.00     0.135 A 
ATOM     74  F   UNL     1       1.342  16.558  10.331  1.00  0.00    -0.206 F 
ATOM     75  C   UNL     1       1.841  14.614  11.523  1.00  0.00     0.059 A 
ATOM     76  C   UNL     1       1.049  12.468  10.759  1.00  0.00     0.059 A 
ATOM     77  F   UNL     1      -0.012  12.247   8.741  1.00  0.00    -0.206 F 
ATOM     78  C   UNL     1       1.761  13.232  11.666  1.00  0.00     0.060 A 
BRANCH  78  79
ATOM     79  S   UNL     1       2.656  12.427  13.003  1.00  0.00     0.124 S 
ATOM     80  O   UNL     1       4.036  12.579  12.556  1.00  0.00    -0.237 OA
ATOM     81  O   UNL     1       2.264  13.229  14.157  1.00  0.00    -0.237 OA
ATOM     82  O   UNL     1       2.131  11.065  12.985  1.00  0.00    -0.744 OA
ENDBRANCH  78  79
ENDBRANCH  57  71
BRANCH  58  83
ATOM     83  C   UNL     1       3.942  10.258   3.014  1.00  0.00     0.058 A 
ATOM     84  C   UNL     1       5.302   9.985   3.249  1.00  0.00     0.135 A 
ATOM     85  C   UNL     1       3.111   9.132   2.831  1.00  0.00     0.135 A 
ATOM     86  F   UNL     1       6.165  10.992   3.457  1.00  0.00    -0.206 F 
ATOM     87  C   UNL     1       5.798   8.679   3.347  1.00  0.00     0.059 A 
ATOM     88  C   UNL     1       3.585   7.823   2.911  1.00  0.00     0.059 A 
ATOM     89  F   UNL     1       1.787   9.266   2.660  1.00  0.00    -0.206 F 
ATOM     90  C   UNL     1       4.926   7.602   3.195  1.00  0.00     0.060 A 
BRANCH  90  91
ATOM     91  S   UNL     1       5.523   5.919   3.490  1.00  0.00     0.124 S 
ATOM     92  O   UNL     1       6.420   5.714   2.359  1.00  0.00    -0.237 OA
ATOM     93  O   UNL     1       6.160   6.043   4.796  1.00  0.00    -0.237 OA
ATOM     94  O   UNL     1       4.302   5.118   3.470  1.00  0.00    -0.744 OA
ENDBRANCH  90  91
ENDBRANCH  58  83
BRANCH  70  95
ATOM     95  C   UNL     1       3.676  16.609   3.791  1.00  0.00     0.058 A 
ATOM     96  C   UNL     1       3.173  16.294   2.515  1.00  0.00     0.135 A 
ATOM     97  C   UNL     1       4.355  17.832   3.918  1.00  0.00     0.135 A 
ATOM     98  F   UNL     1       2.423  15.201   2.319  1.00  0.00    -0.206 F 
ATOM     99  C   UNL     1       3.366  17.134   1.415  1.00  0.00     0.059 A 
ATOM    100  C   UNL     1       4.531  18.701   2.843  1.00  0.00     0.059 A 
ATOM    101  F   UNL     1       4.810  18.226   5.119  1.00  0.00    -0.206 F 
ATOM    102  C   UNL     1       4.043  18.339   1.590  1.00  0.00     0.060 A 
BRANCH 102 103
ATOM    103  S   UNL     1       4.215  19.464   0.187  1.00  0.00     0.124 S 
ATOM    104  O   UNL     1       5.189  18.768  -0.647  1.00  0.00    -0.237 OA
ATOM    105  O   UNL     1       2.855  19.524  -0.342  1.00  0.00    -0.237 OA
ATOM    106  O   UNL     1       4.690  20.703   0.798  1.00  0.00    -0.744 OA
ENDBRANCH 102 103
ENDBRANCH  70  95
ENDBRANCH  44  45
ENDBRANCH  36  39
ENDBRANCH  34  35
ENDBRANCH  33  34
ENDBRANCH   1  33
TORSDOF 17
