REMARK SMILES C[C@H]1CN([C@@H](C(=O)NCCCCCCNC(=O)c2ccc(-c3c4nc(c(-c5c(F)cc(S(=O)(=O)[O-])cc5F)c5ccc([nH]5)c(-c5c(F)cc(S(=O)(=O)[O-])cc5F)c5nc(c(-c6c(F)cc(S(=O)(=O)[O-])cc6F)c6ccc3[nH]6)C=C5)C=C4)cc2)C(C)(C)C)S(=O)(=O)C1
REMARK SMILES IDX 12 1 11 2 10 3 9 4 8 5 6 6 7 7 5 9 4 10 1 11 2 12 3 13 91 14
REMARK SMILES IDX 88 15 89 16 90 17 84 18 85 19 86 20 87 21 13 22 14 23 15 24
REMARK SMILES IDX 16 25 17 27 18 28 19 29 83 30 20 31 82 32 21 33 22 34 23 35
REMARK SMILES IDX 76 36 24 37 81 38 75 39 77 40 25 41 80 42 74 43 73 44 26 46
REMARK SMILES IDX 60 47 39 48 59 49 40 50 43 51 58 52 78 53 41 54 42 55 57 57
REMARK SMILES IDX 79 58 44 59 27 60 28 61 37 62 29 63 30 64 36 65 38 66 31 67
REMARK SMILES IDX 32 68 33 69 34 70 35 71 61 72 62 73 71 74 63 75 64 76 70 77
REMARK SMILES IDX 72 78 65 79 66 80 67 81 68 82 69 83 45 84 46 85 55 86 47 87
REMARK SMILES IDX 48 88 54 89 56 90 49 91 50 92 51 93 52 94 53 95
REMARK H PARENT 8 8 15 26 77 45 43 56
REMARK Flexibility Score: inf
ROOT
ATOM      1  C   UNL     1      -1.746   3.650   2.811  1.00  0.00     0.002 C 
ENDROOT
BRANCH   1   2
ATOM      2  C   UNL     1      -1.547   2.182   2.439  1.00  0.00     0.002 C 
BRANCH   2   3
ATOM      3  C   UNL     1      -0.133   1.661   2.710  1.00  0.00     0.021 C 
BRANCH   3   4
ATOM      4  C   UNL     1       0.081   1.040   4.095  1.00  0.00     0.116 C 
BRANCH   4   5
ATOM      5  N   UNL     1      -0.768  -0.122   4.316  1.00  0.00    -0.355 N 
ATOM      6  C   UNL     1      -0.537  -1.468   4.413  1.00  0.00     0.238 C 
ATOM      7  O   UNL     1      -1.539  -2.149   4.646  1.00  0.00    -0.273 OA
ATOM      8  H   UNL     1      -1.718   0.112   4.418  1.00  0.00     0.163 HD
BRANCH   6   9
ATOM      9  C   UNL     1       0.879  -2.076   4.275  1.00  0.00     0.167 C 
BRANCH   9  10
ATOM     10  N   UNL     1       1.267  -2.453   2.874  1.00  0.00    -0.189 NA
ATOM     11  C   UNL     1      -0.849  -1.275   0.846  1.00  0.00     0.010 C 
ATOM     12  C   UNL     1       0.639  -1.613   0.676  1.00  0.00     0.017 C 
ATOM     13  C   UNL     1       1.536  -1.368   1.907  1.00  0.00     0.107 C 
ATOM     14  C   UNL     1       0.807  -3.106   0.427  1.00  0.00     0.159 C 
ATOM     15  S   UNL     1       0.715  -3.833   2.055  1.00  0.00     0.215 S 
ATOM     16  O   UNL     1       1.726  -4.859   2.144  1.00  0.00    -0.212 OA
ATOM     17  O   UNL     1      -0.677  -4.069   2.362  1.00  0.00    -0.212 OA
ENDBRANCH   9  10
BRANCH   9  18
ATOM     18  C   UNL     1       1.184  -3.196   5.356  1.00  0.00    -0.013 C 
ATOM     19  C   UNL     1       2.691  -3.540   5.337  1.00  0.00     0.013 C 
ATOM     20  C   UNL     1       0.871  -2.653   6.775  1.00  0.00     0.013 C 
ATOM     21  C   UNL     1       0.392  -4.513   5.214  1.00  0.00     0.013 C 
ENDBRANCH   9  18
ENDBRANCH   6   9
ENDBRANCH   4   5
ENDBRANCH   3   4
ENDBRANCH   2   3
ENDBRANCH   1   2
BRANCH   1  22
ATOM     22  C   UNL     1      -0.799   4.626   2.105  1.00  0.00     0.021 C 
BRANCH  22  23
ATOM     23  C   UNL     1      -0.758   4.488   0.585  1.00  0.00     0.116 C 
BRANCH  23  24
ATOM     24  N   UNL     1      -2.013   4.908  -0.018  1.00  0.00    -0.352 N 
ATOM     25  C   UNL     1      -2.246   6.018  -0.793  1.00  0.00     0.251 C 
ATOM     26  H   UNL     1      -2.790   4.327   0.150  1.00  0.00     0.163 HD
ATOM     27  O   UNL     1      -3.388   6.418  -0.988  1.00  0.00    -0.269 OA
BRANCH  25  28
ATOM     28  C   UNL     1      -1.090   6.725  -1.383  1.00  0.00     0.039 A 
ATOM     29  C   UNL     1      -0.975   8.107  -1.232  1.00  0.00     0.014 A 
ATOM     30  C   UNL     1      -0.105   5.999  -2.060  1.00  0.00     0.014 A 
ATOM     31  C   UNL     1       0.161   8.757  -1.720  1.00  0.00     0.010 A 
ATOM     32  C   UNL     1       1.058   6.637  -2.476  1.00  0.00     0.010 A 
ATOM     33  C   UNL     1       1.200   8.025  -2.320  1.00  0.00    -0.014 A 
BRANCH  33  34
ATOM     34  C   UNL     1       2.435   8.691  -2.810  1.00  0.00     0.031 A 
ATOM     35  C   UNL     1       2.776   8.645  -4.277  1.00  0.00     0.074 A 
ATOM     36  C   UNL     1       3.276   9.277  -1.935  1.00  0.00     0.049 A 
ATOM     37  N   UNL     1       3.843   9.088  -4.890  1.00  0.00    -0.248 NA
ATOM     38  C   UNL     1       1.802   7.992  -5.168  1.00  0.00     0.031 C 
ATOM     39  C   UNL     1       3.077   9.347  -0.485  1.00  0.00     0.029 A 
ATOM     40  N   UNL     1       4.476   9.914  -2.132  1.00  0.00    -0.354 N 
ATOM     41  C   UNL     1       3.677   8.755  -6.229  1.00  0.00     0.074 A 
ATOM     42  C   UNL     1       2.433   8.026  -6.333  1.00  0.00     0.031 C 
ATOM     43  C   UNL     1       4.107  10.005   0.071  1.00  0.00     0.029 A 
ATOM     44  C   UNL     1       5.062  10.366  -0.972  1.00  0.00     0.049 A 
ATOM     45  H   UNL     1       4.880  10.037  -3.022  1.00  0.00     0.167 HD
ATOM     46  C   UNL     1       4.477   9.051  -7.280  1.00  0.00     0.037 A 
ATOM     47  C   UNL     1       6.242  10.987  -0.770  1.00  0.00     0.037 A 
ATOM     48  C   UNL     1       5.697   9.807  -7.172  1.00  0.00     0.049 A 
ATOM     49  C   UNL     1       7.117  11.296  -1.958  1.00  0.00     0.074 A 
ATOM     50  C   UNL     1       6.546  10.214  -8.187  1.00  0.00     0.029 A 
ATOM     51  N   UNL     1       6.243  10.268  -5.984  1.00  0.00    -0.354 N 
ATOM     52  N   UNL     1       6.909  11.033  -3.226  1.00  0.00    -0.248 NA
ATOM     53  C   UNL     1       8.384  11.991  -1.690  1.00  0.00     0.031 C 
ATOM     54  C   UNL     1       7.634  10.872  -7.607  1.00  0.00     0.029 A 
ATOM     55  C   UNL     1       7.431  10.933  -6.238  1.00  0.00     0.049 A 
ATOM     56  H   UNL     1       5.846  10.142  -5.092  1.00  0.00     0.167 HD
ATOM     57  C   UNL     1       7.999  11.565  -3.908  1.00  0.00     0.074 A 
ATOM     58  C   UNL     1       8.858  12.172  -2.914  1.00  0.00     0.031 C 
ATOM     59  C   UNL     1       8.264  11.553  -5.238  1.00  0.00     0.037 A 
BRANCH  46  60
ATOM     60  C   UNL     1       4.065   8.568  -8.644  1.00  0.00     0.058 A 
ATOM     61  C   UNL     1       2.966   9.120  -9.322  1.00  0.00     0.135 A 
ATOM     62  C   UNL     1       4.825   7.595  -9.313  1.00  0.00     0.135 A 
ATOM     63  F   UNL     1       2.193  10.039  -8.723  1.00  0.00    -0.206 F 
ATOM     64  C   UNL     1       2.629   8.716 -10.610  1.00  0.00     0.059 A 
ATOM     65  C   UNL     1       4.525   7.198 -10.613  1.00  0.00     0.059 A 
ATOM     66  F   UNL     1       5.883   7.031  -8.709  1.00  0.00    -0.206 F 
ATOM     67  C   UNL     1       3.420   7.760 -11.250  1.00  0.00     0.060 A 
BRANCH  67  68
ATOM     68  S   UNL     1       2.993   7.281 -12.937  1.00  0.00     0.124 S 
ATOM     69  O   UNL     1       1.761   6.527 -12.722  1.00  0.00    -0.237 OA
ATOM     70  O   UNL     1       2.838   8.574 -13.596  1.00  0.00    -0.237 OA
ATOM     71  O   UNL     1       4.142   6.493 -13.369  1.00  0.00    -0.744 OA
ENDBRANCH  67  68
ENDBRANCH  46  60
BRANCH  47  72
ATOM     72  C   UNL     1       6.672  11.361   0.606  1.00  0.00     0.058 A 
ATOM     73  C   UNL     1       6.791  12.706   0.989  1.00  0.00     0.135 A 
ATOM     74  C   UNL     1       6.999  10.382   1.558  1.00  0.00     0.135 A 
ATOM     75  F   UNL     1       6.495  13.680   0.116  1.00  0.00    -0.206 F 
ATOM     76  C   UNL     1       7.254  13.068   2.251  1.00  0.00     0.059 A 
ATOM     77  C   UNL     1       7.432  10.719   2.836  1.00  0.00     0.059 A 
ATOM     78  F   UNL     1       6.884   9.080   1.252  1.00  0.00    -0.206 F 
ATOM     79  C   UNL     1       7.575  12.065   3.167  1.00  0.00     0.060 A 
BRANCH  79  80
ATOM     80  S   UNL     1       8.163  12.543   4.806  1.00  0.00     0.124 S 
ATOM     81  O   UNL     1       9.502  13.035   4.504  1.00  0.00    -0.237 OA
ATOM     82  O   UNL     1       7.185  13.552   5.200  1.00  0.00    -0.237 OA
ATOM     83  O   UNL     1       8.103  11.295   5.560  1.00  0.00    -0.744 OA
ENDBRANCH  79  80
ENDBRANCH  47  72
BRANCH  59  84
ATOM     84  C   UNL     1       9.503  12.263  -5.711  1.00  0.00     0.058 A 
ATOM     85  C   UNL     1      10.789  11.755  -5.470  1.00  0.00     0.135 A 
ATOM     86  C   UNL     1       9.394  13.436  -6.477  1.00  0.00     0.135 A 
ATOM     87  F   UNL     1      10.950  10.641  -4.739  1.00  0.00    -0.206 F 
ATOM     88  C   UNL     1      11.924  12.397  -5.954  1.00  0.00     0.059 A 
ATOM     89  C   UNL     1      10.514  14.076  -6.998  1.00  0.00     0.059 A 
ATOM     90  F   UNL     1       8.187  13.959  -6.747  1.00  0.00    -0.206 F 
ATOM     91  C   UNL     1      11.776  13.554  -6.722  1.00  0.00     0.060 A 
BRANCH  91  92
ATOM     92  S   UNL     1      13.256  14.349  -7.381  1.00  0.00     0.124 S 
ATOM     93  O   UNL     1      13.840  14.928  -6.176  1.00  0.00    -0.237 OA
ATOM     94  O   UNL     1      13.983  13.223  -7.959  1.00  0.00    -0.237 OA
ATOM     95  O   UNL     1      12.727  15.309  -8.345  1.00  0.00    -0.744 OA
ENDBRANCH  91  92
ENDBRANCH  59  84
ENDBRANCH  33  34
ENDBRANCH  25  28
ENDBRANCH  23  24
ENDBRANCH  22  23
ENDBRANCH   1  22
TORSDOF 18
