REMARK SMILES Cc1coc2cc3oc(=O)c(CC(=O)N[C@H](Cc4c[nH]c5ccc(O)cc45)C(=O)NCCCCCCNC(=O)c4ccc(-c5c6nc(c(-c7c(F)cc(S(=O)(=O)[O-])cc7F)c7ccc([nH]7)c(-c7c(F)cc(S(=O)(=O)[O-])cc7F)c7nc(c(-c8c(F)cc(S(=O)(=O)[O-])cc8F)c8ccc5[nH]8)C=C7)C=C6)cc4)c(C)c3cc12
REMARK SMILES IDX 33 1 32 2 31 3 30 4 28 5 29 6 16 8 15 9 13 10 14 11 12 13
REMARK SMILES IDX 11 14 1 15 2 16 3 17 110 18 4 19 5 20 109 21 6 22 108 23
REMARK SMILES IDX 7 24 106 25 8 26 107 27 9 28 10 29 17 30 18 31 19 32 27 33
REMARK SMILES IDX 20 34 21 35 26 36 22 38 24 39 23 40 25 41 34 43 35 44 36 45
REMARK SMILES IDX 37 46 38 47 39 49 40 50 41 51 105 52 42 53 104 54 43 55
REMARK SMILES IDX 44 56 45 57 98 58 46 59 103 60 97 61 99 62 47 63 102 64
REMARK SMILES IDX 96 65 95 66 48 68 82 69 61 70 81 71 62 72 65 73 80 74 100 75
REMARK SMILES IDX 63 76 64 77 79 79 101 80 66 81 49 82 50 83 59 84 51 85 52 86
REMARK SMILES IDX 58 87 60 88 53 89 54 90 55 91 56 92 57 93 83 94 84 95 93 96
REMARK SMILES IDX 85 97 86 98 92 99 94 100 87 101 88 102 89 103 90 104 91 105
REMARK SMILES IDX 67 106 68 107 77 108 69 109 70 110 76 111 78 112 71 113
REMARK SMILES IDX 72 114 73 115 74 116 75 117
REMARK H PARENT 30 7 15 12 20 37 25 42 37 48 99 67 65 78
REMARK Flexibility Score: inf
ROOT
ATOM      1  C   UNL     1       8.475  -8.842  -4.019  1.00  0.00     0.002 C 
ENDROOT
BRANCH   1   2
ATOM      2  C   UNL     1       7.563  -8.161  -2.986  1.00  0.00     0.021 C 
BRANCH   2   3
ATOM      3  C   UNL     1       6.412  -7.413  -3.637  1.00  0.00     0.116 C 
BRANCH   3   4
ATOM      4  N   UNL     1       5.576  -8.394  -4.286  1.00  0.00    -0.354 N 
ATOM      5  C   UNL     1       4.290  -8.406  -4.663  1.00  0.00     0.242 C 
ATOM      6  O   UNL     1       3.892  -9.473  -5.128  1.00  0.00    -0.273 OA
ATOM      7  H   UNL     1       6.051  -9.231  -4.496  1.00  0.00     0.163 HD
BRANCH   5   8
ATOM      8  C   UNL     1       3.333  -7.250  -4.431  1.00  0.00     0.175 C 
BRANCH   8   9
ATOM      9  N   UNL     1       4.032  -6.014  -4.766  1.00  0.00    -0.344 N 
ATOM     10  C   UNL     1       4.530  -5.625  -5.980  1.00  0.00     0.225 C 
ATOM     11  O   UNL     1       5.263  -4.629  -5.959  1.00  0.00    -0.275 OA
ATOM     12  H   UNL     1       4.162  -5.380  -4.025  1.00  0.00     0.164 HD
BRANCH  10  13
ATOM     13  C   UNL     1       4.171  -6.277  -7.341  1.00  0.00     0.143 C 
BRANCH  13  14
ATOM     14  C   UNL     1       4.289  -7.771  -7.577  1.00  0.00     0.051 A 
ATOM     15  C   UNL     1       7.343 -13.035  -4.481  1.00  0.00     0.048 C 
ATOM     16  C   UNL     1       6.128 -13.053  -5.332  1.00  0.00    -0.005 A 
ATOM     17  C   UNL     1       5.135 -14.013  -5.279  1.00  0.00     0.199 A 
ATOM     18  C   UNL     1       5.678 -12.082  -6.292  1.00  0.00     0.024 A 
ATOM     19  O   UNL     1       4.123 -13.718  -6.128  1.00  0.00    -0.464 OA
ATOM     20  C   UNL     1       4.429 -12.529  -6.712  1.00  0.00     0.137 A 
ATOM     21  C   UNL     1       6.143 -10.835  -6.791  1.00  0.00     0.024 A 
ATOM     22  C   UNL     1       3.589 -11.824  -7.563  1.00  0.00     0.095 A 
ATOM     23  C   UNL     1       5.253 -10.001  -7.513  1.00  0.00     0.022 A 
ATOM     24  C   UNL     1       4.008 -10.525  -7.871  1.00  0.00     0.142 A 
ATOM     25  C   UNL     1       5.421  -8.519  -7.628  1.00  0.00    -0.029 A 
ATOM     26  O   UNL     1       3.035  -9.690  -8.427  1.00  0.00    -0.422 OA
ATOM     27  C   UNL     1       6.808  -7.953  -7.580  1.00  0.00     0.046 C 
ATOM     28  C   UNL     1       2.977  -8.457  -7.810  1.00  0.00     0.340 A 
ATOM     29  O   UNL     1       1.893  -7.912  -7.600  1.00  0.00    -0.246 OA
ENDBRANCH  13  14
ENDBRANCH  10  13
ENDBRANCH   8   9
BRANCH   8  30
ATOM     30  C   UNL     1       2.799  -7.387  -2.975  1.00  0.00     0.072 C 
BRANCH  30  31
ATOM     31  C   UNL     1       2.436  -8.823  -2.609  1.00  0.00    -0.020 A 
ATOM     32  C   UNL     1       2.970  -9.551  -1.559  1.00  0.00     0.087 A 
ATOM     33  C   UNL     1       1.705  -9.769  -3.424  1.00  0.00     0.006 A 
ATOM     34  N   UNL     1       2.678 -10.878  -1.755  1.00  0.00    -0.361 N 
ATOM     35  C   UNL     1       1.980 -11.045  -2.927  1.00  0.00     0.046 A 
ATOM     36  C   UNL     1       1.018  -9.669  -4.656  1.00  0.00     0.056 A 
ATOM     37  H   UNL     1       2.933 -11.606  -1.144  1.00  0.00     0.166 HD
ATOM     38  C   UNL     1       1.636 -12.221  -3.613  1.00  0.00     0.030 A 
ATOM     39  C   UNL     1       0.753 -10.832  -5.381  1.00  0.00     0.116 A 
ATOM     40  C   UNL     1       1.035 -12.089  -4.868  1.00  0.00     0.048 A 
BRANCH  39  41
ATOM     41  O   UNL     1       0.290 -10.747  -6.666  1.00  0.00    -0.508 OA
ATOM     42  H   UNL     1       0.113 -11.528  -7.152  1.00  0.00     0.293 HD
ENDBRANCH  39  41
ENDBRANCH  30  31
ENDBRANCH   8  30
ENDBRANCH   5   8
ENDBRANCH   3   4
ENDBRANCH   2   3
ENDBRANCH   1   2
BRANCH   1  43
ATOM     43  C   UNL     1       9.420  -7.882  -4.742  1.00  0.00     0.002 C 
BRANCH  43  44
ATOM     44  C   UNL     1      10.369  -7.138  -3.800  1.00  0.00     0.021 C 
BRANCH  44  45
ATOM     45  C   UNL     1      10.963  -8.048  -2.721  1.00  0.00     0.116 C 
BRANCH  45  46
ATOM     46  N   UNL     1      11.712  -9.146  -3.292  1.00  0.00    -0.352 N 
ATOM     47  C   UNL     1      13.007  -9.306  -3.683  1.00  0.00     0.251 C 
ATOM     48  H   UNL     1      11.167  -9.954  -3.427  1.00  0.00     0.163 HD
ATOM     49  O   UNL     1      13.306 -10.419  -4.122  1.00  0.00    -0.269 OA
BRANCH  47  50
ATOM     50  C   UNL     1      14.029  -8.231  -3.652  1.00  0.00     0.039 A 
ATOM     51  C   UNL     1      13.814  -6.922  -3.217  1.00  0.00     0.014 A 
ATOM     52  C   UNL     1      15.287  -8.572  -4.175  1.00  0.00     0.014 A 
ATOM     53  C   UNL     1      14.783  -5.953  -3.392  1.00  0.00     0.010 A 
ATOM     54  C   UNL     1      16.274  -7.612  -4.328  1.00  0.00     0.010 A 
ATOM     55  C   UNL     1      15.990  -6.293  -3.994  1.00  0.00    -0.014 A 
BRANCH  55  56
ATOM     56  C   UNL     1      16.931  -5.210  -4.224  1.00  0.00     0.031 A 
ATOM     57  C   UNL     1      17.355  -4.472  -2.998  1.00  0.00     0.074 A 
ATOM     58  C   UNL     1      17.416  -4.948  -5.452  1.00  0.00     0.049 A 
ATOM     59  N   UNL     1      17.166  -3.228  -2.697  1.00  0.00    -0.248 NA
ATOM     60  C   UNL     1      17.939  -5.266  -1.903  1.00  0.00     0.031 C 
ATOM     61  C   UNL     1      17.283  -5.734  -6.681  1.00  0.00     0.029 A 
ATOM     62  N   UNL     1      18.240  -3.940  -5.830  1.00  0.00    -0.354 N 
ATOM     63  C   UNL     1      17.783  -3.031  -1.462  1.00  0.00     0.074 A 
ATOM     64  C   UNL     1      18.112  -4.340  -0.959  1.00  0.00     0.031 C 
ATOM     65  C   UNL     1      18.209  -5.320  -7.575  1.00  0.00     0.029 A 
ATOM     66  C   UNL     1      18.884  -4.152  -7.040  1.00  0.00     0.049 A 
ATOM     67  H   UNL     1      18.370  -3.126  -5.292  1.00  0.00     0.167 HD
ATOM     68  C   UNL     1      18.150  -1.796  -1.016  1.00  0.00     0.037 A 
ATOM     69  C   UNL     1      19.963  -3.465  -7.491  1.00  0.00     0.037 A 
ATOM     70  C   UNL     1      17.473  -0.749  -1.730  1.00  0.00     0.049 A 
ATOM     71  C   UNL     1      19.992  -2.173  -6.749  1.00  0.00     0.074 A 
ATOM     72  C   UNL     1      16.152  -0.367  -1.863  1.00  0.00     0.029 A 
ATOM     73  N   UNL     1      18.144  -0.115  -2.748  1.00  0.00    -0.354 N 
ATOM     74  N   UNL     1      19.076  -1.248  -6.868  1.00  0.00    -0.248 NA
ATOM     75  C   UNL     1      20.770  -2.121  -5.518  1.00  0.00     0.031 C 
ATOM     76  C   UNL     1      16.023   0.036  -3.224  1.00  0.00     0.029 A 
ATOM     77  C   UNL     1      17.282  -0.068  -3.816  1.00  0.00     0.049 A 
ATOM     78  H   UNL     1      19.063   0.236  -2.718  1.00  0.00     0.167 HD
ATOM     79  C   UNL     1      18.885  -0.759  -5.583  1.00  0.00     0.074 A 
ATOM     80  C   UNL     1      20.000  -1.296  -4.804  1.00  0.00     0.031 C 
ATOM     81  C   UNL     1      17.701  -0.197  -5.194  1.00  0.00     0.037 A 
BRANCH  68  82
ATOM     82  C   UNL     1      19.358  -1.534  -0.151  1.00  0.00     0.058 A 
ATOM     83  C   UNL     1      19.535  -0.270   0.447  1.00  0.00     0.135 A 
ATOM     84  C   UNL     1      20.483  -2.388  -0.123  1.00  0.00     0.135 A 
ATOM     85  F   UNL     1      18.533   0.623   0.469  1.00  0.00    -0.206 F 
ATOM     86  C   UNL     1      20.761   0.140   0.974  1.00  0.00     0.059 A 
ATOM     87  C   UNL     1      21.698  -2.019   0.443  1.00  0.00     0.059 A 
ATOM     88  F   UNL     1      20.485  -3.580  -0.731  1.00  0.00    -0.206 F 
ATOM     89  C   UNL     1      21.842  -0.738   0.950  1.00  0.00     0.060 A 
BRANCH  89  90
ATOM     90  S   UNL     1      23.456  -0.169   1.512  1.00  0.00     0.124 S 
ATOM     91  O   UNL     1      23.776   0.838   0.507  1.00  0.00    -0.237 OA
ATOM     92  O   UNL     1      23.151   0.334   2.847  1.00  0.00    -0.237 OA
ATOM     93  O   UNL     1      24.272  -1.379   1.476  1.00  0.00    -0.744 OA
ENDBRANCH  89  90
ENDBRANCH  68  82
BRANCH  69  94
ATOM     94  C   UNL     1      21.169  -4.060  -8.131  1.00  0.00     0.058 A 
ATOM     95  C   UNL     1      22.133  -3.252  -8.757  1.00  0.00     0.135 A 
ATOM     96  C   UNL     1      21.539  -5.404  -7.904  1.00  0.00     0.135 A 
ATOM     97  F   UNL     1      21.877  -1.955  -8.987  1.00  0.00    -0.206 F 
ATOM     98  C   UNL     1      23.403  -3.735  -9.099  1.00  0.00     0.059 A 
ATOM     99  C   UNL     1      22.792  -5.909  -8.245  1.00  0.00     0.059 A 
ATOM    100  F   UNL     1      20.724  -6.250  -7.256  1.00  0.00    -0.206 F 
ATOM    101  C   UNL     1      23.729  -5.062  -8.820  1.00  0.00     0.060 A 
BRANCH 101 102
ATOM    102  S   UNL     1      25.417  -5.646  -9.106  1.00  0.00     0.124 S 
ATOM    103  O   UNL     1      25.515  -5.586 -10.561  1.00  0.00    -0.237 OA
ATOM    104  O   UNL     1      26.208  -4.664  -8.372  1.00  0.00    -0.237 OA
ATOM    105  O   UNL     1      25.413  -6.991  -8.537  1.00  0.00    -0.744 OA
ENDBRANCH 101 102
ENDBRANCH  69  94
BRANCH  81 106
ATOM    106  C   UNL     1      16.659   0.090  -6.245  1.00  0.00     0.058 A 
ATOM    107  C   UNL     1      16.009  -0.901  -7.004  1.00  0.00     0.135 A 
ATOM    108  C   UNL     1      16.174   1.401  -6.362  1.00  0.00     0.135 A 
ATOM    109  F   UNL     1      16.332  -2.194  -6.870  1.00  0.00    -0.206 F 
ATOM    110  C   UNL     1      14.955  -0.596  -7.869  1.00  0.00     0.059 A 
ATOM    111  C   UNL     1      15.104   1.724  -7.194  1.00  0.00     0.059 A 
ATOM    112  F   UNL     1      16.704   2.382  -5.613  1.00  0.00    -0.206 F 
ATOM    113  C   UNL     1      14.507   0.722  -7.955  1.00  0.00     0.060 A 
BRANCH 113 114
ATOM    114  S   UNL     1      13.097   1.103  -9.018  1.00  0.00     0.124 S 
ATOM    115  O   UNL     1      13.648   0.879 -10.351  1.00  0.00    -0.237 OA
ATOM    116  O   UNL     1      12.097   0.135  -8.575  1.00  0.00    -0.237 OA
ATOM    117  O   UNL     1      12.792   2.494  -8.696  1.00  0.00    -0.744 OA
ENDBRANCH 113 114
ENDBRANCH  81 106
ENDBRANCH  55  56
ENDBRANCH  47  50
ENDBRANCH  45  46
ENDBRANCH  44  45
ENDBRANCH  43  44
ENDBRANCH   1  43
TORSDOF 22
