REMARK SMILES O=C(NCCCCCCNC(=O)c1cncnc1N1CC[C@H]2[NH2+]CCC[C@]2(CO)C1)c1ccc(-c2c3nc(c(-c4c(F)cc(S(=O)(=O)[O-])cc4F)c4ccc([nH]4)c(-c4c(F)cc(S(=O)(=O)[O-])cc4F)c4nc(c(-c5c(F)cc(S(=O)(=O)[O-])cc5F)c5ccc2[nH]5)C=C4)C=C3)cc1
REMARK SMILES IDX 6 1 5 2 4 3 3 4 1 5 2 6 31 8 32 9 96 10 33 11 95 12 34 13
REMARK SMILES IDX 35 14 36 15 89 16 37 17 94 18 88 19 90 20 38 21 93 22 87 23
REMARK SMILES IDX 86 24 39 26 73 27 52 28 72 29 53 30 56 31 71 32 91 33 54 34
REMARK SMILES IDX 55 35 70 37 92 38 57 39 40 40 41 41 50 42 42 43 43 44 49 45
REMARK SMILES IDX 51 46 44 47 45 48 46 49 47 50 48 51 74 52 75 53 84 54 76 55
REMARK SMILES IDX 77 56 83 57 85 58 78 59 79 60 80 61 81 62 82 63 58 64 59 65
REMARK SMILES IDX 68 66 60 67 61 68 67 69 69 70 62 71 63 72 64 73 65 74 66 75
REMARK SMILES IDX 7 76 8 77 9 78 10 79 11 80 12 82 13 83 14 84 18 85 15 86
REMARK SMILES IDX 17 87 16 88 19 89 20 90 30 91 21 92 27 93 22 94 26 95 23 96
REMARK SMILES IDX 25 97 24 98 28 101 29 102
REMARK H PARENT 3 7 90 25 56 36 10 81 23 99 23 100 29 103
REMARK Flexibility Score: inf
ROOT
ATOM      1  C   UNL     1       4.202   2.375  -3.201  1.00  0.00     0.002 C 
ENDROOT
BRANCH   1   2
ATOM      2  C   UNL     1       4.649   1.055  -2.576  1.00  0.00     0.021 C 
BRANCH   2   3
ATOM      3  C   UNL     1       4.418   0.931  -1.077  1.00  0.00     0.116 C 
BRANCH   3   4
ATOM      4  N   UNL     1       3.010   0.886  -0.718  1.00  0.00    -0.352 N 
ATOM      5  O   UNL     1       1.137   0.021   0.194  1.00  0.00    -0.269 OA
ATOM      6  C   UNL     1       2.357  -0.008   0.102  1.00  0.00     0.251 C 
ATOM      7  H   UNL     1       2.448   1.590  -1.115  1.00  0.00     0.163 HD
BRANCH   6   8
ATOM      8  C   UNL     1       3.141  -1.023   0.847  1.00  0.00     0.039 A 
ATOM      9  C   UNL     1       4.318  -0.665   1.505  1.00  0.00     0.014 A 
ATOM     10  C   UNL     1       2.698  -2.349   0.876  1.00  0.00     0.014 A 
ATOM     11  C   UNL     1       5.127  -1.651   2.055  1.00  0.00     0.010 A 
ATOM     12  C   UNL     1       3.469  -3.327   1.517  1.00  0.00     0.010 A 
ATOM     13  C   UNL     1       4.705  -2.991   2.088  1.00  0.00    -0.014 A 
BRANCH  13  14
ATOM     14  C   UNL     1       5.549  -3.984   2.803  1.00  0.00     0.031 A 
ATOM     15  C   UNL     1       6.210  -5.127   2.082  1.00  0.00     0.074 A 
ATOM     16  C   UNL     1       5.766  -3.797   4.121  1.00  0.00     0.049 A 
ATOM     17  N   UNL     1       7.033  -6.029   2.557  1.00  0.00    -0.248 NA
ATOM     18  C   UNL     1       5.910  -5.288   0.651  1.00  0.00     0.031 C 
ATOM     19  C   UNL     1       5.151  -2.740   4.931  1.00  0.00     0.029 A 
ATOM     20  N   UNL     1       6.578  -4.457   5.005  1.00  0.00    -0.354 N 
ATOM     21  C   UNL     1       7.344  -6.866   1.492  1.00  0.00     0.074 A 
ATOM     22  C   UNL     1       6.597  -6.383   0.349  1.00  0.00     0.031 C 
ATOM     23  C   UNL     1       5.653  -2.786   6.172  1.00  0.00     0.029 A 
ATOM     24  C   UNL     1       6.576  -3.909   6.266  1.00  0.00     0.049 A 
ATOM     25  H   UNL     1       7.112  -5.248   4.760  1.00  0.00     0.167 HD
ATOM     26  C   UNL     1       8.182  -7.932   1.470  1.00  0.00     0.037 A 
ATOM     27  C   UNL     1       7.235  -4.274   7.381  1.00  0.00     0.037 A 
ATOM     28  C   UNL     1       8.928  -8.400   2.613  1.00  0.00     0.049 A 
ATOM     29  C   UNL     1       8.163  -5.451   7.323  1.00  0.00     0.074 A 
ATOM     30  C   UNL     1       9.809  -9.466   2.689  1.00  0.00     0.029 A 
ATOM     31  N   UNL     1       8.886  -7.831   3.878  1.00  0.00    -0.354 N 
ATOM     32  N   UNL     1       8.453  -6.219   6.300  1.00  0.00    -0.248 NA
ATOM     33  C   UNL     1       8.851  -5.814   8.568  1.00  0.00     0.031 C 
ATOM     34  C   UNL     1      10.274  -9.561   4.006  1.00  0.00     0.029 A 
ATOM     35  C   UNL     1       9.716  -8.529   4.742  1.00  0.00     0.049 A 
ATOM     36  H   UNL     1       8.345  -7.046   4.126  1.00  0.00     0.167 HD
ATOM     37  C   UNL     1       9.356  -7.159   6.779  1.00  0.00     0.074 A 
ATOM     38  C   UNL     1       9.593  -6.838   8.172  1.00  0.00     0.031 C 
ATOM     39  C   UNL     1       9.928  -8.202   6.129  1.00  0.00     0.037 A 
BRANCH  26  40
ATOM     40  C   UNL     1       8.347  -8.673   0.171  1.00  0.00     0.058 A 
ATOM     41  C   UNL     1       9.089  -8.135  -0.891  1.00  0.00     0.135 A 
ATOM     42  C   UNL     1       7.823  -9.967   0.013  1.00  0.00     0.135 A 
ATOM     43  F   UNL     1       9.600  -6.897  -0.800  1.00  0.00    -0.206 F 
ATOM     44  C   UNL     1       9.299  -8.848  -2.068  1.00  0.00     0.059 A 
ATOM     45  C   UNL     1       8.037 -10.707  -1.147  1.00  0.00     0.059 A 
ATOM     46  F   UNL     1       7.105 -10.530   0.997  1.00  0.00    -0.206 F 
ATOM     47  C   UNL     1       8.771 -10.136  -2.186  1.00  0.00     0.060 A 
BRANCH  47  48
ATOM     48  S   UNL     1       9.076 -11.057  -3.709  1.00  0.00     0.124 S 
ATOM     49  O   UNL     1       8.199 -10.365  -4.648  1.00  0.00    -0.237 OA
ATOM     50  O   UNL     1      10.507 -10.857  -3.914  1.00  0.00    -0.237 OA
ATOM     51  O   UNL     1       8.680 -12.420  -3.368  1.00  0.00    -0.744 OA
ENDBRANCH  47  48
ENDBRANCH  26  40
BRANCH  27  52
ATOM     52  C   UNL     1       7.018  -3.525   8.646  1.00  0.00     0.058 A 
ATOM     53  C   UNL     1       8.027  -2.728   9.204  1.00  0.00     0.135 A 
ATOM     54  C   UNL     1       5.783  -3.582   9.312  1.00  0.00     0.135 A 
ATOM     55  F   UNL     1       9.224  -2.643   8.604  1.00  0.00    -0.206 F 
ATOM     56  C   UNL     1       7.829  -2.030  10.391  1.00  0.00     0.059 A 
ATOM     57  C   UNL     1       5.551  -2.870  10.483  1.00  0.00     0.059 A 
ATOM     58  F   UNL     1       4.778  -4.313   8.805  1.00  0.00    -0.206 F 
ATOM     59  C   UNL     1       6.587  -2.109  11.024  1.00  0.00     0.060 A 
BRANCH  59  60
ATOM     60  S   UNL     1       6.319  -1.172  12.543  1.00  0.00     0.124 S 
ATOM     61  O   UNL     1       6.992  -2.012  13.526  1.00  0.00    -0.237 OA
ATOM     62  O   UNL     1       6.965   0.102  12.241  1.00  0.00    -0.237 OA
ATOM     63  O   UNL     1       4.863  -1.116  12.647  1.00  0.00    -0.744 OA
ENDBRANCH  59  60
ENDBRANCH  27  52
BRANCH  39  64
ATOM     64  C   UNL     1      10.867  -9.061   6.928  1.00  0.00     0.058 A 
ATOM     65  C   UNL     1      10.391  -9.947   7.908  1.00  0.00     0.135 A 
ATOM     66  C   UNL     1      12.252  -8.996   6.715  1.00  0.00     0.135 A 
ATOM     67  F   UNL     1       9.075 -10.039   8.154  1.00  0.00    -0.206 F 
ATOM     68  C   UNL     1      11.261 -10.710   8.679  1.00  0.00     0.059 A 
ATOM     69  C   UNL     1      13.139  -9.770   7.457  1.00  0.00     0.059 A 
ATOM     70  F   UNL     1      12.756  -8.173   5.782  1.00  0.00    -0.206 F 
ATOM     71  C   UNL     1      12.634 -10.608   8.451  1.00  0.00     0.060 A 
BRANCH  71  72
ATOM     72  S   UNL     1      13.757 -11.597   9.461  1.00  0.00     0.124 S 
ATOM     73  O   UNL     1      13.767 -10.843  10.710  1.00  0.00    -0.237 OA
ATOM     74  O   UNL     1      13.082 -12.891   9.508  1.00  0.00    -0.237 OA
ATOM     75  O   UNL     1      15.003 -11.575   8.702  1.00  0.00    -0.744 OA
ENDBRANCH  71  72
ENDBRANCH  39  64
ENDBRANCH  13  14
ENDBRANCH   6   8
ENDBRANCH   3   4
ENDBRANCH   2   3
ENDBRANCH   1   2
BRANCH   1  76
ATOM     76  C   UNL     1       4.787   3.646  -2.577  1.00  0.00     0.002 C 
BRANCH  76  77
ATOM     77  C   UNL     1       6.312   3.691  -2.429  1.00  0.00     0.021 C 
BRANCH  77  78
ATOM     78  C   UNL     1       7.108   3.397  -3.697  1.00  0.00     0.116 C 
BRANCH  78  79
ATOM     79  N   UNL     1       6.816   4.333  -4.772  1.00  0.00    -0.352 N 
ATOM     80  C   UNL     1       7.672   5.155  -5.466  1.00  0.00     0.256 C 
ATOM     81  H   UNL     1       5.870   4.386  -5.040  1.00  0.00     0.163 HD
ATOM     82  O   UNL     1       7.239   5.885  -6.353  1.00  0.00    -0.269 OA
BRANCH  80  83
ATOM     83  C   UNL     1       9.105   5.124  -5.163  1.00  0.00     0.100 A 
ATOM     84  C   UNL     1       9.792   3.952  -5.427  1.00  0.00     0.130 A 
ATOM     85  C   UNL     1       9.858   6.213  -4.741  1.00  0.00     0.144 A 
ATOM     86  N   UNL     1      11.111   3.789  -5.224  1.00  0.00    -0.244 NA
ATOM     87  N   UNL     1      11.190   6.072  -4.535  1.00  0.00    -0.219 NA
ATOM     88  C   UNL     1      11.747   4.874  -4.771  1.00  0.00     0.224 A 
BRANCH  85  89
ATOM     89  N   UNL     1       9.389   7.511  -4.576  1.00  0.00    -0.355 N 
ATOM     90  C   UNL     1       8.142   7.779  -3.870  1.00  0.00     0.124 C 
ATOM     91  C   UNL     1       9.730   8.355  -5.731  1.00  0.00     0.133 C 
ATOM     92  C   UNL     1       8.046   9.259  -3.488  1.00  0.00     0.087 C 
ATOM     93  C   UNL     1       9.645   9.856  -5.383  1.00  0.00     0.063 C 
ATOM     94  C   UNL     1       8.265  10.130  -4.732  1.00  0.00     0.194 C 
ATOM     95  C   UNL     1       9.718  10.680  -6.694  1.00  0.00     0.023 C 
ATOM     96  N   UNL     1       8.095  11.562  -4.423  1.00  0.00    -0.343 N 
ATOM     97  C   UNL     1       9.437  12.160  -6.442  1.00  0.00     0.062 C 
ATOM     98  C   UNL     1       8.145  12.366  -5.650  1.00  0.00     0.260 C 
ATOM     99  H   UNL     1       8.843  11.861  -3.796  1.00  0.00     0.346 HD
ATOM    100  H   UNL     1       7.187  11.696  -3.979  1.00  0.00     0.346 HD
BRANCH  93 101
ATOM    101  C   UNL     1      10.821  10.223  -4.439  1.00  0.00     0.171 C 
BRANCH 101 102
ATOM    102  O   UNL     1      12.074  10.143  -5.121  1.00  0.00    -0.395 OA
ATOM    103  H   UNL     1      12.214   9.236  -5.434  1.00  0.00     0.210 HD
ENDBRANCH 101 102
ENDBRANCH  93 101
ENDBRANCH  85  89
ENDBRANCH  80  83
ENDBRANCH  78  79
ENDBRANCH  77  78
ENDBRANCH  76  77
ENDBRANCH   1  76
TORSDOF 19
