REMARK SMILES C[C@@H]1Oc2c(C(=O)NCCCCCCNC(=O)c3ccc(-c4c5nc(c(-c6c(F)cc(S(=O)(=O)[O-])cc6F)c6ccc([nH]6)c(-c6c(F)cc(S(=O)(=O)[O-])cc6F)c6nc(c(-c7c(F)cc(S(=O)(=O)[O-])cc7F)c7ccc4[nH]7)C=C6)C=C5)cc3)cccc2[C@@H]1C
REMARK SMILES IDX 13 1 12 2 11 3 10 4 9 5 8 6 6 7 7 8 5 10 1 11 2 12 3 13
REMARK SMILES IDX 88 14 4 15 87 16 89 17 86 18 84 19 85 20 14 21 15 22 16 23
REMARK SMILES IDX 17 25 18 26 19 27 83 28 20 29 82 30 21 31 22 32 23 33 76 34
REMARK SMILES IDX 24 35 81 36 75 37 77 38 25 39 80 40 74 41 73 42 26 44 60 45
REMARK SMILES IDX 39 46 59 47 40 48 43 49 58 50 78 51 41 52 42 53 57 55 79 56
REMARK SMILES IDX 44 57 27 58 28 59 37 60 29 61 30 62 36 63 38 64 31 65 32 66
REMARK SMILES IDX 33 67 34 68 35 69 61 70 62 71 71 72 63 73 64 74 70 75 72 76
REMARK SMILES IDX 65 77 66 78 67 79 68 80 69 81 45 82 46 83 55 84 47 85 48 86
REMARK SMILES IDX 54 87 56 88 49 89 50 90 51 91 52 92 53 93
REMARK H PARENT 8 9 15 24 77 43 43 54
REMARK Flexibility Score: inf
ROOT
ATOM      1  C   UNL     1       0.609 -11.943   2.193  1.00  0.00     0.021 C 
ENDROOT
BRANCH   1   2
ATOM      2  C   UNL     1       0.766 -11.370   0.783  1.00  0.00     0.002 C 
BRANCH   2   3
ATOM      3  C   UNL     1      -0.280 -10.319   0.384  1.00  0.00     0.002 C 
BRANCH   3   4
ATOM      4  C   UNL     1      -0.436  -9.146   1.365  1.00  0.00     0.021 C 
BRANCH   4   5
ATOM      5  C   UNL     1       0.824  -8.284   1.486  1.00  0.00     0.116 C 
BRANCH   5   6
ATOM      6  N   UNL     1       0.917  -7.387   0.351  1.00  0.00    -0.352 N 
ATOM      7  C   UNL     1       0.582  -6.075   0.127  1.00  0.00     0.255 C 
ATOM      8  O   UNL     1       0.707  -5.702  -1.041  1.00  0.00    -0.269 OA
ATOM      9  H   UNL     1       1.310  -7.819  -0.442  1.00  0.00     0.163 HD
BRANCH   7  10
ATOM     10  C   UNL     1       0.125  -5.121   1.186  1.00  0.00     0.082 A 
ATOM     11  C   UNL     1       0.176  -1.067  -1.244  1.00  0.00     0.053 C 
ATOM     12  C   UNL     1       0.687  -1.741   0.023  1.00  0.00     0.177 C 
ATOM     13  O   UNL     1       0.674  -3.169  -0.207  1.00  0.00    -0.489 OA
ATOM     14  C   UNL     1      -0.086  -1.427   1.323  1.00  0.00     0.060 C 
ATOM     15  C   UNL     1       0.227  -3.746   0.955  1.00  0.00     0.136 A 
ATOM     16  C   UNL     1      -0.176  -2.800   1.893  1.00  0.00     0.001 A 
ATOM     17  C   UNL     1      -1.476  -0.819   1.151  1.00  0.00     0.017 C 
ATOM     18  C   UNL     1      -0.662  -3.182   3.131  1.00  0.00     0.008 A 
ATOM     19  C   UNL     1      -0.455  -5.496   2.407  1.00  0.00     0.018 A 
ATOM     20  C   UNL     1      -0.809  -4.543   3.382  1.00  0.00     0.001 A 
ENDBRANCH   7  10
ENDBRANCH   5   6
ENDBRANCH   4   5
ENDBRANCH   3   4
ENDBRANCH   2   3
ENDBRANCH   1   2
BRANCH   1  21
ATOM     21  C   UNL     1      -0.711 -12.666   2.438  1.00  0.00     0.116 C 
BRANCH  21  22
ATOM     22  N   UNL     1      -0.806 -13.908   1.684  1.00  0.00    -0.352 N 
ATOM     23  C   UNL     1      -1.103 -15.175   2.133  1.00  0.00     0.251 C 
ATOM     24  H   UNL     1      -0.634 -13.831   0.718  1.00  0.00     0.163 HD
ATOM     25  O   UNL     1      -0.965 -16.139   1.397  1.00  0.00    -0.269 OA
BRANCH  23  26
ATOM     26  C   UNL     1      -1.565 -15.358   3.529  1.00  0.00     0.039 A 
ATOM     27  C   UNL     1      -2.549 -14.525   4.065  1.00  0.00     0.014 A 
ATOM     28  C   UNL     1      -0.989 -16.361   4.313  1.00  0.00     0.014 A 
ATOM     29  C   UNL     1      -2.846 -14.594   5.422  1.00  0.00     0.010 A 
ATOM     30  C   UNL     1      -1.345 -16.478   5.660  1.00  0.00     0.010 A 
ATOM     31  C   UNL     1      -2.243 -15.567   6.237  1.00  0.00    -0.014 A 
BRANCH  31  32
ATOM     32  C   UNL     1      -2.564 -15.603   7.688  1.00  0.00     0.031 A 
ATOM     33  C   UNL     1      -1.509 -15.291   8.717  1.00  0.00     0.074 A 
ATOM     34  C   UNL     1      -3.830 -15.857   8.075  1.00  0.00     0.049 A 
ATOM     35  N   UNL     1      -1.617 -15.252  10.021  1.00  0.00    -0.248 NA
ATOM     36  C   UNL     1      -0.159 -14.982   8.220  1.00  0.00     0.031 C 
ATOM     37  C   UNL     1      -4.941 -16.161   7.170  1.00  0.00     0.029 A 
ATOM     38  N   UNL     1      -4.403 -15.874   9.321  1.00  0.00    -0.354 N 
ATOM     39  C   UNL     1      -0.352 -14.931  10.500  1.00  0.00     0.074 A 
ATOM     40  C   UNL     1       0.516 -14.812   9.349  1.00  0.00     0.031 C 
ATOM     41  C   UNL     1      -6.070 -16.277   7.885  1.00  0.00     0.029 A 
ATOM     42  C   UNL     1      -5.756 -16.116   9.301  1.00  0.00     0.049 A 
ATOM     43  H   UNL     1      -3.894 -15.726  10.151  1.00  0.00     0.167 HD
ATOM     44  C   UNL     1       0.044 -14.738  11.781  1.00  0.00     0.037 A 
ATOM     45  C   UNL     1      -6.645 -16.209  10.308  1.00  0.00     0.037 A 
ATOM     46  C   UNL     1      -0.828 -14.837  12.923  1.00  0.00     0.049 A 
ATOM     47  C   UNL     1      -6.171 -16.032  11.722  1.00  0.00     0.074 A 
ATOM     48  C   UNL     1      -0.521 -14.649  14.260  1.00  0.00     0.029 A 
ATOM     49  N   UNL     1      -2.180 -15.145  12.864  1.00  0.00    -0.354 N 
ATOM     50  N   UNL     1      -4.968 -15.738  12.155  1.00  0.00    -0.248 NA
ATOM     51  C   UNL     1      -7.169 -16.213  12.785  1.00  0.00     0.031 C 
ATOM     52  C   UNL     1      -1.679 -14.876  15.012  1.00  0.00     0.029 A 
ATOM     53  C   UNL     1      -2.716 -15.168  14.141  1.00  0.00     0.049 A 
ATOM     54  H   UNL     1      -2.683 -15.322  12.037  1.00  0.00     0.167 HD
ATOM     55  C   UNL     1      -5.065 -15.694  13.540  1.00  0.00     0.074 A 
ATOM     56  C   UNL     1      -6.449 -15.970  13.872  1.00  0.00     0.031 C 
ATOM     57  C   UNL     1      -4.094 -15.452  14.454  1.00  0.00     0.037 A 
BRANCH  44  58
ATOM     58  C   UNL     1       1.490 -14.404  12.024  1.00  0.00     0.058 A 
ATOM     59  C   UNL     1       2.010 -13.134  11.729  1.00  0.00     0.135 A 
ATOM     60  C   UNL     1       2.353 -15.345  12.610  1.00  0.00     0.135 A 
ATOM     61  F   UNL     1       1.232 -12.203  11.154  1.00  0.00    -0.206 F 
ATOM     62  C   UNL     1       3.338 -12.813  11.990  1.00  0.00     0.059 A 
ATOM     63  C   UNL     1       3.680 -15.039  12.899  1.00  0.00     0.059 A 
ATOM     64  F   UNL     1       1.908 -16.575  12.911  1.00  0.00    -0.206 F 
ATOM     65  C   UNL     1       4.166 -13.773  12.576  1.00  0.00     0.060 A 
BRANCH  65  66
ATOM     66  S   UNL     1       5.884 -13.334  12.916  1.00  0.00     0.124 S 
ATOM     67  O   UNL     1       6.448 -13.304  11.570  1.00  0.00    -0.237 OA
ATOM     68  O   UNL     1       5.751 -12.039  13.576  1.00  0.00    -0.237 OA
ATOM     69  O   UNL     1       6.352 -14.424  13.768  1.00  0.00    -0.744 OA
ENDBRANCH  65  66
ENDBRANCH  44  58
BRANCH  45  70
ATOM     70  C   UNL     1      -8.073 -16.482  10.005  1.00  0.00     0.058 A 
ATOM     71  C   UNL     1      -9.045 -15.484  10.161  1.00  0.00     0.135 A 
ATOM     72  C   UNL     1      -8.486 -17.730   9.512  1.00  0.00     0.135 A 
ATOM     73  F   UNL     1      -8.699 -14.278  10.635  1.00  0.00    -0.206 F 
ATOM     74  C   UNL     1     -10.379 -15.713   9.838  1.00  0.00     0.059 A 
ATOM     75  C   UNL     1      -9.809 -17.975   9.161  1.00  0.00     0.059 A 
ATOM     76  F   UNL     1      -7.590 -18.712   9.334  1.00  0.00    -0.206 F 
ATOM     77  C   UNL     1     -10.750 -16.960   9.332  1.00  0.00     0.060 A 
BRANCH  77  78
ATOM     78  S   UNL     1     -12.470 -17.222   8.849  1.00  0.00     0.124 S 
ATOM     79  O   UNL     1     -13.127 -17.325  10.147  1.00  0.00    -0.237 OA
ATOM     80  O   UNL     1     -12.759 -16.015   8.081  1.00  0.00    -0.237 OA
ATOM     81  O   UNL     1     -12.415 -18.454   8.069  1.00  0.00    -0.744 OA
ENDBRANCH  77  78
ENDBRANCH  45  70
BRANCH  57  82
ATOM     82  C   UNL     1      -4.491 -15.471  15.903  1.00  0.00     0.058 A 
ATOM     83  C   UNL     1      -4.727 -16.677  16.578  1.00  0.00     0.135 A 
ATOM     84  C   UNL     1      -4.575 -14.277  16.637  1.00  0.00     0.135 A 
ATOM     85  F   UNL     1      -4.667 -17.845  15.918  1.00  0.00    -0.206 F 
ATOM     86  C   UNL     1      -5.045 -16.700  17.932  1.00  0.00     0.059 A 
ATOM     87  C   UNL     1      -4.870 -14.277  17.996  1.00  0.00     0.059 A 
ATOM     88  F   UNL     1      -4.350 -13.097  16.037  1.00  0.00    -0.206 F 
ATOM     89  C   UNL     1      -5.112 -15.494  18.633  1.00  0.00     0.060 A 
BRANCH  89  90
ATOM     90  S   UNL     1      -5.483 -15.542  20.399  1.00  0.00     0.124 S 
ATOM     91  O   UNL     1      -6.907 -15.858  20.392  1.00  0.00    -0.237 OA
ATOM     92  O   UNL     1      -4.600 -16.602  20.875  1.00  0.00    -0.237 OA
ATOM     93  O   UNL     1      -5.140 -14.198  20.855  1.00  0.00    -0.744 OA
ENDBRANCH  89  90
ENDBRANCH  57  82
ENDBRANCH  31  32
ENDBRANCH  23  26
ENDBRANCH  21  22
ENDBRANCH   1  21
TORSDOF 16
