REMARK SMILES Cc1cc(N2N=C(C(=O)NCCCCCCNC(=O)c3ccc(-c4c5nc(c(-c6c(F)cc(S(=O)(=O)[O-])cc6F)c6ccc([nH]6)c(-c6c(F)cc(S(=O)(=O)[O-])cc6F)c6nc(c(-c7c(F)cc(S(=O)(=O)[O-])cc7F)c7ccc4[nH]7)C=C6)C=C5)cc3)C[C@H]2c2ccccc2)c([N+](=O)[O-])cc1C
REMARK SMILES IDX 14 1 13 2 12 3 11 4 10 5 8 6 9 7 7 9 5 10 6 11 87 12 86 13
REMARK SMILES IDX 4 14 1 15 2 16 3 17 99 18 98 19 100 20 94 21 95 22 96 23
REMARK SMILES IDX 97 24 88 25 89 26 93 27 90 28 92 29 91 30 15 31 16 32 17 33
REMARK SMILES IDX 18 34 19 36 20 37 21 38 85 39 22 40 84 41 23 42 24 43 25 44
REMARK SMILES IDX 78 45 26 46 83 47 77 48 79 49 27 50 82 51 76 52 75 53 28 55
REMARK SMILES IDX 62 56 41 57 61 58 42 59 45 60 60 61 80 62 43 63 44 64 59 66
REMARK SMILES IDX 81 67 46 68 29 69 30 70 39 71 31 72 32 73 38 74 40 75 33 76
REMARK SMILES IDX 34 77 35 78 36 79 37 80 63 81 64 82 73 83 65 84 66 85 72 86
REMARK SMILES IDX 74 87 67 88 68 89 69 90 70 91 71 92 47 93 48 94 57 95 49 96
REMARK SMILES IDX 50 97 56 98 58 99 51 100 52 101 53 102 54 103 55 104
REMARK H PARENT 10 8 17 35 79 54 45 65
REMARK Flexibility Score: inf
ROOT
ATOM      1  C   UNL     1     -10.378   4.867   0.527  1.00  0.00     0.002 C 
ENDROOT
BRANCH   1   2
ATOM      2  C   UNL     1     -10.233   3.365   0.266  1.00  0.00     0.002 C 
BRANCH   2   3
ATOM      3  C   UNL     1      -9.018   2.951  -0.565  1.00  0.00     0.021 C 
BRANCH   3   4
ATOM      4  C   UNL     1      -7.668   3.390  -0.008  1.00  0.00     0.116 C 
BRANCH   4   5
ATOM      5  N   UNL     1      -7.287   2.619   1.157  1.00  0.00    -0.351 N 
ATOM      6  C   UNL     1      -6.139   1.970   1.536  1.00  0.00     0.267 C 
ATOM      7  O   UNL     1      -6.155   1.377   2.614  1.00  0.00    -0.268 OA
ATOM      8  H   UNL     1      -8.009   2.545   1.822  1.00  0.00     0.163 HD
BRANCH   6   9
ATOM      9  C   UNL     1      -4.845   1.975   0.732  1.00  0.00     0.128 C 
ATOM     10  N   UNL     1      -2.764   1.685   0.323  1.00  0.00    -0.250 N 
ATOM     11  N   UNL     1      -3.756   1.461   1.226  1.00  0.00    -0.171 NA
ATOM     12  C   UNL     1      -3.227   2.338  -0.909  1.00  0.00     0.144 C 
ATOM     13  C   UNL     1      -4.726   2.505  -0.658  1.00  0.00     0.096 C 
BRANCH  10  14
ATOM     14  C   UNL     1      -1.672   0.818   0.274  1.00  0.00     0.138 A 
ATOM     15  C   UNL     1       2.107   1.347   0.268  1.00  0.00     0.045 C 
ATOM     16  C   UNL     1       0.789   0.622   0.237  1.00  0.00    -0.046 A 
ATOM     17  C   UNL     1      -0.389   1.380   0.363  1.00  0.00     0.039 A 
ATOM     18  C   UNL     1       0.694  -0.771   0.077  1.00  0.00    -0.041 A 
ATOM     19  C   UNL     1      -0.579  -1.361   0.029  1.00  0.00     0.091 A 
ATOM     20  C   UNL     1       1.896  -1.667  -0.035  1.00  0.00     0.045 C 
ATOM     21  C   UNL     1      -1.740  -0.570   0.116  1.00  0.00     0.294 A 
BRANCH  21  22
ATOM     22  N   UNL     1      -3.017  -1.248  -0.053  1.00  0.00     0.065 N 
ATOM     23  O   UNL     1      -3.195  -2.290   0.599  1.00  0.00    -0.258 OA
ATOM     24  O   UNL     1      -3.794  -0.816  -0.920  1.00  0.00    -0.258 OA
ENDBRANCH  21  22
ENDBRANCH  10  14
BRANCH  12  25
ATOM     25  C   UNL     1      -2.455   3.621  -1.193  1.00  0.00    -0.023 A 
ATOM     26  C   UNL     1      -2.837   4.882  -0.707  1.00  0.00     0.006 A 
ATOM     27  C   UNL     1      -1.278   3.544  -1.963  1.00  0.00     0.006 A 
ATOM     28  C   UNL     1      -2.094   6.026  -1.014  1.00  0.00     0.000 A 
ATOM     29  C   UNL     1      -0.513   4.681  -2.232  1.00  0.00     0.000 A 
ATOM     30  C   UNL     1      -0.930   5.924  -1.768  1.00  0.00     0.000 A 
ENDBRANCH  12  25
ENDBRANCH   6   9
ENDBRANCH   4   5
ENDBRANCH   3   4
ENDBRANCH   2   3
ENDBRANCH   1   2
BRANCH   1  31
ATOM     31  C   UNL     1     -10.265   5.772  -0.703  1.00  0.00     0.021 C 
BRANCH  31  32
ATOM     32  C   UNL     1     -11.220   5.441  -1.845  1.00  0.00     0.116 C 
BRANCH  32  33
ATOM     33  N   UNL     1     -12.614   5.600  -1.466  1.00  0.00    -0.352 N 
ATOM     34  C   UNL     1     -13.601   6.313  -2.102  1.00  0.00     0.251 C 
ATOM     35  H   UNL     1     -12.887   5.135  -0.643  1.00  0.00     0.163 HD
ATOM     36  O   UNL     1     -14.691   6.479  -1.561  1.00  0.00    -0.269 OA
BRANCH  34  37
ATOM     37  C   UNL     1     -13.332   6.900  -3.431  1.00  0.00     0.039 A 
ATOM     38  C   UNL     1     -13.635   8.246  -3.655  1.00  0.00     0.014 A 
ATOM     39  C   UNL     1     -12.763   6.126  -4.446  1.00  0.00     0.014 A 
ATOM     40  C   UNL     1     -13.302   8.835  -4.877  1.00  0.00     0.010 A 
ATOM     41  C   UNL     1     -12.377   6.730  -5.639  1.00  0.00     0.010 A 
ATOM     42  C   UNL     1     -12.639   8.091  -5.865  1.00  0.00    -0.014 A 
BRANCH  42  43
ATOM     43  C   UNL     1     -12.201   8.702  -7.147  1.00  0.00     0.031 A 
ATOM     44  C   UNL     1     -12.784   8.210  -8.443  1.00  0.00     0.074 A 
ATOM     45  C   UNL     1     -11.209   9.616  -7.151  1.00  0.00     0.049 A 
ATOM     46  N   UNL     1     -12.419   8.483  -9.668  1.00  0.00    -0.248 NA
ATOM     47  C   UNL     1     -13.906   7.262  -8.346  1.00  0.00     0.031 C 
ATOM     48  C   UNL     1     -10.538  10.143  -5.960  1.00  0.00     0.029 A 
ATOM     49  N   UNL     1     -10.570  10.239  -8.194  1.00  0.00    -0.354 N 
ATOM     50  C   UNL     1     -13.241   7.717 -10.487  1.00  0.00     0.074 A 
ATOM     51  C   UNL     1     -14.104   6.946  -9.618  1.00  0.00     0.031 C 
ATOM     52  C   UNL     1      -9.579  11.004  -6.340  1.00  0.00     0.029 A 
ATOM     53  C   UNL     1      -9.538  11.058  -7.798  1.00  0.00     0.049 A 
ATOM     54  H   UNL     1     -10.826  10.112  -9.136  1.00  0.00     0.167 HD
ATOM     55  C   UNL     1     -13.279   7.672 -11.839  1.00  0.00     0.037 A 
ATOM     56  C   UNL     1      -8.641  11.752  -8.527  1.00  0.00     0.037 A 
ATOM     57  C   UNL     1     -12.448   8.476 -12.695  1.00  0.00     0.049 A 
ATOM     58  C   UNL     1      -8.715  11.698 -10.030  1.00  0.00     0.074 A 
ATOM     59  C   UNL     1     -12.466   8.560 -14.077  1.00  0.00     0.029 A 
ATOM     60  N   UNL     1     -11.452   9.334 -12.255  1.00  0.00    -0.354 N 
ATOM     61  N   UNL     1      -9.540  11.015 -10.788  1.00  0.00    -0.248 NA
ATOM     62  C   UNL     1      -7.741  12.506 -10.778  1.00  0.00     0.031 C 
ATOM     63  C   UNL     1     -11.454   9.439 -14.474  1.00  0.00     0.029 A 
ATOM     64  C   UNL     1     -10.836   9.937 -13.338  1.00  0.00     0.049 A 
ATOM     65  H   UNL     1     -11.218   9.492 -11.312  1.00  0.00     0.167 HD
ATOM     66  C   UNL     1      -9.204  11.335 -12.099  1.00  0.00     0.074 A 
ATOM     67  C   UNL     1      -8.105  12.275 -12.033  1.00  0.00     0.031 C 
ATOM     68  C   UNL     1      -9.758  10.890 -13.253  1.00  0.00     0.037 A 
BRANCH  55  69
ATOM     69  C   UNL     1     -14.251   6.725 -12.485  1.00  0.00     0.058 A 
ATOM     70  C   UNL     1     -15.633   6.966 -12.477  1.00  0.00     0.135 A 
ATOM     71  C   UNL     1     -13.787   5.592 -13.174  1.00  0.00     0.135 A 
ATOM     72  F   UNL     1     -16.131   8.026 -11.820  1.00  0.00    -0.206 F 
ATOM     73  C   UNL     1     -16.524   6.107 -13.113  1.00  0.00     0.059 A 
ATOM     74  C   UNL     1     -14.658   4.734 -13.839  1.00  0.00     0.059 A 
ATOM     75  F   UNL     1     -12.475   5.314 -13.211  1.00  0.00    -0.206 F 
ATOM     76  C   UNL     1     -16.027   4.995 -13.793  1.00  0.00     0.060 A 
BRANCH  76  77
ATOM     77  S   UNL     1     -17.194   3.904 -14.633  1.00  0.00     0.124 S 
ATOM     78  O   UNL     1     -17.806   3.210 -13.505  1.00  0.00    -0.237 OA
ATOM     79  O   UNL     1     -18.055   4.851 -15.336  1.00  0.00    -0.237 OA
ATOM     80  O   UNL     1     -16.341   3.084 -15.487  1.00  0.00    -0.744 OA
ENDBRANCH  76  77
ENDBRANCH  55  69
BRANCH  56  81
ATOM     81  C   UNL     1      -7.589  12.554  -7.847  1.00  0.00     0.058 A 
ATOM     82  C   UNL     1      -7.620  13.956  -7.869  1.00  0.00     0.135 A 
ATOM     83  C   UNL     1      -6.533  11.935  -7.160  1.00  0.00     0.135 A 
ATOM     84  F   UNL     1      -8.606  14.594  -8.518  1.00  0.00    -0.206 F 
ATOM     85  C   UNL     1      -6.631  14.718  -7.253  1.00  0.00     0.059 A 
ATOM     86  C   UNL     1      -5.546  12.675  -6.515  1.00  0.00     0.059 A 
ATOM     87  F   UNL     1      -6.467  10.596  -7.093  1.00  0.00    -0.206 F 
ATOM     88  C   UNL     1      -5.597  14.066  -6.579  1.00  0.00     0.060 A 
BRANCH  88  89
ATOM     89  S   UNL     1      -4.338  15.061  -5.750  1.00  0.00     0.124 S 
ATOM     90  O   UNL     1      -3.546  15.532  -6.881  1.00  0.00    -0.237 OA
ATOM     91  O   UNL     1      -5.142  16.070  -5.068  1.00  0.00    -0.237 OA
ATOM     92  O   UNL     1      -3.677  14.099  -4.872  1.00  0.00    -0.744 OA
ENDBRANCH  88  89
ENDBRANCH  56  81
BRANCH  68  93
ATOM     93  C   UNL     1      -9.224  11.441 -14.544  1.00  0.00     0.058 A 
ATOM     94  C   UNL     1      -7.995  11.021 -15.073  1.00  0.00     0.135 A 
ATOM     95  C   UNL     1      -9.998  12.332 -15.306  1.00  0.00     0.135 A 
ATOM     96  F   UNL     1      -7.214  10.177 -14.380  1.00  0.00    -0.206 F 
ATOM     97  C   UNL     1      -7.549  11.467 -16.313  1.00  0.00     0.059 A 
ATOM     98  C   UNL     1      -9.584  12.771 -16.558  1.00  0.00     0.059 A 
ATOM     99  F   UNL     1     -11.186  12.757 -14.847  1.00  0.00    -0.206 F 
ATOM    100  C   UNL     1      -8.355  12.336 -17.052  1.00  0.00     0.060 A 
BRANCH 100 101
ATOM    101  S   UNL     1      -7.798  12.851 -18.690  1.00  0.00     0.124 S 
ATOM    102  O   UNL     1      -6.746  13.805 -18.356  1.00  0.00    -0.237 OA
ATOM    103  O   UNL     1      -7.349  11.592 -19.278  1.00  0.00    -0.237 OA
ATOM    104  O   UNL     1      -8.998  13.424 -19.293  1.00  0.00    -0.744 OA
ENDBRANCH 100 101
ENDBRANCH  68  93
ENDBRANCH  42  43
ENDBRANCH  34  37
ENDBRANCH  32  33
ENDBRANCH  31  32
ENDBRANCH   1  31
TORSDOF 19
