REMARK SMILES COc1ccc(-c2ccc(C(=O)NCc3ccc(C(=O)NCCCCCCNC(=O)c4ccc(-c5c6nc(c(-c7c(F)cc(S(=O)(=O)[O-])cc7F)c7ccc([nH]7)c(-c7c(F)cc(S(=O)(=O)[O-])cc7F)c7nc(c(-c8c(F)cc(S(=O)(=O)[O-])cc8F)c8ccc5[nH]8)C=C7)C=C6)cc4)cc3)o2)c([N+](=O)[O-])c1
REMARK SMILES IDX 23 1 22 2 21 3 19 4 20 5 18 7 15 8 16 9 98 10 17 11 97 12
REMARK SMILES IDX 14 13 13 14 11 15 12 16 10 18 7 19 8 20 99 21 9 22 6 23 3 24
REMARK SMILES IDX 4 25 104 26 5 27 100 28 2 29 1 30 101 31 102 32 103 33 24 34
REMARK SMILES IDX 25 35 26 36 27 37 28 38 29 39 30 41 31 42 32 43 96 44 33 45
REMARK SMILES IDX 95 46 34 47 35 48 36 49 89 50 37 51 94 52 88 53 90 54 38 55
REMARK SMILES IDX 93 56 87 57 86 58 39 60 73 61 52 62 72 63 53 64 56 65 71 66
REMARK SMILES IDX 91 67 54 68 55 69 70 71 92 72 57 73 40 74 41 75 50 76 42 77
REMARK SMILES IDX 43 78 49 79 51 80 44 81 45 82 46 83 47 84 48 85 74 86 75 87
REMARK SMILES IDX 84 88 76 89 77 90 83 91 85 92 78 93 79 94 80 95 81 96 82 97
REMARK SMILES IDX 58 98 59 99 68 100 60 101 61 102 67 103 69 104 62 105 63 106
REMARK SMILES IDX 64 107 65 108 66 109
REMARK H PARENT 21 6 13 17 28 40 90 59 56 70
REMARK Flexibility Score: inf
ROOT
ATOM      1  C   UNL     1       1.112  10.587 -10.395  1.00  0.00     0.021 C 
ENDROOT
BRANCH   1   2
ATOM      2  C   UNL     1       2.608  10.741 -10.115  1.00  0.00     0.116 C 
BRANCH   2   3
ATOM      3  N   UNL     1       2.925  12.138  -9.887  1.00  0.00    -0.352 N 
ATOM      4  C   UNL     1       3.228  12.850  -8.757  1.00  0.00     0.251 C 
ATOM      5  O   UNL     1       3.443  14.057  -8.880  1.00  0.00    -0.269 OA
ATOM      6  H   UNL     1       2.922  12.683 -10.707  1.00  0.00     0.163 HD
BRANCH   4   7
ATOM      7  C   UNL     1       3.381  12.225  -7.416  1.00  0.00     0.039 A 
ATOM      8  C   UNL     1       3.891  11.117  -4.863  1.00  0.00    -0.029 A 
ATOM      9  C   UNL     1       4.569  12.265  -5.290  1.00  0.00     0.006 A 
ATOM     10  C   UNL     1       2.917  10.567  -5.709  1.00  0.00     0.006 A 
ATOM     11  C   UNL     1       4.314  12.812  -6.551  1.00  0.00     0.014 A 
ATOM     12  C   UNL     1       2.646  11.131  -6.962  1.00  0.00     0.014 A 
BRANCH   8  13
ATOM     13  C   UNL     1       4.230  10.492  -3.532  1.00  0.00     0.152 C 
BRANCH  13  14
ATOM     14  N   UNL     1       3.058  10.316  -2.709  1.00  0.00    -0.345 N 
ATOM     15  C   UNL     1       2.348   9.202  -2.341  1.00  0.00     0.287 C 
ATOM     16  O   UNL     1       1.445   9.407  -1.521  1.00  0.00    -0.266 OA
ATOM     17  H   UNL     1       2.700  11.156  -2.342  1.00  0.00     0.164 HD
BRANCH  15  18
ATOM     18  C   UNL     1       2.632   7.883  -2.879  1.00  0.00     0.192 A 
ATOM     19  C   UNL     1       2.414   5.679  -2.859  1.00  0.00     0.142 A 
ATOM     20  C   UNL     1       3.225   5.969  -3.929  1.00  0.00     0.052 A 
ATOM     21  O   UNL     1       2.029   6.822  -2.238  1.00  0.00    -0.451 OA
ATOM     22  C   UNL     1       3.362   7.379  -3.944  1.00  0.00     0.057 A 
BRANCH  19  23
ATOM     23  C   UNL     1       1.917   4.444  -2.284  1.00  0.00     0.095 A 
ATOM     24  C   UNL     1       0.884   1.968  -1.383  1.00  0.00     0.125 A 
ATOM     25  C   UNL     1       0.055   2.903  -2.007  1.00  0.00     0.047 A 
ATOM     26  C   UNL     1       2.231   2.266  -1.197  1.00  0.00     0.132 A 
ATOM     27  C   UNL     1       0.560   4.132  -2.443  1.00  0.00     0.023 A 
ATOM     28  C   UNL     1       2.737   3.502  -1.642  1.00  0.00     0.284 A 
BRANCH  24  29
ATOM     29  O   UNL     1       0.273   0.796  -1.040  1.00  0.00    -0.497 OA
ATOM     30  C   UNL     1       0.904   0.018  -0.031  1.00  0.00     0.278 C 
ENDBRANCH  24  29
BRANCH  28  31
ATOM     31  N   UNL     1       4.155   3.767  -1.407  1.00  0.00     0.063 N 
ATOM     32  O   UNL     1       4.489   4.897  -1.028  1.00  0.00    -0.258 OA
ATOM     33  O   UNL     1       4.938   2.818  -1.560  1.00  0.00    -0.258 OA
ENDBRANCH  28  31
ENDBRANCH  19  23
ENDBRANCH  15  18
ENDBRANCH  13  14
ENDBRANCH   8  13
ENDBRANCH   4   7
ENDBRANCH   2   3
ENDBRANCH   1   2
BRANCH   1  34
ATOM     34  C   UNL     1       0.709  11.059 -11.801  1.00  0.00     0.002 C 
BRANCH  34  35
ATOM     35  C   UNL     1       1.348  10.271 -12.951  1.00  0.00     0.002 C 
BRANCH  35  36
ATOM     36  C   UNL     1       1.117   8.758 -12.901  1.00  0.00     0.021 C 
BRANCH  36  37
ATOM     37  C   UNL     1      -0.350   8.348 -12.966  1.00  0.00     0.116 C 
BRANCH  37  38
ATOM     38  N   UNL     1      -0.949   8.709 -14.240  1.00  0.00    -0.352 N 
ATOM     39  C   UNL     1      -1.613   7.916 -15.140  1.00  0.00     0.251 C 
ATOM     40  H   UNL     1      -0.866   9.657 -14.492  1.00  0.00     0.163 HD
ATOM     41  O   UNL     1      -1.835   8.334 -16.273  1.00  0.00    -0.269 OA
BRANCH  39  42
ATOM     42  C   UNL     1      -2.056   6.562 -14.746  1.00  0.00     0.039 A 
ATOM     43  C   UNL     1      -1.923   5.513 -15.659  1.00  0.00     0.014 A 
ATOM     44  C   UNL     1      -2.639   6.334 -13.495  1.00  0.00     0.014 A 
ATOM     45  C   UNL     1      -2.351   4.231 -15.307  1.00  0.00     0.010 A 
ATOM     46  C   UNL     1      -2.995   5.043 -13.119  1.00  0.00     0.010 A 
ATOM     47  C   UNL     1      -2.878   3.983 -14.029  1.00  0.00    -0.014 A 
BRANCH  47  48
ATOM     48  C   UNL     1      -3.361   2.631 -13.647  1.00  0.00     0.031 A 
ATOM     49  C   UNL     1      -4.821   2.417 -13.348  1.00  0.00     0.074 A 
ATOM     50  C   UNL     1      -2.486   1.614 -13.527  1.00  0.00     0.049 A 
ATOM     51  N   UNL     1      -5.432   1.332 -12.946  1.00  0.00    -0.248 NA
ATOM     52  C   UNL     1      -5.708   3.584 -13.490  1.00  0.00     0.031 C 
ATOM     53  C   UNL     1      -1.041   1.710 -13.747  1.00  0.00     0.029 A 
ATOM     54  N   UNL     1      -2.683   0.301 -13.183  1.00  0.00    -0.354 N 
ATOM     55  C   UNL     1      -6.765   1.690 -12.774  1.00  0.00     0.074 A 
ATOM     56  C   UNL     1      -6.863   3.104 -13.056  1.00  0.00     0.031 C 
ATOM     57  C   UNL     1      -0.486   0.502 -13.555  1.00  0.00     0.029 A 
ATOM     58  C   UNL     1      -1.527  -0.445 -13.166  1.00  0.00     0.049 A 
ATOM     59  H   UNL     1      -3.568  -0.073 -12.968  1.00  0.00     0.167 HD
ATOM     60  C   UNL     1      -7.817   0.905 -12.437  1.00  0.00     0.037 A 
ATOM     61  C   UNL     1      -1.331  -1.744 -12.868  1.00  0.00     0.037 A 
ATOM     62  C   UNL     1      -7.715  -0.509 -12.190  1.00  0.00     0.049 A 
ATOM     63  C   UNL     1      -2.516  -2.600 -12.510  1.00  0.00     0.074 A 
ATOM     64  C   UNL     1      -8.727  -1.406 -11.895  1.00  0.00     0.029 A 
ATOM     65  N   UNL     1      -6.532  -1.234 -12.213  1.00  0.00    -0.354 N 
ATOM     66  N   UNL     1      -3.779  -2.258 -12.407  1.00  0.00    -0.248 NA
ATOM     67  C   UNL     1      -2.254  -4.019 -12.239  1.00  0.00     0.031 C 
ATOM     68  C   UNL     1      -8.150  -2.666 -11.699  1.00  0.00     0.029 A 
ATOM     69  C   UNL     1      -6.787  -2.564 -11.923  1.00  0.00     0.049 A 
ATOM     70  H   UNL     1      -5.644  -0.858 -12.406  1.00  0.00     0.167 HD
ATOM     71  C   UNL     1      -4.465  -3.426 -12.093  1.00  0.00     0.074 A 
ATOM     72  C   UNL     1      -3.478  -4.484 -12.031  1.00  0.00     0.031 C 
ATOM     73  C   UNL     1      -5.792  -3.607 -11.879  1.00  0.00     0.037 A 
BRANCH  60  74
ATOM     74  C   UNL     1      -9.167   1.559 -12.323  1.00  0.00     0.058 A 
ATOM     75  C   UNL     1      -9.851   2.042 -13.451  1.00  0.00     0.135 A 
ATOM     76  C   UNL     1      -9.799   1.681 -11.075  1.00  0.00     0.135 A 
ATOM     77  F   UNL     1      -9.288   1.966 -14.668  1.00  0.00    -0.206 F 
ATOM     78  C   UNL     1     -11.097   2.652 -13.342  1.00  0.00     0.059 A 
ATOM     79  C   UNL     1     -11.059   2.260 -10.947  1.00  0.00     0.059 A 
ATOM     80  F   UNL     1      -9.192   1.238  -9.963  1.00  0.00    -0.206 F 
ATOM     81  C   UNL     1     -11.692   2.757 -12.085  1.00  0.00     0.060 A 
BRANCH  81  82
ATOM     82  S   UNL     1     -13.309   3.550 -11.961  1.00  0.00     0.124 S 
ATOM     83  O   UNL     1     -12.962   4.953 -12.166  1.00  0.00    -0.237 OA
ATOM     84  O   UNL     1     -14.052   2.916 -13.046  1.00  0.00    -0.237 OA
ATOM     85  O   UNL     1     -13.756   3.204 -10.615  1.00  0.00    -0.744 OA
ENDBRANCH  81  82
ENDBRANCH  60  74
BRANCH  61  86
ATOM     86  C   UNL     1       0.039  -2.321 -12.928  1.00  0.00     0.058 A 
ATOM     87  C   UNL     1       0.397  -3.230 -13.935  1.00  0.00     0.135 A 
ATOM     88  C   UNL     1       1.020  -1.967 -11.989  1.00  0.00     0.135 A 
ATOM     89  F   UNL     1      -0.508  -3.603 -14.853  1.00  0.00    -0.206 F 
ATOM     90  C   UNL     1       1.671  -3.783 -13.999  1.00  0.00     0.059 A 
ATOM     91  C   UNL     1       2.310  -2.486 -12.048  1.00  0.00     0.059 A 
ATOM     92  F   UNL     1       0.735  -1.086 -11.017  1.00  0.00    -0.206 F 
ATOM     93  C   UNL     1       2.622  -3.403 -13.051  1.00  0.00     0.060 A 
BRANCH  93  94
ATOM     94  S   UNL     1       4.287  -4.093 -13.169  1.00  0.00     0.124 S 
ATOM     95  O   UNL     1       4.070  -5.463 -12.721  1.00  0.00    -0.237 OA
ATOM     96  O   UNL     1       4.589  -3.923 -14.587  1.00  0.00    -0.237 OA
ATOM     97  O   UNL     1       5.064  -3.248 -12.266  1.00  0.00    -0.744 OA
ENDBRANCH  93  94
ENDBRANCH  61  86
BRANCH  73  98
ATOM     98  C   UNL     1      -6.265  -5.008 -11.605  1.00  0.00     0.058 A 
ATOM     99  C   UNL     1      -6.010  -5.651 -10.384  1.00  0.00     0.135 A 
ATOM    100  C   UNL     1      -7.030  -5.696 -12.562  1.00  0.00     0.135 A 
ATOM    101  F   UNL     1      -5.279  -5.040  -9.438  1.00  0.00    -0.206 F 
ATOM    102  C   UNL     1      -6.474  -6.938 -10.131  1.00  0.00     0.059 A 
ATOM    103  C   UNL     1      -7.529  -6.971 -12.318  1.00  0.00     0.059 A 
ATOM    104  F   UNL     1      -7.313  -5.121 -13.742  1.00  0.00    -0.206 F 
ATOM    105  C   UNL     1      -7.235  -7.589 -11.104  1.00  0.00     0.060 A 
BRANCH 105 106
ATOM    106  S   UNL     1      -7.857  -9.246 -10.752  1.00  0.00     0.124 S 
ATOM    107  O   UNL     1      -6.645 -10.048 -10.879  1.00  0.00    -0.237 OA
ATOM    108  O   UNL     1      -8.382  -9.101  -9.397  1.00  0.00    -0.237 OA
ATOM    109  O   UNL     1      -8.863  -9.459 -11.787  1.00  0.00    -0.744 OA
ENDBRANCH 105 106
ENDBRANCH  73  98
ENDBRANCH  47  48
ENDBRANCH  39  42
ENDBRANCH  37  38
ENDBRANCH  36  37
ENDBRANCH  35  36
ENDBRANCH  34  35
ENDBRANCH   1  34
TORSDOF 22
