REMARK SMILES O=C(NCCCCCCNC(=O)[C@H]1O[C@@H](Oc2c(-c3cc(O)c(O)c(O)c3)oc3cc(O)cc(O)c3c2=O)[C@H](O)[C@@H](O)[C@@H]1O)c1ccc(-c2c3nc(c(-c4c(F)cc(S(=O)(=O)[O-])cc4F)c4ccc([nH]4)c(-c4c(F)cc(S(=O)(=O)[O-])cc4F)c4nc(c(-c5c(F)cc(S(=O)(=O)[O-])cc5F)c5ccc2[nH]5)C=C4)C=C3)cc1
REMARK SMILES IDX 7 1 6 2 5 3 4 4 3 5 1 6 2 7 45 9 46 10 110 11 47 12 109 13
REMARK SMILES IDX 48 14 49 15 50 16 103 17 51 18 108 19 102 20 104 21 52 22
REMARK SMILES IDX 107 23 101 24 100 25 53 27 87 28 66 29 86 30 67 31 70 32
REMARK SMILES IDX 85 33 105 34 68 35 69 36 84 38 106 39 71 40 54 41 55 42
REMARK SMILES IDX 64 43 56 44 57 45 63 46 65 47 58 48 59 49 60 50 61 51 62 52
REMARK SMILES IDX 88 53 89 54 98 55 90 56 91 57 97 58 99 59 92 60 93 61 94 62
REMARK SMILES IDX 95 63 96 64 72 65 73 66 82 67 74 68 75 69 81 70 83 71 76 72
REMARK SMILES IDX 77 73 78 74 79 75 80 76 8 77 9 78 10 79 11 80 12 82 13 83
REMARK SMILES IDX 14 84 43 85 15 86 41 87 39 88 44 89 16 91 17 92 18 93 37 94
REMARK SMILES IDX 28 95 36 96 38 97 29 98 34 99 30 100 33 101 31 102 19 103
REMARK SMILES IDX 20 104 27 105 21 106 25 107 23 108 22 109 26 111 24 113
REMARK SMILES IDX 35 115 32 117 42 119 40 121
REMARK H PARENT 3 8 104 26 70 37 10 81 44 90 22 110 26 112 24 114 35 116
REMARK H PARENT 32 118 42 120 40 122
REMARK Flexibility Score: inf
ROOT
ATOM      1  C   UNL     1      12.358   8.000   6.920  1.00  0.00     0.002 C 
ENDROOT
BRANCH   1   2
ATOM      2  C   UNL     1      13.772   7.409   6.866  1.00  0.00     0.002 C 
BRANCH   2   3
ATOM      3  C   UNL     1      14.744   8.208   5.998  1.00  0.00     0.021 C 
BRANCH   3   4
ATOM      4  C   UNL     1      14.931   9.639   6.477  1.00  0.00     0.116 C 
BRANCH   4   5
ATOM      5  N   UNL     1      15.574   9.671   7.782  1.00  0.00    -0.352 N 
ATOM      6  O   UNL     1      17.309  10.001   9.190  1.00  0.00    -0.269 OA
ATOM      7  C   UNL     1      16.753  10.274   8.128  1.00  0.00     0.251 C 
ATOM      8  H   UNL     1      15.101   9.201   8.507  1.00  0.00     0.163 HD
BRANCH   7   9
ATOM      9  C   UNL     1      17.343  11.258   7.202  1.00  0.00     0.039 A 
ATOM     10  C   UNL     1      16.525  12.226   6.610  1.00  0.00     0.014 A 
ATOM     11  C   UNL     1      18.712  11.223   6.934  1.00  0.00     0.014 A 
ATOM     12  C   UNL     1      17.057  13.097   5.673  1.00  0.00     0.010 A 
ATOM     13  C   UNL     1      19.263  12.160   6.059  1.00  0.00     0.010 A 
ATOM     14  C   UNL     1      18.439  13.101   5.423  1.00  0.00    -0.014 A 
BRANCH  14  15
ATOM     15  C   UNL     1      19.013  14.202   4.614  1.00  0.00     0.031 A 
ATOM     16  C   UNL     1      19.697  13.942   3.305  1.00  0.00     0.074 A 
ATOM     17  C   UNL     1      18.901  15.455   5.100  1.00  0.00     0.049 A 
ATOM     18  N   UNL     1      20.238  14.804   2.486  1.00  0.00    -0.248 NA
ATOM     19  C   UNL     1      19.781  12.546   2.847  1.00  0.00     0.031 C 
ATOM     20  C   UNL     1      18.275  15.807   6.381  1.00  0.00     0.029 A 
ATOM     21  N   UNL     1      19.302  16.662   4.591  1.00  0.00    -0.354 N 
ATOM     22  C   UNL     1      20.756  14.062   1.432  1.00  0.00     0.074 A 
ATOM     23  C   UNL     1      20.456  12.673   1.710  1.00  0.00     0.031 C 
ATOM     24  C   UNL     1      18.310  17.136   6.542  1.00  0.00     0.029 A 
ATOM     25  C   UNL     1      19.028  17.724   5.421  1.00  0.00     0.049 A 
ATOM     26  H   UNL     1      19.742  16.759   3.716  1.00  0.00     0.167 HD
ATOM     27  C   UNL     1      21.425  14.510   0.344  1.00  0.00     0.037 A 
ATOM     28  C   UNL     1      19.359  19.024   5.318  1.00  0.00     0.037 A 
ATOM     29  C   UNL     1      21.712  15.900   0.088  1.00  0.00     0.049 A 
ATOM     30  C   UNL     1      20.133  19.476   4.113  1.00  0.00     0.074 A 
ATOM     31  C   UNL     1      22.317  16.458  -1.026  1.00  0.00     0.029 A 
ATOM     32  N   UNL     1      21.445  16.945   0.960  1.00  0.00    -0.354 N 
ATOM     33  N   UNL     1      20.530  18.770   3.081  1.00  0.00    -0.248 NA
ATOM     34  C   UNL     1      20.510  20.893   4.059  1.00  0.00     0.031 C 
ATOM     35  C   UNL     1      22.476  17.828  -0.797  1.00  0.00     0.029 A 
ATOM     36  C   UNL     1      21.914  18.136   0.430  1.00  0.00     0.049 A 
ATOM     37  H   UNL     1      20.988  16.854   1.828  1.00  0.00     0.167 HD
ATOM     38  C   UNL     1      21.199  19.660   2.252  1.00  0.00     0.074 A 
ATOM     39  C   UNL     1      21.121  20.961   2.885  1.00  0.00     0.031 C 
ATOM     40  C   UNL     1      21.831  19.422   1.077  1.00  0.00     0.037 A 
BRANCH  27  41
ATOM     41  C   UNL     1      21.920  13.506  -0.660  1.00  0.00     0.058 A 
ATOM     42  C   UNL     1      21.051  12.862  -1.553  1.00  0.00     0.135 A 
ATOM     43  C   UNL     1      23.300  13.283  -0.813  1.00  0.00     0.135 A 
ATOM     44  F   UNL     1      19.723  13.026  -1.439  1.00  0.00    -0.206 F 
ATOM     45  C   UNL     1      21.532  12.041  -2.569  1.00  0.00     0.059 A 
ATOM     46  C   UNL     1      23.804  12.485  -1.835  1.00  0.00     0.059 A 
ATOM     47  F   UNL     1      24.174  13.871   0.020  1.00  0.00    -0.206 F 
ATOM     48  C   UNL     1      22.911  11.869  -2.710  1.00  0.00     0.060 A 
BRANCH  48  49
ATOM     49  S   UNL     1      23.518  10.856  -4.076  1.00  0.00     0.124 S 
ATOM     50  O   UNL     1      23.099   9.521  -3.657  1.00  0.00    -0.237 OA
ATOM     51  O   UNL     1      22.802  11.415  -5.217  1.00  0.00    -0.237 OA
ATOM     52  O   UNL     1      24.958  11.093  -4.064  1.00  0.00    -0.744 OA
ENDBRANCH  48  49
ENDBRANCH  27  41
BRANCH  28  53
ATOM     53  C   UNL     1      19.016  19.972   6.411  1.00  0.00     0.058 A 
ATOM     54  C   UNL     1      18.115  21.026   6.205  1.00  0.00     0.135 A 
ATOM     55  C   UNL     1      19.601  19.850   7.683  1.00  0.00     0.135 A 
ATOM     56  F   UNL     1      17.529  21.184   5.008  1.00  0.00    -0.206 F 
ATOM     57  C   UNL     1      17.835  21.948   7.208  1.00  0.00     0.059 A 
ATOM     58  C   UNL     1      19.309  20.738   8.711  1.00  0.00     0.059 A 
ATOM     59  F   UNL     1      20.454  18.846   7.939  1.00  0.00    -0.206 F 
ATOM     60  C   UNL     1      18.442  21.798   8.456  1.00  0.00     0.060 A 
BRANCH  60  61
ATOM     61  S   UNL     1      18.076  23.002   9.750  1.00  0.00     0.124 S 
ATOM     62  O   UNL     1      18.824  24.164   9.283  1.00  0.00    -0.237 OA
ATOM     63  O   UNL     1      16.622  23.103   9.672  1.00  0.00    -0.237 OA
ATOM     64  O   UNL     1      18.590  22.362  10.957  1.00  0.00    -0.744 OA
ENDBRANCH  60  61
ENDBRANCH  28  53
BRANCH  40  65
ATOM     65  C   UNL     1      22.479  20.595   0.397  1.00  0.00     0.058 A 
ATOM     66  C   UNL     1      23.647  21.183   0.906  1.00  0.00     0.135 A 
ATOM     67  C   UNL     1      21.951  21.109  -0.798  1.00  0.00     0.135 A 
ATOM     68  F   UNL     1      24.184  20.738   2.053  1.00  0.00    -0.206 F 
ATOM     69  C   UNL     1      24.259  22.254   0.265  1.00  0.00     0.059 A 
ATOM     70  C   UNL     1      22.564  22.159  -1.473  1.00  0.00     0.059 A 
ATOM     71  F   UNL     1      20.838  20.579  -1.329  1.00  0.00    -0.206 F 
ATOM     72  C   UNL     1      23.713  22.731  -0.928  1.00  0.00     0.060 A 
BRANCH  72  73
ATOM     73  S   UNL     1      24.543  24.093  -1.772  1.00  0.00     0.124 S 
ATOM     74  O   UNL     1      24.233  25.216  -0.894  1.00  0.00    -0.237 OA
ATOM     75  O   UNL     1      25.935  23.654  -1.774  1.00  0.00    -0.237 OA
ATOM     76  O   UNL     1      23.899  24.124  -3.082  1.00  0.00    -0.744 OA
ENDBRANCH  72  73
ENDBRANCH  40  65
ENDBRANCH  14  15
ENDBRANCH   7   9
ENDBRANCH   4   5
ENDBRANCH   3   4
ENDBRANCH   2   3
ENDBRANCH   1   2
BRANCH   1  77
ATOM     77  C   UNL     1      11.732   8.237   5.539  1.00  0.00     0.021 C 
BRANCH  77  78
ATOM     78  C   UNL     1      11.694   6.963   4.696  1.00  0.00     0.116 C 
BRANCH  78  79
ATOM     79  N   UNL     1      10.754   6.033   5.285  1.00  0.00    -0.354 N 
ATOM     80  C   UNL     1       9.410   5.975   5.065  1.00  0.00     0.252 C 
ATOM     81  H   UNL     1      11.126   5.371   5.912  1.00  0.00     0.163 HD
ATOM     82  O   UNL     1       8.690   5.506   5.951  1.00  0.00    -0.272 OA
BRANCH  80  83
ATOM     83  C   UNL     1       8.835   6.362   3.693  1.00  0.00     0.242 C 
ATOM     84  O   UNL     1       9.407   7.515   3.075  1.00  0.00    -0.324 OA
ATOM     85  C   UNL     1       9.008   5.146   2.772  1.00  0.00     0.184 C 
ATOM     86  C   UNL     1       8.783   7.909   1.859  1.00  0.00     0.340 C 
ATOM     87  C   UNL     1       8.176   5.400   1.518  1.00  0.00     0.181 C 
ATOM     88  C   UNL     1       8.551   6.731   0.878  1.00  0.00     0.214 C 
BRANCH  85  89
ATOM     89  O   UNL     1       8.609   3.911   3.372  1.00  0.00    -0.387 OA
ATOM     90  H   UNL     1       7.666   3.950   3.595  1.00  0.00     0.211 HD
ENDBRANCH  85  89
BRANCH  86  91
ATOM     91  O   UNL     1       9.453   8.994   1.158  1.00  0.00    -0.454 OA
BRANCH  91  92
ATOM     92  C   UNL     1      10.845   9.065   1.150  1.00  0.00     0.214 A 
ATOM     93  C   UNL     1      11.627   8.561   0.167  1.00  0.00     0.181 A 
ATOM     94  C   UNL     1      11.520   9.966   2.151  1.00  0.00     0.239 A 
ATOM     95  O   UNL     1      12.998   8.672   0.105  1.00  0.00    -0.452 OA
ATOM     96  C   UNL     1      12.975  10.244   1.951  1.00  0.00     0.111 A 
ATOM     97  O   UNL     1      10.876  10.446   3.077  1.00  0.00    -0.285 OA
ATOM     98  C   UNL     1      13.627   9.557   0.930  1.00  0.00     0.146 A 
ATOM     99  C   UNL     1      13.726  11.162   2.705  1.00  0.00     0.134 A 
ATOM    100  C   UNL     1      14.988   9.743   0.675  1.00  0.00     0.094 A 
ATOM    101  C   UNL     1      15.088  11.378   2.438  1.00  0.00     0.093 A 
ATOM    102  C   UNL     1      15.707  10.660   1.423  1.00  0.00     0.123 A 
BRANCH  93 103
ATOM    103  C   UNL     1      11.126   7.721  -0.930  1.00  0.00     0.029 A 
ATOM    104  C   UNL     1      11.525   6.370  -0.956  1.00  0.00     0.062 A 
ATOM    105  C   UNL     1      10.179   8.191  -1.853  1.00  0.00     0.062 A 
ATOM    106  C   UNL     1      10.865   5.479  -1.788  1.00  0.00     0.162 A 
ATOM    107  C   UNL     1       9.557   7.285  -2.705  1.00  0.00     0.162 A 
ATOM    108  C   UNL     1       9.865   5.930  -2.641  1.00  0.00     0.200 A 
BRANCH 106 109
ATOM    109  O   UNL     1      11.148   4.149  -1.677  1.00  0.00    -0.504 OA
ATOM    110  H   UNL     1      11.825   3.861  -1.097  1.00  0.00     0.293 HD
ENDBRANCH 106 109
BRANCH 107 111
ATOM    111  O   UNL     1       8.562   7.725  -3.530  1.00  0.00    -0.504 OA
ATOM    112  H   UNL     1       8.134   7.125  -4.109  1.00  0.00     0.293 HD
ENDBRANCH 107 111
BRANCH 108 113
ATOM    113  O   UNL     1       9.094   5.036  -3.334  1.00  0.00    -0.502 OA
ATOM    114  H   UNL     1       9.291   4.121  -3.298  1.00  0.00     0.293 HD
ENDBRANCH 108 113
ENDBRANCH  93 103
BRANCH  99 115
ATOM    115  O   UNL     1      13.157  11.869   3.728  1.00  0.00    -0.507 OA
ATOM    116  H   UNL     1      13.672  12.476   4.221  1.00  0.00     0.293 HD
ENDBRANCH  99 115
BRANCH 102 117
ATOM    117  O   UNL     1      17.026  10.817   1.130  1.00  0.00    -0.508 OA
ATOM    118  H   UNL     1      17.415  10.318   0.439  1.00  0.00     0.293 HD
ENDBRANCH 102 117
ENDBRANCH  91  92
ENDBRANCH  86  91
BRANCH  87 119
ATOM    119  O   UNL     1       8.373   4.313   0.588  1.00  0.00    -0.387 OA
ATOM    120  H   UNL     1       9.310   4.265   0.341  1.00  0.00     0.211 HD
ENDBRANCH  87 119
BRANCH  88 121
ATOM    121  O   UNL     1       7.605   7.028  -0.158  1.00  0.00    -0.384 OA
ATOM    122  H   UNL     1       6.723   7.136   0.231  1.00  0.00     0.211 HD
ENDBRANCH  88 121
ENDBRANCH  80  83
ENDBRANCH  78  79
ENDBRANCH  77  78
ENDBRANCH   1  77
TORSDOF 27
