REMARK SMILES CC1(C)CCC[N@H+](CC[C@@H]2CCC[C@]2([NH3+])C(=O)NCCCCCCNC(=O)c2ccc(-c3c4nc(c(-c5c(F)cc(S(=O)(=O)[O-])cc5F)c5ccc([nH]5)c(-c5c(F)cc(S(=O)(=O)[O-])cc5F)c5nc(c(-c6c(F)cc(S(=O)(=O)[O-])cc6F)c6ccc3[nH]6)C=C5)C=C4)cc2)CC1
REMARK SMILES IDX 20 1 19 2 18 3 16 4 17 5 14 7 10 8 11 9 12 10 13 11 9 12
REMARK SMILES IDX 8 13 7 14 94 16 95 17 2 18 1 19 3 20 6 22 5 23 4 24 15 26
REMARK SMILES IDX 21 30 22 31 23 32 24 33 25 34 26 35 27 37 28 38 29 39 93 40
REMARK SMILES IDX 30 41 92 42 31 43 32 44 33 45 86 46 34 47 91 48 85 49 87 50
REMARK SMILES IDX 35 51 90 52 84 53 83 54 36 56 70 57 49 58 69 59 50 60 53 61
REMARK SMILES IDX 68 62 88 63 51 64 52 65 67 67 89 68 54 69 37 70 38 71 47 72
REMARK SMILES IDX 39 73 40 74 46 75 48 76 41 77 42 78 43 79 44 80 45 81 71 82
REMARK SMILES IDX 72 83 81 84 73 85 74 86 80 87 82 88 75 89 76 90 77 91 78 92
REMARK SMILES IDX 79 93 55 94 56 95 65 96 57 97 58 98 64 99 66 100 59 101
REMARK SMILES IDX 60 102 61 103 62 104 63 105
REMARK H PARENT 18 6 7 15 15 27 15 28 15 29 25 36 87 55 53 66
REMARK Flexibility Score: 90.00
ROOT
ATOM      1  C   UNL     1      -3.096   6.162   3.935  1.00  0.00     0.021 C 
ENDROOT
BRANCH   1   2
ATOM      2  C   UNL     1      -1.964   7.168   3.704  1.00  0.00     0.116 C 
BRANCH   2   3
ATOM      3  N   UNL     1      -0.887   6.987   4.661  1.00  0.00    -0.351 N 
ATOM      4  C   UNL     1       0.446   6.761   4.481  1.00  0.00     0.281 C 
ATOM      5  O   UNL     1       1.122   6.668   5.513  1.00  0.00    -0.268 OA
ATOM      6  H   UNL     1      -1.168   7.035   5.603  1.00  0.00     0.163 HD
BRANCH   4   7
ATOM      7  C   UNL     1       1.097   6.604   3.058  1.00  0.00     0.177 C 
ATOM      8  C   UNL     1       0.942   5.206   2.414  1.00  0.00     0.066 C 
ATOM      9  C   UNL     1       1.885   4.351   3.276  1.00  0.00     0.011 C 
ATOM     10  C   UNL     1       3.095   5.235   3.526  1.00  0.00     0.008 C 
ATOM     11  C   UNL     1       2.644   6.663   3.199  1.00  0.00     0.079 C 
BRANCH   8  12
ATOM     12  C   UNL     1      -0.429   4.539   2.324  1.00  0.00     0.072 C 
BRANCH  12  13
ATOM     13  C   UNL     1      -1.238   4.774   1.039  1.00  0.00     0.262 C 
BRANCH  13  14
ATOM     14  N   UNL     1      -1.037   3.786  -0.023  1.00  0.00    -0.335 N 
ATOM     15  H   UNL     1      -1.686   4.102  -0.744  1.00  0.00     0.348 HD
BRANCH  14  16
ATOM     16  C   UNL     1      -1.633   2.477   0.189  1.00  0.00     0.262 C 
BRANCH  16  17
ATOM     17  C   UNL     1      -0.990   1.244  -0.473  1.00  0.00     0.068 C 
BRANCH  17  18
ATOM     18  C   UNL     1       0.437   0.844  -0.018  1.00  0.00    -0.030 CG0
ATOM     19  C   UNL     1       0.738  -0.580  -0.538  1.00  0.00     0.011 C 
ATOM     20  C   UNL     1       0.555   0.772   1.514  1.00  0.00     0.011 C 
ATOM     21  G   UNL     1       1.508   1.766  -0.641  1.00  0.00     0.000 G0
ENDBRANCH  17  18
ENDBRANCH  16  17
ENDBRANCH  14  16
BRANCH  14  22
ATOM     22  C   UNL     1       0.127   3.930  -0.867  1.00  0.00     0.262 C 
BRANCH  22  23
ATOM     23  C   UNL     1       1.391   3.251  -0.354  1.00  0.00     0.062 C 
BRANCH  23  24
ATOM     24  C   UNL     1       1.508   1.766  -0.641  1.00  0.00     0.012 CG0
ATOM     25  G   UNL     1       0.437   0.844  -0.018  1.00  0.00     0.000 G0
ENDBRANCH  23  24
ENDBRANCH  22  23
ENDBRANCH  14  22
ENDBRANCH  13  14
ENDBRANCH  12  13
ENDBRANCH   8  12
BRANCH   7  26
ATOM     26  N   UNL     1       0.661   7.709   2.184  1.00  0.00    -0.345 N 
ATOM     27  H   UNL     1       1.086   7.602   1.263  1.00  0.00     0.345 HD
ATOM     28  H   UNL     1       0.950   8.599   2.591  1.00  0.00     0.345 HD
ATOM     29  H   UNL     1      -0.355   7.690   2.093  1.00  0.00     0.345 HD
ENDBRANCH   7  26
ENDBRANCH   4   7
ENDBRANCH   2   3
ENDBRANCH   1   2
BRANCH   1  30
ATOM     30  C   UNL     1      -3.937   6.420   5.181  1.00  0.00     0.002 C 
BRANCH  30  31
ATOM     31  C   UNL     1      -4.759   7.705   5.131  1.00  0.00     0.002 C 
BRANCH  31  32
ATOM     32  C   UNL     1      -5.634   7.858   3.884  1.00  0.00     0.021 C 
BRANCH  32  33
ATOM     33  C   UNL     1      -6.528   6.658   3.578  1.00  0.00     0.116 C 
BRANCH  33  34
ATOM     34  N   UNL     1      -7.440   6.373   4.674  1.00  0.00    -0.352 N 
ATOM     35  C   UNL     1      -8.808   6.406   4.682  1.00  0.00     0.251 C 
ATOM     36  H   UNL     1      -7.016   6.122   5.526  1.00  0.00     0.163 HD
ATOM     37  O   UNL     1      -9.423   6.378   5.749  1.00  0.00    -0.269 OA
BRANCH  35  38
ATOM     38  C   UNL     1      -9.539   6.488   3.403  1.00  0.00     0.039 A 
ATOM     39  C   UNL     1     -10.568   7.422   3.266  1.00  0.00     0.014 A 
ATOM     40  C   UNL     1      -9.201   5.643   2.341  1.00  0.00     0.014 A 
ATOM     41  C   UNL     1     -11.227   7.542   2.042  1.00  0.00     0.010 A 
ATOM     42  C   UNL     1      -9.811   5.814   1.102  1.00  0.00     0.010 A 
ATOM     43  C   UNL     1     -10.836   6.758   0.943  1.00  0.00    -0.014 A 
BRANCH  43  44
ATOM     44  C   UNL     1     -11.493   6.911  -0.380  1.00  0.00     0.031 A 
ATOM     45  C   UNL     1     -12.276   5.769  -0.969  1.00  0.00     0.074 A 
ATOM     46  C   UNL     1     -11.336   8.056  -1.073  1.00  0.00     0.049 A 
ATOM     47  N   UNL     1     -12.872   5.689  -2.130  1.00  0.00    -0.248 NA
ATOM     48  C   UNL     1     -12.384   4.547  -0.155  1.00  0.00     0.031 C 
ATOM     49  C   UNL     1     -10.562   9.216  -0.625  1.00  0.00     0.029 A 
ATOM     50  N   UNL     1     -11.812   8.432  -2.304  1.00  0.00    -0.354 N 
ATOM     51  C   UNL     1     -13.414   4.410  -2.192  1.00  0.00     0.074 A 
ATOM     52  C   UNL     1     -13.029   3.730  -0.974  1.00  0.00     0.031 C 
ATOM     53  C   UNL     1     -10.635  10.180  -1.556  1.00  0.00     0.029 A 
ATOM     54  C   UNL     1     -11.426   9.696  -2.683  1.00  0.00     0.049 A 
ATOM     55  H   UNL     1     -12.378   7.851  -2.862  1.00  0.00     0.167 HD
ATOM     56  C   UNL     1     -14.182   3.862  -3.163  1.00  0.00     0.037 A 
ATOM     57  C   UNL     1     -11.673  10.383  -3.816  1.00  0.00     0.037 A 
ATOM     58  C   UNL     1     -14.576   4.554  -4.363  1.00  0.00     0.049 A 
ATOM     59  C   UNL     1     -12.521   9.748  -4.886  1.00  0.00     0.074 A 
ATOM     60  C   UNL     1     -15.396   4.107  -5.383  1.00  0.00     0.029 A 
ATOM     61  N   UNL     1     -14.176   5.838  -4.705  1.00  0.00    -0.354 N 
ATOM     62  N   UNL     1     -13.078   8.561  -4.899  1.00  0.00    -0.248 NA
ATOM     63  C   UNL     1     -12.778  10.548  -6.091  1.00  0.00     0.031 C 
ATOM     64  C   UNL     1     -15.453   5.101  -6.366  1.00  0.00     0.029 A 
ATOM     65  C   UNL     1     -14.713   6.190  -5.933  1.00  0.00     0.049 A 
ATOM     66  H   UNL     1     -13.595   6.414  -4.157  1.00  0.00     0.167 HD
ATOM     67  C   UNL     1     -13.776   8.482  -6.099  1.00  0.00     0.074 A 
ATOM     68  C   UNL     1     -13.579   9.746  -6.779  1.00  0.00     0.031 C 
ATOM     69  C   UNL     1     -14.514   7.457  -6.593  1.00  0.00     0.037 A 
BRANCH  56  70
ATOM     70  C   UNL     1     -14.650   2.445  -2.968  1.00  0.00     0.058 A 
ATOM     71  C   UNL     1     -15.600   2.110  -1.990  1.00  0.00     0.135 A 
ATOM     72  C   UNL     1     -14.171   1.414  -3.793  1.00  0.00     0.135 A 
ATOM     73  F   UNL     1     -16.082   3.052  -1.163  1.00  0.00    -0.206 F 
ATOM     74  C   UNL     1     -16.037   0.800  -1.817  1.00  0.00     0.059 A 
ATOM     75  C   UNL     1     -14.616   0.102  -3.657  1.00  0.00     0.059 A 
ATOM     76  F   UNL     1     -13.261   1.676  -4.744  1.00  0.00    -0.206 F 
ATOM     77  C   UNL     1     -15.538  -0.197  -2.656  1.00  0.00     0.060 A 
BRANCH  77  78
ATOM     78  S   UNL     1     -16.121  -1.890  -2.421  1.00  0.00     0.124 S 
ATOM     79  O   UNL     1     -15.452  -2.258  -1.177  1.00  0.00    -0.237 OA
ATOM     80  O   UNL     1     -17.567  -1.713  -2.335  1.00  0.00    -0.237 OA
ATOM     81  O   UNL     1     -15.646  -2.582  -3.616  1.00  0.00    -0.744 OA
ENDBRANCH  77  78
ENDBRANCH  56  70
BRANCH  57  82
ATOM     82  C   UNL     1     -11.129  11.757  -3.985  1.00  0.00     0.058 A 
ATOM     83  C   UNL     1     -11.976  12.875  -3.979  1.00  0.00     0.135 A 
ATOM     84  C   UNL     1      -9.752  11.982  -4.145  1.00  0.00     0.135 A 
ATOM     85  F   UNL     1     -13.300  12.712  -3.835  1.00  0.00    -0.206 F 
ATOM     86  C   UNL     1     -11.482  14.166  -4.142  1.00  0.00     0.059 A 
ATOM     87  C   UNL     1      -9.232  13.265  -4.283  1.00  0.00     0.059 A 
ATOM     88  F   UNL     1      -8.897  10.948  -4.141  1.00  0.00    -0.206 F 
ATOM     89  C   UNL     1     -10.106  14.350  -4.291  1.00  0.00     0.060 A 
BRANCH  89  90
ATOM     90  S   UNL     1      -9.472  16.033  -4.457  1.00  0.00     0.124 S 
ATOM     91  O   UNL     1      -9.899  16.376  -5.808  1.00  0.00    -0.237 OA
ATOM     92  O   UNL     1     -10.159  16.727  -3.373  1.00  0.00    -0.237 OA
ATOM     93  O   UNL     1      -8.033  15.868  -4.272  1.00  0.00    -0.744 OA
ENDBRANCH  89  90
ENDBRANCH  57  82
BRANCH  69  94
ATOM     94  C   UNL     1     -15.197   7.668  -7.917  1.00  0.00     0.058 A 
ATOM     95  C   UNL     1     -14.479   7.703  -9.122  1.00  0.00     0.135 A 
ATOM     96  C   UNL     1     -16.595   7.782  -7.983  1.00  0.00     0.135 A 
ATOM     97  F   UNL     1     -13.140   7.606  -9.115  1.00  0.00    -0.206 F 
ATOM     98  C   UNL     1     -15.121   7.866 -10.345  1.00  0.00     0.059 A 
ATOM     99  C   UNL     1     -17.261   7.915  -9.197  1.00  0.00     0.059 A 
ATOM    100  F   UNL     1     -17.331   7.744  -6.860  1.00  0.00    -0.206 F 
ATOM    101  C   UNL     1     -16.514   7.968 -10.373  1.00  0.00     0.060 A 
BRANCH 101 102
ATOM    102  S   UNL     1     -17.337   8.141 -11.970  1.00  0.00     0.124 S 
ATOM    103  O   UNL     1     -17.010   9.518 -12.322  1.00  0.00    -0.237 OA
ATOM    104  O   UNL     1     -16.685   7.109 -12.771  1.00  0.00    -0.237 OA
ATOM    105  O   UNL     1     -18.741   7.889 -11.658  1.00  0.00    -0.744 OA
ENDBRANCH 101 102
ENDBRANCH  69  94
ENDBRANCH  43  44
ENDBRANCH  35  38
ENDBRANCH  33  34
ENDBRANCH  32  33
ENDBRANCH  31  32
ENDBRANCH  30  31
ENDBRANCH   1  30
TORSDOF 20
