REMARK SMILES CCc1ccc2c(CC(=O)NCCCCCCNC(=O)c3ccc(-c4c5nc(c(-c6c(F)cc(S(=O)(=O)[O-])cc6F)c6ccc([nH]6)c(-c6c(F)cc(S(=O)(=O)[O-])cc6F)c6nc(c(-c7c(F)cc(S(=O)(=O)[O-])cc7F)c7ccc4[nH]7)C=C6)C=C5)cc3)c(C(=O)c3cc(C)ccn3)[nH]c2c1
REMARK SMILES IDX 14 1 13 2 12 3 11 4 9 5 10 6 8 8 7 9 3 10 4 11 99 12 5 13
REMARK SMILES IDX 98 14 6 15 97 16 87 17 2 19 1 20 88 21 89 22 90 23 91 24
REMARK SMILES IDX 96 25 92 26 95 27 93 28 94 29 15 30 16 31 17 32 18 33 19 34
REMARK SMILES IDX 20 36 21 37 22 38 86 39 23 40 85 41 24 42 25 43 26 44 79 45
REMARK SMILES IDX 27 46 84 47 78 48 80 49 28 50 83 51 77 52 76 53 29 55 63 56
REMARK SMILES IDX 42 57 62 58 43 59 46 60 61 61 81 62 44 63 45 64 60 66 82 67
REMARK SMILES IDX 47 68 30 69 31 70 40 71 32 72 33 73 39 74 41 75 34 76 35 77
REMARK SMILES IDX 36 78 37 79 38 80 64 81 65 82 74 83 66 84 67 85 73 86 75 87
REMARK SMILES IDX 68 88 69 89 70 90 71 91 72 92 48 93 49 94 58 95 50 96 51 97
REMARK SMILES IDX 57 98 59 99 52 100 53 101 54 102 55 103 56 104
REMARK H PARENT 11 7 97 18 18 35 80 54 46 65
REMARK Flexibility Score: inf
ROOT
ATOM      1  C   UNL     1       4.812  -6.141   1.671  1.00  0.00     0.002 C 
ENDROOT
BRANCH   1   2
ATOM      2  C   UNL     1       4.040  -5.447   0.541  1.00  0.00     0.021 C 
BRANCH   2   3
ATOM      3  C   UNL     1       4.744  -5.510  -0.813  1.00  0.00     0.116 C 
BRANCH   3   4
ATOM      4  N   UNL     1       4.753  -6.852  -1.353  1.00  0.00    -0.356 N 
ATOM      5  C   UNL     1       4.093  -7.363  -2.432  1.00  0.00     0.224 C 
ATOM      6  O   UNL     1       4.404  -8.505  -2.786  1.00  0.00    -0.275 OA
ATOM      7  H   UNL     1       5.322  -7.493  -0.869  1.00  0.00     0.163 HD
BRANCH   5   8
ATOM      8  C   UNL     1       3.131  -6.511  -3.253  1.00  0.00     0.138 C 
BRANCH   8   9
ATOM      9  C   UNL     1       2.010  -5.858  -2.486  1.00  0.00    -0.002 A 
ATOM     10  C   UNL     1       0.932  -1.846  -1.678  1.00  0.00    -0.046 A 
ATOM     11  C   UNL     1       2.037  -2.023  -2.516  1.00  0.00     0.004 A 
ATOM     12  C   UNL     1       0.257  -2.967  -1.164  1.00  0.00     0.030 A 
ATOM     13  C   UNL     1       2.473  -3.304  -2.872  1.00  0.00     0.011 A 
ATOM     14  C   UNL     1       0.715  -4.242  -1.527  1.00  0.00     0.046 A 
ATOM     15  C   UNL     1       1.804  -4.440  -2.367  1.00  0.00     0.004 A 
ATOM     16  N   UNL     1       0.257  -5.486  -1.168  1.00  0.00    -0.352 N 
ATOM     17  C   UNL     1       0.966  -6.486  -1.804  1.00  0.00     0.093 A 
ATOM     18  H   UNL     1      -0.482  -5.645  -0.538  1.00  0.00     0.167 HD
BRANCH  10  19
ATOM     19  C   UNL     1       0.482  -0.451  -1.316  1.00  0.00     0.032 C 
ATOM     20  C   UNL     1       1.062   0.018   0.009  1.00  0.00     0.009 C 
ENDBRANCH  10  19
BRANCH  17  21
ATOM     21  C   UNL     1       0.672  -7.915  -1.729  1.00  0.00     0.227 C 
ATOM     22  O   UNL     1       1.337  -8.770  -2.307  1.00  0.00    -0.285 OA
BRANCH  21  23
ATOM     23  C   UNL     1      -0.526  -8.380  -0.978  1.00  0.00     0.113 A 
ATOM     24  C   UNL     1      -1.796  -7.977  -1.380  1.00  0.00     0.036 A 
ATOM     25  N   UNL     1      -0.295  -9.237   0.049  1.00  0.00    -0.253 NA
ATOM     26  C   UNL     1      -2.900  -8.474  -0.685  1.00  0.00    -0.047 A 
ATOM     27  C   UNL     1      -1.379  -9.721   0.687  1.00  0.00     0.112 A 
ATOM     28  C   UNL     1      -4.297  -8.082  -1.062  1.00  0.00     0.044 C 
ATOM     29  C   UNL     1      -2.681  -9.372   0.364  1.00  0.00     0.023 A 
ENDBRANCH  21  23
ENDBRANCH  17  21
ENDBRANCH   8   9
ENDBRANCH   5   8
ENDBRANCH   3   4
ENDBRANCH   2   3
ENDBRANCH   1   2
BRANCH   1  30
ATOM     30  C   UNL     1       6.244  -5.637   1.884  1.00  0.00     0.002 C 
BRANCH  30  31
ATOM     31  C   UNL     1       6.371  -4.130   2.117  1.00  0.00     0.021 C 
BRANCH  31  32
ATOM     32  C   UNL     1       5.637  -3.620   3.352  1.00  0.00     0.116 C 
BRANCH  32  33
ATOM     33  N   UNL     1       6.180  -4.185   4.579  1.00  0.00    -0.352 N 
ATOM     34  C   UNL     1       6.654  -3.541   5.694  1.00  0.00     0.251 C 
ATOM     35  H   UNL     1       6.212  -5.168   4.614  1.00  0.00     0.163 HD
ATOM     36  O   UNL     1       7.270  -4.169   6.553  1.00  0.00    -0.269 OA
BRANCH  34  37
ATOM     37  C   UNL     1       6.435  -2.088   5.850  1.00  0.00     0.039 A 
ATOM     38  C   UNL     1       7.496  -1.282   6.268  1.00  0.00     0.014 A 
ATOM     39  C   UNL     1       5.186  -1.523   5.577  1.00  0.00     0.014 A 
ATOM     40  C   UNL     1       7.320   0.101   6.354  1.00  0.00     0.010 A 
ATOM     41  C   UNL     1       5.035  -0.139   5.589  1.00  0.00     0.010 A 
ATOM     42  C   UNL     1       6.099   0.688   5.980  1.00  0.00    -0.014 A 
BRANCH  42  43
ATOM     43  C   UNL     1       5.917   2.162   5.986  1.00  0.00     0.031 A 
ATOM     44  C   UNL     1       4.899   2.796   6.895  1.00  0.00     0.074 A 
ATOM     45  C   UNL     1       6.623   2.923   5.125  1.00  0.00     0.049 A 
ATOM     46  N   UNL     1       4.548   4.052   6.993  1.00  0.00    -0.248 NA
ATOM     47  C   UNL     1       4.158   1.895   7.793  1.00  0.00     0.031 C 
ATOM     48  C   UNL     1       7.605   2.420   4.161  1.00  0.00     0.029 A 
ATOM     49  N   UNL     1       6.616   4.279   4.912  1.00  0.00    -0.354 N 
ATOM     50  C   UNL     1       3.542   4.091   7.951  1.00  0.00     0.074 A 
ATOM     51  C   UNL     1       3.298   2.726   8.363  1.00  0.00     0.031 C 
ATOM     52  C   UNL     1       8.122   3.454   3.479  1.00  0.00     0.029 A 
ATOM     53  C   UNL     1       7.479   4.688   3.922  1.00  0.00     0.049 A 
ATOM     54  H   UNL     1       6.047   4.901   5.421  1.00  0.00     0.167 HD
ATOM     55  C   UNL     1       2.897   5.169   8.458  1.00  0.00     0.037 A 
ATOM     56  C   UNL     1       7.720   5.915   3.420  1.00  0.00     0.037 A 
ATOM     57  C   UNL     1       3.162   6.527   8.056  1.00  0.00     0.049 A 
ATOM     58  C   UNL     1       6.983   7.097   3.992  1.00  0.00     0.074 A 
ATOM     59  C   UNL     1       2.602   7.693   8.549  1.00  0.00     0.029 A 
ATOM     60  N   UNL     1       4.056   6.901   7.064  1.00  0.00    -0.354 N 
ATOM     61  N   UNL     1       6.080   7.123   4.944  1.00  0.00    -0.248 NA
ATOM     62  C   UNL     1       7.300   8.416   3.428  1.00  0.00     0.031 C 
ATOM     63  C   UNL     1       3.118   8.768   7.817  1.00  0.00     0.029 A 
ATOM     64  C   UNL     1       4.045   8.278   6.912  1.00  0.00     0.049 A 
ATOM     65  H   UNL     1       4.616   6.280   6.544  1.00  0.00     0.167 HD
ATOM     66  C   UNL     1       5.747   8.462   5.116  1.00  0.00     0.074 A 
ATOM     67  C   UNL     1       6.550   9.215   4.175  1.00  0.00     0.031 C 
ATOM     68  C   UNL     1       4.860   9.017   5.978  1.00  0.00     0.037 A 
BRANCH  55  69
ATOM     69  C   UNL     1       1.842   4.927   9.505  1.00  0.00     0.058 A 
ATOM     70  C   UNL     1       2.169   4.474  10.793  1.00  0.00     0.135 A 
ATOM     71  C   UNL     1       0.490   5.187   9.229  1.00  0.00     0.135 A 
ATOM     72  F   UNL     1       3.444   4.195  11.109  1.00  0.00    -0.206 F 
ATOM     73  C   UNL     1       1.192   4.257  11.759  1.00  0.00     0.059 A 
ATOM     74  C   UNL     1      -0.501   5.008  10.190  1.00  0.00     0.059 A 
ATOM     75  F   UNL     1       0.119   5.622   8.014  1.00  0.00    -0.206 F 
ATOM     76  C   UNL     1      -0.141   4.527  11.448  1.00  0.00     0.060 A 
BRANCH  76  77
ATOM     77  S   UNL     1      -1.396   4.243  12.714  1.00  0.00     0.124 S 
ATOM     78  O   UNL     1      -1.433   2.785  12.764  1.00  0.00    -0.237 OA
ATOM     79  O   UNL     1      -0.817   4.902  13.880  1.00  0.00    -0.237 OA
ATOM     80  O   UNL     1      -2.587   4.881  12.162  1.00  0.00    -0.744 OA
ENDBRANCH  76  77
ENDBRANCH  55  69
BRANCH  56  81
ATOM     81  C   UNL     1       8.717   6.089   2.329  1.00  0.00     0.058 A 
ATOM     82  C   UNL     1       9.937   6.742   2.562  1.00  0.00     0.135 A 
ATOM     83  C   UNL     1       8.478   5.595   1.037  1.00  0.00     0.135 A 
ATOM     84  F   UNL     1      10.210   7.237   3.779  1.00  0.00    -0.206 F 
ATOM     85  C   UNL     1      10.877   6.915   1.552  1.00  0.00     0.059 A 
ATOM     86  C   UNL     1       9.414   5.731   0.017  1.00  0.00     0.059 A 
ATOM     87  F   UNL     1       7.334   4.948   0.765  1.00  0.00    -0.206 F 
ATOM     88  C   UNL     1      10.607   6.402   0.282  1.00  0.00     0.060 A 
BRANCH  88  89
ATOM     89  S   UNL     1      11.853   6.592  -1.011  1.00  0.00     0.124 S 
ATOM     90  O   UNL     1      11.764   8.019  -1.297  1.00  0.00    -0.237 OA
ATOM     91  O   UNL     1      13.067   6.150  -0.332  1.00  0.00    -0.237 OA
ATOM     92  O   UNL     1      11.377   5.705  -2.069  1.00  0.00    -0.744 OA
ENDBRANCH  88  89
ENDBRANCH  56  81
BRANCH  68  93
ATOM     93  C   UNL     1       4.737  10.516   5.984  1.00  0.00     0.058 A 
ATOM     94  C   UNL     1       4.112  11.214   4.939  1.00  0.00     0.135 A 
ATOM     95  C   UNL     1       5.189  11.258   7.089  1.00  0.00     0.135 A 
ATOM     96  F   UNL     1       3.668  10.555   3.857  1.00  0.00    -0.206 F 
ATOM     97  C   UNL     1       3.955  12.596   4.981  1.00  0.00     0.059 A 
ATOM     98  C   UNL     1       5.016  12.636   7.165  1.00  0.00     0.059 A 
ATOM     99  F   UNL     1       5.785  10.639   8.120  1.00  0.00    -0.206 F 
ATOM    100  C   UNL     1       4.405  13.297   6.101  1.00  0.00     0.060 A 
BRANCH 100 101
ATOM    101  S   UNL     1       4.149  15.083   6.163  1.00  0.00     0.124 S 
ATOM    102  O   UNL     1       5.123  15.555   5.184  1.00  0.00    -0.237 OA
ATOM    103  O   UNL     1       2.748  15.210   5.776  1.00  0.00    -0.237 OA
ATOM    104  O   UNL     1       4.443  15.422   7.553  1.00  0.00    -0.744 OA
ENDBRANCH 100 101
ENDBRANCH  68  93
ENDBRANCH  42  43
ENDBRANCH  34  37
ENDBRANCH  32  33
ENDBRANCH  31  32
ENDBRANCH  30  31
ENDBRANCH   1  30
TORSDOF 20
