REMARK SMILES C[C@H](C[NH3+])S[C@H](C)c1ccc(C(=O)NCCCCCCNC(=O)c2ccc(-c3c4nc(c(-c5c(F)cc(S(=O)(=O)[O-])cc5F)c5ccc([nH]5)c(-c5c(F)cc(S(=O)(=O)[O-])cc5F)c5nc(c(-c6c(F)cc(S(=O)(=O)[O-])cc6F)c6ccc3[nH]6)C=C5)C=C4)cc2)o1
REMARK SMILES IDX 16 1 15 2 14 3 12 4 13 5 11 7 8 8 9 9 90 10 10 11 6 12 7 13
REMARK SMILES IDX 5 14 2 15 1 16 3 17 4 18 17 22 18 23 19 24 20 25 21 26 22 27
REMARK SMILES IDX 23 29 24 30 25 31 89 32 26 33 88 34 27 35 28 36 29 37 82 38
REMARK SMILES IDX 30 39 87 40 81 41 83 42 31 43 86 44 80 45 79 46 32 48 66 49
REMARK SMILES IDX 45 50 65 51 46 52 49 53 64 54 84 55 47 56 48 57 63 59 85 60
REMARK SMILES IDX 50 61 33 62 34 63 43 64 35 65 36 66 42 67 44 68 37 69 38 70
REMARK SMILES IDX 39 71 40 72 41 73 67 74 68 75 77 76 69 77 70 78 76 79 78 80
REMARK SMILES IDX 71 81 72 82 73 83 74 84 75 85 51 86 52 87 61 88 53 89 54 90
REMARK SMILES IDX 60 91 62 92 55 93 56 94 57 95 58 96 59 97
REMARK H PARENT 14 6 4 19 4 20 4 21 21 28 83 47 49 58
REMARK Flexibility Score: inf
ROOT
ATOM      1  C   UNL     1       0.907   4.255  -4.993  1.00  0.00     0.021 C 
ENDROOT
BRANCH   1   2
ATOM      2  C   UNL     1      -0.420   3.528  -4.790  1.00  0.00     0.116 C 
BRANCH   2   3
ATOM      3  N   UNL     1      -0.212   2.140  -4.449  1.00  0.00    -0.349 N 
ATOM      4  C   UNL     1      -0.421   1.420  -3.298  1.00  0.00     0.286 C 
ATOM      5  O   UNL     1      -0.078   0.236  -3.359  1.00  0.00    -0.266 OA
ATOM      6  H   UNL     1       0.153   1.603  -5.189  1.00  0.00     0.163 HD
BRANCH   4   7
ATOM      7  C   UNL     1      -1.008   2.001  -2.099  1.00  0.00     0.191 A 
ATOM      8  C   UNL     1      -1.665   1.834   0.024  1.00  0.00     0.117 A 
ATOM      9  C   UNL     1      -1.984   3.109  -0.386  1.00  0.00     0.047 A 
ATOM     10  O   UNL     1      -1.126   1.147  -1.020  1.00  0.00    -0.455 OA
ATOM     11  C   UNL     1      -1.496   3.235  -1.706  1.00  0.00     0.056 A 
BRANCH   8  12
ATOM     12  C   UNL     1      -1.757   1.152   1.350  1.00  0.00     0.110 C 
ATOM     13  C   UNL     1      -1.095  -0.222   1.418  1.00  0.00     0.028 C 
BRANCH  12  14
ATOM     14  S   UNL     1      -1.190   2.279   2.700  1.00  0.00    -0.142 SA
BRANCH  14  15
ATOM     15  C   UNL     1       0.652   2.297   2.525  1.00  0.00     0.099 C 
ATOM     16  C   UNL     1       1.185   3.075   3.738  1.00  0.00     0.025 C 
BRANCH  15  17
ATOM     17  C   UNL     1       1.216   2.893   1.216  1.00  0.00     0.273 C 
BRANCH  17  18
ATOM     18  N   UNL     1       0.890   4.302   1.001  1.00  0.00    -0.357 N 
ATOM     19  H   UNL     1      -0.121   4.409   0.924  1.00  0.00     0.344 HD
ATOM     20  H   UNL     1       1.333   4.626   0.141  1.00  0.00     0.344 HD
ATOM     21  H   UNL     1       1.231   4.854   1.788  1.00  0.00     0.344 HD
ENDBRANCH  17  18
ENDBRANCH  15  17
ENDBRANCH  14  15
ENDBRANCH  12  14
ENDBRANCH   8  12
ENDBRANCH   4   7
ENDBRANCH   2   3
ENDBRANCH   1   2
BRANCH   1  22
ATOM     22  C   UNL     1       1.454   4.123  -6.418  1.00  0.00     0.002 C 
BRANCH  22  23
ATOM     23  C   UNL     1       0.516   4.644  -7.515  1.00  0.00     0.002 C 
BRANCH  23  24
ATOM     24  C   UNL     1       0.017   6.079  -7.315  1.00  0.00     0.021 C 
BRANCH  24  25
ATOM     25  C   UNL     1       1.124   7.128  -7.274  1.00  0.00     0.116 C 
BRANCH  25  26
ATOM     26  N   UNL     1       1.883   7.148  -8.513  1.00  0.00    -0.352 N 
ATOM     27  C   UNL     1       2.116   8.182  -9.381  1.00  0.00     0.251 C 
ATOM     28  H   UNL     1       2.291   6.288  -8.767  1.00  0.00     0.163 HD
ATOM     29  O   UNL     1       2.558   7.944 -10.501  1.00  0.00    -0.269 OA
BRANCH  27  30
ATOM     30  C   UNL     1       1.833   9.576  -8.974  1.00  0.00     0.039 A 
ATOM     31  C   UNL     1       1.276  10.448  -9.912  1.00  0.00     0.014 A 
ATOM     32  C   UNL     1       2.151  10.035  -7.692  1.00  0.00     0.014 A 
ATOM     33  C   UNL     1       0.999  11.767  -9.549  1.00  0.00     0.010 A 
ATOM     34  C   UNL     1       1.802  11.328  -7.309  1.00  0.00     0.010 A 
ATOM     35  C   UNL     1       1.233  12.211  -8.236  1.00  0.00    -0.014 A 
BRANCH  35  36
ATOM     36  C   UNL     1       0.874  13.595  -7.833  1.00  0.00     0.031 A 
ATOM     37  C   UNL     1       1.937  14.570  -7.404  1.00  0.00     0.074 A 
ATOM     38  C   UNL     1      -0.424  13.960  -7.827  1.00  0.00     0.049 A 
ATOM     39  N   UNL     1       1.808  15.820  -7.038  1.00  0.00    -0.248 NA
ATOM     40  C   UNL     1       3.321  14.074  -7.358  1.00  0.00     0.031 C 
ATOM     41  C   UNL     1      -1.548  13.083  -8.164  1.00  0.00     0.029 A 
ATOM     42  N   UNL     1      -1.018  15.161  -7.533  1.00  0.00    -0.354 N 
ATOM     43  C   UNL     1       3.087  16.257  -6.715  1.00  0.00     0.074 A 
ATOM     44  C   UNL     1       3.971  15.121  -6.871  1.00  0.00     0.031 C 
ATOM     45  C   UNL     1      -2.690  13.785  -8.094  1.00  0.00     0.029 A 
ATOM     46  C   UNL     1      -2.386  15.149  -7.672  1.00  0.00     0.049 A 
ATOM     47  H   UNL     1      -0.512  15.957  -7.249  1.00  0.00     0.167 HD
ATOM     48  C   UNL     1       3.493  17.497  -6.349  1.00  0.00     0.037 A 
ATOM     49  C   UNL     1      -3.294  16.125  -7.483  1.00  0.00     0.037 A 
ATOM     50  C   UNL     1       2.607  18.624  -6.211  1.00  0.00     0.049 A 
ATOM     51  C   UNL     1      -2.819  17.494  -7.079  1.00  0.00     0.074 A 
ATOM     52  C   UNL     1       2.924  19.935  -5.902  1.00  0.00     0.029 A 
ATOM     53  N   UNL     1       1.228  18.575  -6.367  1.00  0.00    -0.354 N 
ATOM     54  N   UNL     1      -1.595  17.909  -6.855  1.00  0.00    -0.248 NA
ATOM     55  C   UNL     1      -3.846  18.530  -6.913  1.00  0.00     0.031 C 
ATOM     56  C   UNL     1       1.734  20.666  -5.818  1.00  0.00     0.029 A 
ATOM     57  C   UNL     1       0.679  19.826  -6.134  1.00  0.00     0.049 A 
ATOM     58  H   UNL     1       0.716  17.770  -6.608  1.00  0.00     0.167 HD
ATOM     59  C   UNL     1      -1.702  19.261  -6.546  1.00  0.00     0.074 A 
ATOM     60  C   UNL     1      -3.109  19.596  -6.632  1.00  0.00     0.031 C 
ATOM     61  C   UNL     1      -0.725  20.144  -6.220  1.00  0.00     0.037 A 
BRANCH  48  62
ATOM     62  C   UNL     1       4.959  17.702  -6.074  1.00  0.00     0.058 A 
ATOM     63  C   UNL     1       5.918  17.655  -7.100  1.00  0.00     0.135 A 
ATOM     64  C   UNL     1       5.409  17.992  -4.775  1.00  0.00     0.135 A 
ATOM     65  F   UNL     1       5.548  17.368  -8.358  1.00  0.00    -0.206 F 
ATOM     66  C   UNL     1       7.270  17.858  -6.844  1.00  0.00     0.059 A 
ATOM     67  C   UNL     1       6.754  18.230  -4.502  1.00  0.00     0.059 A 
ATOM     68  F   UNL     1       4.539  18.050  -3.755  1.00  0.00    -0.206 F 
ATOM     69  C   UNL     1       7.679  18.147  -5.541  1.00  0.00     0.060 A 
BRANCH  69  70
ATOM     70  S   UNL     1       9.436  18.416  -5.230  1.00  0.00     0.124 S 
ATOM     71  O   UNL     1       9.968  17.065  -5.378  1.00  0.00    -0.237 OA
ATOM     72  O   UNL     1       9.799  19.358  -6.284  1.00  0.00    -0.237 OA
ATOM     73  O   UNL     1       9.464  18.956  -3.874  1.00  0.00    -0.744 OA
ENDBRANCH  69  70
ENDBRANCH  48  62
BRANCH  49  74
ATOM     74  C   UNL     1      -4.739  15.847  -7.700  1.00  0.00     0.058 A 
ATOM     75  C   UNL     1      -5.433  16.414  -8.779  1.00  0.00     0.135 A 
ATOM     76  C   UNL     1      -5.451  14.994  -6.842  1.00  0.00     0.135 A 
ATOM     77  F   UNL     1      -4.798  17.239  -9.625  1.00  0.00    -0.206 F 
ATOM     78  C   UNL     1      -6.785  16.162  -8.991  1.00  0.00     0.059 A 
ATOM     79  C   UNL     1      -6.796  14.703  -7.050  1.00  0.00     0.059 A 
ATOM     80  F   UNL     1      -4.830  14.409  -5.806  1.00  0.00    -0.206 F 
ATOM     81  C   UNL     1      -7.457  15.301  -8.122  1.00  0.00     0.060 A 
BRANCH  81  82
ATOM     82  S   UNL     1      -9.199  14.941  -8.433  1.00  0.00     0.124 S 
ATOM     83  O   UNL     1      -9.831  16.200  -8.055  1.00  0.00    -0.237 OA
ATOM     84  O   UNL     1      -9.196  14.630  -9.859  1.00  0.00    -0.237 OA
ATOM     85  O   UNL     1      -9.470  13.809  -7.553  1.00  0.00    -0.744 OA
ENDBRANCH  81  82
ENDBRANCH  49  74
BRANCH  61  86
ATOM     86  C   UNL     1      -1.142  21.566  -5.959  1.00  0.00     0.058 A 
ATOM     87  C   UNL     1      -1.867  21.926  -4.812  1.00  0.00     0.135 A 
ATOM     88  C   UNL     1      -0.784  22.588  -6.854  1.00  0.00     0.135 A 
ATOM     89  F   UNL     1      -2.240  20.989  -3.926  1.00  0.00    -0.206 F 
ATOM     90  C   UNL     1      -2.254  23.242  -4.579  1.00  0.00     0.059 A 
ATOM     91  C   UNL     1      -1.131  23.915  -6.625  1.00  0.00     0.059 A 
ATOM     92  F   UNL     1      -0.080  22.302  -7.960  1.00  0.00    -0.206 F 
ATOM     93  C   UNL     1      -1.881  24.230  -5.493  1.00  0.00     0.060 A 
BRANCH  93  94
ATOM     94  S   UNL     1      -2.377  25.936  -5.172  1.00  0.00     0.124 S 
ATOM     95  O   UNL     1      -3.805  25.887  -5.466  1.00  0.00    -0.237 OA
ATOM     96  O   UNL     1      -2.024  26.104  -3.766  1.00  0.00    -0.237 OA
ATOM     97  O   UNL     1      -1.569  26.708  -6.111  1.00  0.00    -0.744 OA
ENDBRANCH  93  94
ENDBRANCH  61  86
ENDBRANCH  35  36
ENDBRANCH  27  30
ENDBRANCH  25  26
ENDBRANCH  24  25
ENDBRANCH  23  24
ENDBRANCH  22  23
ENDBRANCH   1  22
TORSDOF 21
