REMARK SMILES Cc1nccn1C1(C(=O)NCCCCCCNC(=O)c2ccc(-c3c4nc(c(-c5c(F)cc(S(=O)(=O)[O-])cc5F)c5ccc([nH]5)c(-c5c(F)cc(S(=O)(=O)[O-])cc5F)c5nc(c(-c6c(F)cc(S(=O)(=O)[O-])cc6F)c6ccc3[nH]6)C=C5)C=C4)cc2)CCN(C(=O)[C@@H]2C[C@H]2c2ccccc2)CC1
REMARK SMILES IDX 14 1 13 2 12 3 11 4 10 5 8 6 9 7 7 9 86 10 101 11 87 12
REMARK SMILES IDX 100 13 88 14 89 15 90 16 6 17 1 18 2 19 3 20 4 21 5 22 91 23
REMARK SMILES IDX 92 24 93 25 94 26 95 27 99 28 96 29 98 30 97 31 15 32 16 33
REMARK SMILES IDX 17 34 18 35 19 37 20 38 21 39 85 40 22 41 84 42 23 43 24 44
REMARK SMILES IDX 25 45 78 46 26 47 83 48 77 49 79 50 27 51 82 52 76 53 75 54
REMARK SMILES IDX 28 56 62 57 41 58 61 59 42 60 45 61 60 62 80 63 43 64 44 65
REMARK SMILES IDX 59 67 81 68 46 69 29 70 30 71 39 72 31 73 32 74 38 75 40 76
REMARK SMILES IDX 33 77 34 78 35 79 36 80 37 81 63 82 64 83 73 84 65 85 66 86
REMARK SMILES IDX 72 87 74 88 67 89 68 90 69 91 70 92 71 93 47 94 48 95 57 96
REMARK SMILES IDX 49 97 50 98 56 99 58 100 51 101 52 102 53 103 54 104 55 105
REMARK H PARENT 10 8 17 36 79 55 45 66
REMARK Flexibility Score: inf
ROOT
ATOM      1  C   UNL     1       3.229   7.281   3.456  1.00  0.00     0.002 C 
ENDROOT
BRANCH   1   2
ATOM      2  C   UNL     1       4.105   6.506   2.457  1.00  0.00     0.002 C 
BRANCH   2   3
ATOM      3  C   UNL     1       3.960   4.976   2.445  1.00  0.00     0.021 C 
BRANCH   3   4
ATOM      4  C   UNL     1       2.531   4.450   2.279  1.00  0.00     0.116 C 
BRANCH   4   5
ATOM      5  N   UNL     1       1.980   4.817   0.985  1.00  0.00    -0.354 N 
ATOM      6  C   UNL     1       1.554   4.112  -0.108  1.00  0.00     0.246 C 
ATOM      7  O   UNL     1       1.353   4.850  -1.077  1.00  0.00    -0.272 OA
ATOM      8  H   UNL     1       1.893   5.791   0.869  1.00  0.00     0.163 HD
BRANCH   6   9
ATOM      9  C   UNL     1       1.328   2.537  -0.108  1.00  0.00     0.127 C 
ATOM     10  C   UNL     1       2.722   1.905   0.152  1.00  0.00     0.061 C 
ATOM     11  C   UNL     1       0.268   2.274   0.998  1.00  0.00     0.061 C 
ATOM     12  C   UNL     1       2.825   0.793   1.205  1.00  0.00     0.122 C 
ATOM     13  C   UNL     1       0.393   0.875   1.549  1.00  0.00     0.122 C 
ATOM     14  N   UNL     1       1.707   0.705   2.145  1.00  0.00    -0.342 N 
ATOM     15  C   UNL     1       2.012   0.266   3.443  1.00  0.00     0.226 C 
ATOM     16  O   UNL     1       3.134  -0.156   3.715  1.00  0.00    -0.275 OA
BRANCH   9  17
ATOM     17  N   UNL     1       0.738   2.002  -1.405  1.00  0.00    -0.320 N 
ATOM     18  C   UNL     1       1.259  -0.583  -1.435  1.00  0.00     0.087 C 
ATOM     19  C   UNL     1       0.597   0.680  -1.869  1.00  0.00     0.106 A 
ATOM     20  N   UNL     1      -0.219   0.631  -2.908  1.00  0.00    -0.242 NA
ATOM     21  C   UNL     1      -0.516   1.906  -3.233  1.00  0.00     0.131 A 
ATOM     22  C   UNL     1       0.037   2.762  -2.324  1.00  0.00     0.108 A 
ENDBRANCH   9  17
BRANCH  15  23
ATOM     23  C   UNL     1       1.064   0.345   4.602  1.00  0.00     0.087 C 
ATOM     24  C   UNL     1      -0.119  -0.589   4.675  1.00  0.00     0.023 C 
ATOM     25  C   UNL     1      -0.324   0.902   4.605  1.00  0.00     0.032 C 
BRANCH  25  26
ATOM     26  C   UNL     1      -0.965   1.696   5.692  1.00  0.00    -0.044 A 
ATOM     27  C   UNL     1      -2.275   1.385   6.090  1.00  0.00     0.004 A 
ATOM     28  C   UNL     1      -0.446   2.954   6.031  1.00  0.00     0.004 A 
ATOM     29  C   UNL     1      -3.084   2.344   6.693  1.00  0.00     0.000 A 
ATOM     30  C   UNL     1      -1.254   3.917   6.633  1.00  0.00     0.000 A 
ATOM     31  C   UNL     1      -2.581   3.620   6.935  1.00  0.00     0.000 A 
ENDBRANCH  25  26
ENDBRANCH  15  23
ENDBRANCH   6   9
ENDBRANCH   4   5
ENDBRANCH   3   4
ENDBRANCH   2   3
ENDBRANCH   1   2
BRANCH   1  32
ATOM     32  C   UNL     1       3.272   6.834   4.925  1.00  0.00     0.021 C 
BRANCH  32  33
ATOM     33  C   UNL     1       4.635   6.967   5.585  1.00  0.00     0.116 C 
BRANCH  33  34
ATOM     34  N   UNL     1       5.085   8.359   5.720  1.00  0.00    -0.352 N 
ATOM     35  C   UNL     1       6.300   8.846   6.198  1.00  0.00     0.251 C 
ATOM     36  H   UNL     1       4.439   9.043   5.431  1.00  0.00     0.163 HD
ATOM     37  O   UNL     1       6.400   9.990   6.600  1.00  0.00    -0.269 OA
BRANCH  35  38
ATOM     38  C   UNL     1       7.467   7.940   6.192  1.00  0.00     0.039 A 
ATOM     39  C   UNL     1       8.491   7.976   7.146  1.00  0.00     0.014 A 
ATOM     40  C   UNL     1       7.502   7.008   5.170  1.00  0.00     0.014 A 
ATOM     41  C   UNL     1       9.516   7.031   7.057  1.00  0.00     0.010 A 
ATOM     42  C   UNL     1       8.288   5.910   5.290  1.00  0.00     0.010 A 
ATOM     43  C   UNL     1       9.397   6.008   6.110  1.00  0.00    -0.014 A 
BRANCH  43  44
ATOM     44  C   UNL     1      10.405   4.994   5.860  1.00  0.00     0.031 A 
ATOM     45  C   UNL     1      10.561   3.984   6.930  1.00  0.00     0.074 A 
ATOM     46  C   UNL     1      10.866   4.806   4.601  1.00  0.00     0.049 A 
ATOM     47  N   UNL     1      11.592   3.791   7.681  1.00  0.00    -0.248 NA
ATOM     48  C   UNL     1       9.383   3.195   7.324  1.00  0.00     0.031 C 
ATOM     49  C   UNL     1      10.498   5.529   3.371  1.00  0.00     0.029 A 
ATOM     50  N   UNL     1      11.660   3.815   4.125  1.00  0.00    -0.354 N 
ATOM     51  C   UNL     1      11.273   2.709   8.494  1.00  0.00     0.074 A 
ATOM     52  C   UNL     1       9.847   2.543   8.392  1.00  0.00     0.031 C 
ATOM     53  C   UNL     1      10.880   4.815   2.291  1.00  0.00     0.029 A 
ATOM     54  C   UNL     1      11.645   3.669   2.741  1.00  0.00     0.049 A 
ATOM     55  H   UNL     1      12.204   3.242   4.713  1.00  0.00     0.167 HD
ATOM     56  C   UNL     1      12.237   1.891   9.002  1.00  0.00     0.037 A 
ATOM     57  C   UNL     1      12.182   2.638   2.040  1.00  0.00     0.037 A 
ATOM     58  C   UNL     1      13.550   2.447   8.776  1.00  0.00     0.049 A 
ATOM     59  C   UNL     1      13.184   1.997   2.943  1.00  0.00     0.074 A 
ATOM     60  C   UNL     1      14.179   3.616   9.162  1.00  0.00     0.029 A 
ATOM     61  N   UNL     1      14.268   1.968   7.703  1.00  0.00    -0.354 N 
ATOM     62  N   UNL     1      14.270   2.601   3.355  1.00  0.00    -0.248 NA
ATOM     63  C   UNL     1      12.734   0.900   3.789  1.00  0.00     0.031 C 
ATOM     64  C   UNL     1      14.922   4.027   8.017  1.00  0.00     0.029 A 
ATOM     65  C   UNL     1      14.778   3.051   7.029  1.00  0.00     0.049 A 
ATOM     66  H   UNL     1      14.394   1.021   7.463  1.00  0.00     0.167 HD
ATOM     67  C   UNL     1      14.392   2.256   4.696  1.00  0.00     0.074 A 
ATOM     68  C   UNL     1      13.463   1.142   4.883  1.00  0.00     0.031 C 
ATOM     69  C   UNL     1      14.996   3.092   5.596  1.00  0.00     0.037 A 
BRANCH  56  70
ATOM     70  C   UNL     1      12.042   0.451   9.405  1.00  0.00     0.058 A 
ATOM     71  C   UNL     1      13.063  -0.204  10.124  1.00  0.00     0.135 A 
ATOM     72  C   UNL     1      11.017  -0.384   8.909  1.00  0.00     0.135 A 
ATOM     73  F   UNL     1      14.088   0.490  10.643  1.00  0.00    -0.206 F 
ATOM     74  C   UNL     1      13.102  -1.591  10.273  1.00  0.00     0.059 A 
ATOM     75  C   UNL     1      11.004  -1.762   9.099  1.00  0.00     0.059 A 
ATOM     76  F   UNL     1      10.030   0.077   8.132  1.00  0.00    -0.206 F 
ATOM     77  C   UNL     1      12.075  -2.362   9.740  1.00  0.00     0.060 A 
BRANCH  77  78
ATOM     78  S   UNL     1      12.183  -4.157   9.823  1.00  0.00     0.124 S 
ATOM     79  O   UNL     1      13.285  -4.423   8.905  1.00  0.00    -0.237 OA
ATOM     80  O   UNL     1      12.460  -4.379  11.238  1.00  0.00    -0.237 OA
ATOM     81  O   UNL     1      10.866  -4.594   9.372  1.00  0.00    -0.744 OA
ENDBRANCH  77  78
ENDBRANCH  56  70
BRANCH  57  82
ATOM     82  C   UNL     1      11.627   1.991   0.816  1.00  0.00     0.058 A 
ATOM     83  C   UNL     1      12.367   1.050   0.077  1.00  0.00     0.135 A 
ATOM     84  C   UNL     1      10.258   2.089   0.484  1.00  0.00     0.135 A 
ATOM     85  F   UNL     1      13.672   0.871   0.330  1.00  0.00    -0.206 F 
ATOM     86  C   UNL     1      11.776   0.223  -0.891  1.00  0.00     0.059 A 
ATOM     87  C   UNL     1       9.653   1.289  -0.484  1.00  0.00     0.059 A 
ATOM     88  F   UNL     1       9.433   2.904   1.158  1.00  0.00    -0.206 F 
ATOM     89  C   UNL     1      10.410   0.336  -1.149  1.00  0.00     0.060 A 
BRANCH  89  90
ATOM     90  S   UNL     1       9.594  -0.849  -2.246  1.00  0.00     0.124 S 
ATOM     91  O   UNL     1      10.108  -0.458  -3.553  1.00  0.00    -0.237 OA
ATOM     92  O   UNL     1      10.069  -2.127  -1.728  1.00  0.00    -0.237 OA
ATOM     93  O   UNL     1       8.172  -0.585  -2.030  1.00  0.00    -0.744 OA
ENDBRANCH  89  90
ENDBRANCH  57  82
BRANCH  69  94
ATOM     94  C   UNL     1      15.746   4.297   5.070  1.00  0.00     0.058 A 
ATOM     95  C   UNL     1      15.143   5.363   4.376  1.00  0.00     0.135 A 
ATOM     96  C   UNL     1      17.085   4.470   5.448  1.00  0.00     0.135 A 
ATOM     97  F   UNL     1      13.841   5.339   4.074  1.00  0.00    -0.206 F 
ATOM     98  C   UNL     1      15.843   6.521   4.037  1.00  0.00     0.059 A 
ATOM     99  C   UNL     1      17.796   5.631   5.149  1.00  0.00     0.059 A 
ATOM    100  F   UNL     1      17.705   3.524   6.173  1.00  0.00    -0.206 F 
ATOM    101  C   UNL     1      17.172   6.648   4.430  1.00  0.00     0.060 A 
BRANCH 101 102
ATOM    102  S   UNL     1      18.053   8.180   4.060  1.00  0.00     0.124 S 
ATOM    103  O   UNL     1      18.271   8.066   2.622  1.00  0.00    -0.237 OA
ATOM    104  O   UNL     1      17.100   9.205   4.477  1.00  0.00    -0.237 OA
ATOM    105  O   UNL     1      19.256   8.089   4.884  1.00  0.00    -0.744 OA
ENDBRANCH 101 102
ENDBRANCH  69  94
ENDBRANCH  43  44
ENDBRANCH  35  38
ENDBRANCH  33  34
ENDBRANCH  32  33
ENDBRANCH   1  32
TORSDOF 19
