REMARK SMILES CO[C@@H]1C[C@@H](C(=O)NCCCCCCNC(=O)c2ccc(-c3c4nc(c(-c5c(F)cc(S(=O)(=O)[O-])cc5F)c5ccc([nH]5)c(-c5c(F)cc(S(=O)(=O)[O-])cc5F)c5nc(c(-c6c(F)cc(S(=O)(=O)[O-])cc6F)c6ccc3[nH]6)C=C5)C=C4)cc2)N(C(=O)CSc2cccs2)C1
REMARK SMILES IDX 11 1 10 2 9 3 8 4 6 5 7 6 5 8 3 9 4 10 94 11 84 12 2 13 1 14
REMARK SMILES IDX 85 15 86 16 87 17 88 18 89 19 90 20 93 21 91 22 92 23 12 24
REMARK SMILES IDX 13 25 14 26 15 27 16 28 17 30 18 31 19 32 83 33 20 34 82 35
REMARK SMILES IDX 21 36 22 37 23 38 76 39 24 40 81 41 75 42 77 43 25 44 80 45
REMARK SMILES IDX 74 46 73 47 26 49 60 50 39 51 59 52 40 53 43 54 58 55 78 56
REMARK SMILES IDX 41 57 42 58 57 60 79 61 44 62 27 63 28 64 37 65 29 66 30 67
REMARK SMILES IDX 36 68 38 69 31 70 32 71 33 72 34 73 35 74 61 75 62 76 71 77
REMARK SMILES IDX 63 78 64 79 70 80 72 81 65 82 66 83 67 84 68 85 69 86 45 87
REMARK SMILES IDX 46 88 55 89 47 90 48 91 54 92 56 93 49 94 50 95 51 96 52 97
REMARK SMILES IDX 53 98
REMARK H PARENT 8 7 15 29 77 48 43 59
REMARK Flexibility Score: inf
ROOT
ATOM      1  C   UNL     1       6.884   0.316   2.709  1.00  0.00     0.002 C 
ENDROOT
BRANCH   1   2
ATOM      2  C   UNL     1       5.360   0.441   2.562  1.00  0.00     0.021 C 
BRANCH   2   3
ATOM      3  C   UNL     1       4.912   0.428   1.094  1.00  0.00     0.116 C 
BRANCH   3   4
ATOM      4  N   UNL     1       5.139  -0.899   0.551  1.00  0.00    -0.354 N 
ATOM      5  C   UNL     1       4.366  -2.001   0.824  1.00  0.00     0.242 C 
ATOM      6  O   UNL     1       4.935  -3.057   1.095  1.00  0.00    -0.273 OA
ATOM      7  H   UNL     1       5.904  -1.018  -0.057  1.00  0.00     0.163 HD
BRANCH   5   8
ATOM      8  C   UNL     1       2.836  -1.849   0.730  1.00  0.00     0.177 C 
ATOM      9  C   UNL     1       0.797  -1.486   1.988  1.00  0.00     0.139 C 
ATOM     10  C   UNL     1       2.288  -1.192   2.013  1.00  0.00     0.069 C 
ATOM     11  C   UNL     1       0.710  -2.844   1.301  1.00  0.00     0.152 C 
ATOM     12  N   UNL     1       1.985  -3.053   0.614  1.00  0.00    -0.327 N 
BRANCH   9  13
ATOM     13  O   UNL     1      -0.002  -0.453   1.406  1.00  0.00    -0.380 OA
ATOM     14  C   UNL     1       0.338   0.023   0.114  1.00  0.00     0.195 C 
ENDBRANCH   9  13
BRANCH  12  15
ATOM     15  C   UNL     1       2.068  -4.146  -0.228  1.00  0.00     0.233 C 
ATOM     16  O   UNL     1       1.129  -4.953  -0.287  1.00  0.00    -0.274 OA
BRANCH  15  17
ATOM     17  C   UNL     1       3.319  -4.443  -1.032  1.00  0.00     0.175 C 
BRANCH  17  18
ATOM     18  S   UNL     1       3.553  -3.285  -2.403  1.00  0.00    -0.105 SA
BRANCH  18  19
ATOM     19  C   UNL     1       2.115  -3.599  -3.357  1.00  0.00     0.060 A 
ATOM     20  C   UNL     1       1.635  -4.826  -3.765  1.00  0.00     0.027 A 
ATOM     21  S   UNL     1       1.128  -2.317  -3.910  1.00  0.00    -0.137 S 
ATOM     22  C   UNL     1       0.429  -4.711  -4.517  1.00  0.00     0.013 A 
ATOM     23  C   UNL     1       0.043  -3.398  -4.670  1.00  0.00     0.066 A 
ENDBRANCH  18  19
ENDBRANCH  17  18
ENDBRANCH  15  17
ENDBRANCH  12  15
ENDBRANCH   5   8
ENDBRANCH   3   4
ENDBRANCH   2   3
ENDBRANCH   1   2
BRANCH   1  24
ATOM     24  C   UNL     1       7.664   1.469   2.071  1.00  0.00     0.002 C 
BRANCH  24  25
ATOM     25  C   UNL     1       7.274   2.850   2.600  1.00  0.00     0.021 C 
BRANCH  25  26
ATOM     26  C   UNL     1       7.506   3.017   4.097  1.00  0.00     0.116 C 
BRANCH  26  27
ATOM     27  N   UNL     1       8.920   2.916   4.421  1.00  0.00    -0.352 N 
ATOM     28  C   UNL     1       9.706   3.808   5.100  1.00  0.00     0.251 C 
ATOM     29  H   UNL     1       9.373   2.098   4.112  1.00  0.00     0.163 HD
ATOM     30  O   UNL     1      10.932   3.709   5.054  1.00  0.00    -0.269 OA
BRANCH  28  31
ATOM     31  C   UNL     1       9.071   4.889   5.879  1.00  0.00     0.039 A 
ATOM     32  C   UNL     1       9.609   6.175   5.821  1.00  0.00     0.014 A 
ATOM     33  C   UNL     1       7.953   4.624   6.677  1.00  0.00     0.014 A 
ATOM     34  C   UNL     1       9.007   7.204   6.545  1.00  0.00     0.010 A 
ATOM     35  C   UNL     1       7.306   5.666   7.330  1.00  0.00     0.010 A 
ATOM     36  C   UNL     1       7.841   6.962   7.290  1.00  0.00    -0.014 A 
BRANCH  36  37
ATOM     37  C   UNL     1       7.189   8.049   8.061  1.00  0.00     0.031 A 
ATOM     38  C   UNL     1       7.106   7.963   9.561  1.00  0.00     0.074 A 
ATOM     39  C   UNL     1       6.632   9.086   7.408  1.00  0.00     0.049 A 
ATOM     40  N   UNL     1       6.552   8.793  10.407  1.00  0.00    -0.248 NA
ATOM     41  C   UNL     1       7.697   6.771  10.191  1.00  0.00     0.031 C 
ATOM     42  C   UNL     1       6.593   9.244   5.952  1.00  0.00     0.029 A 
ATOM     43  N   UNL     1       5.983  10.197   7.881  1.00  0.00    -0.354 N 
ATOM     44  C   UNL     1       6.720   8.222  11.663  1.00  0.00     0.074 A 
ATOM     45  C   UNL     1       7.363   6.942  11.461  1.00  0.00     0.031 C 
ATOM     46  C   UNL     1       5.970  10.395   5.653  1.00  0.00     0.029 A 
ATOM     47  C   UNL     1       5.537  11.038   6.890  1.00  0.00     0.049 A 
ATOM     48  H   UNL     1       5.849  10.376   8.840  1.00  0.00     0.167 HD
ATOM     49  C   UNL     1       6.398   8.730  12.877  1.00  0.00     0.037 A 
ATOM     50  C   UNL     1       4.849  12.194   6.968  1.00  0.00     0.037 A 
ATOM     51  C   UNL     1       5.767  10.011  13.065  1.00  0.00     0.049 A 
ATOM     52  C   UNL     1       4.511  12.750   8.323  1.00  0.00     0.074 A 
ATOM     53  C   UNL     1       5.439  10.644  14.251  1.00  0.00     0.029 A 
ATOM     54  N   UNL     1       5.361  10.852  12.038  1.00  0.00    -0.354 N 
ATOM     55  N   UNL     1       4.742  12.233   9.507  1.00  0.00    -0.248 NA
ATOM     56  C   UNL     1       3.834  14.053   8.356  1.00  0.00     0.031 C 
ATOM     57  C   UNL     1       4.792  11.845  13.940  1.00  0.00     0.029 A 
ATOM     58  C   UNL     1       4.769  11.990  12.561  1.00  0.00     0.049 A 
ATOM     59  H   UNL     1       5.478  10.667  11.078  1.00  0.00     0.167 HD
ATOM     60  C   UNL     1       4.258  13.156  10.428  1.00  0.00     0.074 A 
ATOM     61  C   UNL     1       3.737  14.271   9.661  1.00  0.00     0.031 C 
ATOM     62  C   UNL     1       4.249  13.089  11.783  1.00  0.00     0.037 A 
BRANCH  49  63
ATOM     63  C   UNL     1       6.724   7.892  14.085  1.00  0.00     0.058 A 
ATOM     64  C   UNL     1       8.051   7.629  14.466  1.00  0.00     0.135 A 
ATOM     65  C   UNL     1       5.700   7.338  14.870  1.00  0.00     0.135 A 
ATOM     66  F   UNL     1       9.072   8.122  13.745  1.00  0.00    -0.206 F 
ATOM     67  C   UNL     1       8.351   6.806  15.546  1.00  0.00     0.059 A 
ATOM     68  C   UNL     1       5.978   6.539  15.977  1.00  0.00     0.059 A 
ATOM     69  F   UNL     1       4.414   7.557  14.558  1.00  0.00    -0.206 F 
ATOM     70  C   UNL     1       7.307   6.259  16.291  1.00  0.00     0.060 A 
BRANCH  70  71
ATOM     71  S   UNL     1       7.712   5.167  17.671  1.00  0.00     0.124 S 
ATOM     72  O   UNL     1       8.150   3.964  16.969  1.00  0.00    -0.237 OA
ATOM     73  O   UNL     1       8.758   5.913  18.363  1.00  0.00    -0.237 OA
ATOM     74  O   UNL     1       6.449   5.047  18.392  1.00  0.00    -0.744 OA
ENDBRANCH  70  71
ENDBRANCH  49  63
BRANCH  50  75
ATOM     75  C   UNL     1       4.464  12.901   5.718  1.00  0.00     0.058 A 
ATOM     76  C   UNL     1       5.094  14.093   5.332  1.00  0.00     0.135 A 
ATOM     77  C   UNL     1       3.494  12.366   4.856  1.00  0.00     0.135 A 
ATOM     78  F   UNL     1       6.025  14.647   6.124  1.00  0.00    -0.206 F 
ATOM     79  C   UNL     1       4.773  14.733   4.139  1.00  0.00     0.059 A 
ATOM     80  C   UNL     1       3.174  12.973   3.647  1.00  0.00     0.059 A 
ATOM     81  F   UNL     1       2.876  11.216   5.171  1.00  0.00    -0.206 F 
ATOM     82  C   UNL     1       3.817  14.160   3.299  1.00  0.00     0.060 A 
BRANCH  82  83
ATOM     83  S   UNL     1       3.466  14.955   1.715  1.00  0.00     0.124 S 
ATOM     84  O   UNL     1       2.724  16.137   2.138  1.00  0.00    -0.237 OA
ATOM     85  O   UNL     1       4.807  15.195   1.191  1.00  0.00    -0.237 OA
ATOM     86  O   UNL     1       2.693  13.946   0.997  1.00  0.00    -0.744 OA
ENDBRANCH  82  83
ENDBRANCH  50  75
BRANCH  62  87
ATOM     87  C   UNL     1       3.681  14.266  12.528  1.00  0.00     0.058 A 
ATOM     88  C   UNL     1       2.306  14.545  12.536  1.00  0.00     0.135 A 
ATOM     89  C   UNL     1       4.523  15.102  13.281  1.00  0.00     0.135 A 
ATOM     90  F   UNL     1       1.457  13.781  11.830  1.00  0.00    -0.206 F 
ATOM     91  C   UNL     1       1.788  15.629  13.239  1.00  0.00     0.059 A 
ATOM     92  C   UNL     1       4.024  16.172  14.015  1.00  0.00     0.059 A 
ATOM     93  F   UNL     1       5.846  14.873  13.318  1.00  0.00    -0.206 F 
ATOM     94  C   UNL     1       2.656  16.436  13.976  1.00  0.00     0.060 A 
BRANCH  94  95
ATOM     95  S   UNL     1       1.969  17.827  14.900  1.00  0.00     0.124 S 
ATOM     96  O   UNL     1       1.653  18.765  13.828  1.00  0.00    -0.237 OA
ATOM     97  O   UNL     1       0.822  17.220  15.570  1.00  0.00    -0.237 OA
ATOM     98  O   UNL     1       3.063  18.224  15.780  1.00  0.00    -0.744 OA
ENDBRANCH  94  95
ENDBRANCH  62  87
ENDBRANCH  36  37
ENDBRANCH  28  31
ENDBRANCH  26  27
ENDBRANCH  25  26
ENDBRANCH  24  25
ENDBRANCH   1  24
TORSDOF 21
