REMARK SMILES CC1(C)CC2=NC(=O)[C@H](C(=O)NCCCCCCNC(=O)c3ccc(-c4c5nc(c(-c6c(F)cc(S(=O)(=O)[O-])cc6F)c6ccc([nH]6)c(-c6c(F)cc(S(=O)(=O)[O-])cc6F)c6nc(c(-c7c(F)cc(S(=O)(=O)[O-])cc7F)c7ccc4[nH]7)C=C6)C=C5)cc3)C=C2CS1
REMARK SMILES IDX 17 1 16 2 15 3 14 4 13 5 12 6 10 7 11 8 9 10 1 11 2 12 3 13
REMARK SMILES IDX 4 14 91 15 5 16 90 17 6 18 89 19 7 20 88 21 8 22 18 23 19 24
REMARK SMILES IDX 20 25 21 27 22 28 23 29 87 30 24 31 86 32 25 33 26 34 27 35
REMARK SMILES IDX 80 36 28 37 85 38 79 39 81 40 29 41 84 42 78 43 77 44 30 46
REMARK SMILES IDX 64 47 43 48 63 49 44 50 47 51 62 52 82 53 45 54 46 55 61 57
REMARK SMILES IDX 83 58 48 59 31 60 32 61 41 62 33 63 34 64 40 65 42 66 35 67
REMARK SMILES IDX 36 68 37 69 38 70 39 71 65 72 66 73 75 74 67 75 68 76 74 77
REMARK SMILES IDX 76 78 69 79 70 80 71 81 72 82 73 83 49 84 50 85 59 86 51 87
REMARK SMILES IDX 52 88 58 89 60 90 53 91 54 92 55 93 56 94 57 95
REMARK H PARENT 12 9 19 26 81 45 47 56
REMARK Flexibility Score: inf
ROOT
ATOM      1  C   UNL     1      -2.779   8.934  -1.921  1.00  0.00     0.021 C 
ENDROOT
BRANCH   1   2
ATOM      2  C   UNL     1      -3.177   8.435  -3.313  1.00  0.00     0.002 C 
BRANCH   2   3
ATOM      3  C   UNL     1      -2.050   8.442  -4.352  1.00  0.00     0.002 C 
BRANCH   3   4
ATOM      4  C   UNL     1      -0.773   7.701  -3.930  1.00  0.00     0.021 C 
BRANCH   4   5
ATOM      5  C   UNL     1      -1.006   6.236  -3.565  1.00  0.00     0.116 C 
BRANCH   5   6
ATOM      6  N   UNL     1      -1.292   5.449  -4.752  1.00  0.00    -0.355 N 
ATOM      7  C   UNL     1      -0.533   4.648  -5.535  1.00  0.00     0.236 C 
ATOM      8  O   UNL     1      -1.070   4.295  -6.599  1.00  0.00    -0.274 OA
ATOM      9  H   UNL     1      -2.230   5.511  -5.046  1.00  0.00     0.163 HD
BRANCH   7  10
ATOM     10  C   UNL     1       0.835   4.083  -5.186  1.00  0.00     0.193 C 
ATOM     11  C   UNL     1       0.900   0.018   0.107  1.00  0.00     0.023 C 
ATOM     12  C   UNL     1       0.485   0.619  -1.247  1.00  0.00     0.016 C 
ATOM     13  C   UNL     1      -1.050   0.631  -1.320  1.00  0.00     0.023 C 
ATOM     14  C   UNL     1       1.071   2.025  -1.384  1.00  0.00     0.074 C 
ATOM     15  S   UNL     1       1.215  -0.449  -2.541  1.00  0.00    -0.150 SA
ATOM     16  C   UNL     1       1.109   2.665  -2.772  1.00  0.00     0.049 C 
ATOM     17  C   UNL     1       0.573   0.392  -3.992  1.00  0.00     0.107 C 
ATOM     18  N   UNL     1       1.459   3.913  -2.785  1.00  0.00    -0.217 NA
ATOM     19  C   UNL     1       0.798   1.868  -3.989  1.00  0.00    -0.019 C 
ATOM     20  C   UNL     1       1.568   4.602  -3.975  1.00  0.00     0.262 C 
ATOM     21  C   UNL     1       0.691   2.584  -5.120  1.00  0.00     0.002 C 
ATOM     22  O   UNL     1       2.189   5.659  -4.045  1.00  0.00    -0.271 OA
ENDBRANCH   7  10
ENDBRANCH   5   6
ENDBRANCH   4   5
ENDBRANCH   3   4
ENDBRANCH   2   3
ENDBRANCH   1   2
BRANCH   1  23
ATOM     23  C   UNL     1      -2.267  10.371  -1.889  1.00  0.00     0.116 C 
BRANCH  23  24
ATOM     24  N   UNL     1      -3.291  11.314  -2.305  1.00  0.00    -0.352 N 
ATOM     25  C   UNL     1      -3.785  12.413  -1.650  1.00  0.00     0.251 C 
ATOM     26  H   UNL     1      -3.690  11.137  -3.187  1.00  0.00     0.163 HD
ATOM     27  O   UNL     1      -4.816  12.944  -2.054  1.00  0.00    -0.269 OA
BRANCH  25  28
ATOM     28  C   UNL     1      -3.088  12.952  -0.461  1.00  0.00     0.039 A 
ATOM     29  C   UNL     1      -3.852  13.419   0.611  1.00  0.00     0.014 A 
ATOM     30  C   UNL     1      -1.693  13.043  -0.417  1.00  0.00     0.014 A 
ATOM     31  C   UNL     1      -3.217  13.947   1.737  1.00  0.00     0.010 A 
ATOM     32  C   UNL     1      -1.060  13.498   0.737  1.00  0.00     0.010 A 
ATOM     33  C   UNL     1      -1.815  13.973   1.819  1.00  0.00    -0.014 A 
BRANCH  33  34
ATOM     34  C   UNL     1      -1.134  14.518   3.022  1.00  0.00     0.031 A 
ATOM     35  C   UNL     1      -0.279  15.754   2.915  1.00  0.00     0.074 A 
ATOM     36  C   UNL     1      -1.264  13.886   4.204  1.00  0.00     0.049 A 
ATOM     37  N   UNL     1       0.394  16.375   3.849  1.00  0.00    -0.248 NA
ATOM     38  C   UNL     1      -0.143  16.358   1.579  1.00  0.00     0.031 C 
ATOM     39  C   UNL     1      -2.022  12.651   4.422  1.00  0.00     0.029 A 
ATOM     40  N   UNL     1      -0.765  14.190   5.445  1.00  0.00    -0.354 N 
ATOM     41  C   UNL     1       1.035  17.434   3.216  1.00  0.00     0.074 A 
ATOM     42  C   UNL     1       0.722  17.335   1.808  1.00  0.00     0.031 C 
ATOM     43  C   UNL     1      -1.962  12.321   5.722  1.00  0.00     0.029 A 
ATOM     44  C   UNL     1      -1.135  13.298   6.424  1.00  0.00     0.049 A 
ATOM     45  H   UNL     1      -0.195  14.974   5.619  1.00  0.00     0.167 HD
ATOM     46  C   UNL     1       1.791  18.417   3.763  1.00  0.00     0.037 A 
ATOM     47  C   UNL     1      -0.841  13.269   7.739  1.00  0.00     0.037 A 
ATOM     48  C   UNL     1       2.082  18.519   5.169  1.00  0.00     0.049 A 
ATOM     49  C   UNL     1       0.003  14.370   8.323  1.00  0.00     0.074 A 
ATOM     50  C   UNL     1       2.794  19.503   5.831  1.00  0.00     0.029 A 
ATOM     51  N   UNL     1       1.679  17.602   6.130  1.00  0.00    -0.354 N 
ATOM     52  N   UNL     1       0.541  15.404   7.721  1.00  0.00    -0.248 NA
ATOM     53  C   UNL     1       0.271  14.307   9.766  1.00  0.00     0.031 C 
ATOM     54  C   UNL     1       2.863  19.157   7.185  1.00  0.00     0.029 A 
ATOM     55  C   UNL     1       2.147  17.986   7.377  1.00  0.00     0.049 A 
ATOM     56  H   UNL     1       1.141  16.797   5.953  1.00  0.00     0.167 HD
ATOM     57  C   UNL     1       1.190  16.128   8.715  1.00  0.00     0.074 A 
ATOM     58  C   UNL     1       0.963  15.422   9.959  1.00  0.00     0.031 C 
ATOM     59  C   UNL     1       1.908  17.274   8.608  1.00  0.00     0.037 A 
BRANCH  46  60
ATOM     60  C   UNL     1       2.349  19.465   2.837  1.00  0.00     0.058 A 
ATOM     61  C   UNL     1       1.521  20.407   2.205  1.00  0.00     0.135 A 
ATOM     62  C   UNL     1       3.732  19.554   2.605  1.00  0.00     0.135 A 
ATOM     63  F   UNL     1       0.190  20.362   2.379  1.00  0.00    -0.206 F 
ATOM     64  C   UNL     1       2.038  21.378   1.353  1.00  0.00     0.059 A 
ATOM     65  C   UNL     1       4.274  20.536   1.781  1.00  0.00     0.059 A 
ATOM     66  F   UNL     1       4.572  18.681   3.183  1.00  0.00    -0.206 F 
ATOM     67  C   UNL     1       3.417  21.434   1.147  1.00  0.00     0.060 A 
BRANCH  67  68
ATOM     68  S   UNL     1       4.070  22.704   0.043  1.00  0.00     0.124 S 
ATOM     69  O   UNL     1       3.643  22.204  -1.260  1.00  0.00    -0.237 OA
ATOM     70  O   UNL     1       3.390  23.907   0.513  1.00  0.00    -0.237 OA
ATOM     71  O   UNL     1       5.508  22.663   0.290  1.00  0.00    -0.744 OA
ENDBRANCH  67  68
ENDBRANCH  46  60
BRANCH  47  72
ATOM     72  C   UNL     1      -1.369  12.171   8.593  1.00  0.00     0.058 A 
ATOM     73  C   UNL     1      -2.357  12.416   9.558  1.00  0.00     0.135 A 
ATOM     74  C   UNL     1      -0.908  10.853   8.451  1.00  0.00     0.135 A 
ATOM     75  F   UNL     1      -2.827  13.661   9.736  1.00  0.00    -0.206 F 
ATOM     76  C   UNL     1      -2.858  11.399  10.365  1.00  0.00     0.059 A 
ATOM     77  C   UNL     1      -1.413   9.814   9.226  1.00  0.00     0.059 A 
ATOM     78  F   UNL     1       0.023  10.561   7.530  1.00  0.00    -0.206 F 
ATOM     79  C   UNL     1      -2.381  10.099  10.188  1.00  0.00     0.060 A 
BRANCH  79  80
ATOM     80  S   UNL     1      -3.072   8.777  11.207  1.00  0.00     0.124 S 
ATOM     81  O   UNL     1      -2.477   9.066  12.506  1.00  0.00    -0.237 OA
ATOM     82  O   UNL     1      -4.506   9.020  11.092  1.00  0.00    -0.237 OA
ATOM     83  O   UNL     1      -2.596   7.563  10.549  1.00  0.00    -0.744 OA
ENDBRANCH  79  80
ENDBRANCH  47  72
BRANCH  59  84
ATOM     84  C   UNL     1       2.478  17.855   9.873  1.00  0.00     0.058 A 
ATOM     85  C   UNL     1       3.558  17.257  10.539  1.00  0.00     0.135 A 
ATOM     86  C   UNL     1       1.968  19.056  10.395  1.00  0.00     0.135 A 
ATOM     87  F   UNL     1       4.079  16.106  10.086  1.00  0.00    -0.206 F 
ATOM     88  C   UNL     1       4.098  17.816  11.693  1.00  0.00     0.059 A 
ATOM     89  C   UNL     1       2.513  19.648  11.530  1.00  0.00     0.059 A 
ATOM     90  F   UNL     1       0.942  19.675   9.790  1.00  0.00    -0.206 F 
ATOM     91  C   UNL     1       3.570  19.014  12.179  1.00  0.00     0.060 A 
BRANCH  91  92
ATOM     92  S   UNL     1       4.303  19.744  13.659  1.00  0.00     0.124 S 
ATOM     93  O   UNL     1       3.815  18.848  14.702  1.00  0.00    -0.237 OA
ATOM     94  O   UNL     1       5.732  19.665  13.371  1.00  0.00    -0.237 OA
ATOM     95  O   UNL     1       3.749  21.095  13.681  1.00  0.00    -0.744 OA
ENDBRANCH  91  92
ENDBRANCH  59  84
ENDBRANCH  33  34
ENDBRANCH  25  28
ENDBRANCH  23  24
ENDBRANCH   1  23
TORSDOF 16
