REMARK SMILES Cc1nc2ncnn2c(O)c1CCC(=O)NCCCCCCNC(=O)c1ccc(-c2c3nc(c(-c4c(F)cc(S(=O)(=O)[O-])cc4F)c4ccc([nH]4)c(-c4c(F)cc(S(=O)(=O)[O-])cc4F)c4nc(c(-c5c(F)cc(S(=O)(=O)[O-])cc5F)c5ccc2[nH]5)C=C4)C=C3)cc1
REMARK SMILES IDX 19 1 18 2 17 3 16 4 14 5 15 6 13 8 12 9 11 10 1 11 2 12 3 13
REMARK SMILES IDX 4 14 9 15 5 16 8 17 6 18 7 19 10 20 20 22 21 23 22 24 23 25
REMARK SMILES IDX 24 26 25 28 26 29 27 30 91 31 28 32 90 33 29 34 30 35 31 36
REMARK SMILES IDX 84 37 32 38 89 39 83 40 85 41 33 42 88 43 82 44 81 45 34 47
REMARK SMILES IDX 68 48 47 49 67 50 48 51 51 52 66 53 86 54 49 55 50 56 65 58
REMARK SMILES IDX 87 59 52 60 35 61 36 62 45 63 37 64 38 65 44 66 46 67 39 68
REMARK SMILES IDX 40 69 41 70 42 71 43 72 69 73 70 74 79 75 71 76 72 77 78 78
REMARK SMILES IDX 80 79 73 80 74 81 75 82 76 83 77 84 53 85 54 86 63 87 55 88
REMARK SMILES IDX 56 89 62 90 64 91 57 92 58 93 59 94 60 95 61 96
REMARK H PARENT 16 7 10 21 23 27 85 46 51 57
REMARK Flexibility Score: inf
ROOT
ATOM      1  C   UNL     1      -1.701  -1.711   6.251  1.00  0.00     0.002 C 
ENDROOT
BRANCH   1   2
ATOM      2  C   UNL     1      -1.624  -0.370   5.497  1.00  0.00     0.021 C 
BRANCH   2   3
ATOM      3  C   UNL     1      -2.332  -0.116   4.155  1.00  0.00     0.116 C 
BRANCH   3   4
ATOM      4  N   UNL     1      -2.512   1.341   4.011  1.00  0.00    -0.356 N 
ATOM      5  C   UNL     1      -2.118   2.257   3.093  1.00  0.00     0.220 C 
ATOM      6  O   UNL     1      -2.110   3.443   3.437  1.00  0.00    -0.275 OA
ATOM      7  H   UNL     1      -3.034   1.736   4.746  1.00  0.00     0.163 HD
BRANCH   5   8
ATOM      8  C   UNL     1      -1.745   1.885   1.675  1.00  0.00     0.105 C 
BRANCH   8   9
ATOM      9  C   UNL     1      -0.261   2.132   1.358  1.00  0.00     0.053 C 
BRANCH   9  10
ATOM     10  C   UNL     1       0.529   0.883   1.605  1.00  0.00     0.036 A 
ATOM     11  C   UNL     1       0.755   0.249  -0.937  1.00  0.00     0.067 C 
ATOM     12  C   UNL     1       0.723  -0.158   0.517  1.00  0.00     0.050 A 
ATOM     13  N   UNL     1       0.985  -1.411   0.724  1.00  0.00    -0.216 NA
ATOM     14  C   UNL     1       1.198  -1.776   2.008  1.00  0.00     0.255 A 
ATOM     15  C   UNL     1       0.962   0.510   2.829  1.00  0.00     0.220 A 
ATOM     16  N   UNL     1       1.305  -2.985   2.501  1.00  0.00    -0.197 NA
ATOM     17  N   UNL     1       1.307  -0.832   3.035  1.00  0.00    -0.163 N 
ATOM     18  C   UNL     1       1.538  -2.739   3.805  1.00  0.00     0.249 A 
ATOM     19  N   UNL     1       1.559  -1.474   4.199  1.00  0.00    -0.150 NA
BRANCH  15  20
ATOM     20  O   UNL     1       0.894   1.327   3.948  1.00  0.00    -0.493 OA
ATOM     21  H   UNL     1       1.209   1.017   4.774  1.00  0.00     0.295 HD
ENDBRANCH  15  20
ENDBRANCH   9  10
ENDBRANCH   8   9
ENDBRANCH   5   8
ENDBRANCH   3   4
ENDBRANCH   2   3
ENDBRANCH   1   2
BRANCH   1  22
ATOM     22  C   UNL     1      -2.770  -2.753   5.914  1.00  0.00     0.002 C 
BRANCH  22  23
ATOM     23  C   UNL     1      -2.378  -3.841   4.902  1.00  0.00     0.021 C 
BRANCH  23  24
ATOM     24  C   UNL     1      -1.184  -4.726   5.286  1.00  0.00     0.116 C 
BRANCH  24  25
ATOM     25  N   UNL     1      -1.352  -5.537   6.494  1.00  0.00    -0.352 N 
ATOM     26  C   UNL     1      -0.469  -6.450   7.073  1.00  0.00     0.251 C 
ATOM     27  H   UNL     1      -2.209  -5.423   6.964  1.00  0.00     0.163 HD
ATOM     28  O   UNL     1      -0.886  -7.278   7.869  1.00  0.00    -0.269 OA
BRANCH  26  29
ATOM     29  C   UNL     1       0.979  -6.409   6.741  1.00  0.00     0.039 A 
ATOM     30  C   UNL     1       1.792  -7.552   6.686  1.00  0.00     0.014 A 
ATOM     31  C   UNL     1       1.553  -5.171   6.521  1.00  0.00     0.014 A 
ATOM     32  C   UNL     1       3.140  -7.435   6.292  1.00  0.00     0.010 A 
ATOM     33  C   UNL     1       2.820  -5.080   6.000  1.00  0.00     0.010 A 
ATOM     34  C   UNL     1       3.644  -6.183   5.914  1.00  0.00    -0.014 A 
BRANCH  34  35
ATOM     35  C   UNL     1       4.950  -5.948   5.290  1.00  0.00     0.031 A 
ATOM     36  C   UNL     1       5.224  -6.795   4.103  1.00  0.00     0.074 A 
ATOM     37  C   UNL     1       5.739  -4.869   5.529  1.00  0.00     0.049 A 
ATOM     38  N   UNL     1       6.027  -7.802   4.047  1.00  0.00    -0.248 NA
ATOM     39  C   UNL     1       4.425  -6.605   2.883  1.00  0.00     0.031 C 
ATOM     40  C   UNL     1       5.486  -3.710   6.400  1.00  0.00     0.029 A 
ATOM     41  N   UNL     1       6.925  -4.532   4.946  1.00  0.00    -0.354 N 
ATOM     42  C   UNL     1       6.021  -8.231   2.725  1.00  0.00     0.074 A 
ATOM     43  C   UNL     1       4.879  -7.600   2.114  1.00  0.00     0.031 C 
ATOM     44  C   UNL     1       6.370  -2.724   6.129  1.00  0.00     0.029 A 
ATOM     45  C   UNL     1       7.367  -3.236   5.209  1.00  0.00     0.049 A 
ATOM     46  H   UNL     1       7.433  -5.158   4.380  1.00  0.00     0.167 HD
ATOM     47  C   UNL     1       7.092  -8.892   2.203  1.00  0.00     0.037 A 
ATOM     48  C   UNL     1       8.483  -2.628   4.727  1.00  0.00     0.037 A 
ATOM     49  C   UNL     1       8.025  -9.257   3.247  1.00  0.00     0.049 A 
ATOM     50  C   UNL     1       9.413  -3.719   4.331  1.00  0.00     0.074 A 
ATOM     51  C   UNL     1       7.933 -10.011   4.402  1.00  0.00     0.029 A 
ATOM     52  N   UNL     1       9.147  -8.474   3.400  1.00  0.00    -0.354 N 
ATOM     53  N   UNL     1       9.956  -4.551   5.180  1.00  0.00    -0.248 NA
ATOM     54  C   UNL     1       9.359  -4.183   2.954  1.00  0.00     0.031 C 
ATOM     55  C   UNL     1       8.691  -9.290   5.371  1.00  0.00     0.029 A 
ATOM     56  C   UNL     1       9.270  -8.189   4.737  1.00  0.00     0.049 A 
ATOM     57  H   UNL     1       9.750  -8.173   2.682  1.00  0.00     0.167 HD
ATOM     58  C   UNL     1       9.899  -5.787   4.549  1.00  0.00     0.074 A 
ATOM     59  C   UNL     1       9.608  -5.482   3.148  1.00  0.00     0.031 C 
ATOM     60  C   UNL     1       9.808  -6.949   5.262  1.00  0.00     0.037 A 
BRANCH  47  61
ATOM     61  C   UNL     1       7.492  -8.917   0.748  1.00  0.00     0.058 A 
ATOM     62  C   UNL     1       8.523  -9.791   0.340  1.00  0.00     0.135 A 
ATOM     63  C   UNL     1       7.106  -7.947  -0.201  1.00  0.00     0.135 A 
ATOM     64  F   UNL     1       8.966 -10.758   1.159  1.00  0.00    -0.206 F 
ATOM     65  C   UNL     1       9.181  -9.653  -0.881  1.00  0.00     0.059 A 
ATOM     66  C   UNL     1       7.712  -7.828  -1.448  1.00  0.00     0.059 A 
ATOM     67  F   UNL     1       6.195  -7.005   0.069  1.00  0.00    -0.206 F 
ATOM     68  C   UNL     1       8.779  -8.654  -1.760  1.00  0.00     0.060 A 
BRANCH  68  69
ATOM     69  S   UNL     1       9.709  -8.398  -3.281  1.00  0.00     0.124 S 
ATOM     70  O   UNL     1      10.986  -7.920  -2.763  1.00  0.00    -0.237 OA
ATOM     71  O   UNL     1       9.714  -9.736  -3.861  1.00  0.00    -0.237 OA
ATOM     72  O   UNL     1       8.910  -7.411  -4.001  1.00  0.00    -0.744 OA
ENDBRANCH  68  69
ENDBRANCH  47  61
BRANCH  48  73
ATOM     73  C   UNL     1       8.697  -1.199   4.362  1.00  0.00     0.058 A 
ATOM     74  C   UNL     1       9.979  -0.683   4.087  1.00  0.00     0.135 A 
ATOM     75  C   UNL     1       7.615  -0.370   4.001  1.00  0.00     0.135 A 
ATOM     76  F   UNL     1      11.072  -1.405   4.374  1.00  0.00    -0.206 F 
ATOM     77  C   UNL     1      10.173   0.553   3.452  1.00  0.00     0.059 A 
ATOM     78  C   UNL     1       7.783   0.867   3.375  1.00  0.00     0.059 A 
ATOM     79  F   UNL     1       6.349  -0.781   4.164  1.00  0.00    -0.206 F 
ATOM     80  C   UNL     1       9.065   1.313   3.079  1.00  0.00     0.060 A 
BRANCH  80  81
ATOM     81  S   UNL     1       9.296   2.826   2.110  1.00  0.00     0.124 S 
ATOM     82  O   UNL     1       9.971   3.700   3.062  1.00  0.00    -0.237 OA
ATOM     83  O   UNL     1      10.106   2.355   0.991  1.00  0.00    -0.237 OA
ATOM     84  O   UNL     1       7.932   3.219   1.762  1.00  0.00    -0.744 OA
ENDBRANCH  80  81
ENDBRANCH  48  73
BRANCH  60  85
ATOM     85  C   UNL     1      10.058  -6.911   6.752  1.00  0.00     0.058 A 
ATOM     86  C   UNL     1       9.250  -6.230   7.680  1.00  0.00     0.135 A 
ATOM     87  C   UNL     1      11.045  -7.761   7.274  1.00  0.00     0.135 A 
ATOM     88  F   UNL     1       8.225  -5.469   7.277  1.00  0.00    -0.206 F 
ATOM     89  C   UNL     1       9.426  -6.372   9.059  1.00  0.00     0.059 A 
ATOM     90  C   UNL     1      11.220  -7.942   8.644  1.00  0.00     0.059 A 
ATOM     91  F   UNL     1      11.816  -8.484   6.444  1.00  0.00    -0.206 F 
ATOM     92  C   UNL     1      10.410  -7.239   9.532  1.00  0.00     0.060 A 
BRANCH  92  93
ATOM     93  S   UNL     1      10.571  -7.498  11.313  1.00  0.00     0.124 S 
ATOM     94  O   UNL     1      11.108  -6.218  11.763  1.00  0.00    -0.237 OA
ATOM     95  O   UNL     1       9.198  -7.787  11.717  1.00  0.00    -0.237 OA
ATOM     96  O   UNL     1      11.491  -8.629  11.412  1.00  0.00    -0.744 OA
ENDBRANCH  92  93
ENDBRANCH  60  85
ENDBRANCH  34  35
ENDBRANCH  26  29
ENDBRANCH  24  25
ENDBRANCH  23  24
ENDBRANCH  22  23
ENDBRANCH   1  22
TORSDOF 19
