REMARK SMILES Cc1ncccc1NC(=O)Nc1ccc(C(=O)NCCCCCCNC(=O)c2ccc(-c3c4nc(c(-c5c(F)cc(S(=O)(=O)[O-])cc5F)c5ccc([nH]5)c(-c5c(F)cc(S(=O)(=O)[O-])cc5F)c5nc(c(-c6c(F)cc(S(=O)(=O)[O-])cc6F)c6ccc3[nH]6)C=C5)C=C4)cc2)c(O)c1
REMARK SMILES IDX 22 1 21 2 20 3 19 4 18 5 16 6 17 7 15 9 12 10 13 11 96 12
REMARK SMILES IDX 14 13 94 14 11 15 8 16 9 17 10 19 7 21 1 22 2 23 3 24 4 25
REMARK SMILES IDX 6 26 5 27 95 28 23 30 24 31 25 32 26 33 27 35 28 36 29 37
REMARK SMILES IDX 93 38 30 39 92 40 31 41 32 42 33 43 86 44 34 45 91 46 85 47
REMARK SMILES IDX 87 48 35 49 90 50 84 51 83 52 36 54 70 55 49 56 69 57 50 58
REMARK SMILES IDX 53 59 68 60 88 61 51 62 52 63 67 65 89 66 54 67 37 68 38 69
REMARK SMILES IDX 47 70 39 71 40 72 46 73 48 74 41 75 42 76 43 77 44 78 45 79
REMARK SMILES IDX 71 80 72 81 81 82 73 83 74 84 80 85 82 86 75 87 76 88 77 89
REMARK SMILES IDX 78 90 79 91 55 92 56 93 65 94 57 95 58 96 64 97 66 98 59 99
REMARK SMILES IDX 60 100 61 101 62 102 63 103
REMARK H PARENT 18 8 8 18 11 20 95 29 25 34 87 53 53 64
REMARK Flexibility Score: inf
ROOT
ATOM      1  C   UNL     1      -7.866   2.275   2.806  1.00  0.00     0.002 C 
ENDROOT
BRANCH   1   2
ATOM      2  C   UNL     1      -6.447   2.750   3.131  1.00  0.00     0.002 C 
BRANCH   2   3
ATOM      3  C   UNL     1      -5.342   1.687   3.166  1.00  0.00     0.021 C 
BRANCH   3   4
ATOM      4  C   UNL     1      -5.283   0.706   1.994  1.00  0.00     0.116 C 
BRANCH   4   5
ATOM      5  N   UNL     1      -5.162   1.325   0.683  1.00  0.00    -0.352 N 
ATOM      6  C   UNL     1      -4.675   0.834  -0.508  1.00  0.00     0.255 C 
ATOM      7  O   UNL     1      -4.720   1.562  -1.500  1.00  0.00    -0.269 OA
ATOM      8  H   UNL     1      -5.484   2.254   0.640  1.00  0.00     0.163 HD
BRANCH   6   9
ATOM      9  C   UNL     1      -4.005  -0.491  -0.617  1.00  0.00     0.081 A 
ATOM     10  C   UNL     1      -2.251  -2.666  -0.448  1.00  0.00     0.046 A 
ATOM     11  C   UNL     1      -1.974  -1.626  -1.332  1.00  0.00     0.027 A 
ATOM     12  C   UNL     1      -3.517  -2.741   0.139  1.00  0.00     0.073 A 
ATOM     13  C   UNL     1      -2.840  -0.530  -1.399  1.00  0.00     0.020 A 
ATOM     14  C   UNL     1      -4.395  -1.660   0.038  1.00  0.00     0.130 A 
BRANCH  10  15
ATOM     15  N   UNL     1      -1.290  -3.604  -0.042  1.00  0.00    -0.308 N 
ATOM     16  N   UNL     1       0.788  -2.412   0.102  1.00  0.00    -0.306 N 
ATOM     17  C   UNL     1       0.061  -3.553   0.019  1.00  0.00     0.323 C 
ATOM     18  H   UNL     1       1.728  -2.538  -0.164  1.00  0.00     0.171 HD
ATOM     19  O   UNL     1       0.684  -4.621   0.009  1.00  0.00    -0.248 OA
ATOM     20  H   UNL     1      -1.671  -4.462   0.255  1.00  0.00     0.171 HD
BRANCH  16  21
ATOM     21  C   UNL     1       0.500  -1.082   0.484  1.00  0.00     0.064 A 
ATOM     22  C   UNL     1       2.726  -0.194  -0.436  1.00  0.00     0.069 C 
ATOM     23  C   UNL     1       1.333  -0.019   0.094  1.00  0.00     0.061 A 
ATOM     24  N   UNL     1       0.964   1.287   0.220  1.00  0.00    -0.259 NA
ATOM     25  C   UNL     1      -0.217   1.555   0.810  1.00  0.00     0.111 A 
ATOM     26  C   UNL     1      -0.623  -0.746   1.242  1.00  0.00     0.030 A 
ATOM     27  C   UNL     1      -1.012   0.585   1.379  1.00  0.00     0.022 A 
ENDBRANCH  16  21
ENDBRANCH  10  15
BRANCH  14  28
ATOM     28  O   UNL     1      -5.616  -1.833   0.625  1.00  0.00    -0.507 OA
ATOM     29  H   UNL     1      -6.252  -1.146   0.594  1.00  0.00     0.293 HD
ENDBRANCH  14  28
ENDBRANCH   6   9
ENDBRANCH   4   5
ENDBRANCH   3   4
ENDBRANCH   2   3
ENDBRANCH   1   2
BRANCH   1  30
ATOM     30  C   UNL     1      -8.433   1.148   3.670  1.00  0.00     0.021 C 
BRANCH  30  31
ATOM     31  C   UNL     1      -8.408   1.375   5.178  1.00  0.00     0.116 C 
BRANCH  31  32
ATOM     32  N   UNL     1      -9.159   2.546   5.588  1.00  0.00    -0.352 N 
ATOM     33  C   UNL     1     -10.119   2.689   6.561  1.00  0.00     0.251 C 
ATOM     34  H   UNL     1      -8.948   3.369   5.090  1.00  0.00     0.163 HD
ATOM     35  O   UNL     1     -10.727   3.752   6.645  1.00  0.00    -0.269 OA
BRANCH  33  36
ATOM     36  C   UNL     1     -10.442   1.579   7.492  1.00  0.00     0.039 A 
ATOM     37  C   UNL     1     -11.777   1.393   7.866  1.00  0.00     0.014 A 
ATOM     38  C   UNL     1      -9.453   0.759   8.042  1.00  0.00     0.014 A 
ATOM     39  C   UNL     1     -12.120   0.373   8.758  1.00  0.00     0.010 A 
ATOM     40  C   UNL     1      -9.805  -0.310   8.867  1.00  0.00     0.010 A 
ATOM     41  C   UNL     1     -11.139  -0.501   9.255  1.00  0.00    -0.014 A 
BRANCH  41  42
ATOM     42  C   UNL     1     -11.502  -1.591  10.201  1.00  0.00     0.031 A 
ATOM     43  C   UNL     1     -10.962  -1.593  11.607  1.00  0.00     0.074 A 
ATOM     44  C   UNL     1     -12.299  -2.596   9.788  1.00  0.00     0.049 A 
ATOM     45  N   UNL     1     -11.182  -2.445  12.577  1.00  0.00    -0.248 NA
ATOM     46  C   UNL     1     -10.028  -0.514  11.963  1.00  0.00     0.031 C 
ATOM     47  C   UNL     1     -12.836  -2.746   8.434  1.00  0.00     0.029 A 
ATOM     48  N   UNL     1     -12.796  -3.683  10.463  1.00  0.00    -0.354 N 
ATOM     49  C   UNL     1     -10.407  -2.013  13.648  1.00  0.00     0.074 A 
ATOM     50  C   UNL     1      -9.664  -0.860  13.189  1.00  0.00     0.031 C 
ATOM     51  C   UNL     1     -13.610  -3.842   8.386  1.00  0.00     0.029 A 
ATOM     52  C   UNL     1     -13.603  -4.489   9.695  1.00  0.00     0.049 A 
ATOM     53  H   UNL     1     -12.594  -3.868  11.409  1.00  0.00     0.167 HD
ATOM     54  C   UNL     1     -10.338  -2.514  14.906  1.00  0.00     0.037 A 
ATOM     55  C   UNL     1     -14.267  -5.618  10.009  1.00  0.00     0.037 A 
ATOM     56  C   UNL     1     -11.095  -3.651  15.363  1.00  0.00     0.049 A 
ATOM     57  C   UNL     1     -14.208  -6.136  11.419  1.00  0.00     0.074 A 
ATOM     58  C   UNL     1     -11.148  -4.198  16.633  1.00  0.00     0.029 A 
ATOM     59  N   UNL     1     -11.928  -4.422  14.564  1.00  0.00    -0.354 N 
ATOM     60  N   UNL     1     -13.532  -5.669  12.442  1.00  0.00    -0.248 NA
ATOM     61  C   UNL     1     -15.020  -7.321  11.724  1.00  0.00     0.031 C 
ATOM     62  C   UNL     1     -11.972  -5.329  16.590  1.00  0.00     0.029 A 
ATOM     63  C   UNL     1     -12.483  -5.451  15.308  1.00  0.00     0.049 A 
ATOM     64  H   UNL     1     -12.101  -4.260  13.608  1.00  0.00     0.167 HD
ATOM     65  C   UNL     1     -13.857  -6.487  13.519  1.00  0.00     0.074 A 
ATOM     66  C   UNL     1     -14.803  -7.467  13.024  1.00  0.00     0.031 C 
ATOM     67  C   UNL     1     -13.417  -6.428  14.802  1.00  0.00     0.037 A 
BRANCH  54  68
ATOM     68  C   UNL     1      -9.400  -1.835  15.872  1.00  0.00     0.058 A 
ATOM     69  C   UNL     1      -9.633  -0.531  16.342  1.00  0.00     0.135 A 
ATOM     70  C   UNL     1      -8.255  -2.500  16.340  1.00  0.00     0.135 A 
ATOM     71  F   UNL     1     -10.705   0.159  15.921  1.00  0.00    -0.206 F 
ATOM     72  C   UNL     1      -8.739   0.107  17.197  1.00  0.00     0.059 A 
ATOM     73  C   UNL     1      -7.365  -1.893  17.223  1.00  0.00     0.059 A 
ATOM     74  F   UNL     1      -7.982  -3.749  15.931  1.00  0.00    -0.206 F 
ATOM     75  C   UNL     1      -7.604  -0.581  17.628  1.00  0.00     0.060 A 
BRANCH  75  76
ATOM     76  S   UNL     1      -6.441   0.268  18.717  1.00  0.00     0.124 S 
ATOM     77  O   UNL     1      -5.805   1.200  17.790  1.00  0.00    -0.237 OA
ATOM     78  O   UNL     1      -7.324   0.868  19.711  1.00  0.00    -0.237 OA
ATOM     79  O   UNL     1      -5.587  -0.809  19.208  1.00  0.00    -0.744 OA
ENDBRANCH  75  76
ENDBRANCH  54  68
BRANCH  55  80
ATOM     80  C   UNL     1     -15.080  -6.303   8.968  1.00  0.00     0.058 A 
ATOM     81  C   UNL     1     -16.482  -6.273   9.005  1.00  0.00     0.135 A 
ATOM     82  C   UNL     1     -14.469  -6.964   7.891  1.00  0.00     0.135 A 
ATOM     83  F   UNL     1     -17.113  -5.660  10.018  1.00  0.00    -0.206 F 
ATOM     84  C   UNL     1     -17.250  -6.877   8.014  1.00  0.00     0.059 A 
ATOM     85  C   UNL     1     -15.215  -7.552   6.875  1.00  0.00     0.059 A 
ATOM     86  F   UNL     1     -13.130  -7.006   7.800  1.00  0.00    -0.206 F 
ATOM     87  C   UNL     1     -16.607  -7.507   6.948  1.00  0.00     0.060 A 
BRANCH  87  88
ATOM     88  S   UNL     1     -17.613  -8.216   5.626  1.00  0.00     0.124 S 
ATOM     89  O   UNL     1     -18.175  -9.391   6.280  1.00  0.00    -0.237 OA
ATOM     90  O   UNL     1     -18.549  -7.133   5.341  1.00  0.00    -0.237 OA
ATOM     91  O   UNL     1     -16.640  -8.484   4.571  1.00  0.00    -0.744 OA
ENDBRANCH  87  88
ENDBRANCH  55  80
BRANCH  67  92
ATOM     92  C   UNL     1     -13.985  -7.432  15.770  1.00  0.00     0.058 A 
ATOM     93  C   UNL     1     -13.667  -8.798  15.699  1.00  0.00     0.135 A 
ATOM     94  C   UNL     1     -14.856  -7.017  16.791  1.00  0.00     0.135 A 
ATOM     95  F   UNL     1     -12.840  -9.250  14.743  1.00  0.00    -0.206 F 
ATOM     96  C   UNL     1     -14.230  -9.722  16.573  1.00  0.00     0.059 A 
ATOM     97  C   UNL     1     -15.405  -7.919  17.697  1.00  0.00     0.059 A 
ATOM     98  F   UNL     1     -15.182  -5.721  16.917  1.00  0.00    -0.206 F 
ATOM     99  C   UNL     1     -15.105  -9.273  17.565  1.00  0.00     0.060 A 
BRANCH  99 100
ATOM    100  S   UNL     1     -15.843 -10.483  18.683  1.00  0.00     0.124 S 
ATOM    101  O   UNL     1     -16.838 -11.110  17.820  1.00  0.00    -0.237 OA
ATOM    102  O   UNL     1     -14.700 -11.316  19.044  1.00  0.00    -0.237 OA
ATOM    103  O   UNL     1     -16.378  -9.662  19.765  1.00  0.00    -0.744 OA
ENDBRANCH  99 100
ENDBRANCH  67  92
ENDBRANCH  41  42
ENDBRANCH  33  36
ENDBRANCH  31  32
ENDBRANCH  30  31
ENDBRANCH   1  30
TORSDOF 19
