REMARK SMILES CC(C)COc1cccc(N2C[C@@H](C(=O)NCCCCCCNC(=O)c3ccc(-c4c5nc(c(-c6c(F)cc(S(=O)(=O)[O-])cc6F)c6ccc([nH]6)c(-c6c(F)cc(S(=O)(=O)[O-])cc6F)c6nc(c(-c7c(F)cc(S(=O)(=O)[O-])cc7F)c7ccc4[nH]7)C=C6)C=C5)cc3)CC2=O)c1
REMARK SMILES IDX 19 1 18 2 17 3 16 4 14 5 15 6 13 8 11 9 12 10 93 11 92 12
REMARK SMILES IDX 94 13 10 14 6 15 7 16 95 17 8 18 9 19 5 20 4 21 2 22 1 23
REMARK SMILES IDX 3 24 20 25 21 26 22 27 23 28 24 29 25 31 26 32 27 33 91 34
REMARK SMILES IDX 28 35 90 36 29 37 30 38 31 39 84 40 32 41 89 42 83 43 85 44
REMARK SMILES IDX 33 45 88 46 82 47 81 48 34 50 68 51 47 52 67 53 48 54 51 55
REMARK SMILES IDX 66 56 86 57 49 58 50 59 65 61 87 62 52 63 35 64 36 65 45 66
REMARK SMILES IDX 37 67 38 68 44 69 46 70 39 71 40 72 41 73 42 74 43 75 69 76
REMARK SMILES IDX 70 77 79 78 71 79 72 80 78 81 80 82 73 83 74 84 75 85 76 86
REMARK SMILES IDX 77 87 53 88 54 89 63 90 55 91 56 92 62 93 64 94 57 95 58 96
REMARK SMILES IDX 59 97 60 98 61 99
REMARK H PARENT 16 7 23 30 85 49 51 60
REMARK Flexibility Score: inf
ROOT
ATOM      1  C   UNL     1       6.233  -0.860  -3.380  1.00  0.00     0.002 C 
ENDROOT
BRANCH   1   2
ATOM      2  C   UNL     1       5.396  -0.993  -2.100  1.00  0.00     0.021 C 
BRANCH   2   3
ATOM      3  C   UNL     1       4.169  -1.900  -2.227  1.00  0.00     0.116 C 
BRANCH   3   4
ATOM      4  N   UNL     1       4.550  -3.281  -2.469  1.00  0.00    -0.356 N 
ATOM      5  C   UNL     1       4.394  -4.413  -1.738  1.00  0.00     0.225 C 
ATOM      6  O   UNL     1       4.840  -5.460  -2.217  1.00  0.00    -0.275 OA
ATOM      7  H   UNL     1       5.009  -3.423  -3.328  1.00  0.00     0.163 HD
BRANCH   5   8
ATOM      8  C   UNL     1       3.680  -4.452  -0.403  1.00  0.00     0.107 C 
ATOM      9  N   UNL     1       1.872  -3.393   0.670  1.00  0.00    -0.311 N 
ATOM     10  C   UNL     1       2.200  -4.146  -0.518  1.00  0.00     0.139 C 
ATOM     11  C   UNL     1       3.012  -2.972   1.354  1.00  0.00     0.227 C 
ATOM     12  C   UNL     1       4.230  -3.523   0.663  1.00  0.00     0.116 C 
ATOM     13  O   UNL     1       3.087  -2.278   2.360  1.00  0.00    -0.274 OA
BRANCH   9  14
ATOM     14  C   UNL     1       0.549  -2.945   0.917  1.00  0.00     0.047 A 
ATOM     15  C   UNL     1      -0.944  -1.121   1.458  1.00  0.00     0.121 A 
ATOM     16  C   UNL     1      -2.051  -1.871   1.083  1.00  0.00     0.046 A 
ATOM     17  C   UNL     1       0.329  -1.689   1.484  1.00  0.00     0.072 A 
ATOM     18  C   UNL     1      -1.861  -3.172   0.623  1.00  0.00     0.006 A 
ATOM     19  C   UNL     1      -0.564  -3.687   0.496  1.00  0.00     0.026 A 
BRANCH  15  20
ATOM     20  O   UNL     1      -1.084   0.198   1.790  1.00  0.00    -0.493 OA
BRANCH  20  21
ATOM     21  C   UNL     1      -0.911   1.065   0.642  1.00  0.00     0.232 C 
BRANCH  21  22
ATOM     22  C   UNL     1       0.575   1.395   0.369  1.00  0.00     0.020 C 
ATOM     23  C   UNL     1       1.187   0.507  -0.727  1.00  0.00     0.011 C 
ATOM     24  C   UNL     1       0.755   2.856  -0.048  1.00  0.00     0.011 C 
ENDBRANCH  21  22
ENDBRANCH  20  21
ENDBRANCH  15  20
ENDBRANCH   9  14
ENDBRANCH   5   8
ENDBRANCH   3   4
ENDBRANCH   2   3
ENDBRANCH   1   2
BRANCH   1  25
ATOM     25  C   UNL     1       5.479  -0.347  -4.611  1.00  0.00     0.002 C 
BRANCH  25  26
ATOM     26  C   UNL     1       4.750   0.986  -4.423  1.00  0.00     0.021 C 
BRANCH  26  27
ATOM     27  C   UNL     1       5.639   2.154  -4.003  1.00  0.00     0.116 C 
BRANCH  27  28
ATOM     28  N   UNL     1       6.653   2.460  -4.998  1.00  0.00    -0.352 N 
ATOM     29  C   UNL     1       6.939   3.648  -5.623  1.00  0.00     0.251 C 
ATOM     30  H   UNL     1       7.219   1.701  -5.265  1.00  0.00     0.163 HD
ATOM     31  O   UNL     1       7.707   3.657  -6.583  1.00  0.00    -0.269 OA
BRANCH  29  32
ATOM     32  C   UNL     1       6.315   4.910  -5.163  1.00  0.00     0.039 A 
ATOM     33  C   UNL     1       5.862   5.821  -6.120  1.00  0.00     0.014 A 
ATOM     34  C   UNL     1       6.194   5.210  -3.803  1.00  0.00     0.014 A 
ATOM     35  C   UNL     1       5.234   7.000  -5.713  1.00  0.00     0.010 A 
ATOM     36  C   UNL     1       5.499   6.350  -3.399  1.00  0.00     0.010 A 
ATOM     37  C   UNL     1       5.012   7.258  -4.349  1.00  0.00    -0.014 A 
BRANCH  37  38
ATOM     38  C   UNL     1       4.242   8.456  -3.922  1.00  0.00     0.031 A 
ATOM     39  C   UNL     1       4.885   9.533  -3.090  1.00  0.00     0.074 A 
ATOM     40  C   UNL     1       2.939   8.552  -4.256  1.00  0.00     0.049 A 
ATOM     41  N   UNL     1       4.366  10.646  -2.640  1.00  0.00    -0.248 NA
ATOM     42  C   UNL     1       6.286   9.323  -2.694  1.00  0.00     0.031 C 
ATOM     43  C   UNL     1       2.185   7.544  -5.006  1.00  0.00     0.029 A 
ATOM     44  N   UNL     1       2.017   9.538  -4.011  1.00  0.00    -0.354 N 
ATOM     45  C   UNL     1       5.370  11.266  -1.905  1.00  0.00     0.074 A 
ATOM     46  C   UNL     1       6.512  10.378  -1.923  1.00  0.00     0.031 C 
ATOM     47  C   UNL     1       0.929   7.979  -5.188  1.00  0.00     0.029 A 
ATOM     48  C   UNL     1       0.773   9.275  -4.536  1.00  0.00     0.049 A 
ATOM     49  H   UNL     1       2.226  10.358  -3.507  1.00  0.00     0.167 HD
ATOM     50  C   UNL     1       5.349  12.474  -1.290  1.00  0.00     0.037 A 
ATOM     51  C   UNL     1      -0.367   9.992  -4.496  1.00  0.00     0.037 A 
ATOM     52  C   UNL     1       4.209  13.357  -1.287  1.00  0.00     0.049 A 
ATOM     53  C   UNL     1      -0.366  11.329  -3.808  1.00  0.00     0.074 A 
ATOM     54  C   UNL     1       4.109  14.629  -0.750  1.00  0.00     0.029 A 
ATOM     55  N   UNL     1       2.969  13.058  -1.833  1.00  0.00    -0.354 N 
ATOM     56  N   UNL     1       0.619  11.938  -3.193  1.00  0.00    -0.248 NA
ATOM     57  C   UNL     1      -1.627  12.081  -3.817  1.00  0.00     0.031 C 
ATOM     58  C   UNL     1       2.793  15.074  -0.918  1.00  0.00     0.029 A 
ATOM     59  C   UNL     1       2.089  14.107  -1.616  1.00  0.00     0.049 A 
ATOM     60  H   UNL     1       2.747  12.223  -2.305  1.00  0.00     0.167 HD
ATOM     61  C   UNL     1       0.102  13.153  -2.757  1.00  0.00     0.074 A 
ATOM     62  C   UNL     1      -1.276  13.201  -3.201  1.00  0.00     0.031 C 
ATOM     63  C   UNL     1       0.714  14.139  -2.054  1.00  0.00     0.037 A 
BRANCH  50  64
ATOM     64  C   UNL     1       6.594  12.914  -0.565  1.00  0.00     0.058 A 
ATOM     65  C   UNL     1       7.776  13.241  -1.252  1.00  0.00     0.135 A 
ATOM     66  C   UNL     1       6.596  13.050   0.833  1.00  0.00     0.135 A 
ATOM     67  F   UNL     1       7.838  13.119  -2.587  1.00  0.00    -0.206 F 
ATOM     68  C   UNL     1       8.921  13.653  -0.578  1.00  0.00     0.059 A 
ATOM     69  C   UNL     1       7.721  13.491   1.526  1.00  0.00     0.059 A 
ATOM     70  F   UNL     1       5.495  12.754   1.542  1.00  0.00    -0.206 F 
ATOM     71  C   UNL     1       8.883  13.775   0.812  1.00  0.00     0.060 A 
BRANCH  71  72
ATOM     72  S   UNL     1      10.378  14.313   1.670  1.00  0.00     0.124 S 
ATOM     73  O   UNL     1      11.234  13.139   1.527  1.00  0.00    -0.237 OA
ATOM     74  O   UNL     1      10.777  15.484   0.896  1.00  0.00    -0.237 OA
ATOM     75  O   UNL     1       9.914  14.589   3.026  1.00  0.00    -0.744 OA
ENDBRANCH  71  72
ENDBRANCH  50  64
BRANCH  51  76
ATOM     76  C   UNL     1      -1.597   9.460  -5.144  1.00  0.00     0.058 A 
ATOM     77  C   UNL     1      -2.120  10.052  -6.303  1.00  0.00     0.135 A 
ATOM     78  C   UNL     1      -2.257   8.332  -4.632  1.00  0.00     0.135 A 
ATOM     79  F   UNL     1      -1.530  11.136  -6.828  1.00  0.00    -0.206 F 
ATOM     80  C   UNL     1      -3.260   9.552  -6.926  1.00  0.00     0.059 A 
ATOM     81  C   UNL     1      -3.381   7.797  -5.253  1.00  0.00     0.059 A 
ATOM     82  F   UNL     1      -1.787   7.717  -3.535  1.00  0.00    -0.206 F 
ATOM     83  C   UNL     1      -3.879   8.419  -6.396  1.00  0.00     0.060 A 
BRANCH  83  84
ATOM     84  S   UNL     1      -5.320   7.740  -7.248  1.00  0.00     0.124 S 
ATOM     85  O   UNL     1      -6.338   8.739  -6.946  1.00  0.00    -0.237 OA
ATOM     86  O   UNL     1      -4.860   7.692  -8.632  1.00  0.00    -0.237 OA
ATOM     87  O   UNL     1      -5.503   6.439  -6.611  1.00  0.00    -0.744 OA
ENDBRANCH  83  84
ENDBRANCH  51  76
BRANCH  63  88
ATOM     88  C   UNL     1      -0.100  15.366  -1.735  1.00  0.00     0.058 A 
ATOM     89  C   UNL     1      -1.154  15.334  -0.808  1.00  0.00     0.135 A 
ATOM     90  C   UNL     1       0.201  16.597  -2.341  1.00  0.00     0.135 A 
ATOM     91  F   UNL     1      -1.488  14.182  -0.204  1.00  0.00    -0.206 F 
ATOM     92  C   UNL     1      -1.903  16.470  -0.518  1.00  0.00     0.059 A 
ATOM     93  C   UNL     1      -0.513  17.753  -2.041  1.00  0.00     0.059 A 
ATOM     94  F   UNL     1       1.205  16.689  -3.226  1.00  0.00    -0.206 F 
ATOM     95  C   UNL     1      -1.574  17.676  -1.140  1.00  0.00     0.060 A 
BRANCH  95  96
ATOM     96  S   UNL     1      -2.544  19.146  -0.743  1.00  0.00     0.124 S 
ATOM     97  O   UNL     1      -3.802  18.861  -1.425  1.00  0.00    -0.237 OA
ATOM     98  O   UNL     1      -2.590  19.104   0.715  1.00  0.00    -0.237 OA
ATOM     99  O   UNL     1      -1.756  20.237  -1.309  1.00  0.00    -0.744 OA
ENDBRANCH  95  96
ENDBRANCH  63  88
ENDBRANCH  37  38
ENDBRANCH  29  32
ENDBRANCH  27  28
ENDBRANCH  26  27
ENDBRANCH  25  26
ENDBRANCH   1  25
TORSDOF 20
