REMARK SMILES COc1cc(OC)cc(-c2ccc([C@@H](C)C(=O)NCCCCCCNC(=O)c3ccc(-c4c5nc(c(-c6c(F)cc(S(=O)(=O)[O-])cc6F)c6ccc([nH]6)c(-c6c(F)cc(S(=O)(=O)[O-])cc6F)c6nc(c(-c7c(F)cc(S(=O)(=O)[O-])cc7F)c7ccc4[nH]7)C=C6)C=C5)cc3)cc2F)c1
REMARK SMILES IDX 21 1 20 2 19 3 18 4 16 5 17 6 14 8 15 9 13 10 10 11 11 12
REMARK SMILES IDX 95 13 12 14 94 15 96 16 9 17 3 18 4 19 97 20 5 21 8 22 2 23
REMARK SMILES IDX 1 24 6 25 7 26 22 27 23 28 24 29 25 30 26 31 27 33 28 34
REMARK SMILES IDX 29 35 93 36 30 37 92 38 31 39 32 40 33 41 86 42 34 43 91 44
REMARK SMILES IDX 85 45 87 46 35 47 90 48 84 49 83 50 36 52 70 53 49 54 69 55
REMARK SMILES IDX 50 56 53 57 68 58 88 59 51 60 52 61 67 63 89 64 54 65 37 66
REMARK SMILES IDX 38 67 47 68 39 69 40 70 46 71 48 72 41 73 42 74 43 75 44 76
REMARK SMILES IDX 45 77 71 78 72 79 81 80 73 81 74 82 80 83 82 84 75 85 76 86
REMARK SMILES IDX 77 87 78 88 79 89 55 90 56 91 65 92 57 93 58 94 64 95 66 96
REMARK SMILES IDX 59 97 60 98 61 99 62 100 63 101
REMARK H PARENT 18 7 25 32 87 51 53 62
REMARK Flexibility Score: inf
ROOT
ATOM      1  C   UNL     1       5.882  -5.077  -5.911  1.00  0.00     0.002 C 
ENDROOT
BRANCH   1   2
ATOM      2  C   UNL     1       5.811  -5.559  -4.459  1.00  0.00     0.021 C 
BRANCH   2   3
ATOM      3  C   UNL     1       7.070  -6.291  -3.988  1.00  0.00     0.116 C 
BRANCH   3   4
ATOM      4  N   UNL     1       8.049  -5.376  -3.436  1.00  0.00    -0.356 N 
ATOM      5  C   UNL     1       8.382  -5.073  -2.152  1.00  0.00     0.227 C 
ATOM      6  O   UNL     1       9.219  -4.175  -1.998  1.00  0.00    -0.274 OA
ATOM      7  H   UNL     1       8.566  -4.884  -4.113  1.00  0.00     0.163 HD
BRANCH   5   8
ATOM      8  C   UNL     1       7.790  -5.782  -0.925  1.00  0.00     0.105 C 
ATOM      9  C   UNL     1       8.070  -7.285  -0.877  1.00  0.00     0.023 C 
BRANCH   8  10
ATOM     10  C   UNL     1       6.362  -5.361  -0.616  1.00  0.00    -0.033 A 
ATOM     11  C   UNL     1       3.705  -4.431  -0.093  1.00  0.00     0.018 A 
ATOM     12  C   UNL     1       3.955  -5.531  -0.931  1.00  0.00     0.012 A 
ATOM     13  C   UNL     1       4.824  -3.816   0.482  1.00  0.00     0.131 A 
ATOM     14  C   UNL     1       5.249  -6.011  -1.152  1.00  0.00     0.005 A 
ATOM     15  C   UNL     1       6.126  -4.255   0.217  1.00  0.00     0.044 A 
ATOM     16  F   UNL     1       4.676  -2.785   1.329  1.00  0.00    -0.206 F 
BRANCH  11  17
ATOM     17  C   UNL     1       2.313  -4.002   0.171  1.00  0.00    -0.008 A 
ATOM     18  C   UNL     1       0.614  -2.283   0.503  1.00  0.00     0.123 A 
ATOM     19  C   UNL     1      -0.358  -3.272   0.664  1.00  0.00     0.092 A 
ATOM     20  C   UNL     1       1.943  -2.648   0.262  1.00  0.00     0.055 A 
ATOM     21  C   UNL     1      -0.024  -4.620   0.574  1.00  0.00     0.123 A 
ATOM     22  C   UNL     1       1.303  -4.973   0.335  1.00  0.00     0.055 A 
BRANCH  18  23
ATOM     23  O   UNL     1       0.162  -1.000   0.656  1.00  0.00    -0.497 OA
ATOM     24  C   UNL     1       0.862  -0.004  -0.080  1.00  0.00     0.278 C 
ENDBRANCH  18  23
BRANCH  21  25
ATOM     25  O   UNL     1      -1.062  -5.495   0.740  1.00  0.00    -0.497 OA
ATOM     26  C   UNL     1      -0.752  -6.883   0.675  1.00  0.00     0.278 C 
ENDBRANCH  21  25
ENDBRANCH  11  17
ENDBRANCH   8  10
ENDBRANCH   5   8
ENDBRANCH   3   4
ENDBRANCH   2   3
ENDBRANCH   1   2
BRANCH   1  27
ATOM     27  C   UNL     1       6.015  -6.190  -6.959  1.00  0.00     0.002 C 
BRANCH  27  28
ATOM     28  C   UNL     1       4.934  -7.274  -6.908  1.00  0.00     0.021 C 
BRANCH  28  29
ATOM     29  C   UNL     1       3.510  -6.766  -7.121  1.00  0.00     0.116 C 
BRANCH  29  30
ATOM     30  N   UNL     1       3.345  -6.165  -8.435  1.00  0.00    -0.352 N 
ATOM     31  C   UNL     1       2.511  -6.528  -9.463  1.00  0.00     0.251 C 
ATOM     32  H   UNL     1       3.916  -5.384  -8.614  1.00  0.00     0.163 HD
ATOM     33  O   UNL     1       2.688  -6.063 -10.585  1.00  0.00    -0.269 OA
BRANCH  31  34
ATOM     34  C   UNL     1       1.405  -7.479  -9.220  1.00  0.00     0.039 A 
ATOM     35  C   UNL     1       1.152  -8.482 -10.160  1.00  0.00     0.014 A 
ATOM     36  C   UNL     1       0.596  -7.359  -8.087  1.00  0.00     0.014 A 
ATOM     37  C   UNL     1       0.119  -9.396  -9.937  1.00  0.00     0.010 A 
ATOM     38  C   UNL     1      -0.388  -8.311  -7.832  1.00  0.00     0.010 A 
ATOM     39  C   UNL     1      -0.643  -9.333  -8.759  1.00  0.00    -0.014 A 
BRANCH  39  40
ATOM     40  C   UNL     1      -1.720 -10.319  -8.484  1.00  0.00     0.031 A 
ATOM     41  C   UNL     1      -3.152  -9.863  -8.387  1.00  0.00     0.074 A 
ATOM     42  C   UNL     1      -1.403 -11.608  -8.257  1.00  0.00     0.049 A 
ATOM     43  N   UNL     1      -4.219 -10.554  -8.080  1.00  0.00    -0.248 NA
ATOM     44  C   UNL     1      -3.414  -8.438  -8.643  1.00  0.00     0.031 C 
ATOM     45  C   UNL     1      -0.046 -12.161  -8.277  1.00  0.00     0.029 A 
ATOM     46  N   UNL     1      -2.195 -12.687  -7.953  1.00  0.00    -0.354 N 
ATOM     47  C   UNL     1      -5.274  -9.648  -8.089  1.00  0.00     0.074 A 
ATOM     48  C   UNL     1      -4.710  -8.348  -8.381  1.00  0.00     0.031 C 
ATOM     49  C   UNL     1      -0.104 -13.477  -8.015  1.00  0.00     0.029 A 
ATOM     50  C   UNL     1      -1.493 -13.855  -7.772  1.00  0.00     0.049 A 
ATOM     51  H   UNL     1      -3.174 -12.629  -7.872  1.00  0.00     0.167 HD
ATOM     52  C   UNL     1      -6.594  -9.882  -7.895  1.00  0.00     0.037 A 
ATOM     53  C   UNL     1      -1.918 -15.090  -7.441  1.00  0.00     0.037 A 
ATOM     54  C   UNL     1      -7.150 -11.183  -7.633  1.00  0.00     0.049 A 
ATOM     55  C   UNL     1      -3.390 -15.327  -7.236  1.00  0.00     0.074 A 
ATOM     56  C   UNL     1      -8.480 -11.536  -7.479  1.00  0.00     0.029 A 
ATOM     57  N   UNL     1      -6.409 -12.347  -7.486  1.00  0.00    -0.354 N 
ATOM     58  N   UNL     1      -4.380 -14.469  -7.308  1.00  0.00    -0.248 NA
ATOM     59  C   UNL     1      -3.805 -16.699  -6.914  1.00  0.00     0.031 C 
ATOM     60  C   UNL     1      -8.540 -12.905  -7.197  1.00  0.00     0.029 A 
ATOM     61  C   UNL     1      -7.252 -13.415  -7.225  1.00  0.00     0.049 A 
ATOM     62  H   UNL     1      -5.429 -12.405  -7.556  1.00  0.00     0.167 HD
ATOM     63  C   UNL     1      -5.537 -15.203  -7.069  1.00  0.00     0.074 A 
ATOM     64  C   UNL     1      -5.124 -16.575  -6.860  1.00  0.00     0.031 C 
ATOM     65  C   UNL     1      -6.824 -14.778  -7.028  1.00  0.00     0.037 A 
BRANCH  52  66
ATOM     66  C   UNL     1      -7.529  -8.704  -7.963  1.00  0.00     0.058 A 
ATOM     67  C   UNL     1      -7.804  -8.050  -9.175  1.00  0.00     0.135 A 
ATOM     68  C   UNL     1      -8.184  -8.244  -6.809  1.00  0.00     0.135 A 
ATOM     69  F   UNL     1      -7.194  -8.438 -10.306  1.00  0.00    -0.206 F 
ATOM     70  C   UNL     1      -8.670  -6.964  -9.236  1.00  0.00     0.059 A 
ATOM     71  C   UNL     1      -9.078  -7.177  -6.851  1.00  0.00     0.059 A 
ATOM     72  F   UNL     1      -7.959  -8.833  -5.623  1.00  0.00    -0.206 F 
ATOM     73  C   UNL     1      -9.302  -6.534  -8.068  1.00  0.00     0.060 A 
BRANCH  73  74
ATOM     74  S   UNL     1     -10.427  -5.125  -8.165  1.00  0.00     0.124 S 
ATOM     75  O   UNL     1      -9.491  -4.018  -8.334  1.00  0.00    -0.237 OA
ATOM     76  O   UNL     1     -11.237  -5.453  -9.334  1.00  0.00    -0.237 OA
ATOM     77  O   UNL     1     -11.131  -5.163  -6.888  1.00  0.00    -0.744 OA
ENDBRANCH  73  74
ENDBRANCH  52  66
BRANCH  53  78
ATOM     78  C   UNL     1      -0.939 -16.200  -7.304  1.00  0.00     0.058 A 
ATOM     79  C   UNL     1      -0.886 -17.236  -8.248  1.00  0.00     0.135 A 
ATOM     80  C   UNL     1      -0.025 -16.239  -6.239  1.00  0.00     0.135 A 
ATOM     81  F   UNL     1      -1.742 -17.246  -9.281  1.00  0.00    -0.206 F 
ATOM     82  C   UNL     1       0.025 -18.281  -8.134  1.00  0.00     0.059 A 
ATOM     83  C   UNL     1       0.912 -17.260  -6.117  1.00  0.00     0.059 A 
ATOM     84  F   UNL     1      -0.022 -15.262  -5.319  1.00  0.00    -0.206 F 
ATOM     85  C   UNL     1       0.923 -18.283  -7.065  1.00  0.00     0.060 A 
BRANCH  85  86
ATOM     86  S   UNL     1       2.136 -19.616  -6.953  1.00  0.00     0.124 S 
ATOM     87  O   UNL     1       1.304 -20.735  -6.526  1.00  0.00    -0.237 OA
ATOM     88  O   UNL     1       2.645 -19.682  -8.320  1.00  0.00    -0.237 OA
ATOM     89  O   UNL     1       3.087 -19.120  -5.962  1.00  0.00    -0.744 OA
ENDBRANCH  85  86
ENDBRANCH  53  78
BRANCH  65  90
ATOM     90  C   UNL     1      -7.887 -15.813  -6.784  1.00  0.00     0.058 A 
ATOM     91  C   UNL     1      -8.076 -16.395  -5.521  1.00  0.00     0.135 A 
ATOM     92  C   UNL     1      -8.763 -16.187  -7.816  1.00  0.00     0.135 A 
ATOM     93  F   UNL     1      -7.262 -16.078  -4.502  1.00  0.00    -0.206 F 
ATOM     94  C   UNL     1      -9.083 -17.329  -5.295  1.00  0.00     0.059 A 
ATOM     95  C   UNL     1      -9.794 -17.097  -7.606  1.00  0.00     0.059 A 
ATOM     96  F   UNL     1      -8.632 -15.652  -9.041  1.00  0.00    -0.206 F 
ATOM     97  C   UNL     1      -9.938 -17.671  -6.344  1.00  0.00     0.060 A 
BRANCH  97  98
ATOM     98  S   UNL     1     -11.263 -18.857  -6.029  1.00  0.00     0.124 S 
ATOM     99  O   UNL     1     -10.523 -20.113  -5.962  1.00  0.00    -0.237 OA
ATOM    100  O   UNL     1     -11.816 -18.379  -4.766  1.00  0.00    -0.237 OA
ATOM    101  O   UNL     1     -12.138 -18.704  -7.187  1.00  0.00    -0.744 OA
ENDBRANCH  97  98
ENDBRANCH  65  90
ENDBRANCH  39  40
ENDBRANCH  31  34
ENDBRANCH  29  30
ENDBRANCH  28  29
ENDBRANCH  27  28
ENDBRANCH   1  27
TORSDOF 20
