REMARK SMILES Cc1ccc(-c2cc([C@@H](C)C(=O)NCCCCCCNC(=O)c3ccc(-c4c5nc(c(-c6c(F)cc(S(=O)(=O)[O-])cc6F)c6ccc([nH]6)c(-c6c(F)cc(S(=O)(=O)[O-])cc6F)c6nc(c(-c7c(F)cc(S(=O)(=O)[O-])cc7F)c7ccc4[nH]7)C=C6)C=C5)cc3)ccc2C[C@H]2CCCC2=O)cc1
REMARK SMILES IDX 16 1 15 2 14 3 13 4 11 5 12 6 9 8 10 9 8 10 6 11 7 12 91 13
REMARK SMILES IDX 90 14 89 15 5 16 1 17 2 18 3 19 100 20 4 21 99 22 92 23
REMARK SMILES IDX 93 24 94 25 97 26 95 27 96 28 98 29 17 30 18 31 19 32 20 33
REMARK SMILES IDX 21 34 22 36 23 37 24 38 88 39 25 40 87 41 26 42 27 43 28 44
REMARK SMILES IDX 81 45 29 46 86 47 80 48 82 49 30 50 85 51 79 52 78 53 31 55
REMARK SMILES IDX 65 56 44 57 64 58 45 59 48 60 63 61 83 62 46 63 47 64 62 66
REMARK SMILES IDX 84 67 49 68 32 69 33 70 42 71 34 72 35 73 41 74 43 75 36 76
REMARK SMILES IDX 37 77 38 78 39 79 40 80 66 81 67 82 76 83 68 84 69 85 75 86
REMARK SMILES IDX 77 87 70 88 71 89 72 90 73 91 74 92 50 93 51 94 60 95 52 96
REMARK SMILES IDX 53 97 59 98 61 99 54 100 55 101 56 102 57 103 58 104
REMARK H PARENT 13 7 20 35 82 54 48 65
REMARK Flexibility Score: inf
ROOT
ATOM      1  C   UNL     1      -9.515   1.995   1.670  1.00  0.00     0.002 C 
ENDROOT
BRANCH   1   2
ATOM      2  C   UNL     1      -8.557   1.138   0.832  1.00  0.00     0.021 C 
BRANCH   2   3
ATOM      3  C   UNL     1      -8.698   1.294  -0.684  1.00  0.00     0.116 C 
BRANCH   3   4
ATOM      4  N   UNL     1      -7.854   2.346  -1.215  1.00  0.00    -0.356 N 
ATOM      5  C   UNL     1      -6.686   2.314  -1.913  1.00  0.00     0.227 C 
ATOM      6  O   UNL     1      -6.192   3.412  -2.207  1.00  0.00    -0.274 OA
ATOM      7  H   UNL     1      -8.188   3.254  -1.037  1.00  0.00     0.163 HD
BRANCH   5   8
ATOM      8  C   UNL     1      -5.983   1.024  -2.367  1.00  0.00     0.105 C 
ATOM      9  C   UNL     1      -6.815   0.143  -3.298  1.00  0.00     0.023 C 
BRANCH   8  10
ATOM     10  C   UNL     1      -5.255   0.295  -1.248  1.00  0.00    -0.035 A 
ATOM     11  C   UNL     1      -3.168  -0.071   0.025  1.00  0.00    -0.015 A 
ATOM     12  C   UNL     1      -3.887   0.542  -1.026  1.00  0.00     0.013 A 
ATOM     13  C   UNL     1      -3.883  -0.858   0.954  1.00  0.00    -0.039 A 
ATOM     14  C   UNL     1      -5.221  -1.175   0.677  1.00  0.00     0.004 A 
ATOM     15  C   UNL     1      -5.884  -0.634  -0.421  1.00  0.00     0.005 A 
BRANCH  11  16
ATOM     16  C   UNL     1      -1.695   0.033   0.035  1.00  0.00    -0.018 A 
ATOM     17  C   UNL     1       2.635   0.174  -0.023  1.00  0.00     0.044 C 
ATOM     18  C   UNL     1       1.136   0.142  -0.024  1.00  0.00    -0.051 A 
ATOM     19  C   UNL     1       0.474  -1.083  -0.134  1.00  0.00     0.004 A 
ATOM     20  C   UNL     1       0.378   1.312   0.106  1.00  0.00     0.004 A 
ATOM     21  C   UNL     1      -0.920  -1.132  -0.117  1.00  0.00     0.009 A 
ATOM     22  C   UNL     1      -1.023   1.258   0.132  1.00  0.00     0.009 A 
ENDBRANCH  11  16
BRANCH  13  23
ATOM     23  C   UNL     1      -3.293  -1.367   2.257  1.00  0.00     0.047 C 
BRANCH  23  24
ATOM     24  C   UNL     1      -3.703  -0.608   3.530  1.00  0.00     0.060 C 
ATOM     25  C   UNL     1      -3.395   0.896   3.550  1.00  0.00     0.012 C 
ATOM     26  C   UNL     1      -5.193  -0.635   3.810  1.00  0.00     0.136 C 
ATOM     27  C   UNL     1      -4.719   1.602   3.279  1.00  0.00     0.009 C 
ATOM     28  C   UNL     1      -5.766   0.747   3.976  1.00  0.00     0.076 C 
ATOM     29  O   UNL     1      -5.857  -1.661   3.905  1.00  0.00    -0.299 OA
ENDBRANCH  23  24
ENDBRANCH  13  23
ENDBRANCH   8  10
ENDBRANCH   5   8
ENDBRANCH   3   4
ENDBRANCH   2   3
ENDBRANCH   1   2
BRANCH   1  30
ATOM     30  C   UNL     1     -11.018   1.845   1.376  1.00  0.00     0.002 C 
BRANCH  30  31
ATOM     31  C   UNL     1     -11.544   0.413   1.250  1.00  0.00     0.021 C 
BRANCH  31  32
ATOM     32  C   UNL     1     -11.546  -0.361   2.563  1.00  0.00     0.116 C 
BRANCH  32  33
ATOM     33  N   UNL     1     -12.883  -0.551   3.105  1.00  0.00    -0.352 N 
ATOM     34  C   UNL     1     -13.249  -1.511   4.039  1.00  0.00     0.251 C 
ATOM     35  H   UNL     1     -13.589   0.054   2.782  1.00  0.00     0.163 HD
ATOM     36  O   UNL     1     -14.347  -2.024   4.084  1.00  0.00    -0.269 OA
BRANCH  34  37
ATOM     37  C   UNL     1     -12.256  -1.752   5.109  1.00  0.00     0.039 A 
ATOM     38  C   UNL     1     -12.491  -1.152   6.353  1.00  0.00     0.014 A 
ATOM     39  C   UNL     1     -11.022  -2.314   4.798  1.00  0.00     0.014 A 
ATOM     40  C   UNL     1     -11.428  -0.975   7.236  1.00  0.00     0.010 A 
ATOM     41  C   UNL     1      -9.955  -2.064   5.638  1.00  0.00     0.010 A 
ATOM     42  C   UNL     1     -10.147  -1.357   6.834  1.00  0.00    -0.014 A 
BRANCH  42  43
ATOM     43  C   UNL     1      -8.931  -0.994   7.556  1.00  0.00     0.031 A 
ATOM     44  C   UNL     1      -8.197  -2.029   8.336  1.00  0.00     0.074 A 
ATOM     45  C   UNL     1      -8.417   0.252   7.427  1.00  0.00     0.049 A 
ATOM     46  N   UNL     1      -7.340  -1.779   9.270  1.00  0.00    -0.248 NA
ATOM     47  C   UNL     1      -8.408  -3.461   8.134  1.00  0.00     0.031 C 
ATOM     48  C   UNL     1      -7.071   0.671   7.814  1.00  0.00     0.029 A 
ATOM     49  N   UNL     1      -9.012   1.455   7.037  1.00  0.00    -0.354 N 
ATOM     50  C   UNL     1      -6.697  -2.958   9.590  1.00  0.00     0.074 A 
ATOM     51  C   UNL     1      -7.440  -3.983   8.893  1.00  0.00     0.031 C 
ATOM     52  C   UNL     1      -7.056   2.007   7.945  1.00  0.00     0.029 A 
ATOM     53  C   UNL     1      -8.432   2.455   7.832  1.00  0.00     0.049 A 
ATOM     54  H   UNL     1      -9.700   1.577   6.344  1.00  0.00     0.167 HD
ATOM     55  C   UNL     1      -5.531  -2.924  10.303  1.00  0.00     0.037 A 
ATOM     56  C   UNL     1      -9.079   3.190   8.789  1.00  0.00     0.037 A 
ATOM     57  C   UNL     1      -5.196  -1.555  10.693  1.00  0.00     0.049 A 
ATOM     58  C   UNL     1      -8.451   3.080  10.171  1.00  0.00     0.074 A 
ATOM     59  C   UNL     1      -4.370  -0.599  10.123  1.00  0.00     0.029 A 
ATOM     60  N   UNL     1      -5.972  -0.892  11.636  1.00  0.00    -0.354 N 
ATOM     61  N   UNL     1      -7.585   2.163  10.503  1.00  0.00    -0.248 NA
ATOM     62  C   UNL     1      -8.774   3.958  11.296  1.00  0.00     0.031 C 
ATOM     63  C   UNL     1      -4.710   0.660  10.674  1.00  0.00     0.029 A 
ATOM     64  C   UNL     1      -5.724   0.468  11.596  1.00  0.00     0.049 A 
ATOM     65  H   UNL     1      -6.609  -1.329  12.246  1.00  0.00     0.167 HD
ATOM     66  C   UNL     1      -7.275   2.271  11.832  1.00  0.00     0.074 A 
ATOM     67  C   UNL     1      -8.019   3.434  12.279  1.00  0.00     0.031 C 
ATOM     68  C   UNL     1      -6.452   1.382  12.462  1.00  0.00     0.037 A 
BRANCH  55  69
ATOM     69  C   UNL     1      -4.546  -4.080  10.378  1.00  0.00     0.058 A 
ATOM     70  C   UNL     1      -3.156  -3.841  10.477  1.00  0.00     0.135 A 
ATOM     71  C   UNL     1      -4.895  -5.442  10.292  1.00  0.00     0.135 A 
ATOM     72  F   UNL     1      -2.667  -2.612  10.687  1.00  0.00    -0.206 F 
ATOM     73  C   UNL     1      -2.196  -4.850  10.357  1.00  0.00     0.059 A 
ATOM     74  C   UNL     1      -3.955  -6.464  10.111  1.00  0.00     0.059 A 
ATOM     75  F   UNL     1      -6.166  -5.842  10.432  1.00  0.00    -0.206 F 
ATOM     76  C   UNL     1      -2.603  -6.155  10.127  1.00  0.00     0.060 A 
BRANCH  76  77
ATOM     77  S   UNL     1      -1.349  -7.422   9.855  1.00  0.00     0.124 S 
ATOM     78  O   UNL     1      -0.560  -6.849   8.769  1.00  0.00    -0.237 OA
ATOM     79  O   UNL     1      -0.690  -7.482  11.155  1.00  0.00    -0.237 OA
ATOM     80  O   UNL     1      -2.130  -8.602   9.494  1.00  0.00    -0.744 OA
ENDBRANCH  76  77
ENDBRANCH  55  69
BRANCH  56  81
ATOM     81  C   UNL     1     -10.527   3.398   8.533  1.00  0.00     0.058 A 
ATOM     82  C   UNL     1     -10.889   4.234   7.462  1.00  0.00     0.135 A 
ATOM     83  C   UNL     1     -11.483   2.489   9.004  1.00  0.00     0.135 A 
ATOM     84  F   UNL     1     -10.025   5.156   7.008  1.00  0.00    -0.206 F 
ATOM     85  C   UNL     1     -12.070   4.038   6.755  1.00  0.00     0.059 A 
ATOM     86  C   UNL     1     -12.678   2.281   8.315  1.00  0.00     0.059 A 
ATOM     87  F   UNL     1     -11.201   1.686  10.040  1.00  0.00    -0.206 F 
ATOM     88  C   UNL     1     -12.918   3.002   7.144  1.00  0.00     0.060 A 
BRANCH  88  89
ATOM     89  S   UNL     1     -14.227   2.504   5.998  1.00  0.00     0.124 S 
ATOM     90  O   UNL     1     -14.944   3.756   5.790  1.00  0.00    -0.237 OA
ATOM     91  O   UNL     1     -13.454   2.018   4.855  1.00  0.00    -0.237 OA
ATOM     92  O   UNL     1     -14.946   1.478   6.744  1.00  0.00    -0.744 OA
ENDBRANCH  88  89
ENDBRANCH  56  81
BRANCH  68  93
ATOM     93  C   UNL     1      -6.202   1.333  13.946  1.00  0.00     0.058 A 
ATOM     94  C   UNL     1      -7.189   1.595  14.909  1.00  0.00     0.135 A 
ATOM     95  C   UNL     1      -4.961   0.869  14.443  1.00  0.00     0.135 A 
ATOM     96  F   UNL     1      -8.432   1.947  14.548  1.00  0.00    -0.206 F 
ATOM     97  C   UNL     1      -6.948   1.466  16.278  1.00  0.00     0.059 A 
ATOM     98  C   UNL     1      -4.715   0.685  15.801  1.00  0.00     0.059 A 
ATOM     99  F   UNL     1      -3.948   0.572  13.614  1.00  0.00    -0.206 F 
ATOM    100  C   UNL     1      -5.707   1.011  16.715  1.00  0.00     0.060 A 
BRANCH 100 101
ATOM    101  S   UNL     1      -5.398   0.788  18.477  1.00  0.00     0.124 S 
ATOM    102  O   UNL     1      -4.787   2.066  18.829  1.00  0.00    -0.237 OA
ATOM    103  O   UNL     1      -6.735   0.560  19.019  1.00  0.00    -0.237 OA
ATOM    104  O   UNL     1      -4.511  -0.370  18.512  1.00  0.00    -0.744 OA
ENDBRANCH 100 101
ENDBRANCH  68  93
ENDBRANCH  42  43
ENDBRANCH  34  37
ENDBRANCH  32  33
ENDBRANCH  31  32
ENDBRANCH  30  31
ENDBRANCH   1  30
TORSDOF 20
