REMARK SMILES Cn1c(=O)c2c(nc(Nc3cccc(Cl)c3Cl)n2CC(=O)NCCCCCCNC(=O)c2ccc(-c3c4nc(c(-c5c(F)cc(S(=O)(=O)[O-])cc5F)c5ccc([nH]5)c(-c5c(F)cc(S(=O)(=O)[O-])cc5F)c5nc(c(-c6c(F)cc(S(=O)(=O)[O-])cc6F)c6ccc3[nH]6)C=C5)C=C4)cc2)n(C)c1=O
REMARK SMILES IDX 25 1 24 2 23 3 22 4 20 5 21 6 19 8 18 9 1 10 2 11 3 12
REMARK SMILES IDX 100 13 4 14 5 15 98 16 101 17 6 18 99 19 7 20 8 21 9 22
REMARK SMILES IDX 10 24 11 25 16 26 12 27 14 28 17 29 13 30 15 31 26 32 27 33
REMARK SMILES IDX 28 34 29 35 30 36 31 38 32 39 33 40 97 41 34 42 96 43 35 44
REMARK SMILES IDX 36 45 37 46 90 47 38 48 95 49 89 50 91 51 39 52 94 53 88 54
REMARK SMILES IDX 87 55 40 57 74 58 53 59 73 60 54 61 57 62 72 63 92 64 55 65
REMARK SMILES IDX 56 66 71 68 93 69 58 70 41 71 42 72 51 73 43 74 44 75 50 76
REMARK SMILES IDX 52 77 45 78 46 79 47 80 48 81 49 82 75 83 76 84 85 85 77 86
REMARK SMILES IDX 78 87 84 88 86 89 79 90 80 91 81 92 82 93 83 94 59 95 60 96
REMARK SMILES IDX 69 97 61 98 62 99 68 100 70 101 63 102 64 103 65 104 66 105
REMARK SMILES IDX 67 106
REMARK H PARENT 22 7 9 23 29 37 91 56 57 67
REMARK Flexibility Score: inf
ROOT
ATOM      1  C   UNL     1       0.730  -3.361   6.653  1.00  0.00     0.002 C 
ENDROOT
BRANCH   1   2
ATOM      2  C   UNL     1       0.024  -4.015   5.462  1.00  0.00     0.021 C 
BRANCH   2   3
ATOM      3  C   UNL     1      -1.492  -3.910   5.532  1.00  0.00     0.116 C 
BRANCH   3   4
ATOM      4  N   UNL     1      -1.951  -2.562   5.299  1.00  0.00    -0.355 N 
ATOM      5  C   UNL     1      -2.655  -2.059   4.246  1.00  0.00     0.240 C 
ATOM      6  O   UNL     1      -3.031  -0.887   4.340  1.00  0.00    -0.273 OA
ATOM      7  H   UNL     1      -1.724  -1.912   6.003  1.00  0.00     0.163 HD
BRANCH   5   8
ATOM      8  C   UNL     1      -3.115  -2.950   3.108  1.00  0.00     0.226 C 
BRANCH   8   9
ATOM      9  N   UNL     1      -2.085  -3.670   2.375  1.00  0.00    -0.295 N 
ATOM     10  C   UNL     1       0.707  -0.141   0.236  1.00  0.00     0.159 C 
ATOM     11  N   UNL     1       0.319  -1.498   0.565  1.00  0.00    -0.261 N 
ATOM     12  C   UNL     1      -0.841  -1.681   1.325  1.00  0.00     0.282 A 
ATOM     13  C   UNL     1       1.120  -2.525   0.030  1.00  0.00     0.332 A 
ATOM     14  O   UNL     1      -1.564  -0.771   1.694  1.00  0.00    -0.267 OA
ATOM     15  C   UNL     1      -1.109  -3.054   1.616  1.00  0.00     0.154 A 
ATOM     16  N   UNL     1       0.744  -3.835   0.322  1.00  0.00    -0.279 N 
ATOM     17  O   UNL     1       2.106  -2.256  -0.660  1.00  0.00    -0.247 OA
ATOM     18  C   UNL     1      -0.351  -4.061   1.116  1.00  0.00     0.170 A 
ATOM     19  C   UNL     1       1.500  -4.949  -0.215  1.00  0.00     0.157 C 
ATOM     20  N   UNL     1      -0.817  -5.273   1.493  1.00  0.00    -0.194 NA
ATOM     21  C   UNL     1      -1.896  -5.043   2.214  1.00  0.00     0.210 A 
BRANCH  21  22
ATOM     22  N   UNL     1      -2.572  -6.084   2.756  1.00  0.00    -0.324 N 
ATOM     23  H   UNL     1      -2.168  -6.957   2.546  1.00  0.00     0.170 HD
BRANCH  22  24
ATOM     24  C   UNL     1      -3.724  -6.188   3.552  1.00  0.00     0.061 A 
ATOM     25  C   UNL     1      -3.564  -6.771   4.825  1.00  0.00     0.028 A 
ATOM     26  C   UNL     1      -5.011  -5.771   3.159  1.00  0.00     0.083 A 
ATOM     27  C   UNL     1      -4.619  -6.830   5.734  1.00  0.00     0.004 A 
ATOM     28  C   UNL     1      -6.067  -5.815   4.085  1.00  0.00     0.061 A 
ATOM     29  Cl  UNL     1      -5.282  -5.213   1.537  1.00  0.00    -0.080 Cl
ATOM     30  C   UNL     1      -5.864  -6.329   5.371  1.00  0.00     0.022 A 
ATOM     31  Cl  UNL     1      -7.649  -5.217   3.719  1.00  0.00    -0.083 Cl
ENDBRANCH  22  24
ENDBRANCH  21  22
ENDBRANCH   8   9
ENDBRANCH   5   8
ENDBRANCH   3   4
ENDBRANCH   2   3
ENDBRANCH   1   2
BRANCH   1  32
ATOM     32  C   UNL     1       0.275  -3.842   8.041  1.00  0.00     0.002 C 
BRANCH  32  33
ATOM     33  C   UNL     1       0.265  -5.361   8.273  1.00  0.00     0.021 C 
BRANCH  33  34
ATOM     34  C   UNL     1       1.637  -6.001   8.164  1.00  0.00     0.116 C 
BRANCH  34  35
ATOM     35  N   UNL     1       2.550  -5.558   9.220  1.00  0.00    -0.352 N 
ATOM     36  C   UNL     1       3.873  -5.919   9.409  1.00  0.00     0.251 C 
ATOM     37  H   UNL     1       2.177  -4.927   9.877  1.00  0.00     0.163 HD
ATOM     38  O   UNL     1       4.403  -5.804  10.507  1.00  0.00    -0.269 OA
BRANCH  36  39
ATOM     39  C   UNL     1       4.626  -6.434   8.252  1.00  0.00     0.039 A 
ATOM     40  C   UNL     1       5.556  -7.469   8.362  1.00  0.00     0.014 A 
ATOM     41  C   UNL     1       4.341  -5.865   7.015  1.00  0.00     0.014 A 
ATOM     42  C   UNL     1       6.143  -7.955   7.196  1.00  0.00     0.010 A 
ATOM     43  C   UNL     1       4.729  -6.497   5.870  1.00  0.00     0.010 A 
ATOM     44  C   UNL     1       5.708  -7.470   5.949  1.00  0.00    -0.014 A 
BRANCH  44  45
ATOM     45  C   UNL     1       6.214  -8.002   4.695  1.00  0.00     0.031 A 
ATOM     46  C   UNL     1       6.117  -9.476   4.583  1.00  0.00     0.074 A 
ATOM     47  C   UNL     1       6.577  -7.226   3.650  1.00  0.00     0.049 A 
ATOM     48  N   UNL     1       7.075 -10.326   4.737  1.00  0.00    -0.248 NA
ATOM     49  C   UNL     1       4.785 -10.093   4.487  1.00  0.00     0.031 C 
ATOM     50  C   UNL     1       6.459  -5.773   3.474  1.00  0.00     0.029 A 
ATOM     51  N   UNL     1       7.093  -7.620   2.457  1.00  0.00    -0.354 N 
ATOM     52  C   UNL     1       6.518 -11.577   4.500  1.00  0.00     0.074 A 
ATOM     53  C   UNL     1       5.092 -11.390   4.572  1.00  0.00     0.031 C 
ATOM     54  C   UNL     1       6.680  -5.447   2.180  1.00  0.00     0.029 A 
ATOM     55  C   UNL     1       7.133  -6.632   1.477  1.00  0.00     0.049 A 
ATOM     56  H   UNL     1       7.415  -8.536   2.297  1.00  0.00     0.167 HD
ATOM     57  C   UNL     1       7.285 -12.597   4.021  1.00  0.00     0.037 A 
ATOM     58  C   UNL     1       7.519  -6.795   0.184  1.00  0.00     0.037 A 
ATOM     59  C   UNL     1       8.691 -12.275   4.139  1.00  0.00     0.049 A 
ATOM     60  C   UNL     1       8.377  -8.012   0.158  1.00  0.00     0.074 A 
ATOM     61  C   UNL     1       9.526 -11.960   5.196  1.00  0.00     0.029 A 
ATOM     62  N   UNL     1       9.343 -11.836   3.009  1.00  0.00    -0.354 N 
ATOM     63  N   UNL     1       9.538  -8.085   0.756  1.00  0.00    -0.248 NA
ATOM     64  C   UNL     1       7.722  -9.289  -0.086  1.00  0.00     0.031 C 
ATOM     65  C   UNL     1      10.364 -10.916   4.702  1.00  0.00     0.029 A 
ATOM     66  C   UNL     1      10.054 -10.714   3.356  1.00  0.00     0.049 A 
ATOM     67  H   UNL     1       9.306 -12.250   2.117  1.00  0.00     0.167 HD
ATOM     68  C   UNL     1       9.565  -9.346   1.336  1.00  0.00     0.074 A 
ATOM     69  C   UNL     1       8.443 -10.064   0.730  1.00  0.00     0.031 C 
ATOM     70  C   UNL     1      10.300  -9.603   2.460  1.00  0.00     0.037 A 
BRANCH  57  71
ATOM     71  C   UNL     1       6.796 -13.695   3.106  1.00  0.00     0.058 A 
ATOM     72  C   UNL     1       7.689 -14.729   2.754  1.00  0.00     0.135 A 
ATOM     73  C   UNL     1       5.614 -13.627   2.335  1.00  0.00     0.135 A 
ATOM     74  F   UNL     1       8.835 -14.906   3.432  1.00  0.00    -0.206 F 
ATOM     75  C   UNL     1       7.479 -15.556   1.652  1.00  0.00     0.059 A 
ATOM     76  C   UNL     1       5.361 -14.476   1.264  1.00  0.00     0.059 A 
ATOM     77  F   UNL     1       4.688 -12.680   2.515  1.00  0.00    -0.206 F 
ATOM     78  C   UNL     1       6.321 -15.404   0.899  1.00  0.00     0.060 A 
BRANCH  78  79
ATOM     79  S   UNL     1       6.110 -16.380  -0.598  1.00  0.00     0.124 S 
ATOM     80  O   UNL     1       7.173 -15.848  -1.442  1.00  0.00    -0.237 OA
ATOM     81  O   UNL     1       6.306 -17.737  -0.099  1.00  0.00    -0.237 OA
ATOM     82  O   UNL     1       4.748 -16.061  -1.016  1.00  0.00    -0.744 OA
ENDBRANCH  78  79
ENDBRANCH  57  71
BRANCH  58  83
ATOM     83  C   UNL     1       6.878  -6.228  -1.037  1.00  0.00     0.058 A 
ATOM     84  C   UNL     1       7.459  -6.389  -2.311  1.00  0.00     0.135 A 
ATOM     85  C   UNL     1       5.543  -5.777  -1.026  1.00  0.00     0.135 A 
ATOM     86  F   UNL     1       8.723  -6.825  -2.422  1.00  0.00    -0.206 F 
ATOM     87  C   UNL     1       6.741  -6.184  -3.500  1.00  0.00     0.059 A 
ATOM     88  C   UNL     1       4.818  -5.558  -2.197  1.00  0.00     0.059 A 
ATOM     89  F   UNL     1       4.867  -5.633   0.123  1.00  0.00    -0.206 F 
ATOM     90  C   UNL     1       5.408  -5.792  -3.430  1.00  0.00     0.060 A 
BRANCH  90  91
ATOM     91  S   UNL     1       4.397  -5.721  -4.932  1.00  0.00     0.124 S 
ATOM     92  O   UNL     1       4.967  -4.574  -5.629  1.00  0.00    -0.237 OA
ATOM     93  O   UNL     1       4.652  -7.025  -5.535  1.00  0.00    -0.237 OA
ATOM     94  O   UNL     1       3.041  -5.534  -4.420  1.00  0.00    -0.744 OA
ENDBRANCH  90  91
ENDBRANCH  58  83
BRANCH  70  95
ATOM     95  C   UNL     1      11.288  -8.565   2.937  1.00  0.00     0.058 A 
ATOM     96  C   UNL     1      10.938  -7.286   3.409  1.00  0.00     0.135 A 
ATOM     97  C   UNL     1      12.626  -8.956   3.100  1.00  0.00     0.135 A 
ATOM     98  F   UNL     1       9.667  -6.867   3.384  1.00  0.00    -0.206 F 
ATOM     99  C   UNL     1      11.878  -6.429   3.990  1.00  0.00     0.059 A 
ATOM    100  C   UNL     1      13.573  -8.132   3.703  1.00  0.00     0.059 A 
ATOM    101  F   UNL     1      13.015 -10.186   2.726  1.00  0.00    -0.206 F 
ATOM    102  C   UNL     1      13.194  -6.865   4.139  1.00  0.00     0.060 A 
BRANCH 102 103
ATOM    103  S   UNL     1      14.390  -5.791   4.963  1.00  0.00     0.124 S 
ATOM    104  O   UNL     1      14.533  -4.697   4.008  1.00  0.00    -0.237 OA
ATOM    105  O   UNL     1      13.710  -5.457   6.211  1.00  0.00    -0.237 OA
ATOM    106  O   UNL     1      15.568  -6.642   5.114  1.00  0.00    -0.744 OA
ENDBRANCH 102 103
ENDBRANCH  70  95
ENDBRANCH  44  45
ENDBRANCH  36  39
ENDBRANCH  34  35
ENDBRANCH  33  34
ENDBRANCH  32  33
ENDBRANCH   1  32
TORSDOF 19
