REMARK SMILES COc1cccc([C@@H]2CC(c3cccc(C)c3)=NN2C(=O)CCC(=O)NCCCCCCNC(=O)c2ccc(-c3c4nc(c(-c5c(F)cc(S(=O)(=O)[O-])cc5F)c5ccc([nH]5)c(-c5c(F)cc(S(=O)(=O)[O-])cc5F)c5nc(c(-c6c(F)cc(S(=O)(=O)[O-])cc6F)c6ccc3[nH]6)C=C5)C=C4)cc2)c1
REMARK SMILES IDX 28 1 27 2 26 3 24 4 25 5 23 7 22 8 20 9 21 10 19 11 8 12
REMARK SMILES IDX 9 13 10 14 18 15 7 16 3 17 4 18 102 19 5 20 6 21 2 22 1 23
REMARK SMILES IDX 11 24 12 25 17 26 13 27 15 28 14 29 16 30 29 31 30 32 31 33
REMARK SMILES IDX 32 34 33 35 34 36 35 38 36 39 37 40 101 41 38 42 100 43
REMARK SMILES IDX 39 44 40 45 41 46 94 47 42 48 99 49 93 50 95 51 43 52 98 53
REMARK SMILES IDX 92 54 91 55 44 57 78 58 57 59 77 60 58 61 61 62 76 63 96 64
REMARK SMILES IDX 59 65 60 66 75 68 97 69 62 70 45 71 46 72 55 73 47 74 48 75
REMARK SMILES IDX 54 76 56 77 49 78 50 79 51 80 52 81 53 82 79 83 80 84 89 85
REMARK SMILES IDX 81 86 82 87 88 88 90 89 83 90 84 91 85 92 86 93 87 94 63 95
REMARK SMILES IDX 64 96 73 97 65 98 66 99 72 100 74 101 67 102 68 103 69 104
REMARK SMILES IDX 70 105 71 106
REMARK H PARENT 26 6 33 37 95 56 61 67
REMARK Flexibility Score: inf
ROOT
ATOM      1  C   UNL     1       5.802   2.682  -0.199  1.00  0.00     0.021 C 
ENDROOT
BRANCH   1   2
ATOM      2  C   UNL     1       4.326   2.436  -0.514  1.00  0.00     0.116 C 
BRANCH   2   3
ATOM      3  N   UNL     1       3.466   2.012   0.579  1.00  0.00    -0.356 N 
ATOM      4  C   UNL     1       2.587   2.718   1.335  1.00  0.00     0.220 C 
ATOM      5  O   UNL     1       1.765   2.107   2.025  1.00  0.00    -0.275 OA
ATOM      6  H   UNL     1       3.532   1.057   0.808  1.00  0.00     0.163 HD
BRANCH   4   7
ATOM      7  C   UNL     1       2.687   4.223   1.412  1.00  0.00     0.110 C 
BRANCH   7   8
ATOM      8  C   UNL     1       3.278   4.657   2.753  1.00  0.00     0.112 C 
BRANCH   8   9
ATOM      9  C   UNL     1       4.561   3.898   3.044  1.00  0.00     0.243 C 
ATOM     10  O   UNL     1       5.625   4.326   2.595  1.00  0.00    -0.273 OA
BRANCH   9  11
ATOM     11  N   UNL     1       4.428   2.695   3.723  1.00  0.00    -0.225 N 
ATOM     12  C   UNL     1       3.447   2.364   4.765  1.00  0.00     0.147 C 
ATOM     13  C   UNL     1       3.741   0.900   5.094  1.00  0.00     0.091 C 
ATOM     14  C   UNL     1       4.990   0.708   4.289  1.00  0.00     0.071 C 
ATOM     15  N   UNL     1       5.378   1.722   3.586  1.00  0.00    -0.174 NA
BRANCH  12  16
ATOM     16  C   UNL     1       3.632   3.351   5.910  1.00  0.00    -0.019 A 
ATOM     17  C   UNL     1       2.728   5.236   7.151  1.00  0.00     0.119 A 
ATOM     18  C   UNL     1       4.021   5.577   7.556  1.00  0.00     0.046 A 
ATOM     19  C   UNL     1       2.536   4.113   6.344  1.00  0.00     0.052 A 
ATOM     20  C   UNL     1       5.112   4.796   7.183  1.00  0.00     0.004 A 
ATOM     21  C   UNL     1       4.918   3.680   6.375  1.00  0.00     0.006 A 
BRANCH  17  22
ATOM     22  O   UNL     1       1.750   6.098   7.564  1.00  0.00    -0.497 OA
ATOM     23  C   UNL     1       0.426   5.817   7.126  1.00  0.00     0.278 C 
ENDBRANCH  17  22
ENDBRANCH  12  16
BRANCH  14  24
ATOM     24  C   UNL     1       5.731  -0.556   4.296  1.00  0.00    -0.002 A 
ATOM     25  C   UNL     1       7.023  -0.552   4.821  1.00  0.00     0.010 A 
ATOM     26  C   UNL     1       5.219  -1.685   3.643  1.00  0.00     0.013 A 
ATOM     27  C   UNL     1       7.795  -1.705   4.744  1.00  0.00     0.001 A 
ATOM     28  C   UNL     1       6.011  -2.837   3.532  1.00  0.00    -0.050 A 
ATOM     29  C   UNL     1       7.286  -2.842   4.114  1.00  0.00     0.003 A 
ATOM     30  C   UNL     1       5.588  -4.009   2.692  1.00  0.00     0.044 C 
ENDBRANCH  14  24
ENDBRANCH   9  11
ENDBRANCH   8   9
ENDBRANCH   7   8
ENDBRANCH   4   7
ENDBRANCH   2   3
ENDBRANCH   1   2
BRANCH   1  31
ATOM     31  C   UNL     1       6.611   1.621   0.558  1.00  0.00     0.002 C 
BRANCH  31  32
ATOM     32  C   UNL     1       6.184   0.157   0.429  1.00  0.00     0.002 C 
BRANCH  32  33
ATOM     33  C   UNL     1       6.958  -0.628  -0.624  1.00  0.00     0.021 C 
BRANCH  33  34
ATOM     34  C   UNL     1       8.374  -0.968  -0.183  1.00  0.00     0.116 C 
BRANCH  34  35
ATOM     35  N   UNL     1       8.443  -1.957   0.892  1.00  0.00    -0.352 N 
ATOM     36  C   UNL     1       9.545  -2.715   1.237  1.00  0.00     0.251 C 
ATOM     37  H   UNL     1       7.624  -2.096   1.420  1.00  0.00     0.163 HD
ATOM     38  O   UNL     1       9.514  -3.602   2.074  1.00  0.00    -0.269 OA
BRANCH  36  39
ATOM     39  C   UNL     1      10.778  -2.446   0.483  1.00  0.00     0.039 A 
ATOM     40  C   UNL     1      11.229  -3.422  -0.405  1.00  0.00     0.014 A 
ATOM     41  C   UNL     1      11.288  -1.146   0.474  1.00  0.00     0.014 A 
ATOM     42  C   UNL     1      12.120  -3.051  -1.405  1.00  0.00     0.010 A 
ATOM     43  C   UNL     1      12.102  -0.761  -0.577  1.00  0.00     0.010 A 
ATOM     44  C   UNL     1      12.500  -1.706  -1.535  1.00  0.00    -0.014 A 
BRANCH  44  45
ATOM     45  C   UNL     1      13.295  -1.259  -2.697  1.00  0.00     0.031 A 
ATOM     46  C   UNL     1      14.678  -0.733  -2.470  1.00  0.00     0.074 A 
ATOM     47  C   UNL     1      12.732  -1.270  -3.922  1.00  0.00     0.049 A 
ATOM     48  N   UNL     1      15.526  -0.247  -3.334  1.00  0.00    -0.248 NA
ATOM     49  C   UNL     1      15.159  -0.718  -1.077  1.00  0.00     0.031 C 
ATOM     50  C   UNL     1      11.361  -1.696  -4.221  1.00  0.00     0.029 A 
ATOM     51  N   UNL     1      13.237  -0.911  -5.144  1.00  0.00    -0.354 N 
ATOM     52  C   UNL     1      16.631   0.146  -2.590  1.00  0.00     0.074 A 
ATOM     53  C   UNL     1      16.322  -0.099  -1.200  1.00  0.00     0.031 C 
ATOM     54  C   UNL     1      11.147  -1.607  -5.544  1.00  0.00     0.029 A 
ATOM     55  C   UNL     1      12.352  -1.091  -6.183  1.00  0.00     0.049 A 
ATOM     56  H   UNL     1      14.147  -0.558  -5.268  1.00  0.00     0.167 HD
ATOM     57  C   UNL     1      17.808   0.640  -3.036  1.00  0.00     0.037 A 
ATOM     58  C   UNL     1      12.509  -0.868  -7.502  1.00  0.00     0.037 A 
ATOM     59  C   UNL     1      18.096   0.845  -4.429  1.00  0.00     0.049 A 
ATOM     60  C   UNL     1      13.843  -0.362  -7.980  1.00  0.00     0.074 A 
ATOM     61  C   UNL     1      19.264   1.295  -5.013  1.00  0.00     0.029 A 
ATOM     62  N   UNL     1      17.194   0.606  -5.460  1.00  0.00    -0.354 N 
ATOM     63  N   UNL     1      14.906  -0.057  -7.272  1.00  0.00    -0.248 NA
ATOM     64  C   UNL     1      14.009  -0.177  -9.427  1.00  0.00     0.031 C 
ATOM     65  C   UNL     1      19.060   1.354  -6.396  1.00  0.00     0.029 A 
ATOM     66  C   UNL     1      17.777   0.904  -6.677  1.00  0.00     0.049 A 
ATOM     67  H   UNL     1      16.276   0.273  -5.340  1.00  0.00     0.167 HD
ATOM     68  C   UNL     1      15.875   0.335  -8.187  1.00  0.00     0.074 A 
ATOM     69  C   UNL     1      15.274   0.216  -9.501  1.00  0.00     0.031 C 
ATOM     70  C   UNL     1      17.144   0.758  -7.965  1.00  0.00     0.037 A 
BRANCH  57  71
ATOM     71  C   UNL     1      18.848   0.975  -2.005  1.00  0.00     0.058 A 
ATOM     72  C   UNL     1      19.494  -0.026  -1.259  1.00  0.00     0.135 A 
ATOM     73  C   UNL     1      19.187   2.310  -1.737  1.00  0.00     0.135 A 
ATOM     74  F   UNL     1      19.191  -1.319  -1.458  1.00  0.00    -0.206 F 
ATOM     75  C   UNL     1      20.404   0.286  -0.255  1.00  0.00     0.059 A 
ATOM     76  C   UNL     1      20.118   2.645  -0.757  1.00  0.00     0.059 A 
ATOM     77  F   UNL     1      18.598   3.307  -2.415  1.00  0.00    -0.206 F 
ATOM     78  C   UNL     1      20.706   1.626  -0.007  1.00  0.00     0.060 A 
BRANCH  78  79
ATOM     79  S   UNL     1      21.876   2.017   1.310  1.00  0.00     0.124 S 
ATOM     80  O   UNL     1      21.063   1.781   2.500  1.00  0.00    -0.237 OA
ATOM     81  O   UNL     1      22.947   1.053   1.075  1.00  0.00    -0.237 OA
ATOM     82  O   UNL     1      22.224   3.411   1.053  1.00  0.00    -0.744 OA
ENDBRANCH  78  79
ENDBRANCH  57  71
BRANCH  58  83
ATOM     83  C   UNL     1      11.400  -1.163  -8.450  1.00  0.00     0.058 A 
ATOM     84  C   UNL     1      11.470  -2.255  -9.328  1.00  0.00     0.135 A 
ATOM     85  C   UNL     1      10.232  -0.383  -8.476  1.00  0.00     0.135 A 
ATOM     86  F   UNL     1      12.564  -3.032  -9.345  1.00  0.00    -0.206 F 
ATOM     87  C   UNL     1      10.432  -2.558 -10.205  1.00  0.00     0.059 A 
ATOM     88  C   UNL     1       9.171  -0.679  -9.329  1.00  0.00     0.059 A 
ATOM     89  F   UNL     1      10.103   0.661  -7.644  1.00  0.00    -0.206 F 
ATOM     90  C   UNL     1       9.283  -1.765 -10.195  1.00  0.00     0.060 A 
BRANCH  90  91
ATOM     91  S   UNL     1       7.916  -2.203 -11.294  1.00  0.00     0.124 S 
ATOM     92  O   UNL     1       8.437  -1.788 -12.591  1.00  0.00    -0.237 OA
ATOM     93  O   UNL     1       7.800  -3.642 -11.082  1.00  0.00    -0.237 OA
ATOM     94  O   UNL     1       6.804  -1.411 -10.777  1.00  0.00    -0.744 OA
ENDBRANCH  90  91
ENDBRANCH  58  83
BRANCH  70  95
ATOM     95  C   UNL     1      17.973   1.095  -9.169  1.00  0.00     0.058 A 
ATOM     96  C   UNL     1      17.784   2.292  -9.875  1.00  0.00     0.135 A 
ATOM     97  C   UNL     1      19.022   0.250  -9.564  1.00  0.00     0.135 A 
ATOM     98  F   UNL     1      16.789   3.127  -9.536  1.00  0.00    -0.206 F 
ATOM     99  C   UNL     1      18.604   2.637 -10.941  1.00  0.00     0.059 A 
ATOM    100  C   UNL     1      19.869   0.587 -10.613  1.00  0.00     0.059 A 
ATOM    101  F   UNL     1      19.246  -0.901  -8.911  1.00  0.00    -0.206 F 
ATOM    102  C   UNL     1      19.648   1.781 -11.299  1.00  0.00     0.060 A 
BRANCH 102 103
ATOM    103  S   UNL     1      20.744   2.270 -12.646  1.00  0.00     0.124 S 
ATOM    104  O   UNL     1      19.908   2.010 -13.813  1.00  0.00    -0.237 OA
ATOM    105  O   UNL     1      20.998   3.677 -12.349  1.00  0.00    -0.237 OA
ATOM    106  O   UNL     1      21.894   1.385 -12.486  1.00  0.00    -0.744 OA
ENDBRANCH 102 103
ENDBRANCH  70  95
ENDBRANCH  44  45
ENDBRANCH  36  39
ENDBRANCH  34  35
ENDBRANCH  33  34
ENDBRANCH  32  33
ENDBRANCH  31  32
ENDBRANCH   1  31
TORSDOF 22
