REMARK SMILES O=C(C[C@@H](C(=O)NCCCCCCNC(=O)c1ccc(-c2c3nc(c(-c4c(F)cc(S(=O)(=O)[O-])cc4F)c4ccc([nH]4)c(-c4c(F)cc(S(=O)(=O)[O-])cc4F)c4nc(c(-c5c(F)cc(S(=O)(=O)[O-])cc5F)c5ccc2[nH]5)C=C4)C=C3)cc1)c1ccccc1)Nc1cc(C(F)(F)F)ccc1-n1cncn1
REMARK SMILES IDX 10 1 9 2 8 3 7 4 5 5 6 6 4 8 3 9 2 10 1 11 89 12 90 14 91 15
REMARK SMILES IDX 99 16 92 17 98 18 97 19 100 20 101 21 104 22 102 23 103 24
REMARK SMILES IDX 93 25 94 26 95 27 96 28 83 29 84 30 88 31 85 32 87 33 86 34
REMARK SMILES IDX 11 35 12 36 13 37 14 38 15 39 16 41 17 42 18 43 82 44 19 45
REMARK SMILES IDX 81 46 20 47 21 48 22 49 75 50 23 51 80 52 74 53 76 54 24 55
REMARK SMILES IDX 79 56 73 57 72 58 25 60 59 61 38 62 58 63 39 64 42 65 57 66
REMARK SMILES IDX 77 67 40 68 41 69 56 71 78 72 43 73 26 74 27 75 36 76 28 77
REMARK SMILES IDX 29 78 35 79 37 80 30 81 31 82 32 83 33 84 34 85 60 86 61 87
REMARK SMILES IDX 70 88 62 89 63 90 69 91 71 92 64 93 65 94 66 95 67 96 68 97
REMARK SMILES IDX 44 98 45 99 54 100 46 101 47 102 53 103 55 104 48 105 49 106
REMARK SMILES IDX 50 107 51 108 52 109
REMARK H PARENT 7 7 89 13 14 40 76 59 42 70
REMARK Flexibility Score: inf
ROOT
ATOM      1  C   UNL     1       4.376   4.055   1.904  1.00  0.00     0.002 C 
ENDROOT
BRANCH   1   2
ATOM      2  C   UNL     1       4.358   2.879   0.918  1.00  0.00     0.021 C 
BRANCH   2   3
ATOM      3  C   UNL     1       4.244   3.050  -0.600  1.00  0.00     0.116 C 
BRANCH   3   4
ATOM      4  N   UNL     1       5.098   2.045  -1.257  1.00  0.00    -0.356 N 
ATOM      5  C   UNL     1       4.903   0.689  -1.120  1.00  0.00     0.228 C 
ATOM      6  O   UNL     1       5.702   0.043  -0.439  1.00  0.00    -0.274 OA
ATOM      7  H   UNL     1       5.843   2.357  -1.820  1.00  0.00     0.163 HD
BRANCH   5   8
ATOM      8  C   UNL     1       3.769   0.013  -1.912  1.00  0.00     0.118 C 
BRANCH   8   9
ATOM      9  C   UNL     1       2.917  -0.826  -0.937  1.00  0.00     0.118 C 
BRANCH   9  10
ATOM     10  C   UNL     1       2.097  -0.037   0.074  1.00  0.00     0.225 C 
ATOM     11  O   UNL     1       1.119   0.627  -0.249  1.00  0.00    -0.275 OA
ATOM     12  N   UNL     1       2.591  -0.151   1.365  1.00  0.00    -0.324 N 
ATOM     13  H   UNL     1       3.487  -0.547   1.462  1.00  0.00     0.170 HD
BRANCH  12  14
ATOM     14  C   UNL     1       1.937   0.245   2.556  1.00  0.00     0.067 A 
ATOM     15  C   UNL     1       2.682   1.061   3.408  1.00  0.00     0.041 A 
ATOM     16  C   UNL     1       0.684  -0.203   2.999  1.00  0.00     0.090 A 
ATOM     17  C   UNL     1       2.236   1.438   4.680  1.00  0.00     0.058 A 
ATOM     18  C   UNL     1       0.202   0.176   4.271  1.00  0.00     0.031 A 
ATOM     19  C   UNL     1       0.995   0.969   5.116  1.00  0.00     0.015 A 
BRANCH  16  20
ATOM     20  N   UNL     1       0.016  -1.241   2.325  1.00  0.00    -0.219 N 
ATOM     21  C   UNL     1       0.577  -2.409   1.867  1.00  0.00     0.226 A 
ATOM     22  N   UNL     1      -1.320  -1.284   2.140  1.00  0.00    -0.155 NA
ATOM     23  N   UNL     1      -0.308  -3.108   1.198  1.00  0.00    -0.223 NA
ATOM     24  C   UNL     1      -1.440  -2.358   1.353  1.00  0.00     0.246 A 
ENDBRANCH  16  20
BRANCH  17  25
ATOM     25  C   UNL     1       3.169   2.278   5.521  1.00  0.00     0.416 C 
ATOM     26  F   UNL     1       4.381   1.669   5.663  1.00  0.00    -0.166 F 
ATOM     27  F   UNL     1       3.453   3.480   4.950  1.00  0.00    -0.166 F 
ATOM     28  F   UNL     1       2.719   2.536   6.771  1.00  0.00    -0.166 F 
ENDBRANCH  17  25
ENDBRANCH  12  14
ENDBRANCH   9  10
ENDBRANCH   8   9
BRANCH   8  29
ATOM     29  C   UNL     1       4.433  -0.845  -3.025  1.00  0.00    -0.035 A 
ATOM     30  C   UNL     1       4.301  -2.244  -3.114  1.00  0.00     0.004 A 
ATOM     31  C   UNL     1       5.285  -0.221  -3.958  1.00  0.00     0.004 A 
ATOM     32  C   UNL     1       5.019  -2.986  -4.063  1.00  0.00     0.000 A 
ATOM     33  C   UNL     1       6.013  -0.965  -4.896  1.00  0.00     0.000 A 
ATOM     34  C   UNL     1       5.885  -2.349  -4.944  1.00  0.00     0.000 A 
ENDBRANCH   8  29
ENDBRANCH   5   8
ENDBRANCH   3   4
ENDBRANCH   2   3
ENDBRANCH   1   2
BRANCH   1  35
ATOM     35  C   UNL     1       3.338   5.183   1.916  1.00  0.00     0.002 C 
BRANCH  35  36
ATOM     36  C   UNL     1       1.824   4.971   2.099  1.00  0.00     0.021 C 
BRANCH  36  37
ATOM     37  C   UNL     1       1.106   4.761   3.458  1.00  0.00     0.116 C 
BRANCH  37  38
ATOM     38  N   UNL     1       1.677   5.332   4.662  1.00  0.00    -0.352 N 
ATOM     39  C   UNL     1       1.078   5.544   5.897  1.00  0.00     0.251 C 
ATOM     40  H   UNL     1       2.620   5.609   4.595  1.00  0.00     0.163 HD
ATOM     41  O   UNL     1       1.751   5.923   6.843  1.00  0.00    -0.269 OA
BRANCH  39  42
ATOM     42  C   UNL     1      -0.386   5.346   6.090  1.00  0.00     0.039 A 
ATOM     43  C   UNL     1      -1.147   6.416   6.573  1.00  0.00     0.014 A 
ATOM     44  C   UNL     1      -1.008   4.117   5.864  1.00  0.00     0.014 A 
ATOM     45  C   UNL     1      -2.534   6.282   6.728  1.00  0.00     0.010 A 
ATOM     46  C   UNL     1      -2.399   3.988   5.995  1.00  0.00     0.010 A 
ATOM     47  C   UNL     1      -3.183   5.080   6.395  1.00  0.00    -0.014 A 
BRANCH  47  48
ATOM     48  C   UNL     1      -4.674   5.014   6.353  1.00  0.00     0.031 A 
ATOM     49  C   UNL     1      -5.463   4.171   7.318  1.00  0.00     0.074 A 
ATOM     50  C   UNL     1      -5.320   5.708   5.392  1.00  0.00     0.049 A 
ATOM     51  N   UNL     1      -6.761   4.032   7.424  1.00  0.00    -0.248 NA
ATOM     52  C   UNL     1      -4.696   3.366   8.280  1.00  0.00     0.031 C 
ATOM     53  C   UNL     1      -4.665   6.512   4.356  1.00  0.00     0.029 A 
ATOM     54  N   UNL     1      -6.659   5.853   5.121  1.00  0.00    -0.354 N 
ATOM     55  C   UNL     1      -6.971   3.134   8.465  1.00  0.00     0.074 A 
ATOM     56  C   UNL     1      -5.660   2.720   8.923  1.00  0.00     0.031 C 
ATOM     57  C   UNL     1      -5.600   7.087   3.585  1.00  0.00     0.029 A 
ATOM     58  C   UNL     1      -6.921   6.669   4.043  1.00  0.00     0.049 A 
ATOM     59  H   UNL     1      -7.366   5.415   5.649  1.00  0.00     0.167 HD
ATOM     60  C   UNL     1      -8.144   2.710   9.000  1.00  0.00     0.037 A 
ATOM     61  C   UNL     1      -8.089   7.041   3.482  1.00  0.00     0.037 A 
ATOM     62  C   UNL     1      -9.444   3.125   8.529  1.00  0.00     0.049 A 
ATOM     63  C   UNL     1      -9.377   6.557   4.091  1.00  0.00     0.074 A 
ATOM     64  C   UNL     1     -10.691   2.786   9.028  1.00  0.00     0.029 A 
ATOM     65  N   UNL     1      -9.668   3.960   7.442  1.00  0.00    -0.354 N 
ATOM     66  N   UNL     1      -9.553   5.770   5.126  1.00  0.00    -0.248 NA
ATOM     67  C   UNL     1     -10.624   7.018   3.467  1.00  0.00     0.031 C 
ATOM     68  C   UNL     1     -11.666   3.375   8.215  1.00  0.00     0.029 A 
ATOM     69  C   UNL     1     -11.030   4.130   7.243  1.00  0.00     0.049 A 
ATOM     70  H   UNL     1      -8.962   4.372   6.893  1.00  0.00     0.167 HD
ATOM     71  C   UNL     1     -10.929   5.659   5.290  1.00  0.00     0.074 A 
ATOM     72  C   UNL     1     -11.538   6.475   4.260  1.00  0.00     0.031 C 
ATOM     73  C   UNL     1     -11.624   4.947   6.212  1.00  0.00     0.037 A 
BRANCH  60  74
ATOM     74  C   UNL     1      -8.081   1.748  10.160  1.00  0.00     0.058 A 
ATOM     75  C   UNL     1      -7.604   2.145  11.420  1.00  0.00     0.135 A 
ATOM     76  C   UNL     1      -8.539   0.426  10.028  1.00  0.00     0.135 A 
ATOM     77  F   UNL     1      -7.149   3.394  11.608  1.00  0.00    -0.206 F 
ATOM     78  C   UNL     1      -7.545   1.260  12.493  1.00  0.00     0.059 A 
ATOM     79  C   UNL     1      -8.518  -0.469  11.096  1.00  0.00     0.059 A 
ATOM     80  F   UNL     1      -9.016  -0.010   8.851  1.00  0.00    -0.206 F 
ATOM     81  C   UNL     1      -8.002  -0.048  12.320  1.00  0.00     0.060 A 
BRANCH  81  82
ATOM     82  S   UNL     1      -7.906  -1.186  13.719  1.00  0.00     0.124 S 
ATOM     83  O   UNL     1      -6.468  -1.418  13.807  1.00  0.00    -0.237 OA
ATOM     84  O   UNL     1      -8.488  -0.399  14.802  1.00  0.00    -0.237 OA
ATOM     85  O   UNL     1      -8.700  -2.330  13.284  1.00  0.00    -0.744 OA
ENDBRANCH  81  82
ENDBRANCH  60  74
BRANCH  61  86
ATOM     86  C   UNL     1      -8.088   7.936   2.292  1.00  0.00     0.058 A 
ATOM     87  C   UNL     1      -8.544   9.261   2.376  1.00  0.00     0.135 A 
ATOM     88  C   UNL     1      -7.606   7.493   1.050  1.00  0.00     0.135 A 
ATOM     89  F   UNL     1      -9.023   9.733   3.537  1.00  0.00    -0.206 F 
ATOM     90  C   UNL     1      -8.534  10.109   1.272  1.00  0.00     0.059 A 
ATOM     91  C   UNL     1      -7.558   8.330  -0.061  1.00  0.00     0.059 A 
ATOM     92  F   UNL     1      -7.142   6.240   0.918  1.00  0.00    -0.206 F 
ATOM     93  C   UNL     1      -8.033   9.635   0.058  1.00  0.00     0.060 A 
BRANCH  93  94
ATOM     94  S   UNL     1      -7.969  10.761  -1.353  1.00  0.00     0.124 S 
ATOM     95  O   UNL     1      -9.380  10.874  -1.704  1.00  0.00    -0.237 OA
ATOM     96  O   UNL     1      -7.359  11.951  -0.767  1.00  0.00    -0.237 OA
ATOM     97  O   UNL     1      -7.135  10.048  -2.315  1.00  0.00    -0.744 OA
ENDBRANCH  93  94
ENDBRANCH  61  86
BRANCH  73  98
ATOM     98  C   UNL     1     -13.126   5.038   6.167  1.00  0.00     0.058 A 
ATOM     99  C   UNL     1     -13.875   4.431   5.147  1.00  0.00     0.135 A 
ATOM    100  C   UNL     1     -13.828   5.701   7.187  1.00  0.00     0.135 A 
ATOM    101  F   UNL     1     -13.255   3.791   4.143  1.00  0.00    -0.206 F 
ATOM    102  C   UNL     1     -15.265   4.498   5.126  1.00  0.00     0.059 A 
ATOM    103  C   UNL     1     -15.219   5.755   7.203  1.00  0.00     0.059 A 
ATOM    104  F   UNL     1     -13.163   6.292   8.193  1.00  0.00    -0.206 F 
ATOM    105  C   UNL     1     -15.928   5.160   6.161  1.00  0.00     0.060 A 
BRANCH 105 106
ATOM    106  S   UNL     1     -17.733   5.209   6.140  1.00  0.00     0.124 S 
ATOM    107  O   UNL     1     -17.989   6.158   5.061  1.00  0.00    -0.237 OA
ATOM    108  O   UNL     1     -18.079   3.819   5.858  1.00  0.00    -0.237 OA
ATOM    109  O   UNL     1     -18.076   5.675   7.480  1.00  0.00    -0.744 OA
ENDBRANCH 105 106
ENDBRANCH  73  98
ENDBRANCH  47  48
ENDBRANCH  39  42
ENDBRANCH  37  38
ENDBRANCH  36  37
ENDBRANCH  35  36
ENDBRANCH   1  35
TORSDOF 22
