REMARK SMILES Cc1[nH]c2ccccc2c1/N=N\c1ccccc1C(=O)NCCCCCCNC(=O)c1ccc(-c2c3nc(c(-c4c(F)cc(S(=O)(=O)[O-])cc4F)c4ccc([nH]4)c(-c4c(F)cc(S(=O)(=O)[O-])cc4F)c4nc(c(-c5c(F)cc(S(=O)(=O)[O-])cc5F)c5ccc2[nH]5)C=C4)C=C3)cc1
REMARK SMILES IDX 25 1 24 2 23 3 22 4 21 5 19 6 20 7 18 9 13 10 14 11 15 12
REMARK SMILES IDX 17 13 16 14 12 15 11 16 10 17 1 18 2 19 3 20 4 21 9 23 5 24
REMARK SMILES IDX 8 25 6 26 7 27 26 28 27 29 28 30 29 31 30 33 31 34 32 35
REMARK SMILES IDX 96 36 33 37 95 38 34 39 35 40 36 41 89 42 37 43 94 44 88 45
REMARK SMILES IDX 90 46 38 47 93 48 87 49 86 50 39 52 73 53 52 54 72 55 53 56
REMARK SMILES IDX 56 57 71 58 91 59 54 60 55 61 70 63 92 64 57 65 40 66 41 67
REMARK SMILES IDX 50 68 42 69 43 70 49 71 51 72 44 73 45 74 46 75 47 76 48 77
REMARK SMILES IDX 74 78 75 79 84 80 76 81 77 82 83 83 85 84 78 85 79 86 80 87
REMARK SMILES IDX 81 88 82 89 58 90 59 91 68 92 60 93 61 94 67 95 69 96 62 97
REMARK SMILES IDX 63 98 64 99 65 100 66 101
REMARK H PARENT 21 8 3 22 28 32 90 51 56 62
REMARK Flexibility Score: inf
ROOT
ATOM      1  C   UNL     1       1.141  -4.202  -1.446  1.00  0.00     0.002 C 
ENDROOT
BRANCH   1   2
ATOM      2  C   UNL     1       0.224  -4.396  -2.657  1.00  0.00     0.002 C 
BRANCH   2   3
ATOM      3  C   UNL     1      -1.279  -4.485  -2.379  1.00  0.00     0.021 C 
BRANCH   3   4
ATOM      4  C   UNL     1      -1.855  -3.384  -1.498  1.00  0.00     0.116 C 
BRANCH   4   5
ATOM      5  N   UNL     1      -1.782  -2.062  -2.085  1.00  0.00    -0.352 N 
ATOM      6  C   UNL     1      -2.605  -0.980  -1.887  1.00  0.00     0.253 C 
ATOM      7  O   UNL     1      -2.382   0.062  -2.506  1.00  0.00    -0.269 OA
ATOM      8  H   UNL     1      -1.038  -1.918  -2.714  1.00  0.00     0.163 HD
BRANCH   6   9
ATOM      9  C   UNL     1      -3.808  -1.048  -1.019  1.00  0.00     0.067 A 
ATOM     10  C   UNL     1      -3.818  -1.572   0.288  1.00  0.00     0.098 A 
ATOM     11  C   UNL     1      -5.040  -1.602   0.985  1.00  0.00     0.031 A 
ATOM     12  C   UNL     1      -6.200  -1.037   0.445  1.00  0.00     0.002 A 
ATOM     13  C   UNL     1      -4.971  -0.447  -1.539  1.00  0.00     0.016 A 
ATOM     14  C   UNL     1      -6.159  -0.435  -0.808  1.00  0.00     0.001 A 
BRANCH  10  15
ATOM     15  N   UNL     1      -2.662  -2.084   0.923  1.00  0.00    -0.150 NA
ATOM     16  N   UNL     1      -2.123  -1.310   1.752  1.00  0.00    -0.148 NA
BRANCH  16  17
ATOM     17  C   UNL     1      -1.431  -0.220   1.195  1.00  0.00     0.114 A 
ATOM     18  C   UNL     1      -3.299   1.591   1.374  1.00  0.00     0.067 C 
ATOM     19  C   UNL     1      -1.970   1.036   1.030  1.00  0.00     0.041 A 
ATOM     20  N   UNL     1      -1.011   1.794   0.407  1.00  0.00    -0.357 N 
ATOM     21  C   UNL     1       0.176   1.101   0.325  1.00  0.00     0.048 A 
ATOM     22  H   UNL     1      -1.152   2.706   0.066  1.00  0.00     0.166 HD
ATOM     23  C   UNL     1      -0.059  -0.187   0.814  1.00  0.00     0.027 A 
ATOM     24  C   UNL     1       1.428   1.528  -0.134  1.00  0.00     0.027 A 
ATOM     25  C   UNL     1       1.022  -1.092   0.846  1.00  0.00     0.012 A 
ATOM     26  C   UNL     1       2.485   0.618  -0.076  1.00  0.00     0.002 A 
ATOM     27  C   UNL     1       2.288  -0.675   0.404  1.00  0.00     0.001 A 
ENDBRANCH  16  17
ENDBRANCH  10  15
ENDBRANCH   6   9
ENDBRANCH   4   5
ENDBRANCH   3   4
ENDBRANCH   2   3
ENDBRANCH   1   2
BRANCH   1  28
ATOM     28  C   UNL     1       0.969  -5.179  -0.282  1.00  0.00     0.021 C 
BRANCH  28  29
ATOM     29  C   UNL     1       1.014  -6.657  -0.645  1.00  0.00     0.116 C 
BRANCH  29  30
ATOM     30  N   UNL     1       2.239  -7.039  -1.326  1.00  0.00    -0.352 N 
ATOM     31  C   UNL     1       3.070  -8.111  -1.094  1.00  0.00     0.251 C 
ATOM     32  H   UNL     1       2.516  -6.443  -2.059  1.00  0.00     0.163 HD
ATOM     33  O   UNL     1       4.130  -8.206  -1.693  1.00  0.00    -0.269 OA
BRANCH  31  34
ATOM     34  C   UNL     1       2.686  -9.128  -0.089  1.00  0.00     0.039 A 
ATOM     35  C   UNL     1       3.636  -9.532   0.853  1.00  0.00     0.014 A 
ATOM     36  C   UNL     1       1.396  -9.663  -0.062  1.00  0.00     0.014 A 
ATOM     37  C   UNL     1       3.267 -10.413   1.872  1.00  0.00     0.010 A 
ATOM     38  C   UNL     1       1.012 -10.486   0.993  1.00  0.00     0.010 A 
ATOM     39  C   UNL     1       1.940 -10.861   1.976  1.00  0.00    -0.014 A 
BRANCH  39  40
ATOM     40  C   UNL     1       1.492 -11.693   3.121  1.00  0.00     0.031 A 
ATOM     41  C   UNL     1       1.002 -13.095   2.895  1.00  0.00     0.074 A 
ATOM     42  C   UNL     1       1.453 -11.152   4.355  1.00  0.00     0.049 A 
ATOM     43  N   UNL     1       0.495 -13.942   3.754  1.00  0.00    -0.248 NA
ATOM     44  C   UNL     1       1.070 -13.602   1.516  1.00  0.00     0.031 C 
ATOM     45  C   UNL     1       1.872  -9.790   4.694  1.00  0.00     0.029 A 
ATOM     46  N   UNL     1       1.034 -11.677   5.551  1.00  0.00    -0.354 N 
ATOM     47  C   UNL     1       0.176 -15.078   3.021  1.00  0.00     0.074 A 
ATOM     48  C   UNL     1       0.494 -14.789   1.638  1.00  0.00     0.031 C 
ATOM     49  C   UNL     1       1.716  -9.597   6.013  1.00  0.00     0.029 A 
ATOM     50  C   UNL     1       1.143 -10.802   6.606  1.00  0.00     0.049 A 
ATOM     51  H   UNL     1       0.686 -12.593   5.646  1.00  0.00     0.167 HD
ATOM     52  C   UNL     1      -0.316 -16.261   3.462  1.00  0.00     0.037 A 
ATOM     53  C   UNL     1       0.811 -10.949   7.904  1.00  0.00     0.037 A 
ATOM     54  C   UNL     1      -0.629 -16.538   4.841  1.00  0.00     0.049 A 
ATOM     55  C   UNL     1       0.217 -12.251   8.364  1.00  0.00     0.074 A 
ATOM     56  C   UNL     1      -1.089 -17.717   5.400  1.00  0.00     0.029 A 
ATOM     57  N   UNL     1      -0.524 -15.619   5.876  1.00  0.00    -0.354 N 
ATOM     58  N   UNL     1      -0.026 -13.337   7.669  1.00  0.00    -0.248 NA
ATOM     59  C   UNL     1      -0.154 -12.347   9.782  1.00  0.00     0.031 C 
ATOM     60  C   UNL     1      -1.311 -17.495   6.764  1.00  0.00     0.029 A 
ATOM     61  C   UNL     1      -0.942 -16.194   7.066  1.00  0.00     0.049 A 
ATOM     62  H   UNL     1      -0.202 -14.694   5.779  1.00  0.00     0.167 HD
ATOM     63  C   UNL     1      -0.557 -14.254   8.569  1.00  0.00     0.074 A 
ATOM     64  C   UNL     1      -0.592 -13.597   9.860  1.00  0.00     0.031 C 
ATOM     65  C   UNL     1      -0.975 -15.525   8.345  1.00  0.00     0.037 A 
BRANCH  52  66
ATOM     66  C   UNL     1      -0.556 -17.333   2.433  1.00  0.00     0.058 A 
ATOM     67  C   UNL     1       0.506 -17.960   1.760  1.00  0.00     0.135 A 
ATOM     68  C   UNL     1      -1.861 -17.731   2.102  1.00  0.00     0.135 A 
ATOM     69  F   UNL     1       1.776 -17.613   2.028  1.00  0.00    -0.206 F 
ATOM     70  C   UNL     1       0.282 -18.899   0.758  1.00  0.00     0.059 A 
ATOM     71  C   UNL     1      -2.108 -18.692   1.125  1.00  0.00     0.059 A 
ATOM     72  F   UNL     1      -2.916 -17.171   2.716  1.00  0.00    -0.206 F 
ATOM     73  C   UNL     1      -1.030 -19.251   0.441  1.00  0.00     0.060 A 
BRANCH  73  74
ATOM     74  S   UNL     1      -1.307 -20.435  -0.894  1.00  0.00     0.124 S 
ATOM     75  O   UNL     1      -1.017 -19.619  -2.069  1.00  0.00    -0.237 OA
ATOM     76  O   UNL     1      -0.335 -21.480  -0.593  1.00  0.00    -0.237 OA
ATOM     77  O   UNL     1      -2.706 -20.816  -0.725  1.00  0.00    -0.744 OA
ENDBRANCH  73  74
ENDBRANCH  52  66
BRANCH  53  78
ATOM     78  C   UNL     1       1.070  -9.841   8.861  1.00  0.00     0.058 A 
ATOM     79  C   UNL     1       2.098  -9.945   9.809  1.00  0.00     0.135 A 
ATOM     80  C   UNL     1       0.336  -8.645   8.819  1.00  0.00     0.135 A 
ATOM     81  F   UNL     1       2.821 -11.071   9.893  1.00  0.00    -0.206 F 
ATOM     82  C   UNL     1       2.390  -8.903  10.684  1.00  0.00     0.059 A 
ATOM     83  C   UNL     1       0.625  -7.581   9.668  1.00  0.00     0.059 A 
ATOM     84  F   UNL     1      -0.649  -8.492   7.921  1.00  0.00    -0.206 F 
ATOM     85  C   UNL     1       1.653  -7.721  10.599  1.00  0.00     0.060 A 
BRANCH  85  86
ATOM     86  S   UNL     1       2.094  -6.351  11.690  1.00  0.00     0.124 S 
ATOM     87  O   UNL     1       1.632  -6.843  12.982  1.00  0.00    -0.237 OA
ATOM     88  O   UNL     1       3.541  -6.275  11.515  1.00  0.00    -0.237 OA
ATOM     89  O   UNL     1       1.343  -5.227  11.137  1.00  0.00    -0.744 OA
ENDBRANCH  85  86
ENDBRANCH  53  78
BRANCH  65  90
ATOM     90  C   UNL     1      -1.492 -16.301   9.525  1.00  0.00     0.058 A 
ATOM     91  C   UNL     1      -2.748 -16.031  10.090  1.00  0.00     0.135 A 
ATOM     92  C   UNL     1      -0.750 -17.370  10.054  1.00  0.00     0.135 A 
ATOM     93  F   UNL     1      -3.492 -15.013   9.629  1.00  0.00    -0.206 F 
ATOM     94  C   UNL     1      -3.246 -16.787  11.146  1.00  0.00     0.059 A 
ATOM     95  C   UNL     1      -1.241 -18.155  11.093  1.00  0.00     0.059 A 
ATOM     96  F   UNL     1       0.454 -17.674   9.546  1.00  0.00    -0.206 F 
ATOM     97  C   UNL     1      -2.488 -17.852  11.637  1.00  0.00     0.060 A 
BRANCH  97  98
ATOM     98  S   UNL     1      -3.172 -18.858  12.970  1.00  0.00     0.124 S 
ATOM     99  O   UNL     1      -3.053 -17.956  14.111  1.00  0.00    -0.237 OA
ATOM    100  O   UNL     1      -4.531 -19.112  12.503  1.00  0.00    -0.237 OA
ATOM    101  O   UNL     1      -2.297 -20.026  12.998  1.00  0.00    -0.744 OA
ENDBRANCH  97  98
ENDBRANCH  65  90
ENDBRANCH  39  40
ENDBRANCH  31  34
ENDBRANCH  29  30
ENDBRANCH  28  29
ENDBRANCH   1  28
TORSDOF 18
