REMARK SMILES CSc1ncccc1C(=O)N1CSC[C@H]1C(=O)NCCCCCCNC(=O)c1ccc(-c2c3nc(c(-c4c(F)cc(S(=O)(=O)[O-])cc4F)c4ccc([nH]4)c(-c4c(F)cc(S(=O)(=O)[O-])cc4F)c4nc(c(-c5c(F)cc(S(=O)(=O)[O-])cc5F)c5ccc2[nH]5)C=C4)C=C3)cc1
REMARK SMILES IDX 21 1 20 2 19 3 18 4 16 5 17 6 15 8 11 9 12 10 13 11 14 12
REMARK SMILES IDX 9 13 10 14 8 15 3 16 4 17 5 18 7 19 6 20 2 21 1 22 22 23
REMARK SMILES IDX 23 24 24 25 25 26 26 27 27 29 28 30 29 31 93 32 30 33 92 34
REMARK SMILES IDX 31 35 32 36 33 37 86 38 34 39 91 40 85 41 87 42 35 43 90 44
REMARK SMILES IDX 84 45 83 46 36 48 70 49 49 50 69 51 50 52 53 53 68 54 88 55
REMARK SMILES IDX 51 56 52 57 67 59 89 60 54 61 37 62 38 63 47 64 39 65 40 66
REMARK SMILES IDX 46 67 48 68 41 69 42 70 43 71 44 72 45 73 71 74 72 75 81 76
REMARK SMILES IDX 73 77 74 78 80 79 82 80 75 81 76 82 77 83 78 84 79 85 55 86
REMARK SMILES IDX 56 87 65 88 57 89 58 90 64 91 66 92 59 93 60 94 61 95 62 96
REMARK SMILES IDX 63 97
REMARK H PARENT 18 7 25 28 87 47 53 58
REMARK Flexibility Score: inf
ROOT
ATOM      1  C   UNL     1       0.204  -4.826   3.824  1.00  0.00     0.002 C 
ENDROOT
BRANCH   1   2
ATOM      2  C   UNL     1       0.496  -3.391   4.277  1.00  0.00     0.021 C 
BRANCH   2   3
ATOM      3  C   UNL     1       1.928  -3.172   4.750  1.00  0.00     0.116 C 
BRANCH   3   4
ATOM      4  N   UNL     1       2.857  -3.092   3.645  1.00  0.00    -0.354 N 
ATOM      5  C   UNL     1       3.682  -2.091   3.235  1.00  0.00     0.243 C 
ATOM      6  O   UNL     1       4.508  -2.389   2.364  1.00  0.00    -0.273 OA
ATOM      7  H   UNL     1       2.900  -3.905   3.092  1.00  0.00     0.163 HD
BRANCH   5   8
ATOM      8  C   UNL     1       3.683  -0.680   3.862  1.00  0.00     0.185 C 
ATOM      9  N   UNL     1       2.476   0.145   3.672  1.00  0.00    -0.316 N 
ATOM     10  C   UNL     1       1.687   0.352   4.868  1.00  0.00     0.190 C 
ATOM     11  S   UNL     1       2.857   0.296   6.241  1.00  0.00    -0.138 SA
ATOM     12  C   UNL     1       4.090  -0.689   5.337  1.00  0.00     0.106 C 
BRANCH   9  13
ATOM     13  C   UNL     1       2.355   0.843   2.473  1.00  0.00     0.257 C 
ATOM     14  O   UNL     1       2.997   0.531   1.472  1.00  0.00    -0.269 OA
BRANCH  13  15
ATOM     15  C   UNL     1       1.632   2.129   2.441  1.00  0.00     0.072 A 
ATOM     16  C   UNL     1       0.654   2.512   1.521  1.00  0.00     0.108 A 
ATOM     17  N   UNL     1       0.166   3.792   1.543  1.00  0.00    -0.249 NA
ATOM     18  C   UNL     1       0.630   4.681   2.446  1.00  0.00     0.112 A 
ATOM     19  C   UNL     1       2.116   3.095   3.352  1.00  0.00     0.018 A 
ATOM     20  C   UNL     1       1.593   4.378   3.377  1.00  0.00     0.021 A 
BRANCH  16  21
ATOM     21  S   UNL     1      -0.255   1.590   0.298  1.00  0.00    -0.109 SA
ATOM     22  C   UNL     1       0.656   0.072  -0.039  1.00  0.00     0.092 C 
ENDBRANCH  16  21
ENDBRANCH  13  15
ENDBRANCH   9  13
ENDBRANCH   5   8
ENDBRANCH   3   4
ENDBRANCH   2   3
ENDBRANCH   1   2
BRANCH   1  23
ATOM     23  C   UNL     1       0.470  -5.912   4.874  1.00  0.00     0.002 C 
BRANCH  23  24
ATOM     24  C   UNL     1      -0.199  -5.692   6.235  1.00  0.00     0.021 C 
BRANCH  24  25
ATOM     25  C   UNL     1      -1.722  -5.588   6.195  1.00  0.00     0.116 C 
BRANCH  25  26
ATOM     26  N   UNL     1      -2.335  -6.804   5.690  1.00  0.00    -0.352 N 
ATOM     27  C   UNL     1      -3.320  -7.582   6.239  1.00  0.00     0.251 C 
ATOM     28  H   UNL     1      -1.991  -7.116   4.822  1.00  0.00     0.163 HD
ATOM     29  O   UNL     1      -3.552  -8.691   5.758  1.00  0.00    -0.269 OA
BRANCH  27  30
ATOM     30  C   UNL     1      -4.095  -7.107   7.407  1.00  0.00     0.039 A 
ATOM     31  C   UNL     1      -4.398  -8.015   8.425  1.00  0.00     0.014 A 
ATOM     32  C   UNL     1      -4.565  -5.792   7.482  1.00  0.00     0.014 A 
ATOM     33  C   UNL     1      -5.136  -7.596   9.534  1.00  0.00     0.010 A 
ATOM     34  C   UNL     1      -5.248  -5.358   8.618  1.00  0.00     0.010 A 
ATOM     35  C   UNL     1      -5.550  -6.258   9.650  1.00  0.00    -0.014 A 
BRANCH  35  36
ATOM     36  C   UNL     1      -6.303  -5.798  10.844  1.00  0.00     0.031 A 
ATOM     37  C   UNL     1      -7.731  -5.342  10.715  1.00  0.00     0.074 A 
ATOM     38  C   UNL     1      -5.686  -5.757  12.041  1.00  0.00     0.049 A 
ATOM     39  N   UNL     1      -8.541  -4.893  11.640  1.00  0.00    -0.248 NA
ATOM     40  C   UNL     1      -8.320  -5.371   9.367  1.00  0.00     0.031 C 
ATOM     41  C   UNL     1      -4.288  -6.122  12.284  1.00  0.00     0.029 A 
ATOM     42  N   UNL     1      -6.150  -5.386  13.278  1.00  0.00    -0.354 N 
ATOM     43  C   UNL     1      -9.727  -4.578  10.988  1.00  0.00     0.074 A 
ATOM     44  C   UNL     1      -9.515  -4.839   9.580  1.00  0.00     0.031 C 
ATOM     45  C   UNL     1      -4.017  -5.981  13.592  1.00  0.00     0.029 A 
ATOM     46  C   UNL     1      -5.210  -5.492  14.275  1.00  0.00     0.049 A 
ATOM     47  H   UNL     1      -7.071  -5.075  13.436  1.00  0.00     0.167 HD
ATOM     48  C   UNL     1     -10.894  -4.135  11.516  1.00  0.00     0.037 A 
ATOM     49  C   UNL     1      -5.300  -5.226  15.593  1.00  0.00     0.037 A 
ATOM     50  C   UNL     1     -11.108  -3.903  12.921  1.00  0.00     0.049 A 
ATOM     51  C   UNL     1      -6.612  -4.757  16.159  1.00  0.00     0.074 A 
ATOM     52  C   UNL     1     -12.270  -3.510  13.563  1.00  0.00     0.029 A 
ATOM     53  N   UNL     1     -10.139  -4.046  13.904  1.00  0.00    -0.354 N 
ATOM     54  N   UNL     1      -7.742  -4.526  15.535  1.00  0.00    -0.248 NA
ATOM     55  C   UNL     1      -6.664  -4.524  17.608  1.00  0.00     0.031 C 
ATOM     56  C   UNL     1     -11.994  -3.381  14.929  1.00  0.00     0.029 A 
ATOM     57  C   UNL     1     -10.671  -3.734  15.144  1.00  0.00     0.049 A 
ATOM     58  H   UNL     1      -9.209  -4.327  13.743  1.00  0.00     0.167 HD
ATOM     59  C   UNL     1      -8.647  -4.143  16.519  1.00  0.00     0.074 A 
ATOM     60  C   UNL     1      -7.935  -4.188  17.780  1.00  0.00     0.031 C 
ATOM     61  C   UNL     1      -9.949  -3.785  16.390  1.00  0.00     0.037 A 
BRANCH  48  62
ATOM     62  C   UNL     1     -12.035  -3.881  10.569  1.00  0.00     0.058 A 
ATOM     63  C   UNL     1     -12.717  -4.935   9.940  1.00  0.00     0.135 A 
ATOM     64  C   UNL     1     -12.474  -2.572  10.312  1.00  0.00     0.135 A 
ATOM     65  F   UNL     1     -12.329  -6.205  10.138  1.00  0.00    -0.206 F 
ATOM     66  C   UNL     1     -13.775  -4.700   9.068  1.00  0.00     0.059 A 
ATOM     67  C   UNL     1     -13.548  -2.315   9.463  1.00  0.00     0.059 A 
ATOM     68  F   UNL     1     -11.858  -1.527  10.887  1.00  0.00    -0.206 F 
ATOM     69  C   UNL     1     -14.182  -3.385   8.834  1.00  0.00     0.060 A 
BRANCH  69  70
ATOM     70  S   UNL     1     -15.558  -3.096   7.702  1.00  0.00     0.124 S 
ATOM     71  O   UNL     1     -14.925  -3.337   6.409  1.00  0.00    -0.237 OA
ATOM     72  O   UNL     1     -16.530  -4.098   8.128  1.00  0.00    -0.237 OA
ATOM     73  O   UNL     1     -15.932  -1.711   7.969  1.00  0.00    -0.744 OA
ENDBRANCH  69  70
ENDBRANCH  48  62
BRANCH  49  74
ATOM     74  C   UNL     1      -4.118  -5.431  16.472  1.00  0.00     0.058 A 
ATOM     75  C   UNL     1      -4.075  -6.495  17.385  1.00  0.00     0.135 A 
ATOM     76  C   UNL     1      -3.005  -4.579  16.405  1.00  0.00     0.135 A 
ATOM     77  F   UNL     1      -5.117  -7.333  17.487  1.00  0.00    -0.206 F 
ATOM     78  C   UNL     1      -2.977  -6.699  18.213  1.00  0.00     0.059 A 
ATOM     79  C   UNL     1      -1.886  -4.777  17.207  1.00  0.00     0.059 A 
ATOM     80  F   UNL     1      -2.991  -3.558  15.534  1.00  0.00    -0.206 F 
ATOM     81  C   UNL     1      -1.885  -5.834  18.116  1.00  0.00     0.060 A 
BRANCH  81  82
ATOM     82  S   UNL     1      -0.442  -6.136  19.159  1.00  0.00     0.124 S 
ATOM     83  O   UNL     1      -0.913  -5.662  20.455  1.00  0.00    -0.237 OA
ATOM     84  O   UNL     1      -0.266  -7.580  19.031  1.00  0.00    -0.237 OA
ATOM     85  O   UNL     1       0.599  -5.329  18.529  1.00  0.00    -0.744 OA
ENDBRANCH  81  82
ENDBRANCH  49  74
BRANCH  61  86
ATOM     86  C   UNL     1     -10.693  -3.440  17.649  1.00  0.00     0.058 A 
ATOM     87  C   UNL     1     -10.465  -2.236  18.332  1.00  0.00     0.135 A 
ATOM     88  C   UNL     1     -11.669  -4.311  18.160  1.00  0.00     0.135 A 
ATOM     89  F   UNL     1      -9.538  -1.372  17.888  1.00  0.00    -0.206 F 
ATOM     90  C   UNL     1     -11.157  -1.919  19.496  1.00  0.00     0.059 A 
ATOM     91  C   UNL     1     -12.391  -4.003  19.308  1.00  0.00     0.059 A 
ATOM     92  F   UNL     1     -11.933  -5.470  17.538  1.00  0.00    -0.206 F 
ATOM     93  C   UNL     1     -12.117  -2.811  19.978  1.00  0.00     0.060 A 
BRANCH  93  94
ATOM     94  S   UNL     1     -13.022  -2.383  21.480  1.00  0.00     0.124 S 
ATOM     95  O   UNL     1     -12.027  -2.660  22.511  1.00  0.00    -0.237 OA
ATOM     96  O   UNL     1     -13.338  -0.974  21.267  1.00  0.00    -0.237 OA
ATOM     97  O   UNL     1     -14.169  -3.286  21.454  1.00  0.00    -0.744 OA
ENDBRANCH  93  94
ENDBRANCH  61  86
ENDBRANCH  35  36
ENDBRANCH  27  30
ENDBRANCH  25  26
ENDBRANCH  24  25
ENDBRANCH  23  24
ENDBRANCH   1  23
TORSDOF 19
