REMARK SMILES C[C@@H]1[C@@H](C(=O)NCCCCCCNC(=O)c2ccc(-c3c4nc(c(-c5c(F)cc(S(=O)(=O)[O-])cc5F)c5ccc([nH]5)c(-c5c(F)cc(S(=O)(=O)[O-])cc5F)c5nc(c(-c6c(F)cc(S(=O)(=O)[O-])cc6F)c6ccc3[nH]6)C=C5)C=C4)cc2)CCN1C(=O)N1CCC[C@H]2CCC[C@@H]21
REMARK SMILES IDX 10 1 9 2 8 3 7 4 6 5 4 6 5 7 3 9 1 10 2 11 84 12 82 13 83 14
REMARK SMILES IDX 85 15 86 16 87 17 88 18 95 19 89 20 91 21 94 22 90 23 92 24
REMARK SMILES IDX 93 25 11 26 12 27 13 28 14 29 15 31 16 32 17 33 81 34 18 35
REMARK SMILES IDX 80 36 19 37 20 38 21 39 74 40 22 41 79 42 73 43 75 44 23 45
REMARK SMILES IDX 78 46 72 47 71 48 24 50 58 51 37 52 57 53 38 54 41 55 56 56
REMARK SMILES IDX 76 57 39 58 40 59 55 61 77 62 42 63 25 64 26 65 35 66 27 67
REMARK SMILES IDX 28 68 34 69 36 70 29 71 30 72 31 73 32 74 33 75 59 76 60 77
REMARK SMILES IDX 69 78 61 79 62 80 68 81 70 82 63 83 64 84 65 85 66 86 67 87
REMARK SMILES IDX 43 88 44 89 53 90 45 91 46 92 52 93 54 94 47 95 48 96 49 97
REMARK SMILES IDX 50 98 51 99
REMARK H PARENT 6 8 13 30 75 49 41 60
REMARK Flexibility Score: inf
ROOT
ATOM      1  C   UNL     1      -5.058   3.416  -2.560  1.00  0.00     0.002 C 
ENDROOT
BRANCH   1   2
ATOM      2  C   UNL     1      -3.771   4.237  -2.675  1.00  0.00     0.002 C 
BRANCH   2   3
ATOM      3  C   UNL     1      -2.844   4.217  -1.455  1.00  0.00     0.021 C 
BRANCH   3   4
ATOM      4  C   UNL     1      -2.462   2.835  -0.934  1.00  0.00     0.116 C 
BRANCH   4   5
ATOM      5  N   UNL     1      -1.757   2.029  -1.911  1.00  0.00    -0.356 N 
ATOM      6  C   UNL     1      -0.792   1.081  -1.708  1.00  0.00     0.225 C 
ATOM      7  O   UNL     1      -0.358   0.486  -2.694  1.00  0.00    -0.275 OA
ATOM      8  H   UNL     1      -2.007   2.185  -2.850  1.00  0.00     0.163 HD
BRANCH   6   9
ATOM      9  C   UNL     1      -0.238   0.880  -0.302  1.00  0.00     0.102 C 
ATOM     10  C   UNL     1       1.891   0.222   0.823  1.00  0.00     0.032 C 
ATOM     11  C   UNL     1       0.881  -0.188  -0.258  1.00  0.00     0.096 C 
ATOM     12  N   UNL     1       0.172  -1.442   0.065  1.00  0.00    -0.321 N 
ATOM     13  C   UNL     1      -1.252   0.335   0.709  1.00  0.00     0.037 C 
ATOM     14  C   UNL     1      -1.175  -1.168   0.527  1.00  0.00     0.122 C 
BRANCH  12  15
ATOM     15  C   UNL     1       0.416  -2.714  -0.432  1.00  0.00     0.320 C 
ATOM     16  O   UNL     1      -0.421  -3.614  -0.364  1.00  0.00    -0.248 OA
BRANCH  15  17
ATOM     17  N   UNL     1       1.591  -2.879  -1.120  1.00  0.00    -0.321 N 
ATOM     18  C   UNL     1       2.876  -2.854  -0.437  1.00  0.00     0.121 C 
ATOM     19  C   UNL     1       1.636  -3.591  -2.381  1.00  0.00     0.090 C 
ATOM     20  C   UNL     1       3.933  -2.157  -1.299  1.00  0.00     0.022 C 
ATOM     21  C   UNL     1       2.565  -2.802  -3.307  1.00  0.00     0.012 C 
ATOM     22  C   UNL     1       0.380  -3.712  -3.238  1.00  0.00     0.025 C 
ATOM     23  C   UNL     1       3.977  -2.730  -2.728  1.00  0.00     0.007 C 
ATOM     24  C   UNL     1       2.395  -3.504  -4.643  1.00  0.00     0.006 C 
ATOM     25  C   UNL     1       0.920  -3.932  -4.659  1.00  0.00     0.002 C 
ENDBRANCH  15  17
ENDBRANCH  12  15
ENDBRANCH   6   9
ENDBRANCH   4   5
ENDBRANCH   3   4
ENDBRANCH   2   3
ENDBRANCH   1   2
BRANCH   1  26
ATOM     26  C   UNL     1      -5.947   3.714  -1.350  1.00  0.00     0.021 C 
BRANCH  26  27
ATOM     27  C   UNL     1      -6.333   5.176  -1.149  1.00  0.00     0.116 C 
BRANCH  27  28
ATOM     28  N   UNL     1      -7.045   5.736  -2.282  1.00  0.00    -0.352 N 
ATOM     29  C   UNL     1      -8.191   6.492  -2.315  1.00  0.00     0.251 C 
ATOM     30  H   UNL     1      -6.647   5.545  -3.162  1.00  0.00     0.163 HD
ATOM     31  O   UNL     1      -8.700   6.766  -3.398  1.00  0.00    -0.269 OA
BRANCH  29  32
ATOM     32  C   UNL     1      -8.832   6.956  -1.061  1.00  0.00     0.039 A 
ATOM     33  C   UNL     1     -10.226   6.901  -0.967  1.00  0.00     0.014 A 
ATOM     34  C   UNL     1      -8.086   7.473   0.003  1.00  0.00     0.014 A 
ATOM     35  C   UNL     1     -10.865   7.315   0.205  1.00  0.00     0.010 A 
ATOM     36  C   UNL     1      -8.719   7.823   1.196  1.00  0.00     0.010 A 
ATOM     37  C   UNL     1     -10.116   7.755   1.308  1.00  0.00    -0.014 A 
BRANCH  37  38
ATOM     38  C   UNL     1     -10.786   8.154   2.574  1.00  0.00     0.031 A 
ATOM     39  C   UNL     1     -10.723   9.579   3.054  1.00  0.00     0.074 A 
ATOM     40  C   UNL     1     -11.422   7.223   3.313  1.00  0.00     0.049 A 
ATOM     41  N   UNL     1     -11.224  10.107   4.141  1.00  0.00    -0.248 NA
ATOM     42  C   UNL     1      -9.979  10.532   2.215  1.00  0.00     0.031 C 
ATOM     43  C   UNL     1     -11.514   5.799   2.982  1.00  0.00     0.029 A 
ATOM     44  N   UNL     1     -12.110   7.332   4.496  1.00  0.00    -0.354 N 
ATOM     45  C   UNL     1     -10.851  11.447   4.122  1.00  0.00     0.074 A 
ATOM     46  C   UNL     1     -10.036  11.638   2.942  1.00  0.00     0.031 C 
ATOM     47  C   UNL     1     -12.237   5.173   3.925  1.00  0.00     0.029 A 
ATOM     48  C   UNL     1     -12.635   6.142   4.942  1.00  0.00     0.049 A 
ATOM     49  H   UNL     1     -12.217   8.183   4.979  1.00  0.00     0.167 HD
ATOM     50  C   UNL     1     -11.177  12.432   4.993  1.00  0.00     0.037 A 
ATOM     51  C   UNL     1     -13.355   5.861   6.046  1.00  0.00     0.037 A 
ATOM     52  C   UNL     1     -12.011  12.243   6.152  1.00  0.00     0.049 A 
ATOM     53  C   UNL     1     -13.710   6.973   6.995  1.00  0.00     0.074 A 
ATOM     54  C   UNL     1     -12.448  13.191   7.061  1.00  0.00     0.029 A 
ATOM     55  N   UNL     1     -12.536  11.026   6.561  1.00  0.00    -0.354 N 
ATOM     56  N   UNL     1     -13.402   8.246   6.924  1.00  0.00    -0.248 NA
ATOM     57  C   UNL     1     -14.518   6.613   8.169  1.00  0.00     0.031 C 
ATOM     58  C   UNL     1     -13.204  12.541   8.043  1.00  0.00     0.029 A 
ATOM     59  C   UNL     1     -13.275  11.195   7.721  1.00  0.00     0.049 A 
ATOM     60  H   UNL     1     -12.402  10.169   6.097  1.00  0.00     0.167 HD
ATOM     61  C   UNL     1     -13.996   8.842   8.032  1.00  0.00     0.074 A 
ATOM     62  C   UNL     1     -14.694   7.793   8.747  1.00  0.00     0.031 C 
ATOM     63  C   UNL     1     -13.966  10.141   8.421  1.00  0.00     0.037 A 
BRANCH  50  64
ATOM     64  C   UNL     1     -10.637  13.809   4.720  1.00  0.00     0.058 A 
ATOM     65  C   UNL     1     -11.112  14.588   3.653  1.00  0.00     0.135 A 
ATOM     66  C   UNL     1      -9.657  14.372   5.555  1.00  0.00     0.135 A 
ATOM     67  F   UNL     1     -12.037  14.094   2.815  1.00  0.00    -0.206 F 
ATOM     68  C   UNL     1     -10.614  15.862   3.403  1.00  0.00     0.059 A 
ATOM     69  C   UNL     1      -9.164  15.656   5.340  1.00  0.00     0.059 A 
ATOM     70  F   UNL     1      -9.168  13.673   6.591  1.00  0.00    -0.206 F 
ATOM     71  C   UNL     1      -9.638  16.387   4.251  1.00  0.00     0.060 A 
BRANCH  71  72
ATOM     72  S   UNL     1      -9.001  18.043   3.913  1.00  0.00     0.124 S 
ATOM     73  O   UNL     1      -8.153  17.796   2.751  1.00  0.00    -0.237 OA
ATOM     74  O   UNL     1     -10.221  18.802   3.657  1.00  0.00    -0.237 OA
ATOM     75  O   UNL     1      -8.295  18.393   5.142  1.00  0.00    -0.744 OA
ENDBRANCH  71  72
ENDBRANCH  50  64
BRANCH  51  76
ATOM     76  C   UNL     1     -13.811   4.469   6.301  1.00  0.00     0.058 A 
ATOM     77  C   UNL     1     -15.164   4.119   6.177  1.00  0.00     0.135 A 
ATOM     78  C   UNL     1     -12.905   3.460   6.662  1.00  0.00     0.135 A 
ATOM     79  F   UNL     1     -16.069   5.051   5.840  1.00  0.00    -0.206 F 
ATOM     80  C   UNL     1     -15.606   2.823   6.418  1.00  0.00     0.059 A 
ATOM     81  C   UNL     1     -13.319   2.151   6.885  1.00  0.00     0.059 A 
ATOM     82  F   UNL     1     -11.597   3.740   6.777  1.00  0.00    -0.206 F 
ATOM     83  C   UNL     1     -14.675   1.845   6.771  1.00  0.00     0.060 A 
BRANCH  83  84
ATOM     84  S   UNL     1     -15.252   0.154   7.037  1.00  0.00     0.124 S 
ATOM     85  O   UNL     1     -15.901   0.267   8.338  1.00  0.00    -0.237 OA
ATOM     86  O   UNL     1     -16.138  -0.052   5.896  1.00  0.00    -0.237 OA
ATOM     87  O   UNL     1     -14.019  -0.627   7.011  1.00  0.00    -0.744 OA
ENDBRANCH  83  84
ENDBRANCH  51  76
BRANCH  63  88
ATOM     88  C   UNL     1     -14.726  10.506   9.666  1.00  0.00     0.058 A 
ATOM     89  C   UNL     1     -14.264  10.149  10.942  1.00  0.00     0.135 A 
ATOM     90  C   UNL     1     -15.909  11.259   9.583  1.00  0.00     0.135 A 
ATOM     91  F   UNL     1     -13.142   9.423  11.075  1.00  0.00    -0.206 F 
ATOM     92  C   UNL     1     -14.960  10.504  12.092  1.00  0.00     0.059 A 
ATOM     93  C   UNL     1     -16.608  11.648  10.721  1.00  0.00     0.059 A 
ATOM     94  F   UNL     1     -16.389  11.635   8.387  1.00  0.00    -0.206 F 
ATOM     95  C   UNL     1     -16.132  11.254  11.972  1.00  0.00     0.060 A 
BRANCH  95  96
ATOM     96  S   UNL     1     -17.012  11.735  13.473  1.00  0.00     0.124 S 
ATOM     97  O   UNL     1     -17.650  10.479  13.854  1.00  0.00    -0.237 OA
ATOM     98  O   UNL     1     -15.928  12.184  14.342  1.00  0.00    -0.237 OA
ATOM     99  O   UNL     1     -17.916  12.786  13.015  1.00  0.00    -0.744 OA
ENDBRANCH  95  96
ENDBRANCH  63  88
ENDBRANCH  37  38
ENDBRANCH  29  32
ENDBRANCH  27  28
ENDBRANCH  26  27
ENDBRANCH   1  26
TORSDOF 18
