REMARK SMILES O=C(NCCCCCCNC(=O)c1ccc(-c2c3nc(c(-c4c(F)cc(S(=O)(=O)[O-])cc4F)c4ccc([nH]4)c(-c4c(F)cc(S(=O)(=O)[O-])cc4F)c4nc(c(-c5c(F)cc(S(=O)(=O)[O-])cc5F)c5ccc2[nH]5)C=C4)C=C3)cc1)C1=NN(c2ccc(S(=O)(=O)[O-])cc2)C(=O)/C1=C/Nc1ccccc1
REMARK SMILES IDX 7 1 6 2 5 3 4 4 3 5 1 6 2 7 79 9 80 10 94 11 81 12 92 13
REMARK SMILES IDX 95 14 93 15 82 16 83 17 91 18 84 19 90 20 85 21 86 22 87 23
REMARK SMILES IDX 88 24 89 25 96 26 97 28 98 29 102 30 99 31 101 32 100 33
REMARK SMILES IDX 8 34 9 35 10 36 11 37 12 39 13 40 14 41 78 42 15 43 77 44
REMARK SMILES IDX 16 45 17 46 18 47 71 48 19 49 76 50 70 51 72 52 20 53 75 54
REMARK SMILES IDX 69 55 68 56 21 58 55 59 34 60 54 61 35 62 38 63 53 64 73 65
REMARK SMILES IDX 36 66 37 67 52 69 74 70 39 71 22 72 23 73 32 74 24 75 25 76
REMARK SMILES IDX 31 77 33 78 26 79 27 80 28 81 29 82 30 83 56 84 57 85 66 86
REMARK SMILES IDX 58 87 59 88 65 89 67 90 60 91 61 92 62 93 63 94 64 95 40 96
REMARK SMILES IDX 41 97 50 98 42 99 43 100 49 101 51 102 44 103 45 104 46 105
REMARK SMILES IDX 47 106 48 107
REMARK H PARENT 3 8 96 27 10 38 72 57 38 68
REMARK Flexibility Score: inf
ROOT
ATOM      1  C   UNL     1       4.766   2.600   3.236  1.00  0.00     0.002 C 
ENDROOT
BRANCH   1   2
ATOM      2  C   UNL     1       4.285   3.210   1.916  1.00  0.00     0.002 C 
BRANCH   2   3
ATOM      3  C   UNL     1       4.795   2.545   0.632  1.00  0.00     0.021 C 
BRANCH   3   4
ATOM      4  C   UNL     1       4.498   1.054   0.496  1.00  0.00     0.116 C 
BRANCH   4   5
ATOM      5  N   UNL     1       3.076   0.769   0.452  1.00  0.00    -0.351 N 
ATOM      6  O   UNL     1       1.250  -0.459  -0.098  1.00  0.00    -0.267 OA
ATOM      7  C   UNL     1       2.436  -0.207  -0.270  1.00  0.00     0.272 C 
ATOM      8  H   UNL     1       2.501   1.345   1.006  1.00  0.00     0.163 HD
BRANCH   7   9
ATOM      9  C   UNL     1       3.212  -1.047  -1.233  1.00  0.00     0.163 C 
ATOM     10  N   UNL     1       3.082  -0.978  -2.534  1.00  0.00    -0.158 NA
ATOM     11  C   UNL     1       4.171  -2.067  -0.810  1.00  0.00     0.091 C 
ATOM     12  N   UNL     1       3.921  -1.977  -3.042  1.00  0.00    -0.196 N 
ATOM     13  C   UNL     1       4.687  -2.637  -2.067  1.00  0.00     0.282 C 
ATOM     14  C   UNL     1       4.534  -2.495   0.400  1.00  0.00     0.099 C 
ATOM     15  O   UNL     1       5.538  -3.504  -2.154  1.00  0.00    -0.267 OA
BRANCH  12  16
ATOM     16  C   UNL     1       3.776  -2.366  -4.396  1.00  0.00     0.069 A 
ATOM     17  C   UNL     1       3.186  -1.507  -5.336  1.00  0.00     0.030 A 
ATOM     18  C   UNL     1       4.144  -3.656  -4.808  1.00  0.00     0.030 A 
ATOM     19  C   UNL     1       2.975  -1.927  -6.656  1.00  0.00     0.021 A 
ATOM     20  C   UNL     1       3.909  -4.095  -6.113  1.00  0.00     0.021 A 
ATOM     21  C   UNL     1       3.332  -3.224  -7.033  1.00  0.00     0.054 A 
BRANCH  21  22
ATOM     22  S   UNL     1       2.989  -3.774  -8.680  1.00  0.00     0.124 S 
ATOM     23  O   UNL     1       1.604  -3.478  -8.971  1.00  0.00    -0.237 OA
ATOM     24  O   UNL     1       4.064  -3.319  -9.533  1.00  0.00    -0.237 OA
ATOM     25  O   UNL     1       3.127  -5.382  -8.641  1.00  0.00    -0.744 OA
ENDBRANCH  21  22
ENDBRANCH  12  16
BRANCH  14  26
ATOM     26  N   UNL     1       3.995  -2.188   1.623  1.00  0.00    -0.361 N 
ATOM     27  H   UNL     1       3.107  -1.763   1.618  1.00  0.00     0.166 HD
BRANCH  26  28
ATOM     28  C   UNL     1       4.576  -2.416   2.879  1.00  0.00     0.038 A 
ATOM     29  C   UNL     1       3.747  -2.740   3.961  1.00  0.00     0.026 A 
ATOM     30  C   UNL     1       5.961  -2.392   3.083  1.00  0.00     0.026 A 
ATOM     31  C   UNL     1       4.285  -3.006   5.221  1.00  0.00     0.002 A 
ATOM     32  C   UNL     1       6.500  -2.636   4.348  1.00  0.00     0.002 A 
ATOM     33  C   UNL     1       5.662  -2.944   5.417  1.00  0.00     0.000 A 
ENDBRANCH  26  28
ENDBRANCH  14  26
ENDBRANCH   7   9
ENDBRANCH   4   5
ENDBRANCH   3   4
ENDBRANCH   2   3
ENDBRANCH   1   2
BRANCH   1  34
ATOM     34  C   UNL     1       6.281   2.462   3.402  1.00  0.00     0.021 C 
BRANCH  34  35
ATOM     35  C   UNL     1       7.096   3.733   3.181  1.00  0.00     0.116 C 
BRANCH  35  36
ATOM     36  N   UNL     1       6.757   4.799   4.108  1.00  0.00    -0.352 N 
ATOM     37  C   UNL     1       7.587   5.626   4.828  1.00  0.00     0.251 C 
ATOM     38  H   UNL     1       5.794   4.951   4.240  1.00  0.00     0.163 HD
ATOM     39  O   UNL     1       7.107   6.397   5.654  1.00  0.00    -0.269 OA
BRANCH  37  40
ATOM     40  C   UNL     1       9.055   5.567   4.636  1.00  0.00     0.039 A 
ATOM     41  C   UNL     1       9.879   5.559   5.766  1.00  0.00     0.014 A 
ATOM     42  C   UNL     1       9.623   5.531   3.360  1.00  0.00     0.014 A 
ATOM     43  C   UNL     1      11.264   5.446   5.618  1.00  0.00     0.010 A 
ATOM     44  C   UNL     1      10.999   5.356   3.215  1.00  0.00     0.010 A 
ATOM     45  C   UNL     1      11.835   5.309   4.342  1.00  0.00    -0.014 A 
BRANCH  45  46
ATOM     46  C   UNL     1      13.297   5.103   4.169  1.00  0.00     0.031 A 
ATOM     47  C   UNL     1      14.133   6.141   3.469  1.00  0.00     0.074 A 
ATOM     48  C   UNL     1      13.861   3.950   4.582  1.00  0.00     0.049 A 
ATOM     49  N   UNL     1      15.404   6.106   3.160  1.00  0.00    -0.248 NA
ATOM     50  C   UNL     1      13.446   7.369   3.039  1.00  0.00     0.031 C 
ATOM     51  C   UNL     1      13.152   2.847   5.235  1.00  0.00     0.029 A 
ATOM     52  N   UNL     1      15.159   3.508   4.505  1.00  0.00    -0.354 N 
ATOM     53  C   UNL     1      15.664   7.290   2.481  1.00  0.00     0.074 A 
ATOM     54  C   UNL     1      14.410   8.007   2.391  1.00  0.00     0.031 C 
ATOM     55  C   UNL     1      14.026   1.867   5.516  1.00  0.00     0.029 A 
ATOM     56  C   UNL     1      15.348   2.252   5.033  1.00  0.00     0.049 A 
ATOM     57  H   UNL     1      15.886   4.041   4.109  1.00  0.00     0.167 HD
ATOM     58  C   UNL     1      16.842   7.746   1.992  1.00  0.00     0.037 A 
ATOM     59  C   UNL     1      16.459   1.494   5.114  1.00  0.00     0.037 A 
ATOM     60  C   UNL     1      18.096   7.049   2.120  1.00  0.00     0.049 A 
ATOM     61  C   UNL     1      17.758   2.029   4.572  1.00  0.00     0.074 A 
ATOM     62  C   UNL     1      19.356   7.468   1.730  1.00  0.00     0.029 A 
ATOM     63  N   UNL     1      18.250   5.790   2.680  1.00  0.00    -0.354 N 
ATOM     64  N   UNL     1      17.996   3.182   3.995  1.00  0.00    -0.248 NA
ATOM     65  C   UNL     1      18.938   1.162   4.697  1.00  0.00     0.031 C 
ATOM     66  C   UNL     1      20.267   6.446   2.018  1.00  0.00     0.029 A 
ATOM     67  C   UNL     1      19.580   5.408   2.627  1.00  0.00     0.049 A 
ATOM     68  H   UNL     1      17.521   5.248   3.061  1.00  0.00     0.167 HD
ATOM     69  C   UNL     1      19.358   3.191   3.714  1.00  0.00     0.074 A 
ATOM     70  C   UNL     1      19.892   1.932   4.192  1.00  0.00     0.031 C 
ATOM     71  C   UNL     1      20.100   4.156   3.117  1.00  0.00     0.037 A 
BRANCH  58  72
ATOM     72  C   UNL     1      16.838   9.067   1.274  1.00  0.00     0.058 A 
ATOM     73  C   UNL     1      16.681  10.280   1.962  1.00  0.00     0.135 A 
ATOM     74  C   UNL     1      17.045   9.123  -0.114  1.00  0.00     0.135 A 
ATOM     75  F   UNL     1      16.467  10.283   3.287  1.00  0.00    -0.206 F 
ATOM     76  C   UNL     1      16.704  11.502   1.297  1.00  0.00     0.059 A 
ATOM     77  C   UNL     1      17.096  10.335  -0.797  1.00  0.00     0.059 A 
ATOM     78  F   UNL     1      17.201   7.992  -0.821  1.00  0.00    -0.206 F 
ATOM     79  C   UNL     1      16.911  11.519  -0.084  1.00  0.00     0.060 A 
BRANCH  79  80
ATOM     80  S   UNL     1      16.949  13.112  -0.932  1.00  0.00     0.124 S 
ATOM     81  O   UNL     1      15.534  13.467  -0.946  1.00  0.00    -0.237 OA
ATOM     82  O   UNL     1      17.795  13.915  -0.053  1.00  0.00    -0.237 OA
ATOM     83  O   UNL     1      17.529  12.791  -2.232  1.00  0.00    -0.744 OA
ENDBRANCH  79  80
ENDBRANCH  58  72
BRANCH  59  84
ATOM     84  C   UNL     1      16.403   0.153   5.753  1.00  0.00     0.058 A 
ATOM     85  C   UNL     1      17.003  -0.072   7.002  1.00  0.00     0.135 A 
ATOM     86  C   UNL     1      15.756  -0.926   5.134  1.00  0.00     0.135 A 
ATOM     87  F   UNL     1      17.639   0.929   7.629  1.00  0.00    -0.206 F 
ATOM     88  C   UNL     1      16.981  -1.324   7.605  1.00  0.00     0.059 A 
ATOM     89  C   UNL     1      15.701  -2.183   5.728  1.00  0.00     0.059 A 
ATOM     90  F   UNL     1      15.153  -0.758   3.947  1.00  0.00    -0.206 F 
ATOM     91  C   UNL     1      16.328  -2.375   6.960  1.00  0.00     0.060 A 
BRANCH  91  92
ATOM     92  S   UNL     1      16.269  -3.989   7.768  1.00  0.00     0.124 S 
ATOM     93  O   UNL     1      17.624  -4.479   7.542  1.00  0.00    -0.237 OA
ATOM     94  O   UNL     1      15.940  -3.632   9.145  1.00  0.00    -0.237 OA
ATOM     95  O   UNL     1      15.213  -4.688   7.041  1.00  0.00    -0.744 OA
ENDBRANCH  91  92
ENDBRANCH  59  84
BRANCH  71  96
ATOM     96  C   UNL     1      21.576   3.909   2.980  1.00  0.00     0.058 A 
ATOM     97  C   UNL     1      22.087   3.010   2.032  1.00  0.00     0.135 A 
ATOM     98  C   UNL     1      22.491   4.619   3.773  1.00  0.00     0.135 A 
ATOM     99  F   UNL     1      21.253   2.301   1.255  1.00  0.00    -0.206 F 
ATOM    100  C   UNL     1      23.456   2.807   1.889  1.00  0.00     0.059 A 
ATOM    101  C   UNL     1      23.864   4.451   3.631  1.00  0.00     0.059 A 
ATOM    102  F   UNL     1      22.053   5.498   4.689  1.00  0.00    -0.206 F 
ATOM    103  C   UNL     1      24.337   3.534   2.693  1.00  0.00     0.060 A 
BRANCH 103 104
ATOM    104  S   UNL     1      26.113   3.290   2.474  1.00  0.00     0.124 S 
ATOM    105  O   UNL     1      26.317   2.009   3.142  1.00  0.00    -0.237 OA
ATOM    106  O   UNL     1      26.252   3.277   1.021  1.00  0.00    -0.237 OA
ATOM    107  O   UNL     1      26.698   4.448   3.143  1.00  0.00    -0.744 OA
ENDBRANCH 103 104
ENDBRANCH  71  96
ENDBRANCH  45  46
ENDBRANCH  37  40
ENDBRANCH  35  36
ENDBRANCH  34  35
ENDBRANCH   1  34
TORSDOF 20
