REMARK SMILES C[C@@H]([C@H]1CC=CS1)n1nccc1NC(=O)CC1(CC(=O)NCCCCCCNC(=O)c2ccc(-c3c4nc(c(-c5c(F)cc(S(=O)(=O)[O-])cc5F)c5ccc([nH]5)c(-c5c(F)cc(S(=O)(=O)[O-])cc5F)c5nc(c(-c6c(F)cc(S(=O)(=O)[O-])cc6F)c6ccc3[nH]6)C=C5)C=C4)cc2)CCCCC1
REMARK SMILES IDX 23 1 22 2 21 3 19 4 20 5 18 7 17 8 97 9 101 10 98 11 100 12
REMARK SMILES IDX 99 13 16 14 14 15 13 16 15 18 12 19 8 20 9 21 10 22 11 23
REMARK SMILES IDX 2 24 1 25 3 26 4 27 7 28 5 29 6 30 24 31 25 32 26 33 27 34
REMARK SMILES IDX 28 35 29 36 30 38 31 39 32 40 96 41 33 42 95 43 34 44 35 45
REMARK SMILES IDX 36 46 89 47 37 48 94 49 88 50 90 51 38 52 93 53 87 54 86 55
REMARK SMILES IDX 39 57 73 58 52 59 72 60 53 61 56 62 71 63 91 64 54 65 55 66
REMARK SMILES IDX 70 68 92 69 57 70 40 71 41 72 50 73 42 74 43 75 49 76 51 77
REMARK SMILES IDX 44 78 45 79 46 80 47 81 48 82 74 83 75 84 84 85 76 86 77 87
REMARK SMILES IDX 83 88 85 89 78 90 79 91 80 92 81 93 82 94 58 95 59 96 68 97
REMARK SMILES IDX 60 98 61 99 67 100 69 101 62 102 63 103 64 104 65 105 66 106
REMARK H PARENT 21 6 13 17 28 37 90 56 56 67
REMARK Flexibility Score: inf
ROOT
ATOM      1  C   UNL     1       4.837  -5.680   9.197  1.00  0.00     0.021 C 
ENDROOT
BRANCH   1   2
ATOM      2  C   UNL     1       3.310  -5.681   9.137  1.00  0.00     0.116 C 
BRANCH   2   3
ATOM      3  N   UNL     1       2.788  -4.344   8.997  1.00  0.00    -0.356 N 
ATOM      4  C   UNL     1       2.091  -3.797   7.971  1.00  0.00     0.220 C 
ATOM      5  O   UNL     1       1.655  -2.654   8.109  1.00  0.00    -0.275 OA
ATOM      6  H   UNL     1       2.963  -3.742   9.756  1.00  0.00     0.163 HD
BRANCH   4   7
ATOM      7  C   UNL     1       1.822  -4.576   6.692  1.00  0.00     0.107 C 
BRANCH   7   8
ATOM      8  C   UNL     1       2.932  -4.651   5.598  1.00  0.00    -0.012 C 
ATOM      9  C   UNL     1       2.236  -5.036   4.263  1.00  0.00     0.008 C 
ATOM     10  C   UNL     1       3.994  -5.765   5.825  1.00  0.00     0.008 C 
ATOM     11  C   UNL     1       1.682  -6.462   4.194  1.00  0.00     0.001 C 
ATOM     12  C   UNL     1       3.460  -7.197   5.794  1.00  0.00     0.001 C 
ATOM     13  C   UNL     1       2.773  -7.490   4.471  1.00  0.00     0.000 C 
BRANCH   8  14
ATOM     14  C   UNL     1       3.746  -3.315   5.506  1.00  0.00     0.108 C 
BRANCH  14  15
ATOM     15  C   UNL     1       3.039  -2.047   5.074  1.00  0.00     0.226 C 
ATOM     16  N   UNL     1       2.676  -1.785   3.717  1.00  0.00    -0.311 N 
ATOM     17  H   UNL     1       2.091  -1.008   3.563  1.00  0.00     0.171 HD
ATOM     18  O   UNL     1       2.680  -1.177   5.841  1.00  0.00    -0.275 OA
BRANCH  16  19
ATOM     19  C   UNL     1       3.052  -2.496   2.599  1.00  0.00     0.131 A 
ATOM     20  N   UNL     1       2.297  -2.747   1.468  1.00  0.00    -0.246 N 
ATOM     21  N   UNL     1       2.762  -3.835   0.820  1.00  0.00    -0.179 NA
ATOM     22  C   UNL     1       4.009  -3.969   1.268  1.00  0.00     0.137 A 
ATOM     23  C   UNL     1       4.262  -3.111   2.352  1.00  0.00     0.068 A 
BRANCH  20  24
ATOM     24  C   UNL     1       1.087  -2.075   0.988  1.00  0.00     0.120 C 
ATOM     25  C   UNL     1       1.169  -0.549   1.181  1.00  0.00     0.034 C 
BRANCH  24  26
ATOM     26  C   UNL     1       0.729  -2.346  -0.501  1.00  0.00     0.079 C 
ATOM     27  C   UNL     1       1.882  -2.253  -1.522  1.00  0.00     0.045 C 
ATOM     28  S   UNL     1      -0.126  -3.954  -0.793  1.00  0.00    -0.128 SA
ATOM     29  C   UNL     1       1.687  -3.341  -2.532  1.00  0.00    -0.019 C 
ATOM     30  C   UNL     1       0.726  -4.231  -2.271  1.00  0.00     0.037 C 
ENDBRANCH  24  26
ENDBRANCH  20  24
ENDBRANCH  16  19
ENDBRANCH  14  15
ENDBRANCH   8  14
ENDBRANCH   7   8
ENDBRANCH   4   7
ENDBRANCH   2   3
ENDBRANCH   1   2
BRANCH   1  31
ATOM     31  C   UNL     1       5.396  -5.748  10.613  1.00  0.00     0.002 C 
BRANCH  31  32
ATOM     32  C   UNL     1       4.952  -6.978  11.415  1.00  0.00     0.002 C 
BRANCH  32  33
ATOM     33  C   UNL     1       5.180  -8.340  10.740  1.00  0.00     0.021 C 
BRANCH  33  34
ATOM     34  C   UNL     1       6.651  -8.670  10.530  1.00  0.00     0.116 C 
BRANCH  34  35
ATOM     35  N   UNL     1       7.362  -8.718  11.803  1.00  0.00    -0.352 N 
ATOM     36  C   UNL     1       8.694  -8.938  12.058  1.00  0.00     0.251 C 
ATOM     37  H   UNL     1       6.803  -8.571  12.599  1.00  0.00     0.163 HD
ATOM     38  O   UNL     1       9.053  -9.271  13.182  1.00  0.00    -0.269 OA
BRANCH  36  39
ATOM     39  C   UNL     1       9.681  -8.774  10.979  1.00  0.00     0.039 A 
ATOM     40  C   UNL     1      10.773  -9.645  10.892  1.00  0.00     0.014 A 
ATOM     41  C   UNL     1       9.527  -7.731  10.066  1.00  0.00     0.014 A 
ATOM     42  C   UNL     1      11.671  -9.499   9.841  1.00  0.00     0.010 A 
ATOM     43  C   UNL     1      10.346  -7.658   8.966  1.00  0.00     0.010 A 
ATOM     44  C   UNL     1      11.441  -8.511   8.873  1.00  0.00    -0.014 A 
BRANCH  44  45
ATOM     45  C   UNL     1      12.244  -8.474   7.655  1.00  0.00     0.031 A 
ATOM     46  C   UNL     1      12.154  -9.727   6.860  1.00  0.00     0.074 A 
ATOM     47  C   UNL     1      12.780  -7.333   7.168  1.00  0.00     0.049 A 
ATOM     48  N   UNL     1      13.070 -10.621   6.679  1.00  0.00    -0.248 NA
ATOM     49  C   UNL     1      10.825 -10.140   6.371  1.00  0.00     0.031 C 
ATOM     50  C   UNL     1      12.633  -5.981   7.717  1.00  0.00     0.029 A 
ATOM     51  N   UNL     1      13.460  -7.110   6.009  1.00  0.00    -0.354 N 
ATOM     52  C   UNL     1      12.511 -11.544   5.800  1.00  0.00     0.074 A 
ATOM     53  C   UNL     1      11.089 -11.354   5.884  1.00  0.00     0.031 C 
ATOM     54  C   UNL     1      12.984  -5.073   6.781  1.00  0.00     0.029 A 
ATOM     55  C   UNL     1      13.520  -5.771   5.626  1.00  0.00     0.049 A 
ATOM     56  H   UNL     1      13.874  -7.834   5.486  1.00  0.00     0.167 HD
ATOM     57  C   UNL     1      13.273 -12.120   4.826  1.00  0.00     0.037 A 
ATOM     58  C   UNL     1      13.934  -5.276   4.430  1.00  0.00     0.037 A 
ATOM     59  C   UNL     1      14.680 -11.960   5.124  1.00  0.00     0.049 A 
ATOM     60  C   UNL     1      14.755  -6.335   3.787  1.00  0.00     0.074 A 
ATOM     61  C   UNL     1      15.497 -12.253   6.199  1.00  0.00     0.029 A 
ATOM     62  N   UNL     1      15.380 -11.056   4.361  1.00  0.00    -0.354 N 
ATOM     63  N   UNL     1      15.903  -6.745   4.252  1.00  0.00    -0.248 NA
ATOM     64  C   UNL     1      14.091  -7.254   2.876  1.00  0.00     0.031 C 
ATOM     65  C   UNL     1      16.426 -11.172   6.269  1.00  0.00     0.029 A 
ATOM     66  C   UNL     1      16.182 -10.321   5.190  1.00  0.00     0.049 A 
ATOM     67  H   UNL     1      15.315 -10.954   3.384  1.00  0.00     0.167 HD
ATOM     68  C   UNL     1      15.887  -8.120   4.067  1.00  0.00     0.074 A 
ATOM     69  C   UNL     1      14.804  -8.358   3.116  1.00  0.00     0.031 C 
ATOM     70  C   UNL     1      16.551  -8.947   4.929  1.00  0.00     0.037 A 
BRANCH  57  71
ATOM     71  C   UNL     1      12.789 -12.381   3.404  1.00  0.00     0.058 A 
ATOM     72  C   UNL     1      13.685 -12.982   2.492  1.00  0.00     0.135 A 
ATOM     73  C   UNL     1      11.646 -11.792   2.816  1.00  0.00     0.135 A 
ATOM     74  F   UNL     1      14.794 -13.600   2.931  1.00  0.00    -0.206 F 
ATOM     75  C   UNL     1      13.533 -12.879   1.109  1.00  0.00     0.059 A 
ATOM     76  C   UNL     1      11.449 -11.725   1.442  1.00  0.00     0.059 A 
ATOM     77  F   UNL     1      10.696 -11.169   3.519  1.00  0.00    -0.206 F 
ATOM     78  C   UNL     1      12.421 -12.222   0.595  1.00  0.00     0.060 A 
BRANCH  78  79
ATOM     79  S   UNL     1      12.273 -11.972  -1.180  1.00  0.00     0.124 S 
ATOM     80  O   UNL     1      13.340 -11.008  -1.421  1.00  0.00    -0.237 OA
ATOM     81  O   UNL     1      12.492 -13.320  -1.691  1.00  0.00    -0.237 OA
ATOM     82  O   UNL     1      10.913 -11.461  -1.330  1.00  0.00    -0.744 OA
ENDBRANCH  78  79
ENDBRANCH  57  71
BRANCH  58  83
ATOM     83  C   UNL     1      13.419  -4.094   3.680  1.00  0.00     0.058 A 
ATOM     84  C   UNL     1      14.074  -3.616   2.528  1.00  0.00     0.135 A 
ATOM     85  C   UNL     1      12.126  -3.581   3.905  1.00  0.00     0.135 A 
ATOM     86  F   UNL     1      15.306  -4.054   2.223  1.00  0.00    -0.206 F 
ATOM     87  C   UNL     1      13.460  -2.740   1.621  1.00  0.00     0.059 A 
ATOM     88  C   UNL     1      11.502  -2.696   3.027  1.00  0.00     0.059 A 
ATOM     89  F   UNL     1      11.378  -4.000   4.937  1.00  0.00    -0.206 F 
ATOM     90  C   UNL     1      12.159  -2.304   1.869  1.00  0.00     0.060 A 
BRANCH  90  91
ATOM     91  S   UNL     1      11.269  -1.341   0.621  1.00  0.00     0.124 S 
ATOM     92  O   UNL     1      11.941  -0.050   0.696  1.00  0.00    -0.237 OA
ATOM     93  O   UNL     1      11.498  -2.116  -0.593  1.00  0.00    -0.237 OA
ATOM     94  O   UNL     1       9.889  -1.354   1.106  1.00  0.00    -0.744 OA
ENDBRANCH  90  91
ENDBRANCH  58  83
BRANCH  70  95
ATOM     95  C   UNL     1      17.615  -8.351   5.812  1.00  0.00     0.058 A 
ATOM     96  C   UNL     1      17.398  -7.377   6.802  1.00  0.00     0.135 A 
ATOM     97  C   UNL     1      18.907  -8.893   5.719  1.00  0.00     0.135 A 
ATOM     98  F   UNL     1      16.173  -6.883   7.031  1.00  0.00    -0.206 F 
ATOM     99  C   UNL     1      18.433  -6.924   7.623  1.00  0.00     0.059 A 
ATOM    100  C   UNL     1      19.943  -8.483   6.549  1.00  0.00     0.059 A 
ATOM    101  F   UNL     1      19.163  -9.871   4.834  1.00  0.00    -0.206 F 
ATOM    102  C   UNL     1      19.704  -7.483   7.487  1.00  0.00     0.060 A 
BRANCH 102 103
ATOM    103  S   UNL     1      21.032  -6.931   8.577  1.00  0.00     0.124 S 
ATOM    104  O   UNL     1      21.283  -5.578   8.092  1.00  0.00    -0.237 OA
ATOM    105  O   UNL     1      20.418  -7.028   9.898  1.00  0.00    -0.237 OA
ATOM    106  O   UNL     1      22.103  -7.893   8.325  1.00  0.00    -0.744 OA
ENDBRANCH 102 103
ENDBRANCH  70  95
ENDBRANCH  44  45
ENDBRANCH  36  39
ENDBRANCH  34  35
ENDBRANCH  33  34
ENDBRANCH  32  33
ENDBRANCH  31  32
ENDBRANCH   1  31
TORSDOF 22
