REMARK SMILES O=C(NCCCCCCNC(=O)c1ccc(-c2c3nc(c(-c4c(F)cc(S(=O)(=O)[O-])cc4F)c4ccc([nH]4)c(-c4c(F)cc(S(=O)(=O)[O-])cc4F)c4nc(c(-c5c(F)cc(S(=O)(=O)[O-])cc5F)c5ccc2[nH]5)C=C4)C=C3)cc1)c1ccc(NC(=O)[C@@H]2CC=CC[C@H]2C(=O)Nc2cccc([N+](=O)[O-])c2)cc1
REMARK SMILES IDX 5 1 4 2 3 3 1 4 2 5 79 7 80 8 105 9 81 10 104 11 82 12 83 13
REMARK SMILES IDX 84 14 85 16 86 17 87 18 91 19 88 20 90 21 89 22 92 23 93 24
REMARK SMILES IDX 94 25 95 27 96 28 103 29 97 30 99 31 98 32 100 33 101 34
REMARK SMILES IDX 102 35 6 36 7 37 8 38 9 39 10 40 11 41 12 43 13 44 14 45
REMARK SMILES IDX 78 46 15 47 77 48 16 49 17 50 18 51 71 52 19 53 76 54 70 55
REMARK SMILES IDX 72 56 20 57 75 58 69 59 68 60 21 62 55 63 34 64 54 65 35 66
REMARK SMILES IDX 38 67 53 68 73 69 36 70 37 71 52 73 74 74 39 75 22 76 23 77
REMARK SMILES IDX 32 78 24 79 25 80 31 81 33 82 26 83 27 84 28 85 29 86 30 87
REMARK SMILES IDX 56 88 57 89 66 90 58 91 59 92 65 93 67 94 60 95 61 96 62 97
REMARK SMILES IDX 63 98 64 99 40 100 41 101 50 102 42 103 43 104 49 105 51 106
REMARK SMILES IDX 44 107 45 108 46 109 47 110 48 111
REMARK H PARENT 3 6 83 15 94 26 10 42 72 61 38 72
REMARK Flexibility Score: inf
ROOT
ATOM      1  C   UNL     1       4.779   9.484   5.427  1.00  0.00     0.021 C 
ENDROOT
BRANCH   1   2
ATOM      2  C   UNL     1       5.108   9.397   3.941  1.00  0.00     0.116 C 
BRANCH   2   3
ATOM      3  N   UNL     1       5.847  10.558   3.437  1.00  0.00    -0.352 N 
ATOM      4  O   UNL     1       7.579  11.721   2.544  1.00  0.00    -0.269 OA
ATOM      5  C   UNL     1       7.050  10.625   2.759  1.00  0.00     0.251 C 
ATOM      6  H   UNL     1       5.419  11.428   3.608  1.00  0.00     0.163 HD
BRANCH   5   7
ATOM      7  C   UNL     1       7.710   9.392   2.268  1.00  0.00     0.039 A 
ATOM      8  C   UNL     1       6.917   8.382   1.773  1.00  0.00     0.016 A 
ATOM      9  C   UNL     1       9.099   9.198   2.272  1.00  0.00     0.016 A 
ATOM     10  C   UNL     1       7.484   7.152   1.503  1.00  0.00     0.027 A 
ATOM     11  C   UNL     1       9.656   7.967   1.835  1.00  0.00     0.027 A 
ATOM     12  C   UNL     1       8.823   6.914   1.446  1.00  0.00     0.041 A 
BRANCH  12  13
ATOM     13  N   UNL     1       9.294   5.709   0.895  1.00  0.00    -0.326 N 
ATOM     14  C   UNL     1       8.700   4.587   0.353  1.00  0.00     0.228 C 
ATOM     15  H   UNL     1      10.277   5.652   0.897  1.00  0.00     0.169 HD
ATOM     16  O   UNL     1       9.476   3.912  -0.344  1.00  0.00    -0.274 OA
BRANCH  14  17
ATOM     17  C   UNL     1       7.246   4.029   0.648  1.00  0.00     0.095 C 
ATOM     18  C   UNL     1       7.369   2.480   0.486  1.00  0.00     0.041 C 
ATOM     19  C   UNL     1       5.992   4.570  -0.133  1.00  0.00     0.095 C 
ATOM     20  C   UNL     1       6.091   1.724   0.628  1.00  0.00    -0.030 C 
ATOM     21  C   UNL     1       4.873   3.548  -0.491  1.00  0.00     0.041 C 
ATOM     22  C   UNL     1       4.942   2.218   0.168  1.00  0.00    -0.030 C 
BRANCH  19  23
ATOM     23  C   UNL     1       5.132   5.786   0.309  1.00  0.00     0.228 C 
ATOM     24  O   UNL     1       4.961   6.693  -0.525  1.00  0.00    -0.274 OA
ATOM     25  N   UNL     1       4.425   5.959   1.466  1.00  0.00    -0.326 N 
ATOM     26  H   UNL     1       3.776   6.694   1.373  1.00  0.00     0.169 HD
BRANCH  25  27
ATOM     27  C   UNL     1       4.357   5.390   2.751  1.00  0.00     0.048 A 
ATOM     28  C   UNL     1       3.164   5.567   3.464  1.00  0.00     0.026 A 
ATOM     29  C   UNL     1       5.394   4.756   3.414  1.00  0.00     0.111 A 
ATOM     30  C   UNL     1       2.975   4.990   4.729  1.00  0.00     0.009 A 
ATOM     31  C   UNL     1       5.191   4.098   4.638  1.00  0.00     0.271 A 
ATOM     32  C   UNL     1       3.975   4.210   5.303  1.00  0.00     0.086 A 
BRANCH  31  33
ATOM     33  N   UNL     1       6.279   3.285   5.201  1.00  0.00     0.062 N 
ATOM     34  O   UNL     1       6.066   2.693   6.265  1.00  0.00    -0.258 OA
ATOM     35  O   UNL     1       7.346   3.239   4.569  1.00  0.00    -0.258 OA
ENDBRANCH  31  33
ENDBRANCH  25  27
ENDBRANCH  19  23
ENDBRANCH  14  17
ENDBRANCH  12  13
ENDBRANCH   5   7
ENDBRANCH   2   3
ENDBRANCH   1   2
BRANCH   1  36
ATOM     36  C   UNL     1       3.654  10.451   5.792  1.00  0.00     0.002 C 
BRANCH  36  37
ATOM     37  C   UNL     1       2.252  10.069   5.301  1.00  0.00     0.002 C 
BRANCH  37  38
ATOM     38  C   UNL     1       1.736   8.685   5.710  1.00  0.00     0.021 C 
BRANCH  38  39
ATOM     39  C   UNL     1       1.762   8.363   7.204  1.00  0.00     0.116 C 
BRANCH  39  40
ATOM     40  N   UNL     1       0.912   9.244   7.985  1.00  0.00    -0.352 N 
ATOM     41  C   UNL     1      -0.044   8.945   8.924  1.00  0.00     0.251 C 
ATOM     42  H   UNL     1       1.041  10.205   7.815  1.00  0.00     0.163 HD
ATOM     43  O   UNL     1      -0.754   9.852   9.366  1.00  0.00    -0.269 OA
BRANCH  41  44
ATOM     44  C   UNL     1      -0.256   7.555   9.392  1.00  0.00     0.039 A 
ATOM     45  C   UNL     1      -1.567   7.098   9.566  1.00  0.00     0.014 A 
ATOM     46  C   UNL     1       0.815   6.712   9.700  1.00  0.00     0.014 A 
ATOM     47  C   UNL     1      -1.803   5.785   9.986  1.00  0.00     0.010 A 
ATOM     48  C   UNL     1       0.578   5.383  10.062  1.00  0.00     0.010 A 
ATOM     49  C   UNL     1      -0.733   4.904  10.207  1.00  0.00    -0.014 A 
BRANCH  49  50
ATOM     50  C   UNL     1      -0.970   3.481  10.575  1.00  0.00     0.031 A 
ATOM     51  C   UNL     1      -0.527   2.951  11.913  1.00  0.00     0.074 A 
ATOM     52  C   UNL     1      -1.532   2.646   9.678  1.00  0.00     0.049 A 
ATOM     53  N   UNL     1      -0.596   1.731  12.382  1.00  0.00    -0.248 NA
ATOM     54  C   UNL     1       0.094   3.913  12.836  1.00  0.00     0.031 C 
ATOM     55  C   UNL     1      -1.976   3.023   8.334  1.00  0.00     0.029 A 
ATOM     56  N   UNL     1      -1.819   1.305   9.755  1.00  0.00    -0.354 N 
ATOM     57  C   UNL     1      -0.010   1.772  13.643  1.00  0.00     0.074 A 
ATOM     58  C   UNL     1       0.444   3.131  13.848  1.00  0.00     0.031 C 
ATOM     59  C   UNL     1      -2.499   1.947   7.725  1.00  0.00     0.029 A 
ATOM     60  C   UNL     1      -2.394   0.795   8.615  1.00  0.00     0.049 A 
ATOM     61  H   UNL     1      -1.630   0.759  10.553  1.00  0.00     0.167 HD
ATOM     62  C   UNL     1       0.123   0.775  14.551  1.00  0.00     0.037 A 
ATOM     63  C   UNL     1      -2.788  -0.459   8.314  1.00  0.00     0.037 A 
ATOM     64  C   UNL     1      -0.357  -0.569  14.356  1.00  0.00     0.049 A 
ATOM     65  C   UNL     1      -2.623  -1.550   9.337  1.00  0.00     0.074 A 
ATOM     66  C   UNL     1      -0.337  -1.627  15.248  1.00  0.00     0.029 A 
ATOM     67  N   UNL     1      -0.936  -1.044  13.189  1.00  0.00    -0.354 N 
ATOM     68  N   UNL     1      -2.129  -1.475  10.550  1.00  0.00    -0.248 NA
ATOM     69  C   UNL     1      -3.071  -2.896   8.951  1.00  0.00     0.031 C 
ATOM     70  C   UNL     1      -0.858  -2.755  14.604  1.00  0.00     0.029 A 
ATOM     71  C   UNL     1      -1.251  -2.387  13.328  1.00  0.00     0.049 A 
ATOM     72  H   UNL     1      -1.100  -0.507  12.380  1.00  0.00     0.167 HD
ATOM     73  C   UNL     1      -2.236  -2.755  11.083  1.00  0.00     0.074 A 
ATOM     74  C   UNL     1      -2.847  -3.583  10.063  1.00  0.00     0.031 C 
ATOM     75  C   UNL     1      -1.865  -3.202  12.308  1.00  0.00     0.037 A 
BRANCH  62  76
ATOM     76  C   UNL     1       0.826   1.097  15.843  1.00  0.00     0.058 A 
ATOM     77  C   UNL     1       0.242   1.920  16.820  1.00  0.00     0.135 A 
ATOM     78  C   UNL     1       2.087   0.545  16.123  1.00  0.00     0.135 A 
ATOM     79  F   UNL     1      -0.957   2.482  16.601  1.00  0.00    -0.206 F 
ATOM     80  C   UNL     1       0.898   2.214  18.011  1.00  0.00     0.059 A 
ATOM     81  C   UNL     1       2.750   0.803  17.320  1.00  0.00     0.059 A 
ATOM     82  F   UNL     1       2.691  -0.252  15.228  1.00  0.00    -0.206 F 
ATOM     83  C   UNL     1       2.154   1.654  18.250  1.00  0.00     0.060 A 
BRANCH  83  84
ATOM     84  S   UNL     1       2.997   2.053  19.796  1.00  0.00     0.124 S 
ATOM     85  O   UNL     1       3.417   3.430  19.549  1.00  0.00    -0.237 OA
ATOM     86  O   UNL     1       1.937   1.883  20.784  1.00  0.00    -0.237 OA
ATOM     87  O   UNL     1       4.074   1.071  19.860  1.00  0.00    -0.744 OA
ENDBRANCH  83  84
ENDBRANCH  62  76
BRANCH  63  88
ATOM     88  C   UNL     1      -3.407  -0.745   6.992  1.00  0.00     0.058 A 
ATOM     89  C   UNL     1      -4.775  -1.038   6.889  1.00  0.00     0.135 A 
ATOM     90  C   UNL     1      -2.653  -0.715   5.809  1.00  0.00     0.135 A 
ATOM     91  F   UNL     1      -5.535  -1.086   7.994  1.00  0.00    -0.206 F 
ATOM     92  C   UNL     1      -5.374  -1.302   5.662  1.00  0.00     0.059 A 
ATOM     93  C   UNL     1      -3.234  -0.952   4.567  1.00  0.00     0.059 A 
ATOM     94  F   UNL     1      -1.344  -0.422   5.852  1.00  0.00    -0.206 F 
ATOM     95  C   UNL     1      -4.595  -1.252   4.505  1.00  0.00     0.060 A 
BRANCH  95  96
ATOM     96  S   UNL     1      -5.393  -1.534   2.910  1.00  0.00     0.124 S 
ATOM     97  O   UNL     1      -5.622  -2.974   2.947  1.00  0.00    -0.237 OA
ATOM     98  O   UNL     1      -6.582  -0.694   3.011  1.00  0.00    -0.237 OA
ATOM     99  O   UNL     1      -4.393  -1.077   1.950  1.00  0.00    -0.744 OA
ENDBRANCH  95  96
ENDBRANCH  63  88
BRANCH  75 100
ATOM    100  C   UNL     1      -2.139  -4.645  12.634  1.00  0.00     0.058 A 
ATOM    101  C   UNL     1      -1.392  -5.687  12.064  1.00  0.00     0.135 A 
ATOM    102  C   UNL     1      -3.132  -4.985  13.568  1.00  0.00     0.135 A 
ATOM    103  F   UNL     1      -0.437  -5.418  11.160  1.00  0.00    -0.206 F 
ATOM    104  C   UNL     1      -1.634  -7.018  12.392  1.00  0.00     0.059 A 
ATOM    105  C   UNL     1      -3.373  -6.306  13.931  1.00  0.00     0.059 A 
ATOM    106  F   UNL     1      -3.870  -4.026  14.149  1.00  0.00    -0.206 F 
ATOM    107  C   UNL     1      -2.626  -7.317  13.328  1.00  0.00     0.060 A 
BRANCH 107 108
ATOM    108  S   UNL     1      -2.906  -9.045  13.771  1.00  0.00     0.124 S 
ATOM    109  O   UNL     1      -3.602  -9.542  12.589  1.00  0.00    -0.237 OA
ATOM    110  O   UNL     1      -1.548  -9.544  13.964  1.00  0.00    -0.237 OA
ATOM    111  O   UNL     1      -3.714  -8.958  14.984  1.00  0.00    -0.744 OA
ENDBRANCH 107 108
ENDBRANCH  75 100
ENDBRANCH  49  50
ENDBRANCH  41  44
ENDBRANCH  39  40
ENDBRANCH  38  39
ENDBRANCH  37  38
ENDBRANCH  36  37
ENDBRANCH   1  36
TORSDOF 21
