REMARK SMILES CCc1cc(S(F)(F)(F)(F)F)cc2c1O[C@@H](C(F)(F)F)C(C(=O)NCCCCCCNC(=O)c1ccc(-c3c4nc(c(-c5c(F)cc(S(=O)(=O)[O-])cc5F)c5ccc([nH]5)c(-c5c(F)cc(S(=O)(=O)[O-])cc5F)c5nc(c(-c6c(F)cc(S(=O)(=O)[O-])cc6F)c6ccc3[nH]6)C=C5)C=C4)cc1)=C2
REMARK SMILES IDX 28 1 27 2 26 3 25 4 24 5 22 6 23 7 21 9 3 10 4 11 14 12 5 13
REMARK SMILES IDX 13 14 15 15 12 16 100 17 16 18 2 19 1 20 6 21 7 22 8 23 9 24
REMARK SMILES IDX 10 25 11 26 17 27 18 28 19 29 20 30 29 31 30 32 31 33 32 34
REMARK SMILES IDX 33 36 34 37 35 38 99 39 36 40 98 41 37 42 38 43 39 44 92 45
REMARK SMILES IDX 40 46 97 47 91 48 93 49 41 50 96 51 90 52 89 53 42 55 76 56
REMARK SMILES IDX 55 57 75 58 56 59 59 60 74 61 94 62 57 63 58 64 73 66 95 67
REMARK SMILES IDX 60 68 43 69 44 70 53 71 45 72 46 73 52 74 54 75 47 76 48 77
REMARK SMILES IDX 49 78 50 79 51 80 77 81 78 82 87 83 79 84 80 85 86 86 88 87
REMARK SMILES IDX 81 88 82 89 83 90 84 91 85 92 61 93 62 94 71 95 63 96 64 97
REMARK SMILES IDX 70 98 72 99 65 100 66 101 67 102 68 103 69 104
REMARK H PARENT 24 8 31 35 93 54 59 65
REMARK Flexibility Score: inf
ROOT
ATOM      1  C   UNL     1      -0.691  11.111   2.803  1.00  0.00     0.002 C 
ENDROOT
BRANCH   1   2
ATOM      2  C   UNL     1      -1.348  10.574   1.542  1.00  0.00     0.002 C 
BRANCH   2   3
ATOM      3  C   UNL     1      -0.631   9.310   1.095  1.00  0.00     0.021 C 
BRANCH   3   4
ATOM      4  C   UNL     1      -0.715   8.265   2.196  1.00  0.00     0.116 C 
BRANCH   4   5
ATOM      5  N   UNL     1      -2.125   7.956   2.472  1.00  0.00    -0.352 N 
ATOM      6  C   UNL     1      -2.625   6.585   2.298  1.00  0.00     0.251 C 
ATOM      7  O   UNL     1      -3.845   6.318   2.537  1.00  0.00    -0.270 OA
ATOM      8  H   UNL     1      -2.735   8.668   2.773  1.00  0.00     0.163 HD
BRANCH   6   9
ATOM      9  C   UNL     1      -1.683   5.486   1.833  1.00  0.00     0.067 C 
ATOM     10  C   UNL     1       0.939   2.331   1.047  1.00  0.00    -0.004 A 
ATOM     11  C   UNL     1       2.218   2.594   0.592  1.00  0.00     0.032 A 
ATOM     12  C   UNL     1       0.116   3.388   1.348  1.00  0.00     0.131 A 
ATOM     13  C   UNL     1       2.664   3.881   0.447  1.00  0.00     0.108 A 
ATOM     14  C   UNL     1       0.524   4.701   1.196  1.00  0.00     0.019 A 
ATOM     15  O   UNL     1      -1.109   3.112   1.905  1.00  0.00    -0.475 OA
ATOM     16  C   UNL     1       1.817   4.930   0.741  1.00  0.00     0.036 A 
ATOM     17  C   UNL     1      -0.407   5.748   1.579  1.00  0.00     0.025 C 
ATOM     18  C   UNL     1      -2.184   4.059   1.647  1.00  0.00     0.314 C 
BRANCH  10  19
ATOM     19  C   UNL     1       0.432   0.907   1.210  1.00  0.00     0.036 C 
ATOM     20  C   UNL     1       0.939   0.054   0.058  1.00  0.00     0.009 C 
ENDBRANCH  10  19
BRANCH  13  21
ATOM     21  S   UNL     1       4.349   4.204  -0.128  1.00  0.00     0.310 S 
ATOM     22  F   UNL     1       4.920   4.241   1.352  1.00  0.00    -0.094 F 
ATOM     23  F   UNL     1       4.069   5.747   0.015  1.00  0.00    -0.094 F 
ATOM     24  F   UNL     1       5.795   4.484  -0.627  1.00  0.00    -0.094 F 
ATOM     25  F   UNL     1       4.658   2.655  -0.130  1.00  0.00    -0.094 F 
ATOM     26  F   UNL     1       2.924   3.904   0.485  1.00  0.00    -0.094 F 
ENDBRANCH  13  21
BRANCH  18  27
ATOM     27  C   UNL     1      -3.319   3.800   2.625  1.00  0.00     0.429 C 
ATOM     28  F   UNL     1      -4.308   4.659   2.394  1.00  0.00    -0.167 F 
ATOM     29  F   UNL     1      -3.765   2.558   2.467  1.00  0.00    -0.167 F 
ATOM     30  F   UNL     1      -2.876   3.958   3.869  1.00  0.00    -0.167 F 
ENDBRANCH  18  27
ENDBRANCH   6   9
ENDBRANCH   4   5
ENDBRANCH   3   4
ENDBRANCH   2   3
ENDBRANCH   1   2
BRANCH   1  31
ATOM     31  C   UNL     1       0.768  11.430   2.517  1.00  0.00     0.021 C 
BRANCH  31  32
ATOM     32  C   UNL     1       0.852  12.476   1.417  1.00  0.00     0.116 C 
BRANCH  32  33
ATOM     33  N   UNL     1       0.158  13.698   1.849  1.00  0.00    -0.352 N 
ATOM     34  C   UNL     1       0.894  14.967   1.943  1.00  0.00     0.251 C 
ATOM     35  H   UNL     1      -0.800  13.667   2.074  1.00  0.00     0.163 HD
ATOM     36  O   UNL     1       0.295  16.023   2.316  1.00  0.00    -0.269 OA
BRANCH  34  37
ATOM     37  C   UNL     1       2.373  15.015   1.594  1.00  0.00     0.039 A 
ATOM     38  C   UNL     1       3.245  15.697   2.427  1.00  0.00     0.014 A 
ATOM     39  C   UNL     1       2.804  14.403   0.498  1.00  0.00     0.014 A 
ATOM     40  C   UNL     1       4.522  15.921   1.859  1.00  0.00     0.010 A 
ATOM     41  C   UNL     1       4.102  14.557   0.075  1.00  0.00     0.010 A 
ATOM     42  C   UNL     1       5.004  15.267   0.818  1.00  0.00    -0.014 A 
BRANCH  42  43
ATOM     43  C   UNL     1       6.482  15.302   0.464  1.00  0.00     0.031 A 
ATOM     44  C   UNL     1       6.845  15.806  -0.786  1.00  0.00     0.074 A 
ATOM     45  C   UNL     1       7.386  14.833   1.402  1.00  0.00     0.049 A 
ATOM     46  N   UNL     1       8.076  15.955  -1.277  1.00  0.00    -0.248 NA
ATOM     47  C   UNL     1       5.885  16.273  -1.797  1.00  0.00     0.031 C 
ATOM     48  C   UNL     1       7.028  14.332   2.668  1.00  0.00     0.029 A 
ATOM     49  N   UNL     1       8.757  14.763   1.292  1.00  0.00    -0.354 N 
ATOM     50  C   UNL     1       8.024  16.487  -2.500  1.00  0.00     0.074 A 
ATOM     51  C   UNL     1       6.613  16.694  -2.854  1.00  0.00     0.031 C 
ATOM     52  C   UNL     1       8.165  13.954   3.309  1.00  0.00     0.029 A 
ATOM     53  C   UNL     1       9.253  14.213   2.454  1.00  0.00     0.049 A 
ATOM     54  H   UNL     1       9.290  15.055   0.518  1.00  0.00     0.167 HD
ATOM     55  C   UNL     1       9.097  16.810  -3.332  1.00  0.00     0.037 A 
ATOM     56  C   UNL     1      10.576  13.944   2.768  1.00  0.00     0.037 A 
ATOM     57  C   UNL     1      10.423  16.581  -3.000  1.00  0.00     0.049 A 
ATOM     58  C   UNL     1      11.646  14.213   1.911  1.00  0.00     0.074 A 
ATOM     59  C   UNL     1      11.517  16.907  -3.825  1.00  0.00     0.029 A 
ATOM     60  N   UNL     1      10.917  16.009  -1.849  1.00  0.00    -0.354 N 
ATOM     61  N   UNL     1      11.596  14.782   0.705  1.00  0.00    -0.248 NA
ATOM     62  C   UNL     1      13.048  13.903   2.219  1.00  0.00     0.031 C 
ATOM     63  C   UNL     1      12.655  16.529  -3.184  1.00  0.00     0.029 A 
ATOM     64  C   UNL     1      12.290  15.959  -1.949  1.00  0.00     0.049 A 
ATOM     65  H   UNL     1      10.382  15.690  -1.087  1.00  0.00     0.167 HD
ATOM     66  C   UNL     1      12.825  14.892   0.198  1.00  0.00     0.074 A 
ATOM     67  C   UNL     1      13.777  14.322   1.161  1.00  0.00     0.031 C 
ATOM     68  C   UNL     1      13.193  15.449  -1.028  1.00  0.00     0.037 A 
BRANCH  55  69
ATOM     69  C   UNL     1       8.794  17.449  -4.678  1.00  0.00     0.058 A 
ATOM     70  C   UNL     1       8.237  18.717  -4.652  1.00  0.00     0.135 A 
ATOM     71  C   UNL     1       9.156  16.879  -5.821  1.00  0.00     0.135 A 
ATOM     72  F   UNL     1       8.095  19.424  -3.534  1.00  0.00    -0.206 F 
ATOM     73  C   UNL     1       7.833  19.192  -5.922  1.00  0.00     0.059 A 
ATOM     74  C   UNL     1       8.847  17.466  -7.024  1.00  0.00     0.059 A 
ATOM     75  F   UNL     1       9.823  15.729  -5.801  1.00  0.00    -0.206 F 
ATOM     76  C   UNL     1       8.243  18.692  -7.074  1.00  0.00     0.060 A 
BRANCH  76  77
ATOM     77  S   UNL     1       8.018  19.582  -8.633  1.00  0.00     0.124 S 
ATOM     78  O   UNL     1       6.526  19.821  -8.874  1.00  0.00    -0.237 OA
ATOM     79  O   UNL     1       8.745  20.927  -8.563  1.00  0.00    -0.237 OA
ATOM     80  O   UNL     1       8.661  18.653  -9.917  1.00  0.00    -0.744 OA
ENDBRANCH  76  77
ENDBRANCH  55  69
BRANCH  56  81
ATOM     81  C   UNL     1      10.880  13.320   4.120  1.00  0.00     0.058 A 
ATOM     82  C   UNL     1      11.805  13.923   4.957  1.00  0.00     0.135 A 
ATOM     83  C   UNL     1      10.350  12.139   4.416  1.00  0.00     0.135 A 
ATOM     84  F   UNL     1      12.169  15.197   4.838  1.00  0.00    -0.206 F 
ATOM     85  C   UNL     1      12.328  13.060   5.949  1.00  0.00     0.059 A 
ATOM     86  C   UNL     1      10.818  11.410   5.482  1.00  0.00     0.059 A 
ATOM     87  F   UNL     1       9.356  11.658   3.674  1.00  0.00    -0.206 F 
ATOM     88  C   UNL     1      11.774  11.919   6.317  1.00  0.00     0.060 A 
BRANCH  88  89
ATOM     89  S   UNL     1      12.254  11.075   7.844  1.00  0.00     0.124 S 
ATOM     90  O   UNL     1      13.745  10.732   7.790  1.00  0.00    -0.237 OA
ATOM     91  O   UNL     1      11.984  11.991   9.040  1.00  0.00    -0.237 OA
ATOM     92  O   UNL     1      11.344   9.637   8.011  1.00  0.00    -0.744 OA
ENDBRANCH  88  89
ENDBRANCH  56  81
BRANCH  68  93
ATOM     93  C   UNL     1      14.672  15.500  -1.375  1.00  0.00     0.058 A 
ATOM     94  C   UNL     1      15.392  14.319  -1.453  1.00  0.00     0.135 A 
ATOM     95  C   UNL     1      15.248  16.675  -1.598  1.00  0.00     0.135 A 
ATOM     96  F   UNL     1      14.818  13.120  -1.489  1.00  0.00    -0.206 F 
ATOM     97  C   UNL     1      16.794  14.505  -1.490  1.00  0.00     0.059 A 
ATOM     98  C   UNL     1      16.610  16.766  -1.761  1.00  0.00     0.059 A 
ATOM     99  F   UNL     1      14.502  17.774  -1.665  1.00  0.00    -0.206 F 
ATOM    100  C   UNL     1      17.391  15.644  -1.789  1.00  0.00     0.060 A 
BRANCH 100 101
ATOM    101  S   UNL     1      19.149  15.717  -2.212  1.00  0.00     0.124 S 
ATOM    102  O   UNL     1      19.979  15.191  -1.039  1.00  0.00    -0.237 OA
ATOM    103  O   UNL     1      19.412  14.856  -3.450  1.00  0.00    -0.237 OA
ATOM    104  O   UNL     1      19.590  17.337  -2.541  1.00  0.00    -0.744 OA
ENDBRANCH 100 101
ENDBRANCH  68  93
ENDBRANCH  42  43
ENDBRANCH  34  37
ENDBRANCH  32  33
ENDBRANCH  31  32
ENDBRANCH   1  31
TORSDOF 19
