REMARK SMILES O=C(N[C@@H]1C=C[C@@H](C(=O)NCCCCCCNC(=O)c2ccc(-c3c4nc(c(-c5c(F)cc(S(=O)(=O)[O-])cc5F)c5ccc([nH]5)c(-c5c(F)cc(S(=O)(=O)[O-])cc5F)c5nc(c(-c6c(F)cc(S(=O)(=O)[O-])cc6F)c6ccc3[nH]6)C=C5)C=C4)cc2)C1)Oc1ccccc1
REMARK SMILES IDX 13 1 12 2 11 3 10 4 8 5 9 6 7 8 4 9 5 10 86 11 6 12 3 13
REMARK SMILES IDX 1 14 2 15 87 17 88 18 89 19 93 20 90 21 92 22 91 23 14 24
REMARK SMILES IDX 15 25 16 26 17 27 18 28 19 30 20 31 21 32 85 33 22 34 84 35
REMARK SMILES IDX 23 36 24 37 25 38 78 39 26 40 83 41 77 42 79 43 27 44 82 45
REMARK SMILES IDX 76 46 75 47 28 49 62 50 41 51 61 52 42 53 45 54 60 55 80 56
REMARK SMILES IDX 43 57 44 58 59 60 81 61 46 62 29 63 30 64 39 65 31 66 32 67
REMARK SMILES IDX 38 68 40 69 33 70 34 71 35 72 36 73 37 74 63 75 64 76 73 77
REMARK SMILES IDX 65 78 66 79 72 80 74 81 67 82 68 83 69 84 70 85 71 86 47 87
REMARK SMILES IDX 48 88 57 89 49 90 50 91 56 92 58 93 51 94 52 95 53 96 54 97
REMARK SMILES IDX 55 98
REMARK H PARENT 10 7 3 16 17 29 79 48 45 59
REMARK Flexibility Score: inf
ROOT
ATOM      1  C   UNL     1       2.200  -2.029   3.939  1.00  0.00     0.002 C 
ENDROOT
BRANCH   1   2
ATOM      2  C   UNL     1       2.447  -1.477   2.539  1.00  0.00     0.021 C 
BRANCH   2   3
ATOM      3  C   UNL     1       3.731  -0.675   2.436  1.00  0.00     0.116 C 
BRANCH   3   4
ATOM      4  N   UNL     1       4.890  -1.553   2.374  1.00  0.00    -0.356 N 
ATOM      5  C   UNL     1       5.886  -1.657   1.442  1.00  0.00     0.227 C 
ATOM      6  O   UNL     1       6.708  -2.567   1.584  1.00  0.00    -0.274 OA
ATOM      7  H   UNL     1       4.972  -2.178   3.131  1.00  0.00     0.163 HD
BRANCH   5   8
ATOM      8  C   UNL     1       6.041  -0.640   0.303  1.00  0.00     0.103 C 
ATOM      9  C   UNL     1       4.584   0.889  -0.968  1.00  0.00     0.109 C 
ATOM     10  C   UNL     1       5.008   1.441   0.325  1.00  0.00    -0.006 C 
ATOM     11  C   UNL     1       4.927  -0.609  -0.761  1.00  0.00     0.047 C 
ATOM     12  C   UNL     1       5.939   0.706   0.937  1.00  0.00    -0.016 C 
BRANCH   9  13
ATOM     13  N   UNL     1       5.355   1.483  -2.051  1.00  0.00    -0.315 N 
ATOM     14  O   UNL     1       5.972   2.940  -3.613  1.00  0.00    -0.224 OA
ATOM     15  C   UNL     1       5.699   2.759  -2.424  1.00  0.00     0.413 C 
ATOM     16  H   UNL     1       5.717   0.805  -2.666  1.00  0.00     0.167 HD
BRANCH  15  17
ATOM     17  O   UNL     1       5.750   3.864  -1.528  1.00  0.00    -0.410 OA
BRANCH  17  18
ATOM     18  C   UNL     1       5.887   4.178  -0.133  1.00  0.00     0.132 A 
ATOM     19  C   UNL     1       4.850   4.903   0.454  1.00  0.00     0.047 A 
ATOM     20  C   UNL     1       6.969   3.712   0.614  1.00  0.00     0.047 A 
ATOM     21  C   UNL     1       4.826   5.046   1.843  1.00  0.00     0.004 A 
ATOM     22  C   UNL     1       6.931   3.855   2.007  1.00  0.00     0.004 A 
ATOM     23  C   UNL     1       5.848   4.496   2.621  1.00  0.00     0.000 A 
ENDBRANCH  17  18
ENDBRANCH  15  17
ENDBRANCH   9  13
ENDBRANCH   5   8
ENDBRANCH   3   4
ENDBRANCH   2   3
ENDBRANCH   1   2
BRANCH   1  24
ATOM     24  C   UNL     1       1.953  -0.960   5.009  1.00  0.00     0.002 C 
BRANCH  24  25
ATOM     25  C   UNL     1       0.833   0.036   4.694  1.00  0.00     0.021 C 
BRANCH  25  26
ATOM     26  C   UNL     1      -0.496  -0.600   4.296  1.00  0.00     0.116 C 
BRANCH  26  27
ATOM     27  N   UNL     1      -0.997  -1.503   5.320  1.00  0.00    -0.352 N 
ATOM     28  C   UNL     1      -2.222  -1.526   5.931  1.00  0.00     0.251 C 
ATOM     29  H   UNL     1      -0.364  -2.196   5.618  1.00  0.00     0.163 HD
ATOM     30  O   UNL     1      -2.403  -2.241   6.918  1.00  0.00    -0.269 OA
BRANCH  28  31
ATOM     31  C   UNL     1      -3.314  -0.676   5.418  1.00  0.00     0.039 A 
ATOM     32  C   UNL     1      -4.069   0.071   6.324  1.00  0.00     0.014 A 
ATOM     33  C   UNL     1      -3.586  -0.608   4.047  1.00  0.00     0.014 A 
ATOM     34  C   UNL     1      -5.054   0.938   5.850  1.00  0.00     0.010 A 
ATOM     35  C   UNL     1      -4.519   0.309   3.573  1.00  0.00     0.010 A 
ATOM     36  C   UNL     1      -5.259   1.095   4.469  1.00  0.00    -0.014 A 
BRANCH  36  37
ATOM     37  C   UNL     1      -6.218   2.105   3.949  1.00  0.00     0.031 A 
ATOM     38  C   UNL     1      -7.423   1.677   3.157  1.00  0.00     0.074 A 
ATOM     39  C   UNL     1      -5.959   3.415   4.136  1.00  0.00     0.049 A 
ATOM     40  N   UNL     1      -8.332   2.417   2.579  1.00  0.00    -0.248 NA
ATOM     41  C   UNL     1      -7.620   0.230   2.970  1.00  0.00     0.031 C 
ATOM     42  C   UNL     1      -4.790   3.953   4.838  1.00  0.00     0.029 A 
ATOM     43  N   UNL     1      -6.649   4.534   3.742  1.00  0.00    -0.354 N 
ATOM     44  C   UNL     1      -9.198   1.532   1.947  1.00  0.00     0.074 A 
ATOM     45  C   UNL     1      -8.682   0.201   2.178  1.00  0.00     0.031 C 
ATOM     46  C   UNL     1      -4.853   5.294   4.836  1.00  0.00     0.029 A 
ATOM     47  C   UNL     1      -6.039   5.714   4.098  1.00  0.00     0.049 A 
ATOM     48  H   UNL     1      -7.502   4.495   3.250  1.00  0.00     0.167 HD
ATOM     49  C   UNL     1     -10.329   1.807   1.254  1.00  0.00     0.037 A 
ATOM     50  C   UNL     1      -6.384   6.992   3.843  1.00  0.00     0.037 A 
ATOM     51  C   UNL     1     -10.848   3.136   1.054  1.00  0.00     0.049 A 
ATOM     52  C   UNL     1      -7.646   7.268   3.072  1.00  0.00     0.074 A 
ATOM     53  C   UNL     1     -12.031   3.511   0.440  1.00  0.00     0.029 A 
ATOM     54  N   UNL     1     -10.215   4.306   1.448  1.00  0.00    -0.354 N 
ATOM     55  N   UNL     1      -8.504   6.415   2.564  1.00  0.00    -0.248 NA
ATOM     56  C   UNL     1      -7.992   8.677   2.842  1.00  0.00     0.031 C 
ATOM     57  C   UNL     1     -12.083   4.908   0.408  1.00  0.00     0.029 A 
ATOM     58  C   UNL     1     -10.963   5.404   1.056  1.00  0.00     0.049 A 
ATOM     59  H   UNL     1      -9.360   4.349   1.934  1.00  0.00     0.167 HD
ATOM     60  C   UNL     1      -9.499   7.184   1.971  1.00  0.00     0.074 A 
ATOM     61  C   UNL     1      -9.149   8.570   2.204  1.00  0.00     0.031 C 
ATOM     62  C   UNL     1     -10.601   6.780   1.292  1.00  0.00     0.037 A 
BRANCH  49  63
ATOM     63  C   UNL     1     -11.090   0.656   0.654  1.00  0.00     0.058 A 
ATOM     64  C   UNL     1     -11.800  -0.258   1.449  1.00  0.00     0.135 A 
ATOM     65  C   UNL     1     -11.167   0.506  -0.740  1.00  0.00     0.135 A 
ATOM     66  F   UNL     1     -11.751  -0.172   2.788  1.00  0.00    -0.206 F 
ATOM     67  C   UNL     1     -12.546  -1.287   0.884  1.00  0.00     0.059 A 
ATOM     68  C   UNL     1     -11.930  -0.498  -1.328  1.00  0.00     0.059 A 
ATOM     69  F   UNL     1     -10.505   1.350  -1.548  1.00  0.00    -0.206 F 
ATOM     70  C   UNL     1     -12.609  -1.396  -0.507  1.00  0.00     0.060 A 
BRANCH  70  71
ATOM     71  S   UNL     1     -13.606  -2.720  -1.222  1.00  0.00     0.124 S 
ATOM     72  O   UNL     1     -12.805  -3.896  -0.895  1.00  0.00    -0.237 OA
ATOM     73  O   UNL     1     -14.864  -2.589  -0.496  1.00  0.00    -0.237 OA
ATOM     74  O   UNL     1     -13.663  -2.376  -2.640  1.00  0.00    -0.744 OA
ENDBRANCH  70  71
ENDBRANCH  49  63
BRANCH  50  75
ATOM     75  C   UNL     1      -5.516   8.105   4.313  1.00  0.00     0.058 A 
ATOM     76  C   UNL     1      -5.941   8.986   5.318  1.00  0.00     0.135 A 
ATOM     77  C   UNL     1      -4.239   8.310   3.764  1.00  0.00     0.135 A 
ATOM     78  F   UNL     1      -7.155   8.837   5.870  1.00  0.00    -0.206 F 
ATOM     79  C   UNL     1      -5.145  10.043   5.747  1.00  0.00     0.059 A 
ATOM     80  C   UNL     1      -3.412   9.341   4.197  1.00  0.00     0.059 A 
ATOM     81  F   UNL     1      -3.775   7.484   2.813  1.00  0.00    -0.206 F 
ATOM     82  C   UNL     1      -3.880  10.211   5.180  1.00  0.00     0.060 A 
BRANCH  82  83
ATOM     83  S   UNL     1      -2.837  11.562   5.769  1.00  0.00     0.124 S 
ATOM     84  O   UNL     1      -3.505  12.722   5.189  1.00  0.00    -0.237 OA
ATOM     85  O   UNL     1      -2.944  11.421   7.218  1.00  0.00    -0.237 OA
ATOM     86  O   UNL     1      -1.527  11.242   5.211  1.00  0.00    -0.744 OA
ENDBRANCH  82  83
ENDBRANCH  50  75
BRANCH  62  87
ATOM     87  C   UNL     1     -11.522   7.847   0.766  1.00  0.00     0.058 A 
ATOM     88  C   UNL     1     -11.161   8.663  -0.317  1.00  0.00     0.135 A 
ATOM     89  C   UNL     1     -12.803   8.019   1.317  1.00  0.00     0.135 A 
ATOM     90  F   UNL     1      -9.945   8.546  -0.876  1.00  0.00    -0.206 F 
ATOM     91  C   UNL     1     -12.027   9.628  -0.821  1.00  0.00     0.059 A 
ATOM     92  C   UNL     1     -13.697   8.956   0.808  1.00  0.00     0.059 A 
ATOM     93  F   UNL     1     -13.203   7.258   2.348  1.00  0.00    -0.206 F 
ATOM     94  C   UNL     1     -13.296   9.764  -0.254  1.00  0.00     0.060 A 
BRANCH  94  95
ATOM     95  S   UNL     1     -14.422  10.994  -0.942  1.00  0.00     0.124 S 
ATOM     96  O   UNL     1     -13.817  12.239  -0.479  1.00  0.00    -0.237 OA
ATOM     97  O   UNL     1     -14.326  10.737  -2.376  1.00  0.00    -0.237 OA
ATOM     98  O   UNL     1     -15.707  10.657  -0.336  1.00  0.00    -0.744 OA
ENDBRANCH  94  95
ENDBRANCH  62  87
ENDBRANCH  36  37
ENDBRANCH  28  31
ENDBRANCH  26  27
ENDBRANCH  25  26
ENDBRANCH  24  25
ENDBRANCH   1  24
TORSDOF 19
