REMARK SMILES C=Cc1cncc(-c2ccc([C@@H](C)C(=O)NCCCCCCNC(=O)c3ccc(-c4c5nc(c(-c6c(F)cc(S(=O)(=O)[O-])cc6F)c6ccc([nH]6)c(-c6c(F)cc(S(=O)(=O)[O-])cc6F)c6nc(c(-c7c(F)cc(S(=O)(=O)[O-])cc7F)c7ccc4[nH]7)C=C6)C=C5)cc3)cc2)c1
REMARK SMILES IDX 19 1 18 2 17 3 16 4 14 5 15 6 12 8 13 9 11 10 8 11 9 12
REMARK SMILES IDX 93 13 10 14 92 15 7 16 3 17 4 18 94 19 5 20 6 21 2 22 1 23
REMARK SMILES IDX 20 24 21 25 22 26 23 27 24 28 25 30 26 31 27 32 91 33 28 34
REMARK SMILES IDX 90 35 29 36 30 37 31 38 84 39 32 40 89 41 83 42 85 43 33 44
REMARK SMILES IDX 88 45 82 46 81 47 34 49 68 50 47 51 67 52 48 53 51 54 66 55
REMARK SMILES IDX 86 56 49 57 50 58 65 60 87 61 52 62 35 63 36 64 45 65 37 66
REMARK SMILES IDX 38 67 44 68 46 69 39 70 40 71 41 72 42 73 43 74 69 75 70 76
REMARK SMILES IDX 79 77 71 78 72 79 78 80 80 81 73 82 74 83 75 84 76 85 77 86
REMARK SMILES IDX 53 87 54 88 63 89 55 90 56 91 62 92 64 93 57 94 58 95 59 96
REMARK SMILES IDX 60 97 61 98
REMARK H PARENT 16 7 23 29 85 48 51 59
REMARK Flexibility Score: inf
ROOT
ATOM      1  C   UNL     1      -6.042   5.022   2.611  1.00  0.00     0.002 C 
ENDROOT
BRANCH   1   2
ATOM      2  C   UNL     1      -6.271   4.180   1.351  1.00  0.00     0.021 C 
BRANCH   2   3
ATOM      3  C   UNL     1      -7.270   4.796   0.370  1.00  0.00     0.116 C 
BRANCH   3   4
ATOM      4  N   UNL     1      -6.618   5.686  -0.570  1.00  0.00    -0.356 N 
ATOM      5  C   UNL     1      -6.243   5.509  -1.866  1.00  0.00     0.227 C 
ATOM      6  O   UNL     1      -5.610   6.436  -2.387  1.00  0.00    -0.274 OA
ATOM      7  H   UNL     1      -6.409   6.576  -0.205  1.00  0.00     0.163 HD
BRANCH   5   8
ATOM      8  C   UNL     1      -6.583   4.256  -2.689  1.00  0.00     0.105 C 
ATOM      9  C   UNL     1      -8.084   4.012  -2.849  1.00  0.00     0.023 C 
BRANCH   8  10
ATOM     10  C   UNL     1      -5.739   3.043  -2.327  1.00  0.00    -0.036 A 
ATOM     11  C   UNL     1      -4.021   0.878  -1.592  1.00  0.00    -0.017 A 
ATOM     12  C   UNL     1      -5.274   1.064  -0.989  1.00  0.00     0.009 A 
ATOM     13  C   UNL     1      -3.662   1.783  -2.602  1.00  0.00     0.009 A 
ATOM     14  C   UNL     1      -6.128   2.104  -1.370  1.00  0.00     0.005 A 
ATOM     15  C   UNL     1      -4.496   2.855  -2.951  1.00  0.00     0.005 A 
BRANCH  11  16
ATOM     16  C   UNL     1      -3.131  -0.220  -1.164  1.00  0.00     0.001 A 
ATOM     17  C   UNL     1      -0.926  -1.115  -0.608  1.00  0.00    -0.007 A 
ATOM     18  C   UNL     1      -1.558  -2.309  -0.274  1.00  0.00     0.119 A 
ATOM     19  C   UNL     1      -1.737  -0.068  -1.068  1.00  0.00     0.020 A 
ATOM     20  N   UNL     1      -2.889  -2.515  -0.361  1.00  0.00    -0.263 NA
ATOM     21  C   UNL     1      -3.632  -1.473  -0.800  1.00  0.00     0.119 A 
BRANCH  17  22
ATOM     22  C   UNL     1       0.535  -1.018  -0.520  1.00  0.00     0.002 C 
ATOM     23  C   UNL     1       1.193   0.063  -0.085  1.00  0.00     0.009 C 
ENDBRANCH  17  22
ENDBRANCH  11  16
ENDBRANCH   8  10
ENDBRANCH   5   8
ENDBRANCH   3   4
ENDBRANCH   2   3
ENDBRANCH   1   2
BRANCH   1  24
ATOM     24  C   UNL     1      -7.278   5.213   3.500  1.00  0.00     0.002 C 
BRANCH  24  25
ATOM     25  C   UNL     1      -7.972   3.922   3.948  1.00  0.00     0.021 C 
BRANCH  25  26
ATOM     26  C   UNL     1      -7.095   2.975   4.762  1.00  0.00     0.116 C 
BRANCH  26  27
ATOM     27  N   UNL     1      -6.662   3.583   6.010  1.00  0.00    -0.352 N 
ATOM     28  C   UNL     1      -6.886   3.181   7.303  1.00  0.00     0.251 C 
ATOM     29  H   UNL     1      -6.128   4.405   5.913  1.00  0.00     0.163 HD
ATOM     30  O   UNL     1      -6.654   3.951   8.230  1.00  0.00    -0.269 OA
BRANCH  28  31
ATOM     31  C   UNL     1      -7.411   1.826   7.578  1.00  0.00     0.039 A 
ATOM     32  C   UNL     1      -8.404   1.665   8.547  1.00  0.00     0.014 A 
ATOM     33  C   UNL     1      -6.899   0.711   6.907  1.00  0.00     0.014 A 
ATOM     34  C   UNL     1      -8.917   0.393   8.811  1.00  0.00     0.010 A 
ATOM     35  C   UNL     1      -7.458  -0.546   7.122  1.00  0.00     0.010 A 
ATOM     36  C   UNL     1      -8.464  -0.720   8.084  1.00  0.00    -0.014 A 
BRANCH  36  37
ATOM     37  C   UNL     1      -9.017  -2.077   8.326  1.00  0.00     0.031 A 
ATOM     38  C   UNL     1      -8.129  -3.167   8.863  1.00  0.00     0.074 A 
ATOM     39  C   UNL     1     -10.299  -2.344   8.006  1.00  0.00     0.049 A 
ATOM     40  N   UNL     1      -8.402  -4.430   9.071  1.00  0.00    -0.248 NA
ATOM     41  C   UNL     1      -6.741  -2.794   9.183  1.00  0.00     0.031 C 
ATOM     42  C   UNL     1     -11.246  -1.382   7.438  1.00  0.00     0.029 A 
ATOM     43  N   UNL     1     -11.023  -3.505   8.101  1.00  0.00    -0.354 N 
ATOM     44  C   UNL     1      -7.221  -5.003   9.529  1.00  0.00     0.074 A 
ATOM     45  C   UNL     1      -6.216  -3.963   9.519  1.00  0.00     0.031 C 
ATOM     46  C   UNL     1     -12.431  -1.988   7.254  1.00  0.00     0.029 A 
ATOM     47  C   UNL     1     -12.318  -3.387   7.654  1.00  0.00     0.049 A 
ATOM     48  H   UNL     1     -10.650  -4.345   8.455  1.00  0.00     0.167 HD
ATOM     49  C   UNL     1      -7.001  -6.275   9.942  1.00  0.00     0.037 A 
ATOM     50  C   UNL     1     -13.302  -4.304   7.571  1.00  0.00     0.037 A 
ATOM     51  C   UNL     1      -8.014  -7.298   9.972  1.00  0.00     0.049 A 
ATOM     52  C   UNL     1     -13.035  -5.709   8.039  1.00  0.00     0.074 A 
ATOM     53  C   UNL     1      -7.907  -8.602  10.422  1.00  0.00     0.029 A 
ATOM     54  N   UNL     1      -9.320  -7.131   9.537  1.00  0.00    -0.354 N 
ATOM     55  N   UNL     1     -11.928  -6.220   8.522  1.00  0.00    -0.248 NA
ATOM     56  C   UNL     1     -14.152  -6.660   7.960  1.00  0.00     0.031 C 
ATOM     57  C   UNL     1      -9.137  -9.236  10.221  1.00  0.00     0.029 A 
ATOM     58  C   UNL     1     -10.026  -8.313   9.692  1.00  0.00     0.049 A 
ATOM     59  H   UNL     1      -9.692  -6.296   9.171  1.00  0.00     0.167 HD
ATOM     60  C   UNL     1     -12.223  -7.543   8.832  1.00  0.00     0.074 A 
ATOM     61  C   UNL     1     -13.615  -7.750   8.490  1.00  0.00     0.031 C 
ATOM     62  C   UNL     1     -11.416  -8.499   9.356  1.00  0.00     0.037 A 
BRANCH  49  63
ATOM     63  C   UNL     1      -5.611  -6.627  10.398  1.00  0.00     0.058 A 
ATOM     64  C   UNL     1      -5.077  -6.121  11.594  1.00  0.00     0.135 A 
ATOM     65  C   UNL     1      -4.810  -7.502   9.645  1.00  0.00     0.135 A 
ATOM     66  F   UNL     1      -5.792  -5.270  12.347  1.00  0.00    -0.206 F 
ATOM     67  C   UNL     1      -3.789  -6.441  12.010  1.00  0.00     0.059 A 
ATOM     68  C   UNL     1      -3.529  -7.859  10.057  1.00  0.00     0.059 A 
ATOM     69  F   UNL     1      -5.269  -8.017   8.493  1.00  0.00    -0.206 F 
ATOM     70  C   UNL     1      -3.021  -7.309  11.233  1.00  0.00     0.060 A 
BRANCH  70  71
ATOM     71  S   UNL     1      -1.350  -7.712  11.786  1.00  0.00     0.124 S 
ATOM     72  O   UNL     1      -0.639  -6.472  11.491  1.00  0.00    -0.237 OA
ATOM     73  O   UNL     1      -1.551  -8.005  13.201  1.00  0.00    -0.237 OA
ATOM     74  O   UNL     1      -0.985  -8.857  10.957  1.00  0.00    -0.744 OA
ENDBRANCH  70  71
ENDBRANCH  49  63
BRANCH  50  75
ATOM     75  C   UNL     1     -14.638  -3.913   7.048  1.00  0.00     0.058 A 
ATOM     76  C   UNL     1     -15.747  -3.822   7.902  1.00  0.00     0.135 A 
ATOM     77  C   UNL     1     -14.830  -3.606   5.692  1.00  0.00     0.135 A 
ATOM     78  F   UNL     1     -15.615  -4.111   9.206  1.00  0.00    -0.206 F 
ATOM     79  C   UNL     1     -17.003  -3.457   7.430  1.00  0.00     0.059 A 
ATOM     80  C   UNL     1     -16.072  -3.214   5.200  1.00  0.00     0.059 A 
ATOM     81  F   UNL     1     -13.797  -3.660   4.837  1.00  0.00    -0.206 F 
ATOM     82  C   UNL     1     -17.155  -3.152   6.076  1.00  0.00     0.060 A 
BRANCH  82  83
ATOM     83  S   UNL     1     -18.778  -2.628   5.482  1.00  0.00     0.124 S 
ATOM     84  O   UNL     1     -19.515  -3.886   5.494  1.00  0.00    -0.237 OA
ATOM     85  O   UNL     1     -19.172  -1.648   6.490  1.00  0.00    -0.237 OA
ATOM     86  O   UNL     1     -18.489  -2.076   4.162  1.00  0.00    -0.744 OA
ENDBRANCH  82  83
ENDBRANCH  50  75
BRANCH  62  87
ATOM     87  C   UNL     1     -12.026  -9.845   9.631  1.00  0.00     0.058 A 
ATOM     88  C   UNL     1     -12.349 -10.737   8.597  1.00  0.00     0.135 A 
ATOM     89  C   UNL     1     -12.242 -10.268  10.953  1.00  0.00     0.135 A 
ATOM     90  F   UNL     1     -12.168 -10.379   7.315  1.00  0.00    -0.206 F 
ATOM     91  C   UNL     1     -12.887 -11.992   8.862  1.00  0.00     0.059 A 
ATOM     92  C   UNL     1     -12.753 -11.529  11.242  1.00  0.00     0.059 A 
ATOM     93  F   UNL     1     -11.940  -9.458  11.980  1.00  0.00    -0.206 F 
ATOM     94  C   UNL     1     -13.084 -12.380  10.189  1.00  0.00     0.060 A 
BRANCH  94  95
ATOM     95  S   UNL     1     -13.752 -14.024  10.521  1.00  0.00     0.124 S 
ATOM     96  O   UNL     1     -15.156 -13.847  10.166  1.00  0.00    -0.237 OA
ATOM     97  O   UNL     1     -12.972 -14.867   9.621  1.00  0.00    -0.237 OA
ATOM     98  O   UNL     1     -13.483 -14.219  11.943  1.00  0.00    -0.744 OA
ENDBRANCH  94  95
ENDBRANCH  62  87
ENDBRANCH  36  37
ENDBRANCH  28  31
ENDBRANCH  26  27
ENDBRANCH  25  26
ENDBRANCH  24  25
ENDBRANCH   1  24
TORSDOF 19
