REMARK SMILES C[C@H](C(=O)NCCCCCCNC(=O)c1ccc(-c2c3nc(c(-c4c(F)cc(S(=O)(=O)[O-])cc4F)c4ccc([nH]4)c(-c4c(F)cc(S(=O)(=O)[O-])cc4F)c4nc(c(-c5c(F)cc(S(=O)(=O)[O-])cc5F)c5ccc2[nH]5)C=C4)C=C3)cc1)c1ccc2c3cc(Cl)ccc3n(C(=O)c3cocn3)c2c1
REMARK SMILES IDX 8 1 7 2 6 3 5 4 3 5 4 6 2 8 1 9 81 10 82 11 101 12 83 13
REMARK SMILES IDX 100 14 84 15 92 16 85 17 91 18 86 19 90 20 87 21 89 22 88 23
REMARK SMILES IDX 93 24 94 25 95 26 96 27 99 28 97 29 98 30 9 31 10 32 11 33
REMARK SMILES IDX 12 34 13 35 14 37 15 38 16 39 80 40 17 41 79 42 18 43 19 44
REMARK SMILES IDX 20 45 73 46 21 47 78 48 72 49 74 50 22 51 77 52 71 53 70 54
REMARK SMILES IDX 23 56 57 57 36 58 56 59 37 60 40 61 55 62 75 63 38 64 39 65
REMARK SMILES IDX 54 67 76 68 41 69 24 70 25 71 34 72 26 73 27 74 33 75 35 76
REMARK SMILES IDX 28 77 29 78 30 79 31 80 32 81 58 82 59 83 68 84 60 85 61 86
REMARK SMILES IDX 67 87 69 88 62 89 63 90 64 91 65 92 66 93 42 94 43 95 52 96
REMARK SMILES IDX 44 97 45 98 51 99 53 100 46 101 47 102 48 103 49 104 50 105
REMARK H PARENT 5 7 12 36 74 55 40 66
REMARK Flexibility Score: inf
ROOT
ATOM      1  C   UNL     1      -1.440  -0.041  -3.402  1.00  0.00     0.002 C 
ENDROOT
BRANCH   1   2
ATOM      2  C   UNL     1      -1.548  -0.520  -1.950  1.00  0.00     0.021 C 
BRANCH   2   3
ATOM      3  C   UNL     1      -0.298  -1.234  -1.424  1.00  0.00     0.116 C 
BRANCH   3   4
ATOM      4  N   UNL     1       0.772  -0.290  -1.145  1.00  0.00    -0.356 N 
ATOM      5  C   UNL     1       1.198   0.248   0.037  1.00  0.00     0.227 C 
ATOM      6  O   UNL     1       2.084   1.106  -0.031  1.00  0.00    -0.274 OA
ATOM      7  H   UNL     1       1.272   0.011  -1.938  1.00  0.00     0.163 HD
BRANCH   5   8
ATOM      8  C   UNL     1       0.660  -0.259   1.388  1.00  0.00     0.105 C 
ATOM      9  C   UNL     1       1.339   0.465   2.555  1.00  0.00     0.023 C 
BRANCH   8  10
ATOM     10  C   UNL     1      -0.853  -0.174   1.530  1.00  0.00    -0.034 A 
ATOM     11  C   UNL     1      -1.554   1.003   1.281  1.00  0.00     0.005 A 
ATOM     12  C   UNL     1      -1.560  -1.346   1.858  1.00  0.00     0.032 A 
ATOM     13  C   UNL     1      -2.952   0.994   1.228  1.00  0.00     0.011 A 
ATOM     14  C   UNL     1      -2.968  -1.362   1.788  1.00  0.00     0.058 A 
ATOM     15  C   UNL     1      -3.665  -0.209   1.438  1.00  0.00     0.008 A 
ATOM     16  N   UNL     1      -3.892  -2.414   1.950  1.00  0.00    -0.274 N 
ATOM     17  C   UNL     1      -5.042  -0.550   1.363  1.00  0.00     0.009 A 
ATOM     18  C   UNL     1      -5.180  -1.888   1.756  1.00  0.00     0.057 A 
ATOM     19  C   UNL     1      -6.186   0.199   1.012  1.00  0.00     0.031 A 
ATOM     20  C   UNL     1      -6.467  -2.443   1.923  1.00  0.00     0.029 A 
ATOM     21  C   UNL     1      -7.446  -0.386   1.101  1.00  0.00     0.041 A 
ATOM     22  C   UNL     1      -7.589  -1.683   1.569  1.00  0.00     0.023 A 
ATOM     23  Cl  UNL     1      -8.835   0.527   0.655  1.00  0.00    -0.084 Cl
BRANCH  16  24
ATOM     24  C   UNL     1      -3.523  -3.760   2.260  1.00  0.00     0.284 C 
ATOM     25  O   UNL     1      -2.400  -3.912   2.738  1.00  0.00    -0.266 OA
BRANCH  24  26
ATOM     26  C   UNL     1      -4.349  -4.942   2.032  1.00  0.00     0.167 A 
ATOM     27  C   UNL     1      -5.215  -5.216   0.995  1.00  0.00     0.231 A 
ATOM     28  N   UNL     1      -4.250  -6.074   2.832  1.00  0.00    -0.211 NA
ATOM     29  O   UNL     1      -5.684  -6.487   1.150  1.00  0.00    -0.451 OA
ATOM     30  C   UNL     1      -5.046  -6.946   2.259  1.00  0.00     0.308 A 
ENDBRANCH  24  26
ENDBRANCH  16  24
ENDBRANCH   8  10
ENDBRANCH   5   8
ENDBRANCH   3   4
ENDBRANCH   2   3
ENDBRANCH   1   2
BRANCH   1  31
ATOM     31  C   UNL     1      -1.344  -1.153  -4.451  1.00  0.00     0.002 C 
BRANCH  31  32
ATOM     32  C   UNL     1      -2.495  -2.164  -4.447  1.00  0.00     0.021 C 
BRANCH  32  33
ATOM     33  C   UNL     1      -3.885  -1.570  -4.677  1.00  0.00     0.116 C 
BRANCH  33  34
ATOM     34  N   UNL     1      -4.018  -0.974  -5.998  1.00  0.00    -0.352 N 
ATOM     35  C   UNL     1      -4.893  -1.277  -7.013  1.00  0.00     0.251 C 
ATOM     36  H   UNL     1      -3.386  -0.244  -6.194  1.00  0.00     0.163 HD
ATOM     37  O   UNL     1      -4.732  -0.789  -8.129  1.00  0.00    -0.269 OA
BRANCH  35  38
ATOM     38  C   UNL     1      -6.017  -2.208  -6.771  1.00  0.00     0.039 A 
ATOM     39  C   UNL     1      -6.240  -3.251  -7.676  1.00  0.00     0.014 A 
ATOM     40  C   UNL     1      -6.850  -2.054  -5.659  1.00  0.00     0.014 A 
ATOM     41  C   UNL     1      -7.244  -4.189  -7.420  1.00  0.00     0.010 A 
ATOM     42  C   UNL     1      -7.818  -3.017  -5.380  1.00  0.00     0.010 A 
ATOM     43  C   UNL     1      -8.011  -4.104  -6.247  1.00  0.00    -0.014 A 
BRANCH  43  44
ATOM     44  C   UNL     1      -8.974  -5.173  -5.872  1.00  0.00     0.031 A 
ATOM     45  C   UNL     1     -10.447  -4.884  -5.801  1.00  0.00     0.074 A 
ATOM     46  C   UNL     1      -8.501  -6.376  -5.487  1.00  0.00     0.049 A 
ATOM     47  N   UNL     1     -11.415  -5.651  -5.370  1.00  0.00    -0.248 NA
ATOM     48  C   UNL     1     -10.889  -3.554  -6.251  1.00  0.00     0.031 C 
ATOM     49  C   UNL     1      -7.087  -6.760  -5.458  1.00  0.00     0.029 A 
ATOM     50  N   UNL     1      -9.153  -7.488  -5.016  1.00  0.00    -0.354 N 
ATOM     51  C   UNL     1     -12.575  -4.892  -5.471  1.00  0.00     0.074 A 
ATOM     52  C   UNL     1     -12.188  -3.596  -5.985  1.00  0.00     0.031 C 
ATOM     53  C   UNL     1      -6.979  -8.012  -4.985  1.00  0.00     0.029 A 
ATOM     54  C   UNL     1      -8.308  -8.508  -4.644  1.00  0.00     0.049 A 
ATOM     55  H   UNL     1     -10.134  -7.550  -4.950  1.00  0.00     0.167 HD
ATOM     56  C   UNL     1     -13.846  -5.252  -5.172  1.00  0.00     0.037 A 
ATOM     57  C   UNL     1      -8.568  -9.697  -4.067  1.00  0.00     0.037 A 
ATOM     58  C   UNL     1     -14.232  -6.559  -4.709  1.00  0.00     0.049 A 
ATOM     59  C   UNL     1      -9.990 -10.071  -3.752  1.00  0.00     0.074 A 
ATOM     60  C   UNL     1     -15.508  -7.054  -4.503  1.00  0.00     0.029 A 
ATOM     61  N   UNL     1     -13.350  -7.573  -4.370  1.00  0.00    -0.354 N 
ATOM     62  N   UNL     1     -11.084  -9.376  -3.949  1.00  0.00    -0.248 NA
ATOM     63  C   UNL     1     -10.214 -11.386  -3.133  1.00  0.00     0.031 C 
ATOM     64  C   UNL     1     -15.398  -8.353  -3.997  1.00  0.00     0.029 A 
ATOM     65  C   UNL     1     -14.053  -8.678  -3.919  1.00  0.00     0.049 A 
ATOM     66  H   UNL     1     -12.370  -7.516  -4.439  1.00  0.00     0.167 HD
ATOM     67  C   UNL     1     -12.126 -10.171  -3.486  1.00  0.00     0.074 A 
ATOM     68  C   UNL     1     -11.535 -11.407  -3.016  1.00  0.00     0.031 C 
ATOM     69  C   UNL     1     -13.452  -9.899  -3.449  1.00  0.00     0.037 A 
BRANCH  56  70
ATOM     70  C   UNL     1     -14.930  -4.227  -5.341  1.00  0.00     0.058 A 
ATOM     71  C   UNL     1     -15.422  -3.881  -6.608  1.00  0.00     0.135 A 
ATOM     72  C   UNL     1     -15.548  -3.656  -4.217  1.00  0.00     0.135 A 
ATOM     73  F   UNL     1     -14.858  -4.391  -7.715  1.00  0.00    -0.206 F 
ATOM     74  C   UNL     1     -16.488  -3.000  -6.756  1.00  0.00     0.059 A 
ATOM     75  C   UNL     1     -16.627  -2.787  -4.340  1.00  0.00     0.059 A 
ATOM     76  F   UNL     1     -15.112  -3.954  -2.982  1.00  0.00    -0.206 F 
ATOM     77  C   UNL     1     -17.087  -2.461  -5.616  1.00  0.00     0.060 A 
BRANCH  77  78
ATOM     78  S   UNL     1     -18.498  -1.353  -5.823  1.00  0.00     0.124 S 
ATOM     79  O   UNL     1     -17.844  -0.134  -6.288  1.00  0.00    -0.237 OA
ATOM     80  O   UNL     1     -19.305  -2.057  -6.816  1.00  0.00    -0.237 OA
ATOM     81  O   UNL     1     -19.076  -1.285  -4.485  1.00  0.00    -0.744 OA
ENDBRANCH  77  78
ENDBRANCH  56  70
BRANCH  57  82
ATOM     82  C   UNL     1      -7.453 -10.616  -3.719  1.00  0.00     0.058 A 
ATOM     83  C   UNL     1      -7.246 -11.805  -4.434  1.00  0.00     0.135 A 
ATOM     84  C   UNL     1      -6.584 -10.329  -2.656  1.00  0.00     0.135 A 
ATOM     85  F   UNL     1      -8.057 -12.124  -5.454  1.00  0.00    -0.206 F 
ATOM     86  C   UNL     1      -6.230 -12.691  -4.092  1.00  0.00     0.059 A 
ATOM     87  C   UNL     1      -5.547 -11.188  -2.309  1.00  0.00     0.059 A 
ATOM     88  F   UNL     1      -6.732  -9.195  -1.952  1.00  0.00    -0.206 F 
ATOM     89  C   UNL     1      -5.388 -12.375  -3.023  1.00  0.00     0.060 A 
BRANCH  89  90
ATOM     90  S   UNL     1      -4.055 -13.516  -2.596  1.00  0.00     0.124 S 
ATOM     91  O   UNL     1      -4.779 -14.547  -1.862  1.00  0.00    -0.237 OA
ATOM     92  O   UNL     1      -3.544 -13.902  -3.907  1.00  0.00    -0.237 OA
ATOM     93  O   UNL     1      -3.154 -12.687  -1.801  1.00  0.00    -0.744 OA
ENDBRANCH  89  90
ENDBRANCH  57  82
BRANCH  69  94
ATOM     94  C   UNL     1     -14.360 -10.951  -2.881  1.00  0.00     0.058 A 
ATOM     95  C   UNL     1     -14.453 -11.159  -1.497  1.00  0.00     0.135 A 
ATOM     96  C   UNL     1     -15.191 -11.710  -3.719  1.00  0.00     0.135 A 
ATOM     97  F   UNL     1     -13.670 -10.465  -0.655  1.00  0.00    -0.206 F 
ATOM     98  C   UNL     1     -15.335 -12.091  -0.962  1.00  0.00     0.059 A 
ATOM     99  C   UNL     1     -16.096 -12.633  -3.205  1.00  0.00     0.059 A 
ATOM    100  F   UNL     1     -15.142 -11.543  -5.051  1.00  0.00    -0.206 F 
ATOM    101  C   UNL     1     -16.157 -12.820  -1.824  1.00  0.00     0.060 A 
BRANCH 101 102
ATOM    102  S   UNL     1     -17.338 -13.987  -1.115  1.00  0.00     0.124 S 
ATOM    103  O   UNL     1     -16.469 -15.103  -0.757  1.00  0.00    -0.237 OA
ATOM    104  O   UNL     1     -17.893 -13.231   0.004  1.00  0.00    -0.237 OA
ATOM    105  O   UNL     1     -18.266 -14.239  -2.213  1.00  0.00    -0.744 OA
ENDBRANCH 101 102
ENDBRANCH  69  94
ENDBRANCH  43  44
ENDBRANCH  35  38
ENDBRANCH  33  34
ENDBRANCH  32  33
ENDBRANCH  31  32
ENDBRANCH   1  31
TORSDOF 19
