REMARK SMILES CC(=O)c1c[nH]c(C(=O)N[C@H]2C=C[C@H](C(=O)NCCCCCCNC(=O)c3ccc(-c4c5nc(c(-c6c(F)cc(S(=O)(=O)[O-])cc6F)c6ccc([nH]6)c(-c6c(F)cc(S(=O)(=O)[O-])cc6F)c6nc(c(-c7c(F)cc(S(=O)(=O)[O-])cc7F)c7ccc4[nH]7)C=C6)C=C5)cc3)C2)c1
REMARK SMILES IDX 20 1 19 2 18 3 17 4 15 5 16 6 14 8 11 9 12 10 93 11 13 12
REMARK SMILES IDX 10 13 8 14 9 15 7 17 4 18 5 19 94 20 6 21 2 23 1 24 3 25
REMARK SMILES IDX 21 26 22 27 23 28 24 29 25 30 26 32 27 33 28 34 92 35 29 36
REMARK SMILES IDX 91 37 30 38 31 39 32 40 85 41 33 42 90 43 84 44 86 45 34 46
REMARK SMILES IDX 89 47 83 48 82 49 35 51 69 52 48 53 68 54 49 55 52 56 67 57
REMARK SMILES IDX 87 58 50 59 51 60 66 62 88 63 53 64 36 65 37 66 46 67 38 68
REMARK SMILES IDX 39 69 45 70 47 71 40 72 41 73 42 74 43 75 44 76 70 77 71 78
REMARK SMILES IDX 80 79 72 80 73 81 79 82 81 83 74 84 75 85 76 86 77 87 78 88
REMARK SMILES IDX 54 89 55 90 64 91 56 92 57 93 63 94 65 95 58 96 59 97 60 98
REMARK SMILES IDX 61 99 62 100
REMARK H PARENT 17 7 10 16 6 22 24 31 86 50 52 61
REMARK Flexibility Score: inf
ROOT
ATOM      1  C   UNL     1      -9.464   4.317   1.659  1.00  0.00     0.002 C 
ENDROOT
BRANCH   1   2
ATOM      2  C   UNL     1      -8.578   4.334   2.910  1.00  0.00     0.021 C 
BRANCH   2   3
ATOM      3  C   UNL     1      -7.637   3.135   3.016  1.00  0.00     0.116 C 
BRANCH   3   4
ATOM      4  N   UNL     1      -6.585   3.222   2.024  1.00  0.00    -0.356 N 
ATOM      5  C   UNL     1      -5.265   3.516   2.190  1.00  0.00     0.227 C 
ATOM      6  O   UNL     1      -4.580   3.692   1.180  1.00  0.00    -0.274 OA
ATOM      7  H   UNL     1      -6.864   3.042   1.097  1.00  0.00     0.163 HD
BRANCH   5   8
ATOM      8  C   UNL     1      -4.667   3.535   3.598  1.00  0.00     0.103 C 
ATOM      9  C   UNL     1      -2.293   4.037   3.394  1.00  0.00     0.106 C 
ATOM     10  C   UNL     1      -2.526   2.580   3.649  1.00  0.00    -0.006 C 
ATOM     11  C   UNL     1      -3.640   4.659   3.776  1.00  0.00     0.047 C 
ATOM     12  C   UNL     1      -3.829   2.300   3.761  1.00  0.00    -0.016 C 
BRANCH   9  13
ATOM     13  N   UNL     1      -1.194   4.495   4.205  1.00  0.00    -0.345 N 
ATOM     14  C   UNL     1       0.157   4.304   4.048  1.00  0.00     0.268 C 
ATOM     15  O   UNL     1       0.897   4.742   4.922  1.00  0.00    -0.268 OA
ATOM     16  H   UNL     1      -1.450   5.027   4.992  1.00  0.00     0.164 HD
BRANCH  14  17
ATOM     17  C   UNL     1       0.691   3.534   2.938  1.00  0.00     0.105 A 
ATOM     18  C   UNL     1       1.129   2.203   1.131  1.00  0.00     0.035 A 
ATOM     19  C   UNL     1       2.246   2.224   1.940  1.00  0.00     0.094 A 
ATOM     20  C   UNL     1       0.195   3.098   1.722  1.00  0.00     0.045 A 
ATOM     21  N   UNL     1       1.994   3.075   2.986  1.00  0.00    -0.356 N 
ATOM     22  H   UNL     1       2.651   3.323   3.675  1.00  0.00     0.166 HD
BRANCH  18  23
ATOM     23  C   UNL     1       0.901   1.413  -0.073  1.00  0.00     0.161 C 
ATOM     24  C   UNL     1       1.473   0.022  -0.117  1.00  0.00     0.093 C 
ATOM     25  O   UNL     1       0.200   1.832  -0.993  1.00  0.00    -0.294 OA
ENDBRANCH  18  23
ENDBRANCH  14  17
ENDBRANCH   9  13
ENDBRANCH   5   8
ENDBRANCH   3   4
ENDBRANCH   2   3
ENDBRANCH   1   2
BRANCH   1  26
ATOM     26  C   UNL     1     -10.311   3.050   1.478  1.00  0.00     0.002 C 
BRANCH  26  27
ATOM     27  C   UNL     1     -11.146   2.639   2.700  1.00  0.00     0.021 C 
BRANCH  27  28
ATOM     28  C   UNL     1     -12.202   3.668   3.096  1.00  0.00     0.116 C 
BRANCH  28  29
ATOM     29  N   UNL     1     -13.234   3.760   2.079  1.00  0.00    -0.352 N 
ATOM     30  C   UNL     1     -14.377   4.514   2.060  1.00  0.00     0.251 C 
ATOM     31  H   UNL     1     -13.091   3.196   1.284  1.00  0.00     0.163 HD
ATOM     32  O   UNL     1     -15.295   4.180   1.314  1.00  0.00    -0.269 OA
BRANCH  30  33
ATOM     33  C   UNL     1     -14.529   5.706   2.920  1.00  0.00     0.039 A 
ATOM     34  C   UNL     1     -15.797   5.970   3.454  1.00  0.00     0.014 A 
ATOM     35  C   UNL     1     -13.478   6.607   3.123  1.00  0.00     0.014 A 
ATOM     36  C   UNL     1     -15.997   7.107   4.229  1.00  0.00     0.010 A 
ATOM     37  C   UNL     1     -13.666   7.728   3.924  1.00  0.00     0.010 A 
ATOM     38  C   UNL     1     -14.925   7.974   4.479  1.00  0.00    -0.014 A 
BRANCH  38  39
ATOM     39  C   UNL     1     -15.107   9.063   5.467  1.00  0.00     0.031 A 
ATOM     40  C   UNL     1     -15.167   8.483   6.912  1.00  0.00     0.074 A 
ATOM     41  C   UNL     1     -15.226  10.327   4.951  1.00  0.00     0.049 A 
ATOM     42  N   UNL     1     -15.893   8.811   7.943  1.00  0.00    -0.248 NA
ATOM     43  C   UNL     1     -14.373   7.251   7.198  1.00  0.00     0.031 C 
ATOM     44  C   UNL     1     -15.121  10.687   3.515  1.00  0.00     0.029 A 
ATOM     45  N   UNL     1     -15.463  11.566   5.501  1.00  0.00    -0.354 N 
ATOM     46  C   UNL     1     -15.521   7.961   9.020  1.00  0.00     0.074 A 
ATOM     47  C   UNL     1     -14.683   6.944   8.460  1.00  0.00     0.031 C 
ATOM     48  C   UNL     1     -15.395  11.997   3.313  1.00  0.00     0.029 A 
ATOM     49  C   UNL     1     -15.711  12.624   4.577  1.00  0.00     0.049 A 
ATOM     50  H   UNL     1     -15.462  11.713   6.474  1.00  0.00     0.167 HD
ATOM     51  C   UNL     1     -15.791   8.229  10.335  1.00  0.00     0.037 A 
ATOM     52  C   UNL     1     -16.243  13.870   4.821  1.00  0.00     0.037 A 
ATOM     53  C   UNL     1     -16.420   9.499  10.456  1.00  0.00     0.049 A 
ATOM     54  C   UNL     1     -16.519  13.837   6.266  1.00  0.00     0.074 A 
ATOM     55  C   UNL     1     -17.694   9.997  10.549  1.00  0.00     0.029 A 
ATOM     56  N   UNL     1     -15.548  10.556  10.454  1.00  0.00    -0.354 N 
ATOM     57  N   UNL     1     -15.634  13.885   7.211  1.00  0.00    -0.248 NA
ATOM     58  C   UNL     1     -17.861  13.387   6.630  1.00  0.00     0.031 C 
ATOM     59  C   UNL     1     -17.559  11.404  10.430  1.00  0.00     0.029 A 
ATOM     60  C   UNL     1     -16.245  11.652  10.038  1.00  0.00     0.049 A 
ATOM     61  H   UNL     1     -14.596  10.528  10.706  1.00  0.00     0.167 HD
ATOM     62  C   UNL     1     -16.239  13.227   8.259  1.00  0.00     0.074 A 
ATOM     63  C   UNL     1     -17.623  12.991   7.871  1.00  0.00     0.031 C 
ATOM     64  C   UNL     1     -15.536  12.609   9.238  1.00  0.00     0.037 A 
BRANCH  51  65
ATOM     65  C   UNL     1     -15.263   7.671  11.654  1.00  0.00     0.058 A 
ATOM     66  C   UNL     1     -15.986   7.996  12.836  1.00  0.00     0.135 A 
ATOM     67  C   UNL     1     -13.941   7.245  11.858  1.00  0.00     0.135 A 
ATOM     68  F   UNL     1     -17.288   8.319  12.776  1.00  0.00    -0.206 F 
ATOM     69  C   UNL     1     -15.390   8.084  14.092  1.00  0.00     0.059 A 
ATOM     70  C   UNL     1     -13.338   7.265  13.127  1.00  0.00     0.059 A 
ATOM     71  F   UNL     1     -13.172   6.869  10.827  1.00  0.00    -0.206 F 
ATOM     72  C   UNL     1     -14.051   7.753  14.223  1.00  0.00     0.060 A 
BRANCH  72  73
ATOM     73  S   UNL     1     -13.267   7.990  15.835  1.00  0.00     0.124 S 
ATOM     74  O   UNL     1     -13.132   9.441  15.894  1.00  0.00    -0.237 OA
ATOM     75  O   UNL     1     -14.251   7.411  16.747  1.00  0.00    -0.237 OA
ATOM     76  O   UNL     1     -12.021   7.239  15.717  1.00  0.00    -0.744 OA
ENDBRANCH  72  73
ENDBRANCH  51  65
BRANCH  52  77
ATOM     77  C   UNL     1     -16.874  14.999   4.024  1.00  0.00     0.058 A 
ATOM     78  C   UNL     1     -16.723  15.231   2.652  1.00  0.00     0.135 A 
ATOM     79  C   UNL     1     -17.802  15.878   4.661  1.00  0.00     0.135 A 
ATOM     80  F   UNL     1     -15.772  14.601   1.951  1.00  0.00    -0.206 F 
ATOM     81  C   UNL     1     -17.549  16.128   1.942  1.00  0.00     0.059 A 
ATOM     82  C   UNL     1     -18.658  16.741   3.978  1.00  0.00     0.059 A 
ATOM     83  F   UNL     1     -17.941  15.907   5.994  1.00  0.00    -0.206 F 
ATOM     84  C   UNL     1     -18.553  16.835   2.605  1.00  0.00     0.060 A 
BRANCH  84  85
ATOM     85  S   UNL     1     -19.797  17.773   1.684  1.00  0.00     0.124 S 
ATOM     86  O   UNL     1     -19.114  19.040   1.451  1.00  0.00    -0.237 OA
ATOM     87  O   UNL     1     -20.011  16.938   0.506  1.00  0.00    -0.237 OA
ATOM     88  O   UNL     1     -20.927  17.827   2.608  1.00  0.00    -0.744 OA
ENDBRANCH  84  85
ENDBRANCH  52  77
BRANCH  64  89
ATOM     89  C   UNL     1     -14.024  12.675   9.103  1.00  0.00     0.058 A 
ATOM     90  C   UNL     1     -13.298  13.778   9.553  1.00  0.00     0.135 A 
ATOM     91  C   UNL     1     -13.275  11.653   8.479  1.00  0.00     0.135 A 
ATOM     92  F   UNL     1     -13.936  14.805  10.134  1.00  0.00    -0.206 F 
ATOM     93  C   UNL     1     -11.903  13.845   9.428  1.00  0.00     0.059 A 
ATOM     94  C   UNL     1     -11.886  11.685   8.351  1.00  0.00     0.059 A 
ATOM     95  F   UNL     1     -13.887  10.571   7.993  1.00  0.00    -0.206 F 
ATOM     96  C   UNL     1     -11.203  12.789   8.838  1.00  0.00     0.060 A 
BRANCH  96  97
ATOM     97  S   UNL     1      -9.399  12.866   8.735  1.00  0.00     0.124 S 
ATOM     98  O   UNL     1      -9.184  14.059   7.921  1.00  0.00    -0.237 OA
ATOM     99  O   UNL     1      -9.017  12.980  10.138  1.00  0.00    -0.237 OA
ATOM    100  O   UNL     1      -9.033  11.605   8.092  1.00  0.00    -0.744 OA
ENDBRANCH  96  97
ENDBRANCH  64  89
ENDBRANCH  38  39
ENDBRANCH  30  33
ENDBRANCH  28  29
ENDBRANCH  27  28
ENDBRANCH  26  27
ENDBRANCH   1  26
TORSDOF 19
