REMARK SMILES C[C@@H](CCC(=O)Nc1ccccn1)C(=O)NCCCCCCNC(=O)c1ccc(-c2c3nc(c(-c4c(F)cc(S(=O)(=O)[O-])cc4F)c4ccc([nH]4)c(-c4c(F)cc(S(=O)(=O)[O-])cc4F)c4nc(c(-c5c(F)cc(S(=O)(=O)[O-])cc5F)c5ccc2[nH]5)C=C4)C=C3)cc1
REMARK SMILES IDX 19 1 18 2 17 3 16 4 14 5 15 6 2 8 1 9 3 10 4 11 5 12 6 13
REMARK SMILES IDX 7 14 8 16 9 17 13 18 10 19 12 20 11 21 20 22 21 23 22 24
REMARK SMILES IDX 23 25 24 26 25 28 26 29 27 30 91 31 28 32 90 33 29 34 30 35
REMARK SMILES IDX 31 36 84 37 32 38 89 39 83 40 85 41 33 42 88 43 82 44 81 45
REMARK SMILES IDX 34 47 68 48 47 49 67 50 48 51 51 52 66 53 86 54 49 55 50 56
REMARK SMILES IDX 65 58 87 59 52 60 35 61 36 62 45 63 37 64 38 65 44 66 46 67
REMARK SMILES IDX 39 68 40 69 41 70 42 71 43 72 69 73 70 74 79 75 71 76 72 77
REMARK SMILES IDX 78 78 80 79 73 80 74 81 75 82 76 83 77 84 53 85 54 86 63 87
REMARK SMILES IDX 55 88 56 89 62 90 64 91 57 92 58 93 59 94 60 95 61 96
REMARK H PARENT 16 7 7 15 23 27 85 46 51 57
REMARK Flexibility Score: inf
ROOT
ATOM      1  C   UNL     1      -4.030   2.544   0.482  1.00  0.00     0.002 C 
ENDROOT
BRANCH   1   2
ATOM      2  C   UNL     1      -2.738   1.707   0.468  1.00  0.00     0.021 C 
BRANCH   2   3
ATOM      3  C   UNL     1      -2.330   1.011   1.790  1.00  0.00     0.116 C 
BRANCH   3   4
ATOM      4  N   UNL     1      -1.940  -0.390   1.571  1.00  0.00    -0.356 N 
ATOM      5  C   UNL     1      -1.073  -1.304   2.060  1.00  0.00     0.222 C 
ATOM      6  O   UNL     1      -1.389  -2.476   1.791  1.00  0.00    -0.275 OA
ATOM      7  H   UNL     1      -2.477  -0.784   0.845  1.00  0.00     0.163 HD
BRANCH   5   8
ATOM      8  C   UNL     1       0.256  -1.096   2.815  1.00  0.00     0.076 C 
ATOM      9  C   UNL     1       1.448  -1.813   2.126  1.00  0.00     0.018 C 
BRANCH   8  10
ATOM     10  C   UNL     1       0.659   0.265   3.363  1.00  0.00     0.023 C 
BRANCH  10  11
ATOM     11  C   UNL     1       1.528   1.147   2.465  1.00  0.00     0.101 C 
BRANCH  11  12
ATOM     12  C   UNL     1       0.801   2.101   1.556  1.00  0.00     0.225 C 
ATOM     13  O   UNL     1       0.377   3.155   2.053  1.00  0.00    -0.275 OA
ATOM     14  N   UNL     1       0.637   1.976   0.225  1.00  0.00    -0.311 N 
ATOM     15  H   UNL     1       0.492   2.874  -0.152  1.00  0.00     0.171 HD
BRANCH  14  16
ATOM     16  C   UNL     1       0.597   1.055  -0.816  1.00  0.00     0.132 A 
ATOM     17  C   UNL     1       0.468  -0.316  -0.744  1.00  0.00     0.047 A 
ATOM     18  N   UNL     1       0.520   1.683  -2.006  1.00  0.00    -0.239 NA
ATOM     19  C   UNL     1       0.288  -1.071  -1.911  1.00  0.00     0.005 A 
ATOM     20  C   UNL     1       0.355   0.945  -3.127  1.00  0.00     0.113 A 
ATOM     21  C   UNL     1       0.238  -0.428  -3.135  1.00  0.00     0.020 A 
ENDBRANCH  14  16
ENDBRANCH  11  12
ENDBRANCH  10  11
ENDBRANCH   8  10
ENDBRANCH   5   8
ENDBRANCH   3   4
ENDBRANCH   2   3
ENDBRANCH   1   2
BRANCH   1  22
ATOM     22  C   UNL     1      -4.185   3.589   1.588  1.00  0.00     0.002 C 
BRANCH  22  23
ATOM     23  C   UNL     1      -3.175   4.739   1.594  1.00  0.00     0.021 C 
BRANCH  23  24
ATOM     24  C   UNL     1      -3.196   5.681   0.386  1.00  0.00     0.116 C 
BRANCH  24  25
ATOM     25  N   UNL     1      -4.507   6.266   0.136  1.00  0.00    -0.352 N 
ATOM     26  C   UNL     1      -4.923   7.573   0.113  1.00  0.00     0.251 C 
ATOM     27  H   UNL     1      -5.218   5.609  -0.048  1.00  0.00     0.163 HD
ATOM     28  O   UNL     1      -6.130   7.815   0.039  1.00  0.00    -0.269 OA
BRANCH  26  29
ATOM     29  C   UNL     1      -3.962   8.699   0.178  1.00  0.00     0.039 A 
ATOM     30  C   UNL     1      -4.291   9.821   0.948  1.00  0.00     0.014 A 
ATOM     31  C   UNL     1      -2.779   8.696  -0.566  1.00  0.00     0.014 A 
ATOM     32  C   UNL     1      -3.414  10.909   1.016  1.00  0.00     0.010 A 
ATOM     33  C   UNL     1      -1.878   9.757  -0.452  1.00  0.00     0.010 A 
ATOM     34  C   UNL     1      -2.187  10.876   0.336  1.00  0.00    -0.014 A 
BRANCH  34  35
ATOM     35  C   UNL     1      -1.222  12.004   0.434  1.00  0.00     0.031 A 
ATOM     36  C   UNL     1      -0.901  12.835  -0.780  1.00  0.00     0.074 A 
ATOM     37  C   UNL     1      -0.596  12.245   1.603  1.00  0.00     0.049 A 
ATOM     38  N   UNL     1      -0.038  13.811  -0.909  1.00  0.00    -0.248 NA
ATOM     39  C   UNL     1      -1.631  12.514  -2.017  1.00  0.00     0.031 C 
ATOM     40  C   UNL     1      -0.791  11.481   2.838  1.00  0.00     0.029 A 
ATOM     41  N   UNL     1       0.340  13.189   1.944  1.00  0.00    -0.354 N 
ATOM     42  C   UNL     1      -0.112  14.211  -2.239  1.00  0.00     0.074 A 
ATOM     43  C   UNL     1      -1.071  13.343  -2.887  1.00  0.00     0.031 C 
ATOM     44  C   UNL     1      -0.009  11.995   3.802  1.00  0.00     0.029 A 
ATOM     45  C   UNL     1       0.766  13.100   3.249  1.00  0.00     0.049 A 
ATOM     46  H   UNL     1       0.676  13.866   1.313  1.00  0.00     0.167 HD
ATOM     47  C   UNL     1       0.544  15.223  -2.857  1.00  0.00     0.037 A 
ATOM     48  C   UNL     1       1.685  13.822   3.921  1.00  0.00     0.037 A 
ATOM     49  C   UNL     1       1.478  16.099  -2.199  1.00  0.00     0.049 A 
ATOM     50  C   UNL     1       2.396  14.944   3.212  1.00  0.00     0.074 A 
ATOM     51  C   UNL     1       2.160  17.183  -2.726  1.00  0.00     0.029 A 
ATOM     52  N   UNL     1       1.860  15.996  -0.870  1.00  0.00    -0.354 N 
ATOM     53  N   UNL     1       2.274  15.341   1.967  1.00  0.00    -0.248 NA
ATOM     54  C   UNL     1       3.364  15.721   3.999  1.00  0.00     0.031 C 
ATOM     55  C   UNL     1       2.979  17.715  -1.724  1.00  0.00     0.029 A 
ATOM     56  C   UNL     1       2.776  16.988  -0.561  1.00  0.00     0.049 A 
ATOM     57  H   UNL     1       1.529  15.317  -0.238  1.00  0.00     0.167 HD
ATOM     58  C   UNL     1       3.128  16.429   1.830  1.00  0.00     0.074 A 
ATOM     59  C   UNL     1       3.751  16.636   3.121  1.00  0.00     0.031 C 
ATOM     60  C   UNL     1       3.376  17.187   0.734  1.00  0.00     0.037 A 
BRANCH  47  61
ATOM     61  C   UNL     1       0.266  15.449  -4.319  1.00  0.00     0.058 A 
ATOM     62  C   UNL     1      -0.955  15.983  -4.759  1.00  0.00     0.135 A 
ATOM     63  C   UNL     1       1.248  15.181  -5.286  1.00  0.00     0.135 A 
ATOM     64  F   UNL     1      -1.935  16.245  -3.879  1.00  0.00    -0.206 F 
ATOM     65  C   UNL     1      -1.202  16.224  -6.107  1.00  0.00     0.059 A 
ATOM     66  C   UNL     1       1.033  15.437  -6.638  1.00  0.00     0.059 A 
ATOM     67  F   UNL     1       2.435  14.670  -4.922  1.00  0.00    -0.206 F 
ATOM     68  C   UNL     1      -0.201  15.948  -7.040  1.00  0.00     0.060 A 
BRANCH  68  69
ATOM     69  S   UNL     1      -0.531  16.284  -8.783  1.00  0.00     0.124 S 
ATOM     70  O   UNL     1      -1.448  15.200  -9.120  1.00  0.00    -0.237 OA
ATOM     71  O   UNL     1      -1.118  17.619  -8.739  1.00  0.00    -0.237 OA
ATOM     72  O   UNL     1       0.789  16.203  -9.401  1.00  0.00    -0.744 OA
ENDBRANCH  68  69
ENDBRANCH  47  61
BRANCH  48  73
ATOM     73  C   UNL     1       1.977  13.518   5.347  1.00  0.00     0.058 A 
ATOM     74  C   UNL     1       1.589  14.399   6.368  1.00  0.00     0.135 A 
ATOM     75  C   UNL     1       2.654  12.346   5.719  1.00  0.00     0.135 A 
ATOM     76  F   UNL     1       0.945  15.536   6.063  1.00  0.00    -0.206 F 
ATOM     77  C   UNL     1       1.883  14.143   7.704  1.00  0.00     0.059 A 
ATOM     78  C   UNL     1       2.936  12.055   7.051  1.00  0.00     0.059 A 
ATOM     79  F   UNL     1       3.032  11.462   4.783  1.00  0.00    -0.206 F 
ATOM     80  C   UNL     1       2.559  12.968   8.035  1.00  0.00     0.060 A 
BRANCH  80  81
ATOM     81  S   UNL     1       2.913  12.630   9.774  1.00  0.00     0.124 S 
ATOM     82  O   UNL     1       4.016  13.547  10.032  1.00  0.00    -0.237 OA
ATOM     83  O   UNL     1       1.644  12.959  10.416  1.00  0.00    -0.237 OA
ATOM     84  O   UNL     1       3.256  11.211   9.776  1.00  0.00    -0.744 OA
ENDBRANCH  80  81
ENDBRANCH  48  73
BRANCH  60  85
ATOM     85  C   UNL     1       4.336  18.333   0.890  1.00  0.00     0.058 A 
ATOM     86  C   UNL     1       5.719  18.126   1.002  1.00  0.00     0.135 A 
ATOM     87  C   UNL     1       3.868  19.657   0.876  1.00  0.00     0.135 A 
ATOM     88  F   UNL     1       6.215  16.879   1.028  1.00  0.00    -0.206 F 
ATOM     89  C   UNL     1       6.605  19.192   1.118  1.00  0.00     0.059 A 
ATOM     90  C   UNL     1       4.739  20.739   0.964  1.00  0.00     0.059 A 
ATOM     91  F   UNL     1       2.555  19.910   0.760  1.00  0.00    -0.206 F 
ATOM     92  C   UNL     1       6.105  20.496   1.096  1.00  0.00     0.060 A 
BRANCH  92  93
ATOM     93  S   UNL     1       7.268  21.872   1.211  1.00  0.00     0.124 S 
ATOM     94  O   UNL     1       7.617  21.844   2.627  1.00  0.00    -0.237 OA
ATOM     95  O   UNL     1       8.325  21.466   0.289  1.00  0.00    -0.237 OA
ATOM     96  O   UNL     1       6.478  23.021   0.780  1.00  0.00    -0.744 OA
ENDBRANCH  92  93
ENDBRANCH  60  85
ENDBRANCH  34  35
ENDBRANCH  26  29
ENDBRANCH  24  25
ENDBRANCH  23  24
ENDBRANCH  22  23
ENDBRANCH   1  22
TORSDOF 20
