REMARK SMILES COc1ccc(-c2[nH]nc3nc(-c4ccc(C(F)(F)F)cc4)cc(C(=O)NCCCCCCNC(=O)c4ccc(-c5c6nc(c(-c7c(F)cc(S(=O)(=O)[O-])cc7F)c7ccc([nH]7)c(-c7c(F)cc(S(=O)(=O)[O-])cc7F)c7nc(c(-c8c(F)cc(S(=O)(=O)[O-])cc8F)c8ccc5[nH]8)C=C7)C=C6)cc4)c23)cc1
REMARK SMILES IDX 31 1 30 2 29 3 28 4 27 5 25 6 26 7 24 9 7 10 8 11 103 12
REMARK SMILES IDX 9 13 10 15 11 16 23 17 12 18 6 19 3 20 4 21 105 22 5 23
REMARK SMILES IDX 104 24 2 25 1 26 13 27 14 28 22 29 15 30 21 31 16 32 17 33
REMARK SMILES IDX 18 34 19 35 20 36 32 37 33 38 34 39 35 40 36 42 37 43 38 44
REMARK SMILES IDX 102 45 39 46 101 47 40 48 41 49 42 50 95 51 43 52 100 53
REMARK SMILES IDX 94 54 96 55 44 56 99 57 93 58 92 59 45 61 79 62 58 63 78 64
REMARK SMILES IDX 59 65 62 66 77 67 97 68 60 69 61 70 76 72 98 73 63 74 46 75
REMARK SMILES IDX 47 76 56 77 48 78 49 79 55 80 57 81 50 82 51 83 52 84 53 85
REMARK SMILES IDX 54 86 80 87 81 88 90 89 82 90 83 91 89 92 91 93 84 94 85 95
REMARK SMILES IDX 86 96 87 97 88 98 64 99 65 100 74 101 66 102 67 103 73 104
REMARK SMILES IDX 75 105 68 106 69 107 70 108 71 109 72 110
REMARK H PARENT 27 8 8 14 34 41 96 60 62 71
REMARK Flexibility Score: inf
ROOT
ATOM      1  C   UNL     1       6.699   7.083  -3.717  1.00  0.00     0.002 C 
ENDROOT
BRANCH   1   2
ATOM      2  C   UNL     1       7.040   6.233  -2.479  1.00  0.00     0.002 C 
BRANCH   2   3
ATOM      3  C   UNL     1       6.888   6.940  -1.125  1.00  0.00     0.021 C 
BRANCH   3   4
ATOM      4  C   UNL     1       5.528   7.612  -0.948  1.00  0.00     0.116 C 
BRANCH   4   5
ATOM      5  N   UNL     1       4.500   6.630  -0.683  1.00  0.00    -0.352 N 
ATOM      6  C   UNL     1       3.767   6.239   0.404  1.00  0.00     0.252 C 
ATOM      7  O   UNL     1       2.869   5.449   0.128  1.00  0.00    -0.269 OA
ATOM      8  H   UNL     1       4.270   6.111  -1.488  1.00  0.00     0.163 HD
BRANCH   6   9
ATOM      9  C   UNL     1       3.930   6.777   1.777  1.00  0.00     0.055 A 
ATOM     10  C   UNL     1       2.063   5.631   3.061  1.00  0.00     0.075 A 
ATOM     11  N   UNL     1       1.545   5.922   4.301  1.00  0.00    -0.275 N 
ATOM     12  C   UNL     1       3.055   6.580   2.864  1.00  0.00     0.059 A 
ATOM     13  N   UNL     1       2.098   6.974   4.919  1.00  0.00    -0.154 NA
ATOM     14  H   UNL     1       0.819   5.395   4.706  1.00  0.00     0.190 HD
ATOM     15  C   UNL     1       3.063   7.355   4.083  1.00  0.00     0.182 A 
ATOM     16  N   UNL     1       3.938   8.367   4.308  1.00  0.00    -0.226 NA
ATOM     17  C   UNL     1       4.931   7.681   2.155  1.00  0.00     0.043 A 
ATOM     18  C   UNL     1       4.866   8.479   3.325  1.00  0.00     0.074 A 
BRANCH  10  19
ATOM     19  C   UNL     1       1.597   4.453   2.338  1.00  0.00     0.001 A 
ATOM     20  C   UNL     1       0.740   2.233   0.831  1.00  0.00     0.118 A 
ATOM     21  C   UNL     1      -0.117   3.314   1.056  1.00  0.00     0.047 A 
ATOM     22  C   UNL     1       2.024   2.257   1.375  1.00  0.00     0.047 A 
ATOM     23  C   UNL     1       0.302   4.413   1.812  1.00  0.00     0.014 A 
ATOM     24  C   UNL     1       2.447   3.358   2.132  1.00  0.00     0.014 A 
BRANCH  20  25
ATOM     25  O   UNL     1       0.218   1.245   0.041  1.00  0.00    -0.497 OA
ATOM     26  C   UNL     1       0.913   0.004   0.033  1.00  0.00     0.278 C 
ENDBRANCH  20  25
ENDBRANCH  10  19
BRANCH  18  27
ATOM     27  C   UNL     1       5.801   9.613   3.430  1.00  0.00     0.000 A 
ATOM     28  C   UNL     1       6.817   9.653   4.391  1.00  0.00     0.011 A 
ATOM     29  C   UNL     1       5.736  10.659   2.487  1.00  0.00     0.011 A 
ATOM     30  C   UNL     1       7.765  10.685   4.384  1.00  0.00     0.014 A 
ATOM     31  C   UNL     1       6.678  11.691   2.481  1.00  0.00     0.014 A 
ATOM     32  C   UNL     1       7.712  11.708   3.424  1.00  0.00     0.056 A 
BRANCH  32  33
ATOM     33  C   UNL     1       8.755  12.801   3.410  1.00  0.00     0.416 C 
ATOM     34  F   UNL     1       8.763  13.534   4.556  1.00  0.00    -0.166 F 
ATOM     35  F   UNL     1      10.017  12.321   3.249  1.00  0.00    -0.166 F 
ATOM     36  F   UNL     1       8.572  13.701   2.399  1.00  0.00    -0.166 F 
ENDBRANCH  32  33
ENDBRANCH  18  27
ENDBRANCH   6   9
ENDBRANCH   4   5
ENDBRANCH   3   4
ENDBRANCH   2   3
ENDBRANCH   1   2
BRANCH   1  37
ATOM     37  C   UNL     1       7.323   8.487  -3.776  1.00  0.00     0.021 C 
BRANCH  37  38
ATOM     38  C   UNL     1       8.830   8.478  -3.963  1.00  0.00     0.116 C 
BRANCH  38  39
ATOM     39  N   UNL     1       9.217   7.959  -5.276  1.00  0.00    -0.352 N 
ATOM     40  C   UNL     1      10.484   7.657  -5.747  1.00  0.00     0.251 C 
ATOM     41  H   UNL     1       8.479   7.804  -5.908  1.00  0.00     0.163 HD
ATOM     42  O   UNL     1      10.712   7.598  -6.941  1.00  0.00    -0.269 OA
BRANCH  40  43
ATOM     43  C   UNL     1      11.544   7.399  -4.756  1.00  0.00     0.039 A 
ATOM     44  C   UNL     1      12.847   7.878  -4.914  1.00  0.00     0.014 A 
ATOM     45  C   UNL     1      11.174   6.702  -3.615  1.00  0.00     0.014 A 
ATOM     46  C   UNL     1      13.748   7.712  -3.864  1.00  0.00     0.010 A 
ATOM     47  C   UNL     1      11.980   6.744  -2.515  1.00  0.00     0.010 A 
ATOM     48  C   UNL     1      13.297   7.157  -2.656  1.00  0.00    -0.014 A 
BRANCH  48  49
ATOM     49  C   UNL     1      14.152   7.052  -1.482  1.00  0.00     0.031 A 
ATOM     50  C   UNL     1      14.781   8.326  -1.054  1.00  0.00     0.074 A 
ATOM     51  C   UNL     1      14.176   5.944  -0.707  1.00  0.00     0.049 A 
ATOM     52  N   UNL     1      16.021   8.671  -1.168  1.00  0.00    -0.248 NA
ATOM     53  C   UNL     1      13.904   9.412  -0.591  1.00  0.00     0.031 C 
ATOM     54  C   UNL     1      13.375   4.716  -0.841  1.00  0.00     0.029 A 
ATOM     55  N   UNL     1      14.861   5.720   0.446  1.00  0.00    -0.354 N 
ATOM     56  C   UNL     1      16.125   9.909  -0.541  1.00  0.00     0.074 A 
ATOM     57  C   UNL     1      14.780  10.407  -0.427  1.00  0.00     0.031 C 
ATOM     58  C   UNL     1      13.448   3.992   0.296  1.00  0.00     0.029 A 
ATOM     59  C   UNL     1      14.450   4.595   1.151  1.00  0.00     0.049 A 
ATOM     60  H   UNL     1      15.588   6.307   0.755  1.00  0.00     0.167 HD
ATOM     61  C   UNL     1      17.274  10.275   0.095  1.00  0.00     0.037 A 
ATOM     62  C   UNL     1      14.912   4.171   2.352  1.00  0.00     0.037 A 
ATOM     63  C   UNL     1      18.368   9.411  -0.288  1.00  0.00     0.049 A 
ATOM     64  C   UNL     1      16.262   4.764   2.510  1.00  0.00     0.074 A 
ATOM     65  C   UNL     1      19.005   9.093  -1.471  1.00  0.00     0.029 A 
ATOM     66  N   UNL     1      18.707   8.419   0.601  1.00  0.00    -0.354 N 
ATOM     67  N   UNL     1      17.274   4.476   1.736  1.00  0.00    -0.248 NA
ATOM     68  C   UNL     1      16.382   6.007   3.253  1.00  0.00     0.031 C 
ATOM     69  C   UNL     1      19.329   7.707  -1.362  1.00  0.00     0.029 A 
ATOM     70  C   UNL     1      18.929   7.262  -0.100  1.00  0.00     0.049 A 
ATOM     71  H   UNL     1      18.779   8.522   1.577  1.00  0.00     0.167 HD
ATOM     72  C   UNL     1      17.942   5.680   1.562  1.00  0.00     0.074 A 
ATOM     73  C   UNL     1      17.422   6.550   2.614  1.00  0.00     0.031 C 
ATOM     74  C   UNL     1      18.639   5.938   0.415  1.00  0.00     0.037 A 
BRANCH  61  75
ATOM     75  C   UNL     1      17.329  11.104   1.366  1.00  0.00     0.058 A 
ATOM     76  C   UNL     1      18.590  11.482   1.875  1.00  0.00     0.135 A 
ATOM     77  C   UNL     1      16.244  11.279   2.255  1.00  0.00     0.135 A 
ATOM     78  F   UNL     1      19.694  11.373   1.119  1.00  0.00    -0.206 F 
ATOM     79  C   UNL     1      18.773  11.894   3.197  1.00  0.00     0.059 A 
ATOM     80  C   UNL     1      16.397  11.740   3.558  1.00  0.00     0.059 A 
ATOM     81  F   UNL     1      14.993  10.919   1.950  1.00  0.00    -0.206 F 
ATOM     82  C   UNL     1      17.669  11.995   4.037  1.00  0.00     0.060 A 
BRANCH  82  83
ATOM     83  S   UNL     1      17.912  12.387   5.777  1.00  0.00     0.124 S 
ATOM     84  O   UNL     1      18.572  11.178   6.254  1.00  0.00    -0.237 OA
ATOM     85  O   UNL     1      18.741  13.585   5.703  1.00  0.00    -0.237 OA
ATOM     86  O   UNL     1      16.552  12.600   6.264  1.00  0.00    -0.744 OA
ENDBRANCH  82  83
ENDBRANCH  61  75
BRANCH  62  87
ATOM     87  C   UNL     1      14.133   3.592   3.476  1.00  0.00     0.058 A 
ATOM     88  C   UNL     1      14.774   2.983   4.568  1.00  0.00     0.135 A 
ATOM     89  C   UNL     1      12.763   3.884   3.641  1.00  0.00     0.135 A 
ATOM     90  F   UNL     1      16.081   2.684   4.501  1.00  0.00    -0.206 F 
ATOM     91  C   UNL     1      14.112   2.730   5.775  1.00  0.00     0.059 A 
ATOM     92  C   UNL     1      12.081   3.635   4.831  1.00  0.00     0.059 A 
ATOM     93  F   UNL     1      12.068   4.506   2.676  1.00  0.00    -0.206 F 
ATOM     94  C   UNL     1      12.769   3.082   5.905  1.00  0.00     0.060 A 
BRANCH  94  95
ATOM     95  S   UNL     1      11.957   2.920   7.513  1.00  0.00     0.124 S 
ATOM     96  O   UNL     1      11.860   1.472   7.657  1.00  0.00    -0.237 OA
ATOM     97  O   UNL     1      12.900   3.588   8.404  1.00  0.00    -0.237 OA
ATOM     98  O   UNL     1      10.686   3.614   7.321  1.00  0.00    -0.744 OA
ENDBRANCH  94  95
ENDBRANCH  62  87
BRANCH  74  99
ATOM     99  C   UNL     1      18.956   4.772  -0.493  1.00  0.00     0.058 A 
ATOM    100  C   UNL     1      18.003   4.052  -1.234  1.00  0.00     0.135 A 
ATOM    101  C   UNL     1      20.305   4.466  -0.726  1.00  0.00     0.135 A 
ATOM    102  F   UNL     1      16.699   4.340  -1.145  1.00  0.00    -0.206 F 
ATOM    103  C   UNL     1      18.370   3.054  -2.140  1.00  0.00     0.059 A 
ATOM    104  C   UNL     1      20.696   3.494  -1.644  1.00  0.00     0.059 A 
ATOM    105  F   UNL     1      21.268   5.156  -0.093  1.00  0.00    -0.206 F 
ATOM    106  C   UNL     1      19.722   2.783  -2.342  1.00  0.00     0.060 A 
BRANCH 106 107
ATOM    107  S   UNL     1      20.200   1.552  -3.575  1.00  0.00     0.124 S 
ATOM    108  O   UNL     1      19.806   0.303  -2.931  1.00  0.00    -0.237 OA
ATOM    109  O   UNL     1      19.408   1.942  -4.738  1.00  0.00    -0.237 OA
ATOM    110  O   UNL     1      21.640   1.754  -3.718  1.00  0.00    -0.744 OA
ENDBRANCH 106 107
ENDBRANCH  74  99
ENDBRANCH  48  49
ENDBRANCH  40  43
ENDBRANCH  38  39
ENDBRANCH  37  38
ENDBRANCH   1  37
TORSDOF 20
