REMARK SMILES O=C(NCCCCCCNC(=O)[C@]12COc3ccccc3[C@H]1C[N@H+](CCO)C2)c1ccc(-c2c3nc(c(-c4c(F)cc(S(=O)(=O)[O-])cc4F)c4ccc([nH]4)c(-c4c(F)cc(S(=O)(=O)[O-])cc4F)c4nc(c(-c5c(F)cc(S(=O)(=O)[O-])cc5F)c5ccc2[nH]5)C=C4)C=C3)cc1
REMARK SMILES IDX 6 1 5 2 4 3 3 4 1 5 2 6 29 8 30 9 94 10 31 11 93 12 32 13
REMARK SMILES IDX 33 14 34 15 87 16 35 17 92 18 86 19 88 20 36 21 91 22 85 23
REMARK SMILES IDX 84 24 37 26 71 27 50 28 70 29 51 30 54 31 69 32 89 33 52 34
REMARK SMILES IDX 53 35 68 37 90 38 55 39 38 40 39 41 48 42 40 43 41 44 47 45
REMARK SMILES IDX 49 46 42 47 43 48 44 49 45 50 46 51 72 52 73 53 82 54 74 55
REMARK SMILES IDX 75 56 81 57 83 58 76 59 77 60 78 61 79 62 80 63 56 64 57 65
REMARK SMILES IDX 66 66 58 67 59 68 65 69 67 70 60 71 61 72 62 73 63 74 64 75
REMARK SMILES IDX 7 76 8 77 9 78 10 79 11 80 12 82 13 83 14 84 22 85 28 86
REMARK SMILES IDX 15 87 21 88 23 89 24 90 16 91 20 92 17 94 19 95 18 96 25 97
REMARK SMILES IDX 26 98 27 99
REMARK H PARENT 3 7 88 25 54 36 10 81 24 93 27 100
REMARK Flexibility Score: inf
ROOT
ATOM      1  C   UNL     1       4.290  -0.055   3.771  1.00  0.00     0.002 C 
ENDROOT
BRANCH   1   2
ATOM      2  C   UNL     1       4.657   0.730   2.512  1.00  0.00     0.021 C 
BRANCH   2   3
ATOM      3  C   UNL     1       4.362   0.007   1.205  1.00  0.00     0.116 C 
BRANCH   3   4
ATOM      4  N   UNL     1       2.946  -0.260   1.036  1.00  0.00    -0.352 N 
ATOM      5  O   UNL     1       0.934  -0.112   0.036  1.00  0.00    -0.269 OA
ATOM      6  C   UNL     1       2.154  -0.017  -0.057  1.00  0.00     0.251 C 
ATOM      7  H   UNL     1       2.493  -0.668   1.809  1.00  0.00     0.163 HD
BRANCH   6   8
ATOM      8  C   UNL     1       2.778   0.364  -1.342  1.00  0.00     0.039 A 
ATOM      9  C   UNL     1       2.196   1.382  -2.100  1.00  0.00     0.014 A 
ATOM     10  C   UNL     1       3.906  -0.313  -1.818  1.00  0.00     0.014 A 
ATOM     11  C   UNL     1       2.747   1.725  -3.335  1.00  0.00     0.010 A 
ATOM     12  C   UNL     1       4.498   0.079  -3.013  1.00  0.00     0.010 A 
ATOM     13  C   UNL     1       3.901   1.074  -3.801  1.00  0.00    -0.014 A 
BRANCH  13  14
ATOM     14  C   UNL     1       4.428   1.336  -5.162  1.00  0.00     0.031 A 
ATOM     15  C   UNL     1       4.355   0.246  -6.199  1.00  0.00     0.074 A 
ATOM     16  C   UNL     1       4.970   2.530  -5.465  1.00  0.00     0.049 A 
ATOM     17  N   UNL     1       4.804   0.239  -7.427  1.00  0.00    -0.248 NA
ATOM     18  C   UNL     1       3.709  -1.013  -5.790  1.00  0.00     0.031 C 
ATOM     19  C   UNL     1       5.093   3.661  -4.545  1.00  0.00     0.029 A 
ATOM     20  N   UNL     1       5.508   2.993  -6.638  1.00  0.00    -0.354 N 
ATOM     21  C   UNL     1       4.496  -1.018  -7.933  1.00  0.00     0.074 A 
ATOM     22  C   UNL     1       3.891  -1.773  -6.859  1.00  0.00     0.031 C 
ATOM     23  C   UNL     1       5.634   4.701  -5.200  1.00  0.00     0.029 A 
ATOM     24  C   UNL     1       5.931   4.299  -6.572  1.00  0.00     0.049 A 
ATOM     25  H   UNL     1       5.584   2.443  -7.451  1.00  0.00     0.167 HD
ATOM     26  C   UNL     1       4.668  -1.492  -9.190  1.00  0.00     0.037 A 
ATOM     27  C   UNL     1       6.492   5.081  -7.516  1.00  0.00     0.037 A 
ATOM     28  C   UNL     1       5.250  -0.729 -10.261  1.00  0.00     0.049 A 
ATOM     29  C   UNL     1       6.726   4.517  -8.891  1.00  0.00     0.074 A 
ATOM     30  C   UNL     1       5.464  -1.109 -11.573  1.00  0.00     0.029 A 
ATOM     31  N   UNL     1       5.704   0.578 -10.143  1.00  0.00    -0.354 N 
ATOM     32  N   UNL     1       6.430   3.325  -9.355  1.00  0.00    -0.248 NA
ATOM     33  C   UNL     1       7.372   5.401  -9.870  1.00  0.00     0.031 C 
ATOM     34  C   UNL     1       6.081  -0.045 -12.240  1.00  0.00     0.029 A 
ATOM     35  C   UNL     1       6.210   1.014 -11.355  1.00  0.00     0.049 A 
ATOM     36  H   UNL     1       5.670   1.115  -9.319  1.00  0.00     0.167 HD
ATOM     37  C   UNL     1       6.833   3.324 -10.685  1.00  0.00     0.074 A 
ATOM     38  C   UNL     1       7.384   4.637 -10.955  1.00  0.00     0.031 C 
ATOM     39  C   UNL     1       6.756   2.326 -11.602  1.00  0.00     0.037 A 
BRANCH  26  40
ATOM     40  C   UNL     1       4.205  -2.896  -9.468  1.00  0.00     0.058 A 
ATOM     41  C   UNL     1       2.840  -3.227  -9.490  1.00  0.00     0.135 A 
ATOM     42  C   UNL     1       5.130  -3.921  -9.722  1.00  0.00     0.135 A 
ATOM     43  F   UNL     1       1.913  -2.290  -9.234  1.00  0.00    -0.206 F 
ATOM     44  C   UNL     1       2.409  -4.529  -9.719  1.00  0.00     0.059 A 
ATOM     45  C   UNL     1       4.720  -5.226  -9.983  1.00  0.00     0.059 A 
ATOM     46  F   UNL     1       6.447  -3.663  -9.710  1.00  0.00    -0.206 F 
ATOM     47  C   UNL     1       3.358  -5.523  -9.963  1.00  0.00     0.060 A 
BRANCH  47  48
ATOM     48  S   UNL     1       2.780  -7.209 -10.247  1.00  0.00     0.124 S 
ATOM     49  O   UNL     1       2.324  -7.589  -8.913  1.00  0.00    -0.237 OA
ATOM     50  O   UNL     1       1.733  -7.015 -11.244  1.00  0.00    -0.237 OA
ATOM     51  O   UNL     1       3.974  -7.903 -10.721  1.00  0.00    -0.744 OA
ENDBRANCH  47  48
ENDBRANCH  26  40
BRANCH  27  52
ATOM     52  C   UNL     1       6.828   6.494  -7.198  1.00  0.00     0.058 A 
ATOM     53  C   UNL     1       6.076   7.546  -7.742  1.00  0.00     0.135 A 
ATOM     54  C   UNL     1       7.871   6.822  -6.318  1.00  0.00     0.135 A 
ATOM     55  F   UNL     1       5.075   7.283  -8.596  1.00  0.00    -0.206 F 
ATOM     56  C   UNL     1       6.345   8.874  -7.426  1.00  0.00     0.059 A 
ATOM     57  C   UNL     1       8.144   8.142  -5.969  1.00  0.00     0.059 A 
ATOM     58  F   UNL     1       8.612   5.852  -5.762  1.00  0.00    -0.206 F 
ATOM     59  C   UNL     1       7.376   9.161  -6.530  1.00  0.00     0.060 A 
BRANCH  59  60
ATOM     60  S   UNL     1       7.663  10.884  -6.071  1.00  0.00     0.124 S 
ATOM     61  O   UNL     1       8.196  11.435  -7.311  1.00  0.00    -0.237 OA
ATOM     62  O   UNL     1       6.323  11.326  -5.698  1.00  0.00    -0.237 OA
ATOM     63  O   UNL     1       8.612  10.783  -4.966  1.00  0.00    -0.744 OA
ENDBRANCH  59  60
ENDBRANCH  27  52
BRANCH  39  64
ATOM     64  C   UNL     1       7.265   2.615 -12.986  1.00  0.00     0.058 A 
ATOM     65  C   UNL     1       8.638   2.705 -13.259  1.00  0.00     0.135 A 
ATOM     66  C   UNL     1       6.372   2.733 -14.064  1.00  0.00     0.135 A 
ATOM     67  F   UNL     1       9.533   2.604 -12.263  1.00  0.00    -0.206 F 
ATOM     68  C   UNL     1       9.109   2.919 -14.550  1.00  0.00     0.059 A 
ATOM     69  C   UNL     1       6.821   2.920 -15.367  1.00  0.00     0.059 A 
ATOM     70  F   UNL     1       5.048   2.643 -13.858  1.00  0.00    -0.206 F 
ATOM     71  C   UNL     1       8.192   3.020 -15.599  1.00  0.00     0.060 A 
BRANCH  71  72
ATOM     72  S   UNL     1       8.823   3.256 -17.273  1.00  0.00     0.124 S 
ATOM     73  O   UNL     1       9.304   4.632 -17.215  1.00  0.00    -0.237 OA
ATOM     74  O   UNL     1       9.854   2.227 -17.365  1.00  0.00    -0.237 OA
ATOM     75  O   UNL     1       7.649   3.037 -18.114  1.00  0.00    -0.744 OA
ENDBRANCH  71  72
ENDBRANCH  39  64
ENDBRANCH  13  14
ENDBRANCH   6   8
ENDBRANCH   3   4
ENDBRANCH   2   3
ENDBRANCH   1   2
BRANCH   1  76
ATOM     76  C   UNL     1       4.929  -1.442   3.880  1.00  0.00     0.002 C 
BRANCH  76  77
ATOM     77  C   UNL     1       6.464  -1.477   3.786  1.00  0.00     0.021 C 
BRANCH  77  78
ATOM     78  C   UNL     1       7.213  -0.514   4.722  1.00  0.00     0.116 C 
BRANCH  78  79
ATOM     79  N   UNL     1       6.823  -0.709   6.102  1.00  0.00    -0.355 N 
ATOM     80  C   UNL     1       7.417  -1.552   6.980  1.00  0.00     0.236 C 
ATOM     81  H   UNL     1       6.059  -0.183   6.431  1.00  0.00     0.163 HD
ATOM     82  O   UNL     1       6.702  -2.454   7.434  1.00  0.00    -0.274 OA
BRANCH  80  83
ATOM     83  C   UNL     1       8.776  -1.242   7.616  1.00  0.00     0.144 C 
ATOM     84  C   UNL     1       8.453  -0.335   8.819  1.00  0.00     0.253 C 
ATOM     85  C   UNL     1       9.953  -0.642   6.846  1.00  0.00     0.103 C 
ATOM     86  C   UNL     1       9.333  -2.621   8.057  1.00  0.00     0.283 C 
ATOM     87  O   UNL     1       8.232   1.040   8.458  1.00  0.00    -0.492 OA
ATOM     88  C   UNL     1      10.096   0.855   6.926  1.00  0.00     0.004 A 
ATOM     89  C   UNL     1      11.175  -1.240   7.573  1.00  0.00     0.272 C 
ATOM     90  N   UNL     1      10.800  -2.580   7.993  1.00  0.00    -0.331 N 
ATOM     91  C   UNL     1       9.265   1.600   7.760  1.00  0.00     0.123 A 
ATOM     92  C   UNL     1      11.160   1.500   6.269  1.00  0.00     0.008 A 
ATOM     93  H   UNL     1      11.183  -2.771   8.919  1.00  0.00     0.348 HD
ATOM     94  C   UNL     1       9.474   2.970   7.921  1.00  0.00     0.047 A 
ATOM     95  C   UNL     1      11.397   2.860   6.466  1.00  0.00     0.001 A 
ATOM     96  C   UNL     1      10.552   3.597   7.292  1.00  0.00     0.004 A 
BRANCH  90  97
ATOM     97  C   UNL     1      11.411  -3.659   7.196  1.00  0.00     0.290 C 
BRANCH  97  98
ATOM     98  C   UNL     1      11.221  -3.650   5.665  1.00  0.00     0.217 C 
BRANCH  98  99
ATOM     99  O   UNL     1      12.096  -2.721   5.032  1.00  0.00    -0.391 OA
ATOM    100  H   UNL     1      11.906  -1.826   5.355  1.00  0.00     0.210 HD
ENDBRANCH  98  99
ENDBRANCH  97  98
ENDBRANCH  90  97
ENDBRANCH  80  83
ENDBRANCH  78  79
ENDBRANCH  77  78
ENDBRANCH  76  77
ENDBRANCH   1  76
TORSDOF 19
