REMARK SMILES O=C(NCCCCCCNC(=O)[C@H]1CC[C@H]2CCCC[C@@H]2[N@H+]1[C@@H]1CCCSC1)c1ccc(-c2c3nc(c(-c4c(F)cc(S(=O)(=O)[O-])cc4F)c4ccc([nH]4)c(-c4c(F)cc(S(=O)(=O)[O-])cc4F)c4nc(c(-c5c(F)cc(S(=O)(=O)[O-])cc5F)c5ccc2[nH]5)C=C4)C=C3)cc1
REMARK SMILES IDX 5 1 4 2 3 3 1 4 2 5 29 7 30 8 94 9 31 10 93 11 32 12 33 13
REMARK SMILES IDX 34 14 87 15 35 16 92 17 86 18 88 19 36 20 91 21 85 22 84 23
REMARK SMILES IDX 37 25 71 26 50 27 70 28 51 29 54 30 69 31 89 32 52 33 53 34
REMARK SMILES IDX 68 36 90 37 55 38 38 39 39 40 48 41 40 42 41 43 47 44 49 45
REMARK SMILES IDX 42 46 43 47 44 48 45 49 46 50 72 51 73 52 82 53 74 54 75 55
REMARK SMILES IDX 81 56 83 57 76 58 77 59 78 60 79 61 80 62 56 63 57 64 66 65
REMARK SMILES IDX 58 66 59 67 65 68 67 69 60 70 61 71 62 72 63 73 64 74 6 75
REMARK SMILES IDX 7 76 8 77 9 78 10 79 11 80 12 82 13 83 14 84 22 85 15 86
REMARK SMILES IDX 21 87 16 89 20 90 17 91 19 92 18 93 23 94 24 95 28 96 25 97
REMARK SMILES IDX 27 98 26 99
REMARK H PARENT 3 6 88 24 54 35 10 81 22 88
REMARK Flexibility Score: inf
ROOT
ATOM      1  C   UNL     1       4.692  -1.504   2.174  1.00  0.00     0.021 C 
ENDROOT
BRANCH   1   2
ATOM      2  C   UNL     1       4.448  -1.113   0.722  1.00  0.00     0.116 C 
BRANCH   2   3
ATOM      3  N   UNL     1       3.037  -1.071   0.385  1.00  0.00    -0.352 N 
ATOM      4  O   UNL     1       1.082  -0.126  -0.215  1.00  0.00    -0.269 OA
ATOM      5  C   UNL     1       2.305  -0.037  -0.143  1.00  0.00     0.251 C 
ATOM      6  H   UNL     1       2.535  -1.899   0.559  1.00  0.00     0.163 HD
BRANCH   5   7
ATOM      7  C   UNL     1       2.991   1.190  -0.599  1.00  0.00     0.039 A 
ATOM      8  C   UNL     1       4.137   1.118  -1.396  1.00  0.00     0.014 A 
ATOM      9  C   UNL     1       2.472   2.432  -0.225  1.00  0.00     0.014 A 
ATOM     10  C   UNL     1       4.833   2.280  -1.716  1.00  0.00     0.010 A 
ATOM     11  C   UNL     1       3.130   3.601  -0.611  1.00  0.00     0.010 A 
ATOM     12  C   UNL     1       4.329   3.534  -1.338  1.00  0.00    -0.014 A 
BRANCH  12  13
ATOM     13  C   UNL     1       5.031   4.774  -1.756  1.00  0.00     0.031 A 
ATOM     14  C   UNL     1       5.635   5.699  -0.737  1.00  0.00     0.074 A 
ATOM     15  C   UNL     1       5.104   5.069  -3.068  1.00  0.00     0.049 A 
ATOM     16  N   UNL     1       6.228   6.851  -0.919  1.00  0.00    -0.248 NA
ATOM     17  C   UNL     1       5.554   5.282   0.671  1.00  0.00     0.031 C 
ATOM     18  C   UNL     1       4.550   4.247  -4.147  1.00  0.00     0.029 A 
ATOM     19  N   UNL     1       5.665   6.136  -3.720  1.00  0.00    -0.354 N 
ATOM     20  C   UNL     1       6.572   7.309   0.347  1.00  0.00     0.074 A 
ATOM     21  C   UNL     1       6.099   6.319   1.292  1.00  0.00     0.031 C 
ATOM     22  C   UNL     1       4.815   4.830  -5.325  1.00  0.00     0.029 A 
ATOM     23  C   UNL     1       5.500   6.094  -5.083  1.00  0.00     0.049 A 
ATOM     24  H   UNL     1       6.141   6.863  -3.256  1.00  0.00     0.167 HD
ATOM     25  C   UNL     1       7.225   8.447   0.686  1.00  0.00     0.037 A 
ATOM     26  C   UNL     1       5.835   6.986  -6.035  1.00  0.00     0.037 A 
ATOM     27  C   UNL     1       7.693   9.422  -0.267  1.00  0.00     0.049 A 
ATOM     28  C   UNL     1       6.530   8.255  -5.633  1.00  0.00     0.074 A 
ATOM     29  C   UNL     1       8.391  10.594  -0.028  1.00  0.00     0.029 A 
ATOM     30  N   UNL     1       7.502   9.346  -1.640  1.00  0.00    -0.354 N 
ATOM     31  N   UNL     1       6.873   8.659  -4.434  1.00  0.00    -0.248 NA
ATOM     32  C   UNL     1       6.884   9.188  -6.710  1.00  0.00     0.031 C 
ATOM     33  C   UNL     1       8.580  11.248  -1.250  1.00  0.00     0.029 A 
ATOM     34  C   UNL     1       8.050  10.459  -2.258  1.00  0.00     0.049 A 
ATOM     35  H   UNL     1       7.044   8.610  -2.106  1.00  0.00     0.167 HD
ATOM     36  C   UNL     1       7.507   9.883  -4.612  1.00  0.00     0.074 A 
ATOM     37  C   UNL     1       7.504  10.148  -6.037  1.00  0.00     0.031 C 
ATOM     38  C   UNL     1       8.046  10.707  -3.680  1.00  0.00     0.037 A 
BRANCH  25  39
ATOM     39  C   UNL     1       7.447   8.713   2.152  1.00  0.00     0.058 A 
ATOM     40  C   UNL     1       8.349   7.956   2.916  1.00  0.00     0.135 A 
ATOM     41  C   UNL     1       6.759   9.754   2.799  1.00  0.00     0.135 A 
ATOM     42  F   UNL     1       9.026   6.941   2.354  1.00  0.00    -0.206 F 
ATOM     43  C   UNL     1       8.533   8.194   4.274  1.00  0.00     0.059 A 
ATOM     44  C   UNL     1       6.948  10.028   4.151  1.00  0.00     0.059 A 
ATOM     45  F   UNL     1       5.888  10.514   2.117  1.00  0.00    -0.206 F 
ATOM     46  C   UNL     1       7.822   9.229   4.885  1.00  0.00     0.060 A 
BRANCH  46  47
ATOM     47  S   UNL     1       8.050   9.506   6.654  1.00  0.00     0.124 S 
ATOM     48  O   UNL     1       7.328   8.370   7.220  1.00  0.00    -0.237 OA
ATOM     49  O   UNL     1       9.502   9.465   6.793  1.00  0.00    -0.237 OA
ATOM     50  O   UNL     1       7.438  10.812   6.876  1.00  0.00    -0.744 OA
ENDBRANCH  46  47
ENDBRANCH  25  39
BRANCH  26  51
ATOM     51  C   UNL     1       5.508   6.694  -7.454  1.00  0.00     0.058 A 
ATOM     52  C   UNL     1       6.513   6.364  -8.374  1.00  0.00     0.135 A 
ATOM     53  C   UNL     1       4.177   6.678  -7.903  1.00  0.00     0.135 A 
ATOM     54  F   UNL     1       7.799   6.370  -7.992  1.00  0.00    -0.206 F 
ATOM     55  C   UNL     1       6.212   6.028  -9.689  1.00  0.00     0.059 A 
ATOM     56  C   UNL     1       3.849   6.320  -9.206  1.00  0.00     0.059 A 
ATOM     57  F   UNL     1       3.178   6.968  -7.055  1.00  0.00    -0.206 F 
ATOM     58  C   UNL     1       4.875   6.001 -10.094  1.00  0.00     0.060 A 
BRANCH  58  59
ATOM     59  S   UNL     1       4.493   5.487 -11.782  1.00  0.00     0.124 S 
ATOM     60  O   UNL     1       4.929   6.649 -12.548  1.00  0.00    -0.237 OA
ATOM     61  O   UNL     1       5.307   4.284 -11.927  1.00  0.00    -0.237 OA
ATOM     62  O   UNL     1       3.052   5.258 -11.745  1.00  0.00    -0.744 OA
ENDBRANCH  58  59
ENDBRANCH  26  51
BRANCH  38  63
ATOM     63  C   UNL     1       8.719  11.958  -4.171  1.00  0.00     0.058 A 
ATOM     64  C   UNL     1       7.987  13.056  -4.649  1.00  0.00     0.135 A 
ATOM     65  C   UNL     1      10.117  12.080  -4.104  1.00  0.00     0.135 A 
ATOM     66  F   UNL     1       6.649  12.987  -4.743  1.00  0.00    -0.206 F 
ATOM     67  C   UNL     1       8.618  14.226  -5.058  1.00  0.00     0.059 A 
ATOM     68  C   UNL     1      10.767  13.250  -4.482  1.00  0.00     0.059 A 
ATOM     69  F   UNL     1      10.863  11.062  -3.647  1.00  0.00    -0.206 F 
ATOM     70  C   UNL     1      10.009  14.316  -4.966  1.00  0.00     0.060 A 
BRANCH  70  71
ATOM     71  S   UNL     1      10.812  15.857  -5.453  1.00  0.00     0.124 S 
ATOM     72  O   UNL     1      10.711  15.794  -6.907  1.00  0.00    -0.237 OA
ATOM     73  O   UNL     1       9.979  16.863  -4.802  1.00  0.00    -0.237 OA
ATOM     74  O   UNL     1      12.161  15.723  -4.912  1.00  0.00    -0.744 OA
ENDBRANCH  70  71
ENDBRANCH  38  63
ENDBRANCH  12  13
ENDBRANCH   5   7
ENDBRANCH   2   3
ENDBRANCH   1   2
BRANCH   1  75
ATOM     75  C   UNL     1       4.174  -2.885   2.578  1.00  0.00     0.002 C 
BRANCH  75  76
ATOM     76  C   UNL     1       4.605  -4.048   1.682  1.00  0.00     0.002 C 
BRANCH  76  77
ATOM     77  C   UNL     1       6.102  -4.146   1.387  1.00  0.00     0.021 C 
BRANCH  77  78
ATOM     78  C   UNL     1       7.019  -4.192   2.603  1.00  0.00     0.116 C 
BRANCH  78  79
ATOM     79  N   UNL     1       6.829  -5.389   3.386  1.00  0.00    -0.351 N 
ATOM     80  C   UNL     1       7.719  -6.250   3.945  1.00  0.00     0.278 C 
ATOM     81  H   UNL     1       5.886  -5.623   3.543  1.00  0.00     0.163 HD
ATOM     82  O   UNL     1       7.221  -7.315   4.333  1.00  0.00    -0.268 OA
BRANCH  80  83
ATOM     83  C   UNL     1       9.262  -5.976   4.001  1.00  0.00     0.274 C 
ATOM     84  C   UNL     1       9.743  -4.506   4.075  1.00  0.00     0.076 C 
ATOM     85  N   UNL     1       9.929  -6.841   5.024  1.00  0.00    -0.319 N 
ATOM     86  C   UNL     1      11.213  -4.337   4.488  1.00  0.00     0.016 C 
ATOM     87  C   UNL     1      11.402  -6.784   4.963  1.00  0.00     0.188 C 
ATOM     88  H   UNL     1       9.685  -7.786   4.729  1.00  0.00     0.349 HD
ATOM     89  C   UNL     1      11.963  -5.610   4.131  1.00  0.00     0.048 C 
ATOM     90  C   UNL     1      11.979  -8.084   4.377  1.00  0.00     0.065 C 
ATOM     91  C   UNL     1      13.475  -5.521   4.338  1.00  0.00     0.010 C 
ATOM     92  C   UNL     1      13.512  -8.071   4.435  1.00  0.00     0.006 C 
ATOM     93  C   UNL     1      14.135  -6.808   3.835  1.00  0.00     0.001 C 
BRANCH  85  94
ATOM     94  C   UNL     1       9.345  -6.824   6.401  1.00  0.00     0.194 C 
ATOM     95  C   UNL     1       9.583  -5.524   7.195  1.00  0.00     0.067 C 
ATOM     96  C   UNL     1       9.790  -8.079   7.198  1.00  0.00     0.134 C 
ATOM     97  C   UNL     1       8.898  -5.500   8.559  1.00  0.00     0.017 C 
ATOM     98  S   UNL     1       9.023  -8.231   8.848  1.00  0.00    -0.156 SA
ATOM     99  C   UNL     1       9.411  -6.583   9.491  1.00  0.00     0.070 C 
ENDBRANCH  85  94
ENDBRANCH  80  83
ENDBRANCH  78  79
ENDBRANCH  77  78
ENDBRANCH  76  77
ENDBRANCH  75  76
ENDBRANCH   1  75
TORSDOF 17
