REMARK SMILES O=C(NCCCCCCNC(=O)[C@H]1CC2=c3ccccc3=N[C@H]2[C@@H](c2ccccc2)[NH2+]1)c1ccc(-c2c3nc(c(-c4c(F)cc(S(=O)(=O)[O-])cc4F)c4ccc([nH]4)c(-c4c(F)cc(S(=O)(=O)[O-])cc4F)c4nc(c(-c5c(F)cc(S(=O)(=O)[O-])cc5F)c5ccc2[nH]5)C=C4)C=C3)cc1
REMARK SMILES IDX 5 1 4 2 3 3 1 4 2 5 32 7 33 8 97 9 34 10 96 11 35 12 36 13
REMARK SMILES IDX 37 14 90 15 38 16 95 17 89 18 91 19 39 20 94 21 88 22 87 23
REMARK SMILES IDX 40 25 74 26 53 27 73 28 54 29 57 30 72 31 92 32 55 33 56 34
REMARK SMILES IDX 71 36 93 37 58 38 41 39 42 40 51 41 43 42 44 43 50 44 52 45
REMARK SMILES IDX 45 46 46 47 47 48 48 49 49 50 75 51 76 52 85 53 77 54 78 55
REMARK SMILES IDX 84 56 86 57 79 58 80 59 81 60 82 61 83 62 59 63 60 64 69 65
REMARK SMILES IDX 61 66 62 67 68 68 70 69 63 70 64 71 65 72 66 73 67 74 6 75
REMARK SMILES IDX 7 76 8 77 9 78 10 79 11 80 12 82 13 83 14 84 31 85 15 86
REMARK SMILES IDX 24 87 16 90 23 91 17 92 21 93 22 94 18 95 20 96 19 97 25 98
REMARK SMILES IDX 26 99 30 100 27 101 29 102 28 103
REMARK H PARENT 3 6 91 24 57 35 10 81 31 88 31 89
REMARK Flexibility Score: inf
ROOT
ATOM      1  C   UNL     1       4.601   2.543   0.118  1.00  0.00     0.021 C 
ENDROOT
BRANCH   1   2
ATOM      2  C   UNL     1       4.359   1.064   0.414  1.00  0.00     0.116 C 
BRANCH   2   3
ATOM      3  N   UNL     1       2.945   0.764   0.547  1.00  0.00    -0.352 N 
ATOM      4  O   UNL     1       0.975  -0.179   0.020  1.00  0.00    -0.269 OA
ATOM      5  C   UNL     1       2.204  -0.216  -0.058  1.00  0.00     0.251 C 
ATOM      6  H   UNL     1       2.446   1.351   1.161  1.00  0.00     0.163 HD
BRANCH   5   7
ATOM      7  C   UNL     1       2.861  -1.313  -0.801  1.00  0.00     0.039 A 
ATOM      8  C   UNL     1       2.305  -1.728  -2.015  1.00  0.00     0.014 A 
ATOM      9  C   UNL     1       3.970  -1.984  -0.273  1.00  0.00     0.014 A 
ATOM     10  C   UNL     1       2.868  -2.802  -2.709  1.00  0.00     0.010 A 
ATOM     11  C   UNL     1       4.557  -3.028  -0.988  1.00  0.00     0.010 A 
ATOM     12  C   UNL     1       4.001  -3.458  -2.203  1.00  0.00    -0.014 A 
BRANCH  12  13
ATOM     13  C   UNL     1       4.573  -4.642  -2.892  1.00  0.00     0.031 A 
ATOM     14  C   UNL     1       4.447  -6.002  -2.257  1.00  0.00     0.074 A 
ATOM     15  C   UNL     1       5.216  -4.500  -4.067  1.00  0.00     0.049 A 
ATOM     16  N   UNL     1       4.973  -7.140  -2.629  1.00  0.00    -0.248 NA
ATOM     17  C   UNL     1       3.631  -6.089  -1.034  1.00  0.00     0.031 C 
ATOM     18  C   UNL     1       5.392  -3.239  -4.791  1.00  0.00     0.029 A 
ATOM     19  N   UNL     1       5.844  -5.428  -4.860  1.00  0.00    -0.354 N 
ATOM     20  C   UNL     1       4.558  -8.075  -1.688  1.00  0.00     0.074 A 
ATOM     21  C   UNL     1       3.770  -7.366  -0.704  1.00  0.00     0.031 C 
ATOM     22  C   UNL     1       6.064  -3.477  -5.930  1.00  0.00     0.029 A 
ATOM     23  C   UNL     1       6.400  -4.896  -6.000  1.00  0.00     0.049 A 
ATOM     24  H   UNL     1       5.891  -6.385  -4.635  1.00  0.00     0.167 HD
ATOM     25  C   UNL     1       4.794  -9.408  -1.659  1.00  0.00     0.037 A 
ATOM     26  C   UNL     1       7.107  -5.487  -6.983  1.00  0.00     0.037 A 
ATOM     27  C   UNL     1       5.556 -10.117  -2.653  1.00  0.00     0.049 A 
ATOM     28  C   UNL     1       7.381  -6.966  -6.908  1.00  0.00     0.074 A 
ATOM     29  C   UNL     1       5.872 -11.464  -2.697  1.00  0.00     0.029 A 
ATOM     30  N   UNL     1       6.097  -9.542  -3.792  1.00  0.00    -0.354 N 
ATOM     31  N   UNL     1       7.015  -7.826  -5.988  1.00  0.00    -0.248 NA
ATOM     32  C   UNL     1       8.164  -7.554  -8.005  1.00  0.00     0.031 C 
ATOM     33  C   UNL     1       6.617 -11.702  -3.857  1.00  0.00     0.029 A 
ATOM     34  C   UNL     1       6.735 -10.509  -4.551  1.00  0.00     0.049 A 
ATOM     35  H   UNL     1       6.037  -8.588  -4.027  1.00  0.00     0.167 HD
ATOM     36  C   UNL     1       7.492  -9.061  -6.414  1.00  0.00     0.074 A 
ATOM     37  C   UNL     1       8.170  -8.838  -7.674  1.00  0.00     0.031 C 
ATOM     38  C   UNL     1       7.378 -10.272  -5.816  1.00  0.00     0.037 A 
BRANCH  25  39
ATOM     39  C   UNL     1       4.207 -10.201  -0.527  1.00  0.00     0.058 A 
ATOM     40  C   UNL     1       2.839 -10.513  -0.493  1.00  0.00     0.135 A 
ATOM     41  C   UNL     1       5.026 -10.724   0.486  1.00  0.00     0.135 A 
ATOM     42  F   UNL     1       2.010 -10.019  -1.425  1.00  0.00    -0.206 F 
ATOM     43  C   UNL     1       2.303 -11.316   0.508  1.00  0.00     0.059 A 
ATOM     44  C   UNL     1       4.515 -11.548   1.484  1.00  0.00     0.059 A 
ATOM     45  F   UNL     1       6.340 -10.450   0.501  1.00  0.00    -0.206 F 
ATOM     46  C   UNL     1       3.150 -11.836   1.488  1.00  0.00     0.060 A 
BRANCH  46  47
ATOM     47  S   UNL     1       2.445 -12.918   2.749  1.00  0.00     0.124 S 
ATOM     48  O   UNL     1       1.688 -11.967   3.558  1.00  0.00    -0.237 OA
ATOM     49  O   UNL     1       1.650 -13.847   1.954  1.00  0.00    -0.237 OA
ATOM     50  O   UNL     1       3.619 -13.495   3.397  1.00  0.00    -0.744 OA
ENDBRANCH  46  47
ENDBRANCH  25  39
BRANCH  26  51
ATOM     51  C   UNL     1       7.599  -4.692  -8.139  1.00  0.00     0.058 A 
ATOM     52  C   UNL     1       7.041  -4.862  -9.415  1.00  0.00     0.135 A 
ATOM     53  C   UNL     1       8.649  -3.772  -8.000  1.00  0.00     0.135 A 
ATOM     54  F   UNL     1       6.039  -5.736  -9.596  1.00  0.00    -0.206 F 
ATOM     55  C   UNL     1       7.524  -4.170 -10.520  1.00  0.00     0.059 A 
ATOM     56  C   UNL     1       9.135  -3.051  -9.086  1.00  0.00     0.059 A 
ATOM     57  F   UNL     1       9.206  -3.562  -6.797  1.00  0.00    -0.206 F 
ATOM     58  C   UNL     1       8.576  -3.269 -10.346  1.00  0.00     0.060 A 
BRANCH  58  59
ATOM     59  S   UNL     1       9.188  -2.362 -11.782  1.00  0.00     0.124 S 
ATOM     60  O   UNL     1       9.967  -3.388 -12.465  1.00  0.00    -0.237 OA
ATOM     61  O   UNL     1       7.951  -1.954 -12.440  1.00  0.00    -0.237 OA
ATOM     62  O   UNL     1       9.960  -1.276 -11.185  1.00  0.00    -0.744 OA
ENDBRANCH  58  59
ENDBRANCH  26  51
BRANCH  38  63
ATOM     63  C   UNL     1       7.944 -11.458  -6.541  1.00  0.00     0.058 A 
ATOM     64  C   UNL     1       9.324 -11.707  -6.581  1.00  0.00     0.135 A 
ATOM     65  C   UNL     1       7.088 -12.385  -7.156  1.00  0.00     0.135 A 
ATOM     66  F   UNL     1      10.183 -10.847  -6.011  1.00  0.00    -0.206 F 
ATOM     67  C   UNL     1       9.839 -12.827  -7.226  1.00  0.00     0.059 A 
ATOM     68  C   UNL     1       7.580 -13.523  -7.788  1.00  0.00     0.059 A 
ATOM     69  F   UNL     1       5.759 -12.196  -7.136  1.00  0.00    -0.206 F 
ATOM     70  C   UNL     1       8.958 -13.729  -7.827  1.00  0.00     0.060 A 
BRANCH  70  71
ATOM     71  S   UNL     1       9.637 -15.195  -8.632  1.00  0.00     0.124 S 
ATOM     72  O   UNL     1      10.173 -14.630  -9.866  1.00  0.00    -0.237 OA
ATOM     73  O   UNL     1      10.627 -15.656  -7.663  1.00  0.00    -0.237 OA
ATOM     74  O   UNL     1       8.474 -16.064  -8.792  1.00  0.00    -0.744 OA
ENDBRANCH  70  71
ENDBRANCH  38  63
ENDBRANCH  12  13
ENDBRANCH   5   7
ENDBRANCH   2   3
ENDBRANCH   1   2
BRANCH   1  75
ATOM     75  C   UNL     1       4.125   3.512   1.207  1.00  0.00     0.002 C 
BRANCH  75  76
ATOM     76  C   UNL     1       4.718   3.282   2.601  1.00  0.00     0.002 C 
BRANCH  76  77
ATOM     77  C   UNL     1       6.247   3.212   2.653  1.00  0.00     0.021 C 
BRANCH  77  78
ATOM     78  C   UNL     1       6.952   4.465   2.139  1.00  0.00     0.116 C 
BRANCH  78  79
ATOM     79  N   UNL     1       6.827   5.565   3.076  1.00  0.00    -0.351 N 
ATOM     80  C   UNL     1       7.779   6.257   3.772  1.00  0.00     0.278 C 
ATOM     81  H   UNL     1       5.902   5.863   3.239  1.00  0.00     0.163 HD
ATOM     82  O   UNL     1       7.393   7.100   4.587  1.00  0.00    -0.268 OA
BRANCH  80  83
ATOM     83  C   UNL     1       9.284   5.989   3.553  1.00  0.00     0.277 C 
ATOM     84  C   UNL     1       9.676   4.571   4.026  1.00  0.00     0.109 C 
ATOM     85  N   UNL     1       9.643   6.365   2.166  1.00  0.00    -0.327 N 
ATOM     86  C   UNL     1      10.553   3.894   3.030  1.00  0.00    -0.024 C 
ATOM     87  C   UNL     1      11.055   6.075   1.805  1.00  0.00     0.243 C 
ATOM     88  H   UNL     1       9.482   7.366   2.053  1.00  0.00     0.347 HD
ATOM     89  H   UNL     1       9.059   5.801   1.548  1.00  0.00     0.347 HD
ATOM     90  C   UNL     1      10.489   2.677   2.503  1.00  0.00     0.002 A 
ATOM     91  C   UNL     1      11.631   4.720   2.384  1.00  0.00     0.196 C 
ATOM     92  C   UNL     1       9.646   1.538   2.668  1.00  0.00     0.010 A 
ATOM     93  C   UNL     1      11.566   2.712   1.499  1.00  0.00     0.066 A 
ATOM     94  N   UNL     1      12.258   3.806   1.391  1.00  0.00    -0.270 NA
ATOM     95  C   UNL     1       9.834   0.479   1.863  1.00  0.00     0.001 A 
ATOM     96  C   UNL     1      11.724   1.500   0.667  1.00  0.00     0.028 A 
ATOM     97  C   UNL     1      10.879   0.471   0.852  1.00  0.00     0.002 A 
BRANCH  87  98
ATOM     98  C   UNL     1      11.207   6.381   0.314  1.00  0.00     0.012 A 
ATOM     99  C   UNL     1      11.487   7.702  -0.085  1.00  0.00     0.010 A 
ATOM    100  C   UNL     1      10.967   5.435  -0.694  1.00  0.00     0.010 A 
ATOM    101  C   UNL     1      11.583   8.046  -1.436  1.00  0.00     0.001 A 
ATOM    102  C   UNL     1      11.087   5.772  -2.046  1.00  0.00     0.001 A 
ATOM    103  C   UNL     1      11.398   7.076  -2.416  1.00  0.00     0.000 A 
ENDBRANCH  87  98
ENDBRANCH  80  83
ENDBRANCH  78  79
ENDBRANCH  77  78
ENDBRANCH  76  77
ENDBRANCH  75  76
ENDBRANCH   1  75
TORSDOF 17
