REMARK SMILES O=C(NCCCCCCNC(=O)c1sccc1S(=O)(=O)Nc1ccc(Cn2cncn2)cc1)c1ccc(-c2c3nc(c(-c4c(F)cc(S(=O)(=O)[O-])cc4F)c4ccc([nH]4)c(-c4c(F)cc(S(=O)(=O)[O-])cc4F)c4nc(c(-c5c(F)cc(S(=O)(=O)[O-])cc5F)c5ccc2[nH]5)C=C4)C=C3)cc1
REMARK SMILES IDX 7 1 6 2 5 3 4 4 3 5 1 6 2 7 34 9 35 10 99 11 36 12 98 13
REMARK SMILES IDX 37 14 38 15 39 16 92 17 40 18 97 19 91 20 93 21 41 22 96 23
REMARK SMILES IDX 90 24 89 25 42 27 76 28 55 29 75 30 56 31 59 32 74 33 94 34
REMARK SMILES IDX 57 35 58 36 73 38 95 39 60 40 43 41 44 42 53 43 45 44 46 45
REMARK SMILES IDX 52 46 54 47 47 48 48 49 49 50 50 51 51 52 77 53 78 54 87 55
REMARK SMILES IDX 79 56 80 57 86 58 88 59 81 60 82 61 83 62 84 63 85 64 61 65
REMARK SMILES IDX 62 66 71 67 63 68 64 69 70 70 72 71 65 72 66 73 67 74 68 75
REMARK SMILES IDX 69 76 8 77 9 78 10 79 11 80 12 82 13 83 14 84 17 85 15 86
REMARK SMILES IDX 16 87 18 88 19 89 20 90 21 91 22 93 23 94 33 95 24 96 32 97
REMARK SMILES IDX 25 98 26 99 27 100 28 101 31 102 29 103 30 104
REMARK H PARENT 3 8 93 26 59 37 10 81 21 92
REMARK Flexibility Score: inf
ROOT
ATOM      1  C   UNL     1       4.811   3.462   1.531  1.00  0.00     0.002 C 
ENDROOT
BRANCH   1   2
ATOM      2  C   UNL     1       4.385   3.246   0.074  1.00  0.00     0.002 C 
BRANCH   2   3
ATOM      3  C   UNL     1       4.804   1.915  -0.561  1.00  0.00     0.021 C 
BRANCH   3   4
ATOM      4  C   UNL     1       4.501   0.677   0.282  1.00  0.00     0.116 C 
BRANCH   4   5
ATOM      5  N   UNL     1       3.096   0.522   0.586  1.00  0.00    -0.352 N 
ATOM      6  O   UNL     1       0.988  -0.097   0.623  1.00  0.00    -0.269 OA
ATOM      7  C   UNL     1       2.039  -0.087  -0.026  1.00  0.00     0.251 C 
ATOM      8  H   UNL     1       2.843   0.957   1.432  1.00  0.00     0.163 HD
BRANCH   7   9
ATOM      9  C   UNL     1       2.050  -0.686  -1.391  1.00  0.00     0.039 A 
ATOM     10  C   UNL     1       3.163  -0.829  -2.221  1.00  0.00     0.014 A 
ATOM     11  C   UNL     1       0.799  -1.117  -1.874  1.00  0.00     0.014 A 
ATOM     12  C   UNL     1       3.021  -1.341  -3.511  1.00  0.00     0.010 A 
ATOM     13  C   UNL     1       0.653  -1.633  -3.158  1.00  0.00     0.010 A 
ATOM     14  C   UNL     1       1.763  -1.720  -3.990  1.00  0.00    -0.014 A 
BRANCH  14  15
ATOM     15  C   UNL     1       1.684  -2.331  -5.317  1.00  0.00     0.031 A 
ATOM     16  C   UNL     1       2.432  -3.618  -5.462  1.00  0.00     0.074 A 
ATOM     17  C   UNL     1       0.892  -1.885  -6.314  1.00  0.00     0.049 A 
ATOM     18  N   UNL     1       3.426  -3.890  -6.243  1.00  0.00    -0.248 NA
ATOM     19  C   UNL     1       2.083  -4.711  -4.540  1.00  0.00     0.031 C 
ATOM     20  C   UNL     1      -0.134  -0.841  -6.265  1.00  0.00     0.029 A 
ATOM     21  N   UNL     1       0.785  -2.357  -7.589  1.00  0.00    -0.354 N 
ATOM     22  C   UNL     1       3.713  -5.242  -6.051  1.00  0.00     0.074 A 
ATOM     23  C   UNL     1       2.948  -5.659  -4.904  1.00  0.00     0.031 C 
ATOM     24  C   UNL     1      -0.897  -0.911  -7.381  1.00  0.00     0.029 A 
ATOM     25  C   UNL     1      -0.329  -1.899  -8.283  1.00  0.00     0.049 A 
ATOM     26  H   UNL     1       1.443  -2.971  -7.986  1.00  0.00     0.167 HD
ATOM     27  C   UNL     1       4.425  -5.974  -6.955  1.00  0.00     0.037 A 
ATOM     28  C   UNL     1      -0.776  -2.341  -9.487  1.00  0.00     0.037 A 
ATOM     29  C   UNL     1       5.169  -5.132  -7.851  1.00  0.00     0.049 A 
ATOM     30  C   UNL     1       0.363  -3.012 -10.163  1.00  0.00     0.074 A 
ATOM     31  C   UNL     1       6.170  -4.193  -7.690  1.00  0.00     0.029 A 
ATOM     32  N   UNL     1       4.673  -4.925  -9.115  1.00  0.00    -0.354 N 
ATOM     33  N   UNL     1       1.436  -2.396 -10.577  1.00  0.00    -0.248 NA
ATOM     34  C   UNL     1       0.497  -4.450  -9.990  1.00  0.00     0.031 C 
ATOM     35  C   UNL     1       5.868  -3.169  -8.634  1.00  0.00     0.029 A 
ATOM     36  C   UNL     1       4.741  -3.575  -9.350  1.00  0.00     0.049 A 
ATOM     37  H   UNL     1       4.334  -5.613  -9.732  1.00  0.00     0.167 HD
ATOM     38  C   UNL     1       2.475  -3.275 -10.315  1.00  0.00     0.074 A 
ATOM     39  C   UNL     1       1.827  -4.554 -10.030  1.00  0.00     0.031 C 
ATOM     40  C   UNL     1       3.746  -2.831 -10.089  1.00  0.00     0.037 A 
BRANCH  27  41
ATOM     41  C   UNL     1       4.212  -7.446  -7.217  1.00  0.00     0.058 A 
ATOM     42  C   UNL     1       5.134  -8.164  -8.008  1.00  0.00     0.135 A 
ATOM     43  C   UNL     1       2.997  -8.113  -6.946  1.00  0.00     0.135 A 
ATOM     44  F   UNL     1       6.316  -7.621  -8.344  1.00  0.00    -0.206 F 
ATOM     45  C   UNL     1       4.846  -9.425  -8.536  1.00  0.00     0.059 A 
ATOM     46  C   UNL     1       2.710  -9.389  -7.418  1.00  0.00     0.059 A 
ATOM     47  F   UNL     1       1.993  -7.517  -6.290  1.00  0.00    -0.206 F 
ATOM     48  C   UNL     1       3.623 -10.023  -8.245  1.00  0.00     0.060 A 
BRANCH  48  49
ATOM     49  S   UNL     1       3.205 -11.602  -9.006  1.00  0.00     0.124 S 
ATOM     50  O   UNL     1       3.038 -11.217 -10.402  1.00  0.00    -0.237 OA
ATOM     51  O   UNL     1       4.383 -12.407  -8.700  1.00  0.00    -0.237 OA
ATOM     52  O   UNL     1       1.985 -11.998  -8.308  1.00  0.00    -0.744 OA
ENDBRANCH  48  49
ENDBRANCH  27  41
BRANCH  28  53
ATOM     53  C   UNL     1      -2.183  -2.536  -9.931  1.00  0.00     0.058 A 
ATOM     54  C   UNL     1      -2.503  -2.752 -11.285  1.00  0.00     0.135 A 
ATOM     55  C   UNL     1      -3.207  -2.810  -9.002  1.00  0.00     0.135 A 
ATOM     56  F   UNL     1      -1.581  -2.542 -12.237  1.00  0.00    -0.206 F 
ATOM     57  C   UNL     1      -3.745  -3.257 -11.689  1.00  0.00     0.059 A 
ATOM     58  C   UNL     1      -4.455  -3.305  -9.381  1.00  0.00     0.059 A 
ATOM     59  F   UNL     1      -2.990  -2.696  -7.683  1.00  0.00    -0.206 F 
ATOM     60  C   UNL     1      -4.709  -3.550 -10.725  1.00  0.00     0.060 A 
BRANCH  60  61
ATOM     61  S   UNL     1      -6.247  -4.365 -11.221  1.00  0.00     0.124 S 
ATOM     62  O   UNL     1      -6.932  -3.301 -11.946  1.00  0.00    -0.237 OA
ATOM     63  O   UNL     1      -5.761  -5.478 -12.030  1.00  0.00    -0.237 OA
ATOM     64  O   UNL     1      -6.855  -4.745  -9.948  1.00  0.00    -0.744 OA
ENDBRANCH  60  61
ENDBRANCH  28  53
BRANCH  40  65
ATOM     65  C   UNL     1       4.076  -1.395 -10.407  1.00  0.00     0.058 A 
ATOM     66  C   UNL     1       3.505  -0.284  -9.758  1.00  0.00     0.135 A 
ATOM     67  C   UNL     1       5.141  -1.143 -11.285  1.00  0.00     0.135 A 
ATOM     68  F   UNL     1       2.551  -0.442  -8.830  1.00  0.00    -0.206 F 
ATOM     69  C   UNL     1       3.954   1.017  -9.996  1.00  0.00     0.059 A 
ATOM     70  C   UNL     1       5.626   0.142 -11.513  1.00  0.00     0.059 A 
ATOM     71  F   UNL     1       5.768  -2.165 -11.892  1.00  0.00    -0.206 F 
ATOM     72  C   UNL     1       5.021   1.220 -10.870  1.00  0.00     0.060 A 
BRANCH  72  73
ATOM     73  S   UNL     1       5.670   2.891 -11.096  1.00  0.00     0.124 S 
ATOM     74  O   UNL     1       4.617   3.525 -11.883  1.00  0.00    -0.237 OA
ATOM     75  O   UNL     1       5.807   3.366  -9.722  1.00  0.00    -0.237 OA
ATOM     76  O   UNL     1       6.932   2.675 -11.799  1.00  0.00    -0.744 OA
ENDBRANCH  72  73
ENDBRANCH  40  65
ENDBRANCH  14  15
ENDBRANCH   7   9
ENDBRANCH   4   5
ENDBRANCH   3   4
ENDBRANCH   2   3
ENDBRANCH   1   2
BRANCH   1  77
ATOM     77  C   UNL     1       6.307   3.271   1.820  1.00  0.00     0.021 C 
BRANCH  77  78
ATOM     78  C   UNL     1       7.202   4.347   1.216  1.00  0.00     0.116 C 
BRANCH  78  79
ATOM     79  N   UNL     1       7.033   5.597   1.924  1.00  0.00    -0.351 N 
ATOM     80  C   UNL     1       7.921   6.613   2.132  1.00  0.00     0.262 C 
ATOM     81  H   UNL     1       6.140   5.737   2.315  1.00  0.00     0.163 HD
ATOM     82  O   UNL     1       7.597   7.462   2.967  1.00  0.00    -0.268 OA
BRANCH  80  83
ATOM     83  C   UNL     1       9.198   6.609   1.459  1.00  0.00     0.112 A 
ATOM     84  S   UNL     1      10.559   6.804   2.514  1.00  0.00    -0.137 S 
ATOM     85  C   UNL     1       9.606   6.531   0.138  1.00  0.00     0.111 A 
ATOM     86  C   UNL     1      11.676   6.652   1.244  1.00  0.00     0.067 A 
ATOM     87  C   UNL     1      11.045   6.502   0.035  1.00  0.00     0.035 A 
BRANCH  85  88
ATOM     88  S   UNL     1       8.696   6.473  -1.343  1.00  0.00     0.263 S 
ATOM     89  O   UNL     1       9.261   7.556  -2.104  1.00  0.00    -0.201 OA
ATOM     90  O   UNL     1       8.894   5.088  -1.751  1.00  0.00    -0.201 OA
BRANCH  88  91
ATOM     91  N   UNL     1       7.057   6.672  -1.300  1.00  0.00    -0.280 N 
ATOM     92  H   UNL     1       6.530   6.085  -1.890  1.00  0.00     0.180 HD
BRANCH  91  93
ATOM     93  C   UNL     1       6.330   7.587  -0.515  1.00  0.00     0.049 A 
ATOM     94  C   UNL     1       5.059   7.154  -0.135  1.00  0.00     0.027 A 
ATOM     95  C   UNL     1       6.850   8.763   0.008  1.00  0.00     0.027 A 
ATOM     96  C   UNL     1       4.408   7.754   0.935  1.00  0.00     0.008 A 
ATOM     97  C   UNL     1       6.177   9.393   1.061  1.00  0.00     0.008 A 
ATOM     98  C   UNL     1       4.995   8.844   1.587  1.00  0.00    -0.026 A 
BRANCH  98  99
ATOM     99  C   UNL     1       4.428   9.346   2.891  1.00  0.00     0.181 C 
BRANCH  99 100
ATOM    100  N   UNL     1       3.147   9.996   2.713  1.00  0.00    -0.249 N 
ATOM    101  C   UNL     1       1.919   9.410   2.642  1.00  0.00     0.220 A 
ATOM    102  N   UNL     1       3.043  11.339   2.670  1.00  0.00    -0.160 NA
ATOM    103  N   UNL     1       0.999  10.335   2.505  1.00  0.00    -0.224 NA
ATOM    104  C   UNL     1       1.726  11.491   2.512  1.00  0.00     0.246 A 
ENDBRANCH  99 100
ENDBRANCH  98  99
ENDBRANCH  91  93
ENDBRANCH  88  91
ENDBRANCH  85  88
ENDBRANCH  80  83
ENDBRANCH  78  79
ENDBRANCH  77  78
ENDBRANCH   1  77
TORSDOF 21
