REMARK SMILES COc1cc(C[N@@H+]2CCO[C@@H](CC(=O)NCCCCCCNC(=O)c3ccc(-c4c5nc(c(-c6c(F)cc(S(=O)(=O)[O-])cc6F)c6ccc([nH]6)c(-c6c(F)cc(S(=O)(=O)[O-])cc6F)c6nc(c(-c7c(F)cc(S(=O)(=O)[O-])cc7F)c7ccc4[nH]7)C=C6)C=C5)cc3)C2)ccc1O
REMARK SMILES IDX 18 1 17 2 16 3 15 4 13 5 14 6 12 8 11 9 7 10 8 11 91 12 9 14
REMARK SMILES IDX 10 15 6 16 5 17 3 18 4 19 94 20 93 21 92 22 2 23 1 24 95 25
REMARK SMILES IDX 19 27 20 28 21 29 22 30 23 31 24 33 25 34 26 35 90 36 27 37
REMARK SMILES IDX 89 38 28 39 29 40 30 41 83 42 31 43 88 44 82 45 84 46 32 47
REMARK SMILES IDX 87 48 81 49 80 50 33 52 67 53 46 54 66 55 47 56 50 57 65 58
REMARK SMILES IDX 85 59 48 60 49 61 64 63 86 64 51 65 34 66 35 67 44 68 36 69
REMARK SMILES IDX 37 70 43 71 45 72 38 73 39 74 40 75 41 76 42 77 68 78 69 79
REMARK SMILES IDX 78 80 70 81 71 82 77 83 79 84 72 85 73 86 74 87 75 88 76 89
REMARK SMILES IDX 52 90 53 91 62 92 54 93 55 94 61 95 63 96 56 97 57 98 58 99
REMARK SMILES IDX 59 100 60 101
REMARK H PARENT 15 7 7 13 95 26 22 32 84 51 50 62
REMARK Flexibility Score: inf
ROOT
ATOM      1  C   UNL     1       3.767  -8.839   4.891  1.00  0.00     0.002 C 
ENDROOT
BRANCH   1   2
ATOM      2  C   UNL     1       3.500  -7.338   4.817  1.00  0.00     0.021 C 
BRANCH   2   3
ATOM      3  C   UNL     1       4.755  -6.479   4.630  1.00  0.00     0.116 C 
BRANCH   3   4
ATOM      4  N   UNL     1       4.975  -6.185   3.222  1.00  0.00    -0.356 N 
ATOM      5  C   UNL     1       4.875  -5.003   2.547  1.00  0.00     0.222 C 
ATOM      6  O   UNL     1       4.997  -5.019   1.321  1.00  0.00    -0.275 OA
ATOM      7  H   UNL     1       5.237  -6.958   2.671  1.00  0.00     0.163 HD
BRANCH   5   8
ATOM      8  C   UNL     1       4.605  -3.713   3.293  1.00  0.00     0.138 C 
BRANCH   8   9
ATOM      9  C   UNL     1       3.127  -3.317   3.287  1.00  0.00     0.182 C 
ATOM     10  N   UNL     1       0.812  -4.061   4.086  1.00  0.00    -0.327 N 
ATOM     11  C   UNL     1       0.664  -2.704   4.615  1.00  0.00     0.291 C 
ATOM     12  C   UNL     1       2.223  -4.407   3.901  1.00  0.00     0.295 C 
ATOM     13  H   UNL     1       0.450  -4.669   4.821  1.00  0.00     0.348 HD
ATOM     14  C   UNL     1       1.632  -1.654   4.038  1.00  0.00     0.222 C 
ATOM     15  O   UNL     1       2.995  -2.102   4.050  1.00  0.00    -0.366 OA
BRANCH  10  16
ATOM     16  C   UNL     1      -0.085  -4.460   2.999  1.00  0.00     0.299 C 
BRANCH  16  17
ATOM     17  C   UNL     1       0.253  -3.915   1.633  1.00  0.00     0.010 A 
ATOM     18  C   UNL     1       0.264  -2.079   0.063  1.00  0.00     0.160 A 
ATOM     19  C   UNL     1      -0.204  -2.649   1.243  1.00  0.00     0.060 A 
ATOM     20  C   UNL     1       1.123  -2.794  -0.773  1.00  0.00     0.157 A 
ATOM     21  C   UNL     1       1.546  -4.068  -0.427  1.00  0.00     0.051 A 
ATOM     22  C   UNL     1       1.104  -4.633   0.770  1.00  0.00     0.013 A 
BRANCH  18  23
ATOM     23  O   UNL     1      -0.148  -0.817  -0.269  1.00  0.00    -0.493 OA
ATOM     24  C   UNL     1       0.873   0.147   0.013  1.00  0.00     0.278 C 
ENDBRANCH  18  23
BRANCH  20  25
ATOM     25  O   UNL     1       1.565  -2.260  -1.949  1.00  0.00    -0.504 OA
ATOM     26  H   UNL     1       1.293  -1.400  -2.205  1.00  0.00     0.293 HD
ENDBRANCH  20  25
ENDBRANCH  16  17
ENDBRANCH  10  16
ENDBRANCH   8   9
ENDBRANCH   5   8
ENDBRANCH   3   4
ENDBRANCH   2   3
ENDBRANCH   1   2
BRANCH   1  27
ATOM     27  C   UNL     1       4.512  -9.296   6.147  1.00  0.00     0.002 C 
BRANCH  27  28
ATOM     28  C   UNL     1       3.882  -8.872   7.478  1.00  0.00     0.021 C 
BRANCH  28  29
ATOM     29  C   UNL     1       2.411  -9.248   7.654  1.00  0.00     0.116 C 
BRANCH  29  30
ATOM     30  N   UNL     1       2.204 -10.683   7.548  1.00  0.00    -0.352 N 
ATOM     31  C   UNL     1       1.742 -11.571   8.481  1.00  0.00     0.251 C 
ATOM     32  H   UNL     1       2.430 -11.075   6.674  1.00  0.00     0.163 HD
ATOM     33  O   UNL     1       1.867 -12.783   8.278  1.00  0.00    -0.269 OA
BRANCH  31  34
ATOM     34  C   UNL     1       1.101 -11.097   9.725  1.00  0.00     0.039 A 
ATOM     35  C   UNL     1       1.413 -11.734  10.929  1.00  0.00     0.014 A 
ATOM     36  C   UNL     1       0.158 -10.064   9.704  1.00  0.00     0.014 A 
ATOM     37  C   UNL     1       0.809 -11.311  12.115  1.00  0.00     0.010 A 
ATOM     38  C   UNL     1      -0.396  -9.601  10.897  1.00  0.00     0.010 A 
ATOM     39  C   UNL     1      -0.086 -10.228  12.113  1.00  0.00    -0.014 A 
BRANCH  39  40
ATOM     40  C   UNL     1      -0.706  -9.755  13.377  1.00  0.00     0.031 A 
ATOM     41  C   UNL     1      -2.190  -9.887  13.594  1.00  0.00     0.074 A 
ATOM     42  C   UNL     1       0.066  -9.173  14.317  1.00  0.00     0.049 A 
ATOM     43  N   UNL     1      -2.908  -9.527  14.627  1.00  0.00    -0.248 NA
ATOM     44  C   UNL     1      -2.973 -10.479  12.499  1.00  0.00     0.031 C 
ATOM     45  C   UNL     1       1.506  -8.936  14.198  1.00  0.00     0.029 A 
ATOM     46  N   UNL     1      -0.251  -8.673  15.554  1.00  0.00    -0.354 N 
ATOM     47  C   UNL     1      -4.223  -9.838  14.304  1.00  0.00     0.074 A 
ATOM     48  C   UNL     1      -4.211 -10.370  12.958  1.00  0.00     0.031 C 
ATOM     49  C   UNL     1       1.952  -8.360  15.326  1.00  0.00     0.029 A 
ATOM     50  C   UNL     1       0.828  -8.162  16.236  1.00  0.00     0.049 A 
ATOM     51  H   UNL     1      -1.166  -8.679  15.919  1.00  0.00     0.167 HD
ATOM     52  C   UNL     1      -5.336  -9.714  15.067  1.00  0.00     0.037 A 
ATOM     53  C   UNL     1       0.904  -7.601  17.458  1.00  0.00     0.037 A 
ATOM     54  C   UNL     1      -5.338  -9.209  16.416  1.00  0.00     0.049 A 
ATOM     55  C   UNL     1      -0.341  -7.500  18.297  1.00  0.00     0.074 A 
ATOM     56  C   UNL     1      -6.402  -9.102  17.294  1.00  0.00     0.029 A 
ATOM     57  N   UNL     1      -4.221  -8.728  17.083  1.00  0.00    -0.354 N 
ATOM     58  N   UNL     1      -1.566  -7.864  18.001  1.00  0.00    -0.248 NA
ATOM     59  C   UNL     1      -0.191  -6.924  19.640  1.00  0.00     0.031 C 
ATOM     60  C   UNL     1      -5.936  -8.522  18.480  1.00  0.00     0.029 A 
ATOM     61  C   UNL     1      -4.572  -8.308  18.355  1.00  0.00     0.049 A 
ATOM     62  H   UNL     1      -3.311  -8.691  16.707  1.00  0.00     0.167 HD
ATOM     63  C   UNL     1      -2.329  -7.583  19.129  1.00  0.00     0.074 A 
ATOM     64  C   UNL     1      -1.423  -7.034  20.117  1.00  0.00     0.031 C 
ATOM     65  C   UNL     1      -3.658  -7.763  19.328  1.00  0.00     0.037 A 
BRANCH  52  66
ATOM     66  C   UNL     1      -6.647 -10.140  14.463  1.00  0.00     0.058 A 
ATOM     67  C   UNL     1      -6.948 -11.492  14.236  1.00  0.00     0.135 A 
ATOM     68  C   UNL     1      -7.629  -9.189  14.140  1.00  0.00     0.135 A 
ATOM     69  F   UNL     1      -6.040 -12.442  14.512  1.00  0.00    -0.206 F 
ATOM     70  C   UNL     1      -8.163 -11.886  13.684  1.00  0.00     0.059 A 
ATOM     71  C   UNL     1      -8.862  -9.562  13.612  1.00  0.00     0.059 A 
ATOM     72  F   UNL     1      -7.396  -7.882  14.337  1.00  0.00    -0.206 F 
ATOM     73  C   UNL     1      -9.114 -10.913  13.374  1.00  0.00     0.060 A 
BRANCH  73  74
ATOM     74  S   UNL     1     -10.688 -11.439  12.663  1.00  0.00     0.124 S 
ATOM     75  O   UNL     1     -10.292 -11.777  11.299  1.00  0.00    -0.237 OA
ATOM     76  O   UNL     1     -11.054 -12.568  13.514  1.00  0.00    -0.237 OA
ATOM     77  O   UNL     1     -11.533 -10.257  12.797  1.00  0.00    -0.744 OA
ENDBRANCH  73  74
ENDBRANCH  52  66
BRANCH  53  78
ATOM     78  C   UNL     1       2.214  -7.123  17.974  1.00  0.00     0.058 A 
ATOM     79  C   UNL     1       2.879  -7.809  19.001  1.00  0.00     0.135 A 
ATOM     80  C   UNL     1       2.834  -5.984  17.439  1.00  0.00     0.135 A 
ATOM     81  F   UNL     1       2.323  -8.901  19.547  1.00  0.00    -0.206 F 
ATOM     82  C   UNL     1       4.105  -7.374  19.493  1.00  0.00     0.059 A 
ATOM     83  C   UNL     1       4.071  -5.543  17.898  1.00  0.00     0.059 A 
ATOM     84  F   UNL     1       2.247  -5.304  16.442  1.00  0.00    -0.206 F 
ATOM     85  C   UNL     1       4.694  -6.239  18.933  1.00  0.00     0.060 A 
BRANCH  85  86
ATOM     86  S   UNL     1       6.310  -5.710  19.541  1.00  0.00     0.124 S 
ATOM     87  O   UNL     1       5.958  -5.107  20.822  1.00  0.00    -0.237 OA
ATOM     88  O   UNL     1       7.042  -6.971  19.608  1.00  0.00    -0.237 OA
ATOM     89  O   UNL     1       6.768  -4.783  18.511  1.00  0.00    -0.744 OA
ENDBRANCH  85  86
ENDBRANCH  53  78
BRANCH  65  90
ATOM     90  C   UNL     1      -4.207  -7.386  20.675  1.00  0.00     0.058 A 
ATOM     91  C   UNL     1      -4.358  -6.044  21.060  1.00  0.00     0.135 A 
ATOM     92  C   UNL     1      -4.615  -8.378  21.581  1.00  0.00     0.135 A 
ATOM     93  F   UNL     1      -3.978  -5.058  20.233  1.00  0.00    -0.206 F 
ATOM     94  C   UNL     1      -4.864  -5.700  22.309  1.00  0.00     0.059 A 
ATOM     95  C   UNL     1      -5.149  -8.056  22.825  1.00  0.00     0.059 A 
ATOM     96  F   UNL     1      -4.503  -9.677  21.257  1.00  0.00    -0.206 F 
ATOM     97  C   UNL     1      -5.254  -6.714  23.186  1.00  0.00     0.060 A 
BRANCH  97  98
ATOM     98  S   UNL     1      -5.923  -6.256  24.799  1.00  0.00     0.124 S 
ATOM     99  O   UNL     1      -4.712  -5.882  25.522  1.00  0.00    -0.237 OA
ATOM    100  O   UNL     1      -6.826  -5.159  24.465  1.00  0.00    -0.237 OA
ATOM    101  O   UNL     1      -6.575  -7.480  25.256  1.00  0.00    -0.744 OA
ENDBRANCH  97  98
ENDBRANCH  65  90
ENDBRANCH  39  40
ENDBRANCH  31  34
ENDBRANCH  29  30
ENDBRANCH  28  29
ENDBRANCH  27  28
ENDBRANCH   1  27
TORSDOF 21
