REMARK SMILES Cc1cc(NC(=O)CCC(=O)NCCCCCCNC(=O)c2ccc(-c3c4nc(c(-c5c(F)cc(S(=O)(=O)[O-])cc5F)c5ccc([nH]5)c(-c5c(F)cc(S(=O)(=O)[O-])cc5F)c5nc(c(-c6c(F)cc(S(=O)(=O)[O-])cc6F)c6ccc3[nH]6)C=C5)C=C4)cc2)ccc1S(=O)(=O)[O-]
REMARK SMILES IDX 15 1 14 2 13 3 12 4 10 5 11 6 9 8 8 9 6 10 5 11 7 13 4 14
REMARK SMILES IDX 1 15 2 16 3 17 90 18 89 19 88 20 91 21 92 22 93 23 94 24
REMARK SMILES IDX 16 25 17 26 18 27 19 28 20 29 21 31 22 32 23 33 87 34 24 35
REMARK SMILES IDX 86 36 25 37 26 38 27 39 80 40 28 41 85 42 79 43 81 44 29 45
REMARK SMILES IDX 84 46 78 47 77 48 30 50 64 51 43 52 63 53 44 54 47 55 62 56
REMARK SMILES IDX 82 57 45 58 46 59 61 61 83 62 48 63 31 64 32 65 41 66 33 67
REMARK SMILES IDX 34 68 40 69 42 70 35 71 36 72 37 73 38 74 39 75 65 76 66 77
REMARK SMILES IDX 75 78 67 79 68 80 74 81 76 82 69 83 70 84 71 85 72 86 73 87
REMARK SMILES IDX 49 88 50 89 59 90 51 91 52 92 58 93 60 94 53 95 54 96 55 97
REMARK SMILES IDX 56 98 57 99
REMARK H PARENT 12 7 5 12 19 30 81 49 47 60
REMARK Flexibility Score: inf
ROOT
ATOM      1  C   UNL     1      -3.951  -0.859  -0.886  1.00  0.00     0.002 C 
ENDROOT
BRANCH   1   2
ATOM      2  C   UNL     1      -3.348  -2.259  -0.735  1.00  0.00     0.021 C 
BRANCH   2   3
ATOM      3  C   UNL     1      -2.339  -2.672  -1.805  1.00  0.00     0.116 C 
BRANCH   3   4
ATOM      4  N   UNL     1      -1.197  -1.779  -1.886  1.00  0.00    -0.356 N 
ATOM      5  C   UNL     1       0.133  -2.061  -1.842  1.00  0.00     0.220 C 
ATOM      6  O   UNL     1       0.943  -1.166  -2.087  1.00  0.00    -0.275 OA
ATOM      7  H   UNL     1      -1.419  -0.825  -1.989  1.00  0.00     0.163 HD
BRANCH   5   8
ATOM      8  C   UNL     1       0.607  -3.463  -1.538  1.00  0.00     0.110 C 
BRANCH   8   9
ATOM      9  C   UNL     1       0.771  -3.852  -0.074  1.00  0.00     0.110 C 
BRANCH   9  10
ATOM     10  C   UNL     1      -0.393  -3.605   0.862  1.00  0.00     0.224 C 
ATOM     11  N   UNL     1      -0.659  -2.403   1.451  1.00  0.00    -0.326 N 
ATOM     12  H   UNL     1      -1.387  -2.432   2.113  1.00  0.00     0.169 HD
ATOM     13  O   UNL     1      -1.194  -4.526   1.068  1.00  0.00    -0.275 OA
BRANCH  11  14
ATOM     14  C   UNL     1      -0.084  -1.136   1.286  1.00  0.00     0.041 A 
ATOM     15  C   UNL     1       3.211   0.349   0.216  1.00  0.00     0.046 C 
ATOM     16  C   UNL     1       1.770   0.333   0.635  1.00  0.00    -0.032 A 
ATOM     17  C   UNL     1       1.267  -0.923   1.036  1.00  0.00     0.030 A 
ATOM     18  C   UNL     1       0.865   1.400   0.535  1.00  0.00     0.057 A 
ATOM     19  C   UNL     1      -0.478   1.217   0.913  1.00  0.00     0.021 A 
ATOM     20  C   UNL     1      -0.943  -0.038   1.307  1.00  0.00     0.027 A 
BRANCH  18  21
ATOM     21  S   UNL     1       1.248   3.029  -0.064  1.00  0.00     0.124 S 
ATOM     22  O   UNL     1       0.650   3.173  -1.376  1.00  0.00    -0.237 OA
ATOM     23  O   UNL     1       0.950   3.960   1.002  1.00  0.00    -0.237 OA
ATOM     24  O   UNL     1       2.838   3.158  -0.261  1.00  0.00    -0.744 OA
ENDBRANCH  18  21
ENDBRANCH  11  14
ENDBRANCH   9  10
ENDBRANCH   8   9
ENDBRANCH   5   8
ENDBRANCH   3   4
ENDBRANCH   2   3
ENDBRANCH   1   2
BRANCH   1  25
ATOM     25  C   UNL     1      -4.782  -0.607  -2.150  1.00  0.00     0.002 C 
BRANCH  25  26
ATOM     26  C   UNL     1      -5.748  -1.718  -2.555  1.00  0.00     0.021 C 
BRANCH  26  27
ATOM     27  C   UNL     1      -6.769  -2.087  -1.496  1.00  0.00     0.116 C 
BRANCH  27  28
ATOM     28  N   UNL     1      -8.074  -1.479  -1.688  1.00  0.00    -0.352 N 
ATOM     29  C   UNL     1      -9.244  -2.147  -1.343  1.00  0.00     0.251 C 
ATOM     30  H   UNL     1      -8.131  -0.574  -2.071  1.00  0.00     0.163 HD
ATOM     31  O   UNL     1     -10.137  -2.440  -2.124  1.00  0.00    -0.269 OA
BRANCH  29  32
ATOM     32  C   UNL     1      -9.349  -2.482   0.090  1.00  0.00     0.039 A 
ATOM     33  C   UNL     1     -10.193  -1.730   0.913  1.00  0.00     0.014 A 
ATOM     34  C   UNL     1      -8.393  -3.344   0.620  1.00  0.00     0.014 A 
ATOM     35  C   UNL     1      -9.944  -1.694   2.279  1.00  0.00     0.010 A 
ATOM     36  C   UNL     1      -8.058  -3.205   1.936  1.00  0.00     0.010 A 
ATOM     37  C   UNL     1      -8.815  -2.355   2.748  1.00  0.00    -0.014 A 
BRANCH  37  38
ATOM     38  C   UNL     1      -8.318  -2.294   4.103  1.00  0.00     0.031 A 
ATOM     39  C   UNL     1      -8.629  -3.433   4.979  1.00  0.00     0.074 A 
ATOM     40  C   UNL     1      -7.377  -1.362   4.357  1.00  0.00     0.049 A 
ATOM     41  N   UNL     1      -8.447  -3.455   6.247  1.00  0.00    -0.248 NA
ATOM     42  C   UNL     1      -9.230  -4.665   4.470  1.00  0.00     0.031 C 
ATOM     43  C   UNL     1      -6.397  -1.324   5.431  1.00  0.00     0.029 A 
ATOM     44  N   UNL     1      -7.254  -0.118   3.733  1.00  0.00    -0.354 N 
ATOM     45  C   UNL     1      -8.570  -4.768   6.659  1.00  0.00     0.074 A 
ATOM     46  C   UNL     1      -9.189  -5.445   5.551  1.00  0.00     0.031 C 
ATOM     47  C   UNL     1      -5.971  -0.056   5.581  1.00  0.00     0.029 A 
ATOM     48  C   UNL     1      -6.790   0.779   4.711  1.00  0.00     0.049 A 
ATOM     49  H   UNL     1      -7.453   0.090   2.792  1.00  0.00     0.167 HD
ATOM     50  C   UNL     1      -7.958  -5.129   7.824  1.00  0.00     0.037 A 
ATOM     51  C   UNL     1      -7.637   1.756   5.161  1.00  0.00     0.037 A 
ATOM     52  C   UNL     1      -7.442  -3.924   8.485  1.00  0.00     0.049 A 
ATOM     53  C   UNL     1      -8.060   1.532   6.599  1.00  0.00     0.074 A 
ATOM     54  C   UNL     1      -6.182  -3.349   8.515  1.00  0.00     0.029 A 
ATOM     55  N   UNL     1      -8.336  -2.937   8.891  1.00  0.00    -0.354 N 
ATOM     56  N   UNL     1      -8.042   0.370   7.197  1.00  0.00    -0.248 NA
ATOM     57  C   UNL     1      -8.468   2.610   7.494  1.00  0.00     0.031 C 
ATOM     58  C   UNL     1      -6.342  -1.971   8.824  1.00  0.00     0.029 A 
ATOM     59  C   UNL     1      -7.692  -1.718   9.011  1.00  0.00     0.049 A 
ATOM     60  H   UNL     1      -9.293  -3.085   9.068  1.00  0.00     0.167 HD
ATOM     61  C   UNL     1      -8.396   0.520   8.513  1.00  0.00     0.074 A 
ATOM     62  C   UNL     1      -8.652   1.943   8.648  1.00  0.00     0.031 C 
ATOM     63  C   UNL     1      -8.431  -0.524   9.397  1.00  0.00     0.037 A 
BRANCH  50  64
ATOM     64  C   UNL     1      -7.545  -6.542   8.218  1.00  0.00     0.058 A 
ATOM     65  C   UNL     1      -6.567  -6.731   9.223  1.00  0.00     0.135 A 
ATOM     66  C   UNL     1      -7.985  -7.742   7.620  1.00  0.00     0.135 A 
ATOM     67  F   UNL     1      -6.092  -5.702   9.940  1.00  0.00    -0.206 F 
ATOM     68  C   UNL     1      -6.020  -7.977   9.543  1.00  0.00     0.059 A 
ATOM     69  C   UNL     1      -7.440  -8.999   7.908  1.00  0.00     0.059 A 
ATOM     70  F   UNL     1      -8.993  -7.779   6.747  1.00  0.00    -0.206 F 
ATOM     71  C   UNL     1      -6.448  -9.107   8.866  1.00  0.00     0.060 A 
BRANCH  71  72
ATOM     72  S   UNL     1      -5.725 -10.704   9.277  1.00  0.00     0.124 S 
ATOM     73  O   UNL     1      -4.321 -10.499   8.939  1.00  0.00    -0.237 OA
ATOM     74  O   UNL     1      -6.028 -10.819  10.699  1.00  0.00    -0.237 OA
ATOM     75  O   UNL     1      -6.442 -11.637   8.411  1.00  0.00    -0.744 OA
ENDBRANCH  71  72
ENDBRANCH  50  64
BRANCH  51  76
ATOM     76  C   UNL     1      -8.471   2.329   4.054  1.00  0.00     0.058 A 
ATOM     77  C   UNL     1      -7.785   3.040   3.046  1.00  0.00     0.135 A 
ATOM     78  C   UNL     1      -9.722   1.790   3.715  1.00  0.00     0.135 A 
ATOM     79  F   UNL     1      -6.595   3.602   3.317  1.00  0.00    -0.206 F 
ATOM     80  C   UNL     1      -8.214   3.042   1.721  1.00  0.00     0.059 A 
ATOM     81  C   UNL     1     -10.181   1.796   2.392  1.00  0.00     0.059 A 
ATOM     82  F   UNL     1     -10.437   1.114   4.626  1.00  0.00    -0.206 F 
ATOM     83  C   UNL     1      -9.375   2.347   1.393  1.00  0.00     0.060 A 
BRANCH  83  84
ATOM     84  S   UNL     1      -9.694   2.013  -0.359  1.00  0.00     0.124 S 
ATOM     85  O   UNL     1      -9.801   3.358  -0.911  1.00  0.00    -0.237 OA
ATOM     86  O   UNL     1      -8.501   1.255  -0.745  1.00  0.00    -0.237 OA
ATOM     87  O   UNL     1     -10.931   1.242  -0.336  1.00  0.00    -0.744 OA
ENDBRANCH  83  84
ENDBRANCH  51  76
BRANCH  63  88
ATOM     88  C   UNL     1      -9.084  -0.498  10.761  1.00  0.00     0.058 A 
ATOM     89  C   UNL     1     -10.156   0.343  11.100  1.00  0.00     0.135 A 
ATOM     90  C   UNL     1      -8.735  -1.463  11.740  1.00  0.00     0.135 A 
ATOM     91  F   UNL     1     -10.668   1.216  10.221  1.00  0.00    -0.206 F 
ATOM     92  C   UNL     1     -10.780   0.291  12.347  1.00  0.00     0.059 A 
ATOM     93  C   UNL     1      -9.393  -1.581  12.959  1.00  0.00     0.059 A 
ATOM     94  F   UNL     1      -7.744  -2.345  11.541  1.00  0.00    -0.206 F 
ATOM     95  C   UNL     1     -10.391  -0.673  13.270  1.00  0.00     0.060 A 
BRANCH  95  96
ATOM     96  S   UNL     1     -11.212  -0.757  14.868  1.00  0.00     0.124 S 
ATOM     97  O   UNL     1     -10.457   0.233  15.630  1.00  0.00    -0.237 OA
ATOM     98  O   UNL     1     -12.586  -0.390  14.542  1.00  0.00    -0.237 OA
ATOM     99  O   UNL     1     -11.021  -2.146  15.273  1.00  0.00    -0.744 OA
ENDBRANCH  95  96
ENDBRANCH  63  88
ENDBRANCH  37  38
ENDBRANCH  29  32
ENDBRANCH  27  28
ENDBRANCH  26  27
ENDBRANCH  25  26
ENDBRANCH   1  25
TORSDOF 20
