REMARK SMILES CC[C@](C)(NC(=O)CNC(=O)c1cccc(Cl)c1)C(=O)NCCCCCCNC(=O)c1ccc(-c2c3nc(c(-c4c(F)cc(S(=O)(=O)[O-])cc4F)c4ccc([nH]4)c(-c4c(F)cc(S(=O)(=O)[O-])cc4F)c4nc(c(-c5c(F)cc(S(=O)(=O)[O-])cc5F)c5ccc2[nH]5)C=C4)C=C3)cc1
REMARK SMILES IDX 24 1 23 2 22 3 21 4 19 5 20 6 3 8 4 9 2 10 1 11 5 12 6 13
REMARK SMILES IDX 7 15 8 16 9 17 10 18 11 20 12 21 13 22 18 23 14 24 16 25
REMARK SMILES IDX 15 26 17 27 25 28 26 29 27 30 28 31 29 32 30 34 31 35 32 36
REMARK SMILES IDX 96 37 33 38 95 39 34 40 35 41 36 42 89 43 37 44 94 45 88 46
REMARK SMILES IDX 90 47 38 48 93 49 87 50 86 51 39 53 73 54 52 55 72 56 53 57
REMARK SMILES IDX 56 58 71 59 91 60 54 61 55 62 70 64 92 65 57 66 40 67 41 68
REMARK SMILES IDX 50 69 42 70 43 71 49 72 51 73 44 74 45 75 46 76 47 77 48 78
REMARK SMILES IDX 74 79 75 80 84 81 76 82 77 83 83 84 85 85 78 86 79 87 80 88
REMARK SMILES IDX 81 89 82 90 58 91 59 92 68 93 60 94 61 95 67 96 69 97 62 98
REMARK SMILES IDX 63 99 64 100 65 101 66 102
REMARK H PARENT 21 7 5 14 9 19 28 33 90 52 56 63
REMARK Flexibility Score: inf
ROOT
ATOM      1  C   UNL     1       4.146   6.404   0.165  1.00  0.00     0.002 C 
ENDROOT
BRANCH   1   2
ATOM      2  C   UNL     1       2.628   6.237   0.212  1.00  0.00     0.021 C 
BRANCH   2   3
ATOM      3  C   UNL     1       2.016   5.269  -0.804  1.00  0.00     0.116 C 
BRANCH   3   4
ATOM      4  N   UNL     1       2.574   3.923  -0.824  1.00  0.00    -0.354 N 
ATOM      5  C   UNL     1       2.016   2.718  -0.485  1.00  0.00     0.245 C 
ATOM      6  O   UNL     1       2.521   1.693  -0.943  1.00  0.00    -0.272 OA
ATOM      7  H   UNL     1       3.507   3.871  -1.133  1.00  0.00     0.163 HD
BRANCH   5   8
ATOM      8  C   UNL     1       0.691   2.624   0.277  1.00  0.00     0.116 C 
ATOM      9  C   UNL     1       0.434   1.219   0.860  1.00  0.00     0.045 C 
BRANCH   8  10
ATOM     10  C   UNL     1      -0.431   2.902  -0.782  1.00  0.00     0.035 C 
ATOM     11  C   UNL     1      -0.172   2.256  -2.156  1.00  0.00     0.007 C 
ENDBRANCH   8  10
BRANCH   8  12
ATOM     12  N   UNL     1       0.680   3.575   1.404  1.00  0.00    -0.340 N 
ATOM     13  C   UNL     1       1.580   3.660   2.442  1.00  0.00     0.240 C 
ATOM     14  H   UNL     1      -0.059   4.227   1.415  1.00  0.00     0.164 HD
ATOM     15  O   UNL     1       1.145   4.065   3.525  1.00  0.00    -0.273 OA
BRANCH  13  16
ATOM     16  C   UNL     1       3.106   3.373   2.269  1.00  0.00     0.216 C 
BRANCH  16  17
ATOM     17  N   UNL     1       3.637   2.022   2.361  1.00  0.00    -0.343 N 
ATOM     18  C   UNL     1       4.686   1.411   1.701  1.00  0.00     0.251 C 
ATOM     19  H   UNL     1       3.168   1.444   3.005  1.00  0.00     0.164 HD
ATOM     20  O   UNL     1       5.145   0.366   2.159  1.00  0.00    -0.269 OA
BRANCH  18  21
ATOM     21  C   UNL     1       5.222   1.888   0.400  1.00  0.00     0.041 A 
ATOM     22  C   UNL     1       5.852   3.118   0.210  1.00  0.00     0.014 A 
ATOM     23  C   UNL     1       5.092   1.012  -0.689  1.00  0.00     0.034 A 
ATOM     24  C   UNL     1       6.223   3.520  -1.084  1.00  0.00     0.002 A 
ATOM     25  C   UNL     1       5.413   1.438  -1.978  1.00  0.00     0.041 A 
ATOM     26  C   UNL     1       5.961   2.700  -2.184  1.00  0.00     0.020 A 
ATOM     27  Cl  UNL     1       5.058   0.430  -3.329  1.00  0.00    -0.084 Cl
ENDBRANCH  18  21
ENDBRANCH  16  17
ENDBRANCH  13  16
ENDBRANCH   8  12
ENDBRANCH   5   8
ENDBRANCH   3   4
ENDBRANCH   2   3
ENDBRANCH   1   2
BRANCH   1  28
ATOM     28  C   UNL     1       4.726   6.764  -1.201  1.00  0.00     0.002 C 
BRANCH  28  29
ATOM     29  C   UNL     1       4.171   8.048  -1.806  1.00  0.00     0.021 C 
BRANCH  29  30
ATOM     30  C   UNL     1       4.324   9.276  -0.918  1.00  0.00     0.116 C 
BRANCH  30  31
ATOM     31  N   UNL     1       5.718   9.626  -0.689  1.00  0.00    -0.352 N 
ATOM     32  C   UNL     1       6.330  10.842  -0.874  1.00  0.00     0.251 C 
ATOM     33  H   UNL     1       6.295   8.899  -0.360  1.00  0.00     0.163 HD
ATOM     34  O   UNL     1       7.552  10.943  -0.805  1.00  0.00    -0.269 OA
BRANCH  32  35
ATOM     35  C   UNL     1       5.493  12.017  -1.190  1.00  0.00     0.039 A 
ATOM     36  C   UNL     1       5.816  12.806  -2.294  1.00  0.00     0.014 A 
ATOM     37  C   UNL     1       4.350  12.287  -0.431  1.00  0.00     0.014 A 
ATOM     38  C   UNL     1       4.945  13.826  -2.684  1.00  0.00     0.010 A 
ATOM     39  C   UNL     1       3.445  13.245  -0.871  1.00  0.00     0.010 A 
ATOM     40  C   UNL     1       3.733  14.025  -2.001  1.00  0.00    -0.014 A 
BRANCH  40  41
ATOM     41  C   UNL     1       2.747  15.034  -2.463  1.00  0.00     0.031 A 
ATOM     42  C   UNL     1       2.374  16.188  -1.573  1.00  0.00     0.074 A 
ATOM     43  C   UNL     1       2.131  14.870  -3.650  1.00  0.00     0.049 A 
ATOM     44  N   UNL     1       1.495  17.135  -1.774  1.00  0.00    -0.248 NA
ATOM     45  C   UNL     1       3.058  16.268  -0.273  1.00  0.00     0.031 C 
ATOM     46  C   UNL     1       2.356  13.754  -4.572  1.00  0.00     0.029 A 
ATOM     47  N   UNL     1       1.180  15.632  -4.280  1.00  0.00    -0.354 N 
ATOM     48  C   UNL     1       1.514  17.917  -0.625  1.00  0.00     0.074 A 
ATOM     49  C   UNL     1       2.441  17.294   0.294  1.00  0.00     0.031 C 
ATOM     50  C   UNL     1       1.581  13.915  -5.656  1.00  0.00     0.029 A 
ATOM     51  C   UNL     1       0.778  15.123  -5.492  1.00  0.00     0.049 A 
ATOM     52  H   UNL     1       0.819  16.466  -3.900  1.00  0.00     0.167 HD
ATOM     53  C   UNL     1       0.841  19.065  -0.370  1.00  0.00     0.037 A 
ATOM     54  C   UNL     1      -0.141  15.572  -6.370  1.00  0.00     0.037 A 
ATOM     55  C   UNL     1      -0.071  19.684  -1.295  1.00  0.00     0.049 A 
ATOM     56  C   UNL     1      -0.875  16.849  -6.072  1.00  0.00     0.074 A 
ATOM     57  C   UNL     1      -0.757  20.878  -1.160  1.00  0.00     0.029 A 
ATOM     58  N   UNL     1      -0.434  19.152  -2.525  1.00  0.00    -0.354 N 
ATOM     59  N   UNL     1      -0.787  17.621  -5.015  1.00  0.00    -0.248 NA
ATOM     60  C   UNL     1      -1.826  17.322  -7.087  1.00  0.00     0.031 C 
ATOM     61  C   UNL     1      -1.571  21.044  -2.286  1.00  0.00     0.029 A 
ATOM     62  C   UNL     1      -1.355  19.980  -3.148  1.00  0.00     0.049 A 
ATOM     63  H   UNL     1      -0.089  18.310  -2.900  1.00  0.00     0.167 HD
ATOM     64  C   UNL     1      -1.660  18.679  -5.241  1.00  0.00     0.074 A 
ATOM     65  C   UNL     1      -2.252  18.456  -6.545  1.00  0.00     0.031 C 
ATOM     66  C   UNL     1      -1.946  19.738  -4.442  1.00  0.00     0.037 A 
BRANCH  53  67
ATOM     67  C   UNL     1       1.074  19.715   0.968  1.00  0.00     0.058 A 
ATOM     68  C   UNL     1       2.312  20.289   1.303  1.00  0.00     0.135 A 
ATOM     69  C   UNL     1       0.054  19.758   1.931  1.00  0.00     0.135 A 
ATOM     70  F   UNL     1       3.329  20.266   0.426  1.00  0.00    -0.206 F 
ATOM     71  C   UNL     1       2.547  20.833   2.562  1.00  0.00     0.059 A 
ATOM     72  C   UNL     1       0.256  20.328   3.186  1.00  0.00     0.059 A 
ATOM     73  F   UNL     1      -1.151  19.229   1.665  1.00  0.00    -0.206 F 
ATOM     74  C   UNL     1       1.514  20.840   3.499  1.00  0.00     0.060 A 
BRANCH  74  75
ATOM     75  S   UNL     1       1.844  21.517   5.140  1.00  0.00     0.124 S 
ATOM     76  O   UNL     1       2.663  20.461   5.728  1.00  0.00    -0.237 OA
ATOM     77  O   UNL     1       2.540  22.761   4.831  1.00  0.00    -0.237 OA
ATOM     78  O   UNL     1       0.512  21.673   5.718  1.00  0.00    -0.744 OA
ENDBRANCH  74  75
ENDBRANCH  53  67
BRANCH  54  79
ATOM     79  C   UNL     1      -0.390  14.808  -7.621  1.00  0.00     0.058 A 
ATOM     80  C   UNL     1       0.058  15.283  -8.861  1.00  0.00     0.135 A 
ATOM     81  C   UNL     1      -1.028  13.557  -7.590  1.00  0.00     0.135 A 
ATOM     82  F   UNL     1       0.666  16.476  -8.942  1.00  0.00    -0.206 F 
ATOM     83  C   UNL     1      -0.114  14.546 -10.029  1.00  0.00     0.059 A 
ATOM     84  C   UNL     1      -1.191  12.791  -8.740  1.00  0.00     0.059 A 
ATOM     85  F   UNL     1      -1.460  13.051  -6.425  1.00  0.00    -0.206 F 
ATOM     86  C   UNL     1      -0.730  13.295  -9.956  1.00  0.00     0.060 A 
BRANCH  86  87
ATOM     87  S   UNL     1      -0.863  12.306 -11.461  1.00  0.00     0.124 S 
ATOM     88  O   UNL     1      -1.901  13.021 -12.194  1.00  0.00    -0.237 OA
ATOM     89  O   UNL     1       0.487  12.399 -12.008  1.00  0.00    -0.237 OA
ATOM     90  O   UNL     1      -1.238  10.986 -10.962  1.00  0.00    -0.744 OA
ENDBRANCH  86  87
ENDBRANCH  54  79
BRANCH  66  91
ATOM     91  C   UNL     1      -2.938  20.744  -4.957  1.00  0.00     0.058 A 
ATOM     92  C   UNL     1      -4.310  20.454  -5.029  1.00  0.00     0.135 A 
ATOM     93  C   UNL     1      -2.519  22.030  -5.333  1.00  0.00     0.135 A 
ATOM     94  F   UNL     1      -4.762  19.237  -4.689  1.00  0.00    -0.206 F 
ATOM     95  C   UNL     1      -5.229  21.398  -5.476  1.00  0.00     0.059 A 
ATOM     96  C   UNL     1      -3.424  22.999  -5.755  1.00  0.00     0.059 A 
ATOM     97  F   UNL     1      -1.220  22.363  -5.274  1.00  0.00    -0.206 F 
ATOM     98  C   UNL     1      -4.777  22.669  -5.834  1.00  0.00     0.060 A 
BRANCH  98  99
ATOM     99  S   UNL     1      -5.985  23.895  -6.379  1.00  0.00     0.124 S 
ATOM    100  O   UNL     1      -6.323  23.402  -7.710  1.00  0.00    -0.237 OA
ATOM    101  O   UNL     1      -7.033  23.769  -5.371  1.00  0.00    -0.237 OA
ATOM    102  O   UNL     1      -5.237  25.148  -6.344  1.00  0.00    -0.744 OA
ENDBRANCH  98  99
ENDBRANCH  66  91
ENDBRANCH  40  41
ENDBRANCH  32  35
ENDBRANCH  30  31
ENDBRANCH  29  30
ENDBRANCH  28  29
ENDBRANCH   1  28
TORSDOF 21
