REMARK SMILES O=C(NCCCCCCNC(=O)[C@H](c1c[nH]c2cc(OCc3ccccc3)ccc12)[NH+]1CC[NH+]([C@H]2CCS(=O)(=O)C2)CC1)c1ccc(-c2c3nc(c(-c4c(F)cc(S(=O)(=O)[O-])cc4F)c4ccc([nH]4)c(-c4c(F)cc(S(=O)(=O)[O-])cc4F)c4nc(c(-c5c(F)cc(S(=O)(=O)[O-])cc5F)c5ccc2[nH]5)C=C4)C=C3)cc1
REMARK SMILES IDX 7 1 6 2 5 3 4 4 3 5 1 6 2 7 44 9 45 10 109 11 46 12 108 13
REMARK SMILES IDX 47 14 48 15 49 16 102 17 50 18 107 19 101 20 103 21 51 22
REMARK SMILES IDX 106 23 100 24 99 25 52 27 86 28 65 29 85 30 66 31 69 32
REMARK SMILES IDX 84 33 104 34 67 35 68 36 83 38 105 39 70 40 53 41 54 42
REMARK SMILES IDX 63 43 55 44 56 45 62 46 64 47 57 48 58 49 59 50 60 51 61 52
REMARK SMILES IDX 87 53 88 54 97 55 89 56 90 57 96 58 98 59 91 60 92 61 93 62
REMARK SMILES IDX 94 63 95 64 71 65 72 66 81 67 73 68 74 69 80 70 82 71 75 72
REMARK SMILES IDX 76 73 77 74 78 75 79 76 8 77 9 78 10 79 11 80 12 82 13 83
REMARK SMILES IDX 31 84 32 85 43 86 33 88 42 89 34 90 35 92 36 93 41 94 37 95
REMARK SMILES IDX 38 96 39 97 40 98 14 99 15 100 30 101 16 102 17 103 29 104
REMARK SMILES IDX 18 106 28 107 19 108 20 109 21 110 22 111 23 112 27 113
REMARK SMILES IDX 24 114 26 115 25 116
REMARK H PARENT 3 8 103 26 69 37 10 81 31 87 34 91 16 105
REMARK Flexibility Score: inf
ROOT
ATOM      1  C   UNL     1      13.044  -5.566   6.926  1.00  0.00     0.002 C 
ENDROOT
BRANCH   1   2
ATOM      2  C   UNL     1      13.027  -7.051   6.549  1.00  0.00     0.002 C 
BRANCH   2   3
ATOM      3  C   UNL     1      14.201  -7.868   7.085  1.00  0.00     0.021 C 
BRANCH   3   4
ATOM      4  C   UNL     1      14.389  -7.781   8.593  1.00  0.00     0.116 C 
BRANCH   4   5
ATOM      5  N   UNL     1      13.255  -8.333   9.315  1.00  0.00    -0.352 N 
ATOM      6  O   UNL     1      12.180  -9.831  10.613  1.00  0.00    -0.269 OA
ATOM      7  C   UNL     1      13.243  -9.343  10.243  1.00  0.00     0.251 C 
ATOM      8  H   UNL     1      12.381  -7.929   9.110  1.00  0.00     0.163 HD
BRANCH   7   9
ATOM      9  C   UNL     1      14.526  -9.846  10.775  1.00  0.00     0.039 A 
ATOM     10  C   UNL     1      15.513  -8.953  11.206  1.00  0.00     0.014 A 
ATOM     11  C   UNL     1      14.741 -11.223  10.835  1.00  0.00     0.014 A 
ATOM     12  C   UNL     1      16.760  -9.433  11.590  1.00  0.00     0.010 A 
ATOM     13  C   UNL     1      15.966 -11.705  11.295  1.00  0.00     0.010 A 
ATOM     14  C   UNL     1      16.991 -10.815  11.658  1.00  0.00    -0.014 A 
BRANCH  14  15
ATOM     15  C   UNL     1      18.279 -11.333  12.177  1.00  0.00     0.031 A 
ATOM     16  C   UNL     1      19.186 -12.148  11.302  1.00  0.00     0.074 A 
ATOM     17  C   UNL     1      18.596 -11.110  13.466  1.00  0.00     0.049 A 
ATOM     18  N   UNL     1      20.283 -12.785  11.618  1.00  0.00    -0.248 NA
ATOM     19  C   UNL     1      18.801 -12.275   9.888  1.00  0.00     0.031 C 
ATOM     20  C   UNL     1      17.786 -10.333  14.408  1.00  0.00     0.029 A 
ATOM     21  N   UNL     1      19.664 -11.532  14.215  1.00  0.00    -0.354 N 
ATOM     22  C   UNL     1      20.709 -13.412  10.454  1.00  0.00     0.074 A 
ATOM     23  C   UNL     1      19.735 -13.097   9.429  1.00  0.00     0.031 C 
ATOM     24  C   UNL     1      18.383 -10.337  15.607  1.00  0.00     0.029 A 
ATOM     25  C   UNL     1      19.576 -11.173  15.538  1.00  0.00     0.049 A 
ATOM     26  H   UNL     1      20.419 -12.042  13.841  1.00  0.00     0.167 HD
ATOM     27  C   UNL     1      21.809 -14.180  10.264  1.00  0.00     0.037 A 
ATOM     28  C   UNL     1      20.340 -11.516  16.593  1.00  0.00     0.037 A 
ATOM     29  C   UNL     1      22.761 -14.487  11.302  1.00  0.00     0.049 A 
ATOM     30  C   UNL     1      21.529 -12.404  16.375  1.00  0.00     0.074 A 
ATOM     31  C   UNL     1      23.929 -15.222  11.208  1.00  0.00     0.029 A 
ATOM     32  N   UNL     1      22.642 -14.095  12.630  1.00  0.00    -0.354 N 
ATOM     33  N   UNL     1      21.944 -12.958  15.261  1.00  0.00    -0.248 NA
ATOM     34  C   UNL     1      22.357 -12.712  17.547  1.00  0.00     0.031 C 
ATOM     35  C   UNL     1      24.481 -15.331  12.488  1.00  0.00     0.029 A 
ATOM     36  C   UNL     1      23.700 -14.599  13.370  1.00  0.00     0.049 A 
ATOM     37  H   UNL     1      21.914 -13.540  12.991  1.00  0.00     0.167 HD
ATOM     38  C   UNL     1      23.099 -13.657  15.590  1.00  0.00     0.074 A 
ATOM     39  C   UNL     1      23.314 -13.458  17.009  1.00  0.00     0.031 C 
ATOM     40  C   UNL     1      23.910 -14.384  14.783  1.00  0.00     0.037 A 
BRANCH  27  41
ATOM     41  C   UNL     1      22.013 -14.778   8.896  1.00  0.00     0.058 A 
ATOM     42  C   UNL     1      22.301 -13.989   7.770  1.00  0.00     0.135 A 
ATOM     43  C   UNL     1      21.914 -16.167   8.707  1.00  0.00     0.135 A 
ATOM     44  F   UNL     1      22.402 -12.655   7.886  1.00  0.00    -0.206 F 
ATOM     45  C   UNL     1      22.423 -14.547   6.501  1.00  0.00     0.059 A 
ATOM     46  C   UNL     1      22.067 -16.751   7.453  1.00  0.00     0.059 A 
ATOM     47  F   UNL     1      21.650 -16.974   9.747  1.00  0.00    -0.206 F 
ATOM     48  C   UNL     1      22.293 -15.929   6.351  1.00  0.00     0.060 A 
BRANCH  48  49
ATOM     49  S   UNL     1      22.395 -16.629   4.691  1.00  0.00     0.124 S 
ATOM     50  O   UNL     1      21.130 -16.186   4.113  1.00  0.00    -0.237 OA
ATOM     51  O   UNL     1      23.592 -15.989   4.155  1.00  0.00    -0.237 OA
ATOM     52  O   UNL     1      22.507 -18.064   4.931  1.00  0.00    -0.744 OA
ENDBRANCH  48  49
ENDBRANCH  27  41
BRANCH  28  53
ATOM     53  C   UNL     1      19.968 -11.014  17.941  1.00  0.00     0.058 A 
ATOM     54  C   UNL     1      20.710 -10.005  18.569  1.00  0.00     0.135 A 
ATOM     55  C   UNL     1      18.801 -11.465  18.582  1.00  0.00     0.135 A 
ATOM     56  F   UNL     1      21.833  -9.545  17.997  1.00  0.00    -0.206 F 
ATOM     57  C   UNL     1      20.305  -9.452  19.779  1.00  0.00     0.059 A 
ATOM     58  C   UNL     1      18.361 -10.909  19.778  1.00  0.00     0.059 A 
ATOM     59  F   UNL     1      18.045 -12.415  18.009  1.00  0.00    -0.206 F 
ATOM     60  C   UNL     1      19.121  -9.901  20.368  1.00  0.00     0.060 A 
BRANCH  60  61
ATOM     61  S   UNL     1      18.555  -9.101  21.885  1.00  0.00     0.124 S 
ATOM     62  O   UNL     1      19.532  -9.582  22.854  1.00  0.00    -0.237 OA
ATOM     63  O   UNL     1      18.645  -7.687  21.534  1.00  0.00    -0.237 OA
ATOM     64  O   UNL     1      17.197  -9.612  22.049  1.00  0.00    -0.744 OA
ENDBRANCH  60  61
ENDBRANCH  28  53
BRANCH  40  65
ATOM     65  C   UNL     1      25.149 -14.985  15.389  1.00  0.00     0.058 A 
ATOM     66  C   UNL     1      25.099 -16.110  16.225  1.00  0.00     0.135 A 
ATOM     67  C   UNL     1      26.413 -14.490  15.029  1.00  0.00     0.135 A 
ATOM     68  F   UNL     1      23.916 -16.615  16.610  1.00  0.00    -0.206 F 
ATOM     69  C   UNL     1      26.261 -16.729  16.677  1.00  0.00     0.059 A 
ATOM     70  C   UNL     1      27.587 -15.108  15.447  1.00  0.00     0.059 A 
ATOM     71  F   UNL     1      26.516 -13.416  14.229  1.00  0.00    -0.206 F 
ATOM     72  C   UNL     1      27.500 -16.229  16.270  1.00  0.00     0.060 A 
BRANCH  72  73
ATOM     73  S   UNL     1      28.996 -17.098  16.786  1.00  0.00     0.124 S 
ATOM     74  O   UNL     1      29.050 -16.775  18.207  1.00  0.00    -0.237 OA
ATOM     75  O   UNL     1      28.676 -18.485  16.462  1.00  0.00    -0.237 OA
ATOM     76  O   UNL     1      30.041 -16.494  15.965  1.00  0.00    -0.744 OA
ENDBRANCH  72  73
ENDBRANCH  40  65
ENDBRANCH  14  15
ENDBRANCH   7   9
ENDBRANCH   4   5
ENDBRANCH   3   4
ENDBRANCH   2   3
ENDBRANCH   1   2
BRANCH   1  77
ATOM     77  C   UNL     1      14.331  -4.806   6.571  1.00  0.00     0.021 C 
BRANCH  77  78
ATOM     78  C   UNL     1      14.771  -4.938   5.115  1.00  0.00     0.116 C 
BRANCH  78  79
ATOM     79  N   UNL     1      13.699  -4.613   4.200  1.00  0.00    -0.351 N 
ATOM     80  C   UNL     1      13.638  -3.858   3.077  1.00  0.00     0.283 C 
ATOM     81  H   UNL     1      12.838  -5.024   4.444  1.00  0.00     0.163 HD
ATOM     82  O   UNL     1      12.761  -4.281   2.307  1.00  0.00    -0.268 OA
BRANCH  80  83
ATOM     83  C   UNL     1      14.569  -2.632   2.725  1.00  0.00     0.308 C 
BRANCH  83  84
ATOM     84  N   UNL     1      13.971  -1.558   1.848  1.00  0.00    -0.312 N 
ATOM     85  C   UNL     1      12.615  -1.783   1.331  1.00  0.00     0.325 C 
ATOM     86  C   UNL     1      14.035  -0.148   2.254  1.00  0.00     0.325 C 
ATOM     87  H   UNL     1      14.670  -1.696   1.118  1.00  0.00     0.349 HD
ATOM     88  C   UNL     1      11.548  -1.573   2.424  1.00  0.00     0.324 C 
ATOM     89  C   UNL     1      12.878   0.365   3.164  1.00  0.00     0.324 C 
ATOM     90  N   UNL     1      11.526  -0.193   2.946  1.00  0.00    -0.322 N 
ATOM     91  H   UNL     1      11.151   0.425   2.226  1.00  0.00     0.348 HD
BRANCH  90  92
ATOM     92  C   UNL     1      10.586  -0.082   4.078  1.00  0.00     0.200 C 
ATOM     93  C   UNL     1      11.121  -0.407   5.489  1.00  0.00     0.082 C 
ATOM     94  C   UNL     1       9.967   1.311   4.194  1.00  0.00     0.201 C 
ATOM     95  C   UNL     1       9.984  -0.118   6.461  1.00  0.00     0.143 C 
ATOM     96  S   UNL     1       9.090   1.256   5.750  1.00  0.00     0.156 S 
ATOM     97  O   UNL     1       7.728   0.832   5.505  1.00  0.00    -0.229 OA
ATOM     98  O   UNL     1       9.399   2.458   6.500  1.00  0.00    -0.229 OA
ENDBRANCH  90  92
ENDBRANCH  83  84
BRANCH  83  99
ATOM     99  C   UNL     1      15.387  -2.094   3.885  1.00  0.00     0.044 A 
ATOM    100  C   UNL     1      14.948  -1.547   5.081  1.00  0.00     0.094 A 
ATOM    101  C   UNL     1      16.821  -2.199   4.008  1.00  0.00     0.009 A 
ATOM    102  N   UNL     1      16.030  -1.294   5.881  1.00  0.00    -0.361 N 
ATOM    103  C   UNL     1      17.169  -1.784   5.293  1.00  0.00     0.050 A 
ATOM    104  C   UNL     1      17.838  -2.720   3.182  1.00  0.00     0.015 A 
ATOM    105  H   UNL     1      15.997  -0.829   6.749  1.00  0.00     0.166 HD
ATOM    106  C   UNL     1      18.456  -1.946   5.819  1.00  0.00     0.073 A 
ATOM    107  C   UNL     1      19.127  -2.906   3.699  1.00  0.00     0.047 A 
ATOM    108  C   UNL     1      19.412  -2.589   5.024  1.00  0.00     0.121 A 
BRANCH 108 109
ATOM    109  O   UNL     1      20.543  -2.954   5.707  1.00  0.00    -0.489 OA
BRANCH 109 110
ATOM    110  C   UNL     1      21.486  -3.835   5.085  1.00  0.00     0.265 C 
BRANCH 110 111
ATOM    111  C   UNL     1      21.081  -5.288   4.882  1.00  0.00    -0.011 A 
ATOM    112  C   UNL     1      22.043  -6.178   4.374  1.00  0.00     0.007 A 
ATOM    113  C   UNL     1      19.790  -5.780   5.125  1.00  0.00     0.007 A 
ATOM    114  C   UNL     1      21.709  -7.501   4.074  1.00  0.00     0.000 A 
ATOM    115  C   UNL     1      19.449  -7.095   4.797  1.00  0.00     0.000 A 
ATOM    116  C   UNL     1      20.407  -7.954   4.266  1.00  0.00     0.000 A 
ENDBRANCH 110 111
ENDBRANCH 109 110
ENDBRANCH 108 109
ENDBRANCH  83  99
ENDBRANCH  80  83
ENDBRANCH  78  79
ENDBRANCH  77  78
ENDBRANCH   1  77
TORSDOF 22
