REMARK SMILES Cc1nc2n(n1)[C@@H](c1ccc([N+](=O)[O-])o1)CC(C(=O)NCCCCCCNC(=O)c1ccc(-c3c4nc(c(-c5c(F)cc(S(=O)(=O)[O-])cc5F)c5ccc([nH]5)c(-c5c(F)cc(S(=O)(=O)[O-])cc5F)c5nc(c(-c6c(F)cc(S(=O)(=O)[O-])cc6F)c6ccc3[nH]6)C=C5)C=C4)cc1)=N2
REMARK SMILES IDX 24 1 23 2 22 3 21 4 20 5 18 6 19 7 17 9 1 10 2 11 3 12 6 13
REMARK SMILES IDX 4 14 5 15 96 16 7 17 16 18 8 19 9 20 15 21 10 22 11 23 12 24
REMARK SMILES IDX 13 25 14 26 25 27 26 28 27 29 28 30 29 32 30 33 31 34 95 35
REMARK SMILES IDX 32 36 94 37 33 38 34 39 35 40 88 41 36 42 93 43 87 44 89 45
REMARK SMILES IDX 37 46 92 47 86 48 85 49 38 51 72 52 51 53 71 54 52 55 55 56
REMARK SMILES IDX 70 57 90 58 53 59 54 60 69 62 91 63 56 64 39 65 40 66 49 67
REMARK SMILES IDX 41 68 42 69 48 70 50 71 43 72 44 73 45 74 46 75 47 76 73 77
REMARK SMILES IDX 74 78 83 79 75 80 76 81 82 82 84 83 77 84 78 85 79 86 80 87
REMARK SMILES IDX 81 88 57 89 58 90 67 91 59 92 60 93 66 94 68 95 61 96 62 97
REMARK SMILES IDX 63 98 64 99 65 100
REMARK H PARENT 20 8 27 31 89 50 55 61
REMARK Flexibility Score: inf
ROOT
ATOM      1  C   UNL     1      -1.980   8.137  -8.694  1.00  0.00     0.002 C 
ENDROOT
BRANCH   1   2
ATOM      2  C   UNL     1      -0.997   6.958  -8.698  1.00  0.00     0.002 C 
BRANCH   2   3
ATOM      3  C   UNL     1      -0.550   6.480  -7.310  1.00  0.00     0.021 C 
BRANCH   3   4
ATOM      4  C   UNL     1      -1.700   5.980  -6.431  1.00  0.00     0.116 C 
BRANCH   4   5
ATOM      5  N   UNL     1      -1.994   4.576  -6.675  1.00  0.00    -0.351 N 
ATOM      6  C   UNL     1      -1.748   3.390  -6.030  1.00  0.00     0.265 C 
ATOM      7  O   UNL     1      -2.170   2.368  -6.570  1.00  0.00    -0.268 OA
ATOM      8  H   UNL     1      -2.494   4.444  -7.512  1.00  0.00     0.163 HD
BRANCH   6   9
ATOM      9  C   UNL     1      -1.002   3.248  -4.687  1.00  0.00     0.112 C 
ATOM     10  C   UNL     1       0.868   0.221  -0.094  1.00  0.00     0.092 C 
ATOM     11  C   UNL     1       0.505   1.157  -1.175  1.00  0.00     0.149 A 
ATOM     12  N   UNL     1      -0.202   0.767  -2.283  1.00  0.00    -0.195 NA
ATOM     13  N   UNL     1       0.846   2.451  -1.154  1.00  0.00    -0.154 NA
ATOM     14  C   UNL     1      -0.299   1.861  -3.009  1.00  0.00     0.249 A 
ATOM     15  N   UNL     1       0.360   2.857  -2.342  1.00  0.00    -0.219 N 
ATOM     16  N   UNL     1      -0.910   2.046  -4.199  1.00  0.00    -0.211 NA
ATOM     17  C   UNL     1       0.449   4.220  -2.804  1.00  0.00     0.184 C 
ATOM     18  C   UNL     1      -0.485   4.475  -3.989  1.00  0.00     0.098 C 
BRANCH  17  19
ATOM     19  C   UNL     1       1.857   4.622  -3.135  1.00  0.00     0.136 A 
ATOM     20  C   UNL     1       3.111   4.045  -3.025  1.00  0.00     0.056 A 
ATOM     21  O   UNL     1       1.982   5.877  -3.673  1.00  0.00    -0.404 OA
ATOM     22  C   UNL     1       4.046   4.979  -3.549  1.00  0.00     0.134 A 
ATOM     23  C   UNL     1       3.300   6.063  -3.940  1.00  0.00     0.433 A 
BRANCH  23  24
ATOM     24  N   UNL     1       3.639   7.291  -4.586  1.00  0.00     0.102 N 
ATOM     25  O   UNL     1       4.840   7.480  -4.808  1.00  0.00    -0.256 OA
ATOM     26  O   UNL     1       2.706   8.043  -4.902  1.00  0.00    -0.256 OA
ENDBRANCH  23  24
ENDBRANCH  17  19
ENDBRANCH   6   9
ENDBRANCH   4   5
ENDBRANCH   3   4
ENDBRANCH   2   3
ENDBRANCH   1   2
BRANCH   1  27
ATOM     27  C   UNL     1      -1.468   9.432  -8.036  1.00  0.00     0.021 C 
BRANCH  27  28
ATOM     28  C   UNL     1      -0.416  10.203  -8.852  1.00  0.00     0.116 C 
BRANCH  28  29
ATOM     29  N   UNL     1      -1.007  10.660 -10.098  1.00  0.00    -0.352 N 
ATOM     30  C   UNL     1      -0.989  11.870 -10.729  1.00  0.00     0.251 C 
ATOM     31  H   UNL     1      -1.516   9.967 -10.577  1.00  0.00     0.163 HD
ATOM     32  O   UNL     1      -1.914  12.110 -11.507  1.00  0.00    -0.269 OA
BRANCH  30  33
ATOM     33  C   UNL     1       0.092  12.870 -10.559  1.00  0.00     0.039 A 
ATOM     34  C   UNL     1      -0.234  14.206 -10.836  1.00  0.00     0.014 A 
ATOM     35  C   UNL     1       1.425  12.526 -10.319  1.00  0.00     0.014 A 
ATOM     36  C   UNL     1       0.755  15.189 -10.868  1.00  0.00     0.010 A 
ATOM     37  C   UNL     1       2.418  13.517 -10.347  1.00  0.00     0.010 A 
ATOM     38  C   UNL     1       2.091  14.855 -10.617  1.00  0.00    -0.014 A 
BRANCH  38  39
ATOM     39  C   UNL     1       3.064  15.968 -10.520  1.00  0.00     0.031 A 
ATOM     40  C   UNL     1       3.970  15.908  -9.330  1.00  0.00     0.074 A 
ATOM     41  C   UNL     1       3.479  16.661 -11.604  1.00  0.00     0.049 A 
ATOM     42  N   UNL     1       5.035  15.162  -9.290  1.00  0.00    -0.248 NA
ATOM     43  C   UNL     1       3.590  16.461  -8.030  1.00  0.00     0.031 C 
ATOM     44  C   UNL     1       3.722  16.038 -12.912  1.00  0.00     0.029 A 
ATOM     45  N   UNL     1       4.010  17.928 -11.729  1.00  0.00    -0.354 N 
ATOM     46  C   UNL     1       5.455  15.108  -7.971  1.00  0.00     0.074 A 
ATOM     47  C   UNL     1       4.526  15.929  -7.226  1.00  0.00     0.031 C 
ATOM     48  C   UNL     1       4.502  16.861 -13.643  1.00  0.00     0.029 A 
ATOM     49  C   UNL     1       4.694  18.125 -12.931  1.00  0.00     0.049 A 
ATOM     50  H   UNL     1       3.916  18.624 -11.040  1.00  0.00     0.167 HD
ATOM     51  C   UNL     1       6.542  14.396  -7.573  1.00  0.00     0.037 A 
ATOM     52  C   UNL     1       5.785  18.930 -13.087  1.00  0.00     0.037 A 
ATOM     53  C   UNL     1       7.276  13.760  -8.628  1.00  0.00     0.049 A 
ATOM     54  C   UNL     1       6.837  18.137 -12.354  1.00  0.00     0.074 A 
ATOM     55  C   UNL     1       7.386  12.510  -9.196  1.00  0.00     0.029 A 
ATOM     56  N   UNL     1       8.142  14.545  -9.352  1.00  0.00    -0.354 N 
ATOM     57  N   UNL     1       7.491  17.107 -12.824  1.00  0.00    -0.248 NA
ATOM     58  C   UNL     1       6.886  18.280 -10.898  1.00  0.00     0.031 C 
ATOM     59  C   UNL     1       7.938  12.732 -10.498  1.00  0.00     0.029 A 
ATOM     60  C   UNL     1       8.095  14.109 -10.650  1.00  0.00     0.049 A 
ATOM     61  H   UNL     1       8.693  15.282  -9.003  1.00  0.00     0.167 HD
ATOM     62  C   UNL     1       7.793  16.323 -11.708  1.00  0.00     0.074 A 
ATOM     63  C   UNL     1       7.407  17.111 -10.556  1.00  0.00     0.031 C 
ATOM     64  C   UNL     1       8.169  15.012 -11.776  1.00  0.00     0.037 A 
BRANCH  51  65
ATOM     65  C   UNL     1       7.117  14.384  -6.210  1.00  0.00     0.058 A 
ATOM     66  C   UNL     1       8.311  15.093  -6.000  1.00  0.00     0.135 A 
ATOM     67  C   UNL     1       6.684  13.509  -5.208  1.00  0.00     0.135 A 
ATOM     68  F   UNL     1       8.756  15.949  -6.936  1.00  0.00    -0.206 F 
ATOM     69  C   UNL     1       9.091  14.891  -4.872  1.00  0.00     0.059 A 
ATOM     70  C   UNL     1       7.444  13.300  -4.057  1.00  0.00     0.059 A 
ATOM     71  F   UNL     1       5.549  12.808  -5.364  1.00  0.00    -0.206 F 
ATOM     72  C   UNL     1       8.662  13.972  -3.916  1.00  0.00     0.060 A 
BRANCH  72  73
ATOM     73  S   UNL     1       9.753  13.648  -2.514  1.00  0.00     0.124 S 
ATOM     74  O   UNL     1      10.899  13.021  -3.163  1.00  0.00    -0.237 OA
ATOM     75  O   UNL     1       9.975  14.991  -1.988  1.00  0.00    -0.237 OA
ATOM     76  O   UNL     1       8.957  12.770  -1.661  1.00  0.00    -0.744 OA
ENDBRANCH  72  73
ENDBRANCH  51  65
BRANCH  52  77
ATOM     77  C   UNL     1       5.562  20.401 -12.895  1.00  0.00     0.058 A 
ATOM     78  C   UNL     1       4.537  21.018 -13.645  1.00  0.00     0.135 A 
ATOM     79  C   UNL     1       6.281  21.248 -12.036  1.00  0.00     0.135 A 
ATOM     80  F   UNL     1       3.885  20.325 -14.594  1.00  0.00    -0.206 F 
ATOM     81  C   UNL     1       4.146  22.340 -13.440  1.00  0.00     0.059 A 
ATOM     82  C   UNL     1       5.892  22.568 -11.790  1.00  0.00     0.059 A 
ATOM     83  F   UNL     1       7.373  20.818 -11.390  1.00  0.00    -0.206 F 
ATOM     84  C   UNL     1       4.799  23.094 -12.472  1.00  0.00     0.060 A 
BRANCH  84  85
ATOM     85  S   UNL     1       4.152  24.729 -12.065  1.00  0.00     0.124 S 
ATOM     86  O   UNL     1       4.411  25.472 -13.296  1.00  0.00    -0.237 OA
ATOM     87  O   UNL     1       2.747  24.432 -11.789  1.00  0.00    -0.237 OA
ATOM     88  O   UNL     1       4.938  25.129 -10.908  1.00  0.00    -0.744 OA
ENDBRANCH  84  85
ENDBRANCH  52  77
BRANCH  64  89
ATOM     89  C   UNL     1       8.470  14.472 -13.132  1.00  0.00     0.058 A 
ATOM     90  C   UNL     1       9.648  14.853 -13.789  1.00  0.00     0.135 A 
ATOM     91  C   UNL     1       7.664  13.496 -13.739  1.00  0.00     0.135 A 
ATOM     92  F   UNL     1      10.460  15.774 -13.246  1.00  0.00    -0.206 F 
ATOM     93  C   UNL     1      10.039  14.252 -14.980  1.00  0.00     0.059 A 
ATOM     94  C   UNL     1       8.048  12.864 -14.919  1.00  0.00     0.059 A 
ATOM     95  F   UNL     1       6.513  13.104 -13.167  1.00  0.00    -0.206 F 
ATOM     96  C   UNL     1       9.246  13.240 -15.525  1.00  0.00     0.060 A 
BRANCH  96  97
ATOM     97  S   UNL     1       9.853  12.360 -16.978  1.00  0.00     0.124 S 
ATOM     98  O   UNL     1       9.738  13.374 -18.021  1.00  0.00    -0.237 OA
ATOM     99  O   UNL     1      11.215  12.011 -16.582  1.00  0.00    -0.237 OA
ATOM    100  O   UNL     1       8.939  11.228 -17.102  1.00  0.00    -0.744 OA
ENDBRANCH  96  97
ENDBRANCH  64  89
ENDBRANCH  38  39
ENDBRANCH  30  33
ENDBRANCH  28  29
ENDBRANCH  27  28
ENDBRANCH   1  27
TORSDOF 18
