REMARK SMILES CCOc1ccc(-c2ccc(=O)n(CC(=O)NCCCCCCNC(=O)c3ccc(-c4c5nc(c(-c6c(F)cc(S(=O)(=O)[O-])cc6F)c6ccc([nH]6)c(-c6c(F)cc(S(=O)(=O)[O-])cc6F)c6nc(c(-c7c(F)cc(S(=O)(=O)[O-])cc7F)c7ccc4[nH]7)C=C6)C=C5)cc3)n2)cc1
REMARK SMILES IDX 20 1 19 2 18 3 17 4 15 5 16 6 14 8 13 9 8 10 9 11 93 12
REMARK SMILES IDX 10 13 11 14 12 15 7 16 4 17 5 18 95 19 6 20 94 21 3 22 2 23
REMARK SMILES IDX 1 24 21 25 22 26 23 27 24 28 25 29 26 31 27 32 28 33 92 34
REMARK SMILES IDX 29 35 91 36 30 37 31 38 32 39 85 40 33 41 90 42 84 43 86 44
REMARK SMILES IDX 34 45 89 46 83 47 82 48 35 50 69 51 48 52 68 53 49 54 52 55
REMARK SMILES IDX 67 56 87 57 50 58 51 59 66 61 88 62 53 63 36 64 37 65 46 66
REMARK SMILES IDX 38 67 39 68 45 69 47 70 40 71 41 72 42 73 43 74 44 75 70 76
REMARK SMILES IDX 71 77 80 78 72 79 73 80 79 81 81 82 74 83 75 84 76 85 77 86
REMARK SMILES IDX 78 87 54 88 55 89 64 90 56 91 57 92 63 93 65 94 58 95 59 96
REMARK SMILES IDX 60 97 61 98 62 99
REMARK H PARENT 17 7 24 30 86 49 52 60
REMARK Flexibility Score: inf
ROOT
ATOM      1  C   UNL     1       7.760   2.471   8.098  1.00  0.00     0.002 C 
ENDROOT
BRANCH   1   2
ATOM      2  C   UNL     1       7.378   2.280   6.624  1.00  0.00     0.021 C 
BRANCH   2   3
ATOM      3  C   UNL     1       7.599   3.523   5.763  1.00  0.00     0.116 C 
BRANCH   3   4
ATOM      4  N   UNL     1       9.009   3.801   5.577  1.00  0.00    -0.354 N 
ATOM      5  C   UNL     1       9.777   3.659   4.456  1.00  0.00     0.241 C 
ATOM      6  O   UNL     1      10.909   4.153   4.485  1.00  0.00    -0.273 OA
ATOM      7  H   UNL     1       9.480   4.140   6.371  1.00  0.00     0.163 HD
BRANCH   5   8
ATOM      8  C   UNL     1       9.198   3.083   3.158  1.00  0.00     0.248 C 
BRANCH   8   9
ATOM      9  N   UNL     1       8.570   1.778   3.326  1.00  0.00    -0.220 N 
ATOM     10  C   UNL     1       6.628   0.567   3.316  1.00  0.00     0.091 A 
ATOM     11  C   UNL     1       7.322  -0.668   3.727  1.00  0.00     0.036 A 
ATOM     12  N   UNL     1       7.209   1.707   3.115  1.00  0.00    -0.169 NA
ATOM     13  C   UNL     1       8.652  -0.599   3.813  1.00  0.00     0.075 A 
ATOM     14  C   UNL     1       9.369   0.671   3.571  1.00  0.00     0.267 A 
ATOM     15  O   UNL     1      10.595   0.684   3.631  1.00  0.00    -0.268 OA
BRANCH  10  16
ATOM     16  C   UNL     1       5.172   0.454   3.087  1.00  0.00     0.002 A 
ATOM     17  C   UNL     1       2.444   0.293   2.568  1.00  0.00     0.119 A 
ATOM     18  C   UNL     1       2.935  -0.101   3.813  1.00  0.00     0.047 A 
ATOM     19  C   UNL     1       3.304   0.815   1.603  1.00  0.00     0.047 A 
ATOM     20  C   UNL     1       4.307  -0.029   4.076  1.00  0.00     0.014 A 
ATOM     21  C   UNL     1       4.670   0.889   1.858  1.00  0.00     0.014 A 
BRANCH  17  22
ATOM     22  O   UNL     1       1.093   0.290   2.367  1.00  0.00    -0.494 OA
BRANCH  22  23
ATOM     23  C   UNL     1       0.654  -0.722   1.452  1.00  0.00     0.226 C 
ATOM     24  C   UNL     1       0.639  -0.221   0.015  1.00  0.00     0.049 C 
ENDBRANCH  22  23
ENDBRANCH  17  22
ENDBRANCH  10  16
ENDBRANCH   8   9
ENDBRANCH   5   8
ENDBRANCH   3   4
ENDBRANCH   2   3
ENDBRANCH   1   2
BRANCH   1  25
ATOM     25  C   UNL     1       7.030   3.611   8.818  1.00  0.00     0.002 C 
BRANCH  25  26
ATOM     26  C   UNL     1       5.502   3.535   8.767  1.00  0.00     0.021 C 
BRANCH  26  27
ATOM     27  C   UNL     1       4.911   2.286   9.412  1.00  0.00     0.116 C 
BRANCH  27  28
ATOM     28  N   UNL     1       5.188   2.227  10.840  1.00  0.00    -0.352 N 
ATOM     29  C   UNL     1       4.313   2.102  11.889  1.00  0.00     0.251 C 
ATOM     30  H   UNL     1       6.139   2.286  11.088  1.00  0.00     0.163 HD
ATOM     31  O   UNL     1       4.706   2.284  13.041  1.00  0.00    -0.269 OA
BRANCH  29  32
ATOM     32  C   UNL     1       2.898   1.764  11.633  1.00  0.00     0.039 A 
ATOM     33  C   UNL     1       1.897   2.458  12.317  1.00  0.00     0.014 A 
ATOM     34  C   UNL     1       2.558   0.759  10.721  1.00  0.00     0.014 A 
ATOM     35  C   UNL     1       0.555   2.186  12.042  1.00  0.00     0.010 A 
ATOM     36  C   UNL     1       1.223   0.545  10.393  1.00  0.00     0.010 A 
ATOM     37  C   UNL     1       0.207   1.252  11.052  1.00  0.00    -0.014 A 
BRANCH  37  38
ATOM     38  C   UNL     1      -1.213   1.002  10.692  1.00  0.00     0.031 A 
ATOM     39  C   UNL     1      -1.822  -0.357  10.908  1.00  0.00     0.074 A 
ATOM     40  C   UNL     1      -1.934   1.981  10.110  1.00  0.00     0.049 A 
ATOM     41  N   UNL     1      -3.021  -0.783  10.605  1.00  0.00    -0.248 NA
ATOM     42  C   UNL     1      -0.960  -1.381  11.521  1.00  0.00     0.031 C 
ATOM     43  C   UNL     1      -1.443   3.329   9.810  1.00  0.00     0.029 A 
ATOM     44  N   UNL     1      -3.230   1.995   9.660  1.00  0.00    -0.354 N 
ATOM     45  C   UNL     1      -3.052  -2.124  10.971  1.00  0.00     0.074 A 
ATOM     46  C   UNL     1      -1.736  -2.454  11.471  1.00  0.00     0.031 C 
ATOM     47  C   UNL     1      -2.434   4.045   9.257  1.00  0.00     0.029 A 
ATOM     48  C   UNL     1      -3.616   3.200   9.120  1.00  0.00     0.049 A 
ATOM     49  H   UNL     1      -3.829   1.215   9.718  1.00  0.00     0.167 HD
ATOM     50  C   UNL     1      -4.089  -2.994  10.914  1.00  0.00     0.037 A 
ATOM     51  C   UNL     1      -4.787   3.579   8.573  1.00  0.00     0.037 A 
ATOM     52  C   UNL     1      -5.404  -2.648  10.438  1.00  0.00     0.049 A 
ATOM     53  C   UNL     1      -5.919   2.589   8.507  1.00  0.00     0.074 A 
ATOM     54  C   UNL     1      -6.541  -3.435  10.406  1.00  0.00     0.029 A 
ATOM     55  N   UNL     1      -5.755  -1.418   9.900  1.00  0.00    -0.354 N 
ATOM     56  N   UNL     1      -5.954   1.347   8.926  1.00  0.00    -0.248 NA
ATOM     57  C   UNL     1      -7.172   3.054   7.895  1.00  0.00     0.031 C 
ATOM     58  C   UNL     1      -7.563  -2.703   9.795  1.00  0.00     0.029 A 
ATOM     59  C   UNL     1      -7.083  -1.436   9.503  1.00  0.00     0.049 A 
ATOM     60  H   UNL     1      -5.151  -0.645   9.814  1.00  0.00     0.167 HD
ATOM     61  C   UNL     1      -7.242   0.892   8.661  1.00  0.00     0.074 A 
ATOM     62  C   UNL     1      -7.956   1.996   8.053  1.00  0.00     0.031 C 
ATOM     63  C   UNL     1      -7.785  -0.327   8.904  1.00  0.00     0.037 A 
BRANCH  50  64
ATOM     64  C   UNL     1      -3.842  -4.409  11.367  1.00  0.00     0.058 A 
ATOM     65  C   UNL     1      -3.599  -4.727  12.714  1.00  0.00     0.135 A 
ATOM     66  C   UNL     1      -3.877  -5.466  10.444  1.00  0.00     0.135 A 
ATOM     67  F   UNL     1      -3.542  -3.756  13.639  1.00  0.00    -0.206 F 
ATOM     68  C   UNL     1      -3.361  -6.036  13.121  1.00  0.00     0.059 A 
ATOM     69  C   UNL     1      -3.674  -6.787  10.834  1.00  0.00     0.059 A 
ATOM     70  F   UNL     1      -4.106  -5.222   9.144  1.00  0.00    -0.206 F 
ATOM     71  C   UNL     1      -3.399  -7.059  12.173  1.00  0.00     0.060 A 
BRANCH  71  72
ATOM     72  S   UNL     1      -3.078  -8.751  12.716  1.00  0.00     0.124 S 
ATOM     73  O   UNL     1      -1.643  -8.703  12.982  1.00  0.00    -0.237 OA
ATOM     74  O   UNL     1      -3.936  -8.869  13.890  1.00  0.00    -0.237 OA
ATOM     75  O   UNL     1      -3.475  -9.559  11.567  1.00  0.00    -0.744 OA
ENDBRANCH  71  72
ENDBRANCH  50  64
BRANCH  51  76
ATOM     76  C   UNL     1      -4.961   4.970   8.073  1.00  0.00     0.058 A 
ATOM     77  C   UNL     1      -5.811   5.869   8.734  1.00  0.00     0.135 A 
ATOM     78  C   UNL     1      -4.276   5.434   6.939  1.00  0.00     0.135 A 
ATOM     79  F   UNL     1      -6.494   5.472   9.819  1.00  0.00    -0.206 F 
ATOM     80  C   UNL     1      -5.992   7.172   8.280  1.00  0.00     0.059 A 
ATOM     81  C   UNL     1      -4.418   6.740   6.482  1.00  0.00     0.059 A 
ATOM     82  F   UNL     1      -3.438   4.619   6.279  1.00  0.00    -0.206 F 
ATOM     83  C   UNL     1      -5.287   7.599   7.154  1.00  0.00     0.060 A 
BRANCH  83  84
ATOM     84  S   UNL     1      -5.494   9.306   6.603  1.00  0.00     0.124 S 
ATOM     85  O   UNL     1      -6.849   9.279   6.063  1.00  0.00    -0.237 OA
ATOM     86  O   UNL     1      -5.315  10.052   7.845  1.00  0.00    -0.237 OA
ATOM     87  O   UNL     1      -4.427   9.474   5.620  1.00  0.00    -0.744 OA
ENDBRANCH  83  84
ENDBRANCH  51  76
BRANCH  63  88
ATOM     88  C   UNL     1      -9.234  -0.525   8.552  1.00  0.00     0.058 A 
ATOM     89  C   UNL     1      -9.670  -0.608   7.220  1.00  0.00     0.135 A 
ATOM     90  C   UNL     1     -10.193  -0.689   9.565  1.00  0.00     0.135 A 
ATOM     91  F   UNL     1      -8.797  -0.452   6.212  1.00  0.00    -0.206 F 
ATOM     92  C   UNL     1     -11.008  -0.823   6.905  1.00  0.00     0.059 A 
ATOM     93  C   UNL     1     -11.531  -0.936   9.274  1.00  0.00     0.059 A 
ATOM     94  F   UNL     1      -9.830  -0.630  10.856  1.00  0.00    -0.206 F 
ATOM     95  C   UNL     1     -11.931  -0.990   7.940  1.00  0.00     0.060 A 
BRANCH  95  96
ATOM     96  S   UNL     1     -13.657  -1.306   7.516  1.00  0.00     0.124 S 
ATOM     97  O   UNL     1     -14.085   0.001   7.030  1.00  0.00    -0.237 OA
ATOM     98  O   UNL     1     -13.542  -2.352   6.505  1.00  0.00    -0.237 OA
ATOM     99  O   UNL     1     -14.246  -1.729   8.783  1.00  0.00    -0.744 OA
ENDBRANCH  95  96
ENDBRANCH  63  88
ENDBRANCH  37  38
ENDBRANCH  29  32
ENDBRANCH  27  28
ENDBRANCH  26  27
ENDBRANCH  25  26
ENDBRANCH   1  25
TORSDOF 20
