REMARK SMILES CCn1ncc(NC(=O)[C@@H]2CCCC[C@@H]2C(=O)NCCCCCCNC(=O)c2ccc(-c3c4nc(c(-c5c(F)cc(S(=O)(=O)[O-])cc5F)c5ccc([nH]5)c(-c5c(F)cc(S(=O)(=O)[O-])cc5F)c5nc(c(-c6c(F)cc(S(=O)(=O)[O-])cc6F)c6ccc3[nH]6)C=C5)C=C4)cc2)c1C(=O)Nc1cnn(C)c1C
REMARK SMILES IDX 21 1 20 2 19 3 18 4 16 5 17 6 15 8 10 9 11 10 12 11 14 12
REMARK SMILES IDX 13 13 8 14 7 15 9 17 6 18 3 19 4 20 94 21 5 22 2 23 1 24
REMARK SMILES IDX 95 25 96 26 97 27 98 29 99 30 103 31 100 32 101 33 104 34
REMARK SMILES IDX 102 35 22 36 23 37 24 38 25 39 26 40 27 42 28 43 29 44 93 45
REMARK SMILES IDX 30 46 92 47 31 48 32 49 33 50 86 51 34 52 91 53 85 54 87 55
REMARK SMILES IDX 35 56 90 57 84 58 83 59 36 61 70 62 49 63 69 64 50 65 53 66
REMARK SMILES IDX 68 67 88 68 51 69 52 70 67 72 89 73 54 74 37 75 38 76 47 77
REMARK SMILES IDX 39 78 40 79 46 80 48 81 41 82 42 83 43 84 44 85 45 86 71 87
REMARK SMILES IDX 72 88 81 89 73 90 74 91 80 92 82 93 75 94 76 95 77 96 78 97
REMARK SMILES IDX 79 98 55 99 56 100 65 101 57 102 58 103 64 104 66 105 59 106
REMARK SMILES IDX 60 107 61 108 62 109 63 110
REMARK H PARENT 18 7 7 16 97 28 25 41 87 60 53 71
REMARK Flexibility Score: inf
ROOT
ATOM      1  C   UNL     1       3.394  -2.023  -8.872  1.00  0.00     0.002 C 
ENDROOT
BRANCH   1   2
ATOM      2  C   UNL     1       2.988  -1.774  -7.426  1.00  0.00     0.021 C 
BRANCH   2   3
ATOM      3  C   UNL     1       3.476  -0.434  -6.899  1.00  0.00     0.116 C 
BRANCH   3   4
ATOM      4  N   UNL     1       2.474   0.598  -6.903  1.00  0.00    -0.356 N 
ATOM      5  C   UNL     1       1.854   1.207  -5.860  1.00  0.00     0.223 C 
ATOM      6  O   UNL     1       1.104   2.154  -6.119  1.00  0.00    -0.275 OA
ATOM      7  H   UNL     1       2.196   0.909  -7.795  1.00  0.00     0.163 HD
BRANCH   5   8
ATOM      8  C   UNL     1       2.066   0.773  -4.403  1.00  0.00     0.091 C 
ATOM      9  C   UNL     1       3.269   1.404  -3.706  1.00  0.00     0.091 C 
ATOM     10  C   UNL     1       4.598   0.732  -3.969  1.00  0.00     0.014 C 
ATOM     11  C   UNL     1       4.531  -0.708  -3.461  1.00  0.00     0.001 C 
ATOM     12  C   UNL     1       1.956  -0.734  -4.148  1.00  0.00     0.014 C 
ATOM     13  C   UNL     1       3.230  -1.489  -3.723  1.00  0.00     0.001 C 
BRANCH   9  14
ATOM     14  C   UNL     1       3.301   2.893  -3.844  1.00  0.00     0.228 C 
ATOM     15  N   UNL     1       2.550   3.665  -3.012  1.00  0.00    -0.322 N 
ATOM     16  H   UNL     1       2.523   4.602  -3.313  1.00  0.00     0.170 HD
ATOM     17  O   UNL     1       3.951   3.440  -4.739  1.00  0.00    -0.274 OA
BRANCH  15  18
ATOM     18  C   UNL     1       1.807   3.478  -1.844  1.00  0.00     0.092 A 
ATOM     19  N   UNL     1       0.843   3.094   0.111  1.00  0.00    -0.258 N 
ATOM     20  N   UNL     1       0.378   4.306  -0.260  1.00  0.00    -0.178 NA
ATOM     21  C   UNL     1       1.646   2.493  -0.848  1.00  0.00     0.150 A 
ATOM     22  C   UNL     1       0.997   4.551  -1.400  1.00  0.00     0.162 A 
BRANCH  19  23
ATOM     23  C   UNL     1       0.503   2.749   1.480  1.00  0.00     0.142 C 
ATOM     24  C   UNL     1       1.136   1.572   2.179  1.00  0.00     0.029 C 
ENDBRANCH  19  23
BRANCH  21  25
ATOM     25  C   UNL     1       2.345   1.245  -0.613  1.00  0.00     0.276 C 
ATOM     26  O   UNL     1       3.520   1.218  -0.244  1.00  0.00    -0.267 OA
ATOM     27  N   UNL     1       1.759   0.058  -1.044  1.00  0.00    -0.318 N 
ATOM     28  H   UNL     1       1.837  -0.211  -1.988  1.00  0.00     0.170 HD
BRANCH  27  29
ATOM     29  C   UNL     1       1.065  -0.750  -0.152  1.00  0.00     0.082 A 
ATOM     30  C   UNL     1      -0.321  -0.944  -0.008  1.00  0.00     0.161 A 
ATOM     31  C   UNL     1       1.646  -1.593   0.780  1.00  0.00     0.059 A 
ATOM     32  N   UNL     1      -0.605  -1.651   1.088  1.00  0.00    -0.179 NA
ATOM     33  N   UNL     1       0.602  -1.976   1.594  1.00  0.00    -0.271 N 
ATOM     34  C   UNL     1       3.058  -1.960   1.053  1.00  0.00     0.068 C 
ATOM     35  C   UNL     1       0.692  -2.341   2.992  1.00  0.00     0.174 C 
ENDBRANCH  27  29
ENDBRANCH  21  25
ENDBRANCH  15  18
ENDBRANCH   9  14
ENDBRANCH   5   8
ENDBRANCH   3   4
ENDBRANCH   2   3
ENDBRANCH   1   2
BRANCH   1  36
ATOM     36  C   UNL     1       4.894  -1.855  -9.166  1.00  0.00     0.002 C 
BRANCH  36  37
ATOM     37  C   UNL     1       5.863  -2.627  -8.253  1.00  0.00     0.021 C 
BRANCH  37  38
ATOM     38  C   UNL     1       5.739  -4.135  -8.390  1.00  0.00     0.116 C 
BRANCH  38  39
ATOM     39  N   UNL     1       5.975  -4.562  -9.769  1.00  0.00    -0.352 N 
ATOM     40  C   UNL     1       5.831  -5.800 -10.344  1.00  0.00     0.251 C 
ATOM     41  H   UNL     1       6.284  -3.853 -10.377  1.00  0.00     0.163 HD
ATOM     42  O   UNL     1       6.380  -6.044 -11.421  1.00  0.00    -0.269 OA
BRANCH  40  43
ATOM     43  C   UNL     1       5.027  -6.828  -9.669  1.00  0.00     0.039 A 
ATOM     44  C   UNL     1       5.404  -8.172  -9.714  1.00  0.00     0.014 A 
ATOM     45  C   UNL     1       3.882  -6.435  -8.979  1.00  0.00     0.014 A 
ATOM     46  C   UNL     1       4.653  -9.100  -9.001  1.00  0.00     0.010 A 
ATOM     47  C   UNL     1       3.249  -7.316  -8.142  1.00  0.00     0.010 A 
ATOM     48  C   UNL     1       3.587  -8.659  -8.198  1.00  0.00    -0.014 A 
BRANCH  48  49
ATOM     49  C   UNL     1       2.906  -9.577  -7.295  1.00  0.00     0.031 A 
ATOM     50  C   UNL     1       3.840 -10.295  -6.390  1.00  0.00     0.074 A 
ATOM     51  C   UNL     1       1.565  -9.624  -7.140  1.00  0.00     0.049 A 
ATOM     52  N   UNL     1       4.216 -11.527  -6.478  1.00  0.00    -0.248 NA
ATOM     53  C   UNL     1       4.609  -9.511  -5.408  1.00  0.00     0.031 C 
ATOM     54  C   UNL     1       0.547  -8.752  -7.737  1.00  0.00     0.029 A 
ATOM     55  N   UNL     1       0.822 -10.416  -6.321  1.00  0.00    -0.354 N 
ATOM     56  C   UNL     1       5.037 -11.743  -5.378  1.00  0.00     0.074 A 
ATOM     57  C   UNL     1       5.439 -10.439  -4.924  1.00  0.00     0.031 C 
ATOM     58  C   UNL     1      -0.626  -8.906  -7.083  1.00  0.00     0.029 A 
ATOM     59  C   UNL     1      -0.495  -9.999  -6.137  1.00  0.00     0.049 A 
ATOM     60  H   UNL     1       1.187 -11.223  -5.891  1.00  0.00     0.167 HD
ATOM     61  C   UNL     1       5.047 -12.955  -4.755  1.00  0.00     0.037 A 
ATOM     62  C   UNL     1      -1.395 -10.506  -5.252  1.00  0.00     0.037 A 
ATOM     63  C   UNL     1       4.450 -13.970  -5.595  1.00  0.00     0.049 A 
ATOM     64  C   UNL     1      -0.912 -11.863  -4.880  1.00  0.00     0.074 A 
ATOM     65  C   UNL     1       4.671 -14.415  -6.886  1.00  0.00     0.029 A 
ATOM     66  N   UNL     1       3.188 -14.405  -5.266  1.00  0.00    -0.354 N 
ATOM     67  N   UNL     1      -0.871 -12.867  -5.713  1.00  0.00    -0.248 NA
ATOM     68  C   UNL     1      -0.024 -11.970  -3.732  1.00  0.00     0.031 C 
ATOM     69  C   UNL     1       3.368 -14.635  -7.427  1.00  0.00     0.029 A 
ATOM     70  C   UNL     1       2.438 -14.408  -6.414  1.00  0.00     0.049 A 
ATOM     71  H   UNL     1       2.879 -14.668  -4.369  1.00  0.00     0.167 HD
ATOM     72  C   UNL     1       0.341 -13.489  -5.454  1.00  0.00     0.074 A 
ATOM     73  C   UNL     1       0.781 -12.942  -4.170  1.00  0.00     0.031 C 
ATOM     74  C   UNL     1       1.014 -14.159  -6.436  1.00  0.00     0.037 A 
BRANCH  61  75
ATOM     75  C   UNL     1       5.184 -13.136  -3.257  1.00  0.00     0.058 A 
ATOM     76  C   UNL     1       5.282 -14.444  -2.739  1.00  0.00     0.135 A 
ATOM     77  C   UNL     1       4.926 -12.125  -2.303  1.00  0.00     0.135 A 
ATOM     78  F   UNL     1       5.522 -15.485  -3.553  1.00  0.00    -0.206 F 
ATOM     79  C   UNL     1       5.049 -14.736  -1.395  1.00  0.00     0.059 A 
ATOM     80  C   UNL     1       4.747 -12.388  -0.951  1.00  0.00     0.059 A 
ATOM     81  F   UNL     1       4.738 -10.844  -2.635  1.00  0.00    -0.206 F 
ATOM     82  C   UNL     1       4.767 -13.700  -0.512  1.00  0.00     0.060 A 
BRANCH  82  83
ATOM     83  S   UNL     1       4.381 -14.076   1.204  1.00  0.00     0.124 S 
ATOM     84  O   UNL     1       3.087 -14.734   1.070  1.00  0.00    -0.237 OA
ATOM     85  O   UNL     1       5.501 -14.931   1.581  1.00  0.00    -0.237 OA
ATOM     86  O   UNL     1       4.362 -12.761   1.838  1.00  0.00    -0.744 OA
ENDBRANCH  82  83
ENDBRANCH  61  75
BRANCH  62  87
ATOM     87  C   UNL     1      -2.435  -9.796  -4.455  1.00  0.00     0.058 A 
ATOM     88  C   UNL     1      -3.373 -10.515  -3.688  1.00  0.00     0.135 A 
ATOM     89  C   UNL     1      -2.340  -8.418  -4.176  1.00  0.00     0.135 A 
ATOM     90  F   UNL     1      -3.532 -11.834  -3.879  1.00  0.00    -0.206 F 
ATOM     91  C   UNL     1      -4.109  -9.924  -2.653  1.00  0.00     0.059 A 
ATOM     92  C   UNL     1      -3.071  -7.805  -3.157  1.00  0.00     0.059 A 
ATOM     93  F   UNL     1      -1.458  -7.640  -4.820  1.00  0.00    -0.206 F 
ATOM     94  C   UNL     1      -3.927  -8.571  -2.375  1.00  0.00     0.060 A 
BRANCH  94  95
ATOM     95  S   UNL     1      -4.702  -7.852  -0.906  1.00  0.00     0.124 S 
ATOM     96  O   UNL     1      -6.110  -7.828  -1.286  1.00  0.00    -0.237 OA
ATOM     97  O   UNL     1      -4.338  -8.807   0.135  1.00  0.00    -0.237 OA
ATOM     98  O   UNL     1      -4.062  -6.543  -0.796  1.00  0.00    -0.744 OA
ENDBRANCH  94  95
ENDBRANCH  62  87
BRANCH  74  99
ATOM     99  C   UNL     1       0.276 -14.503  -7.705  1.00  0.00     0.058 A 
ATOM    100  C   UNL     1      -0.306 -13.575  -8.589  1.00  0.00     0.135 A 
ATOM    101  C   UNL     1       0.253 -15.852  -8.094  1.00  0.00     0.135 A 
ATOM    102  F   UNL     1      -0.230 -12.257  -8.356  1.00  0.00    -0.206 F 
ATOM    103  C   UNL     1      -0.938 -13.979  -9.768  1.00  0.00     0.059 A 
ATOM    104  C   UNL     1      -0.338 -16.273  -9.280  1.00  0.00     0.059 A 
ATOM    105  F   UNL     1       0.847 -16.783  -7.329  1.00  0.00    -0.206 F 
ATOM    106  C   UNL     1      -0.955 -15.334 -10.101  1.00  0.00     0.060 A 
BRANCH 106 107
ATOM    107  S   UNL     1      -1.759 -15.861 -11.629  1.00  0.00     0.124 S 
ATOM    108  O   UNL     1      -3.168 -15.627 -11.331  1.00  0.00    -0.237 OA
ATOM    109  O   UNL     1      -1.164 -14.974 -12.624  1.00  0.00    -0.237 OA
ATOM    110  O   UNL     1      -1.374 -17.266 -11.750  1.00  0.00    -0.744 OA
ENDBRANCH 106 107
ENDBRANCH  74  99
ENDBRANCH  48  49
ENDBRANCH  40  43
ENDBRANCH  38  39
ENDBRANCH  37  38
ENDBRANCH  36  37
ENDBRANCH   1  36
TORSDOF 21
