REMARK SMILES O=C(NCCCCCCNC(=O)[C@H]1CCCCN1c1cc(-c2ccccc2)nc(-c2cccc(Cl)c2)n1)c1ccc(-c2c3nc(c(-c4c(F)cc(S(=O)(=O)[O-])cc4F)c4ccc([nH]4)c(-c4c(F)cc(S(=O)(=O)[O-])cc4F)c4nc(c(-c5c(F)cc(S(=O)(=O)[O-])cc5F)c5ccc2[nH]5)C=C4)C=C3)cc1
REMARK SMILES IDX 6 1 5 2 4 3 3 4 1 5 2 6 38 8 39 9 103 10 40 11 102 12 41 13
REMARK SMILES IDX 42 14 43 15 96 16 44 17 101 18 95 19 97 20 45 21 100 22
REMARK SMILES IDX 94 23 93 24 46 26 80 27 59 28 79 29 60 30 63 31 78 32 98 33
REMARK SMILES IDX 61 34 62 35 77 37 99 38 64 39 47 40 48 41 57 42 49 43 50 44
REMARK SMILES IDX 56 45 58 46 51 47 52 48 53 49 54 50 55 51 81 52 82 53 91 54
REMARK SMILES IDX 83 55 84 56 90 57 92 58 85 59 86 60 87 61 88 62 89 63 65 64
REMARK SMILES IDX 66 65 75 66 67 67 68 68 74 69 76 70 69 71 70 72 71 73 72 74
REMARK SMILES IDX 73 75 7 76 8 77 9 78 10 79 11 80 12 82 13 83 14 84 18 85
REMARK SMILES IDX 15 86 17 87 16 88 19 89 20 90 37 91 21 92 29 93 28 94 22 95
REMARK SMILES IDX 23 96 27 97 24 98 26 99 25 100 30 101 31 102 36 103 32 104
REMARK SMILES IDX 34 105 33 106 35 107
REMARK H PARENT 3 7 97 25 63 36 10 81
REMARK Flexibility Score: inf
ROOT
ATOM      1  C   UNL     1      13.574   7.646  -8.449  1.00  0.00     0.002 C 
ENDROOT
BRANCH   1   2
ATOM      2  C   UNL     1      13.777   8.653  -7.316  1.00  0.00     0.021 C 
BRANCH   2   3
ATOM      3  C   UNL     1      15.058   8.450  -6.519  1.00  0.00     0.116 C 
BRANCH   3   4
ATOM      4  N   UNL     1      16.245   8.643  -7.337  1.00  0.00    -0.352 N 
ATOM      5  O   UNL     1      18.055   9.745  -8.106  1.00  0.00    -0.269 OA
ATOM      6  C   UNL     1      17.245   9.579  -7.206  1.00  0.00     0.251 C 
ATOM      7  H   UNL     1      16.346   8.018  -8.090  1.00  0.00     0.163 HD
BRANCH   6   8
ATOM      8  C   UNL     1      17.321  10.384  -5.967  1.00  0.00     0.039 A 
ATOM      9  C   UNL     1      17.151   9.770  -4.726  1.00  0.00     0.014 A 
ATOM     10  C   UNL     1      17.569  11.757  -6.046  1.00  0.00     0.014 A 
ATOM     11  C   UNL     1      17.080  10.547  -3.579  1.00  0.00     0.010 A 
ATOM     12  C   UNL     1      17.603  12.524  -4.876  1.00  0.00     0.010 A 
ATOM     13  C   UNL     1      17.339  11.927  -3.635  1.00  0.00    -0.014 A 
BRANCH  13  14
ATOM     14  C   UNL     1      17.422  12.678  -2.356  1.00  0.00     0.031 A 
ATOM     15  C   UNL     1      16.451  13.772  -2.016  1.00  0.00     0.074 A 
ATOM     16  C   UNL     1      18.364  12.300  -1.468  1.00  0.00     0.049 A 
ATOM     17  N   UNL     1      16.353  14.464  -0.909  1.00  0.00    -0.248 NA
ATOM     18  C   UNL     1      15.468  14.148  -3.044  1.00  0.00     0.031 C 
ATOM     19  C   UNL     1      19.380  11.268  -1.711  1.00  0.00     0.029 A 
ATOM     20  N   UNL     1      18.606  12.701  -0.181  1.00  0.00    -0.354 N 
ATOM     21  C   UNL     1      15.307  15.358  -1.105  1.00  0.00     0.074 A 
ATOM     22  C   UNL     1      14.821  15.144  -2.451  1.00  0.00     0.031 C 
ATOM     23  C   UNL     1      20.089  11.074  -0.592  1.00  0.00     0.029 A 
ATOM     24  C   UNL     1      19.630  12.012   0.424  1.00  0.00     0.049 A 
ATOM     25  H   UNL     1      18.096  13.414   0.267  1.00  0.00     0.167 HD
ATOM     26  C   UNL     1      14.797  16.264  -0.234  1.00  0.00     0.037 A 
ATOM     27  C   UNL     1      20.156  12.129   1.657  1.00  0.00     0.037 A 
ATOM     28  C   UNL     1      15.292  16.464   1.106  1.00  0.00     0.049 A 
ATOM     29  C   UNL     1      19.568  13.139   2.597  1.00  0.00     0.074 A 
ATOM     30  C   UNL     1      14.842  17.354   2.067  1.00  0.00     0.029 A 
ATOM     31  N   UNL     1      16.345  15.763   1.678  1.00  0.00    -0.354 N 
ATOM     32  N   UNL     1      18.568  13.964   2.396  1.00  0.00    -0.248 NA
ATOM     33  C   UNL     1      20.177  13.237   3.928  1.00  0.00     0.031 C 
ATOM     34  C   UNL     1      15.645  17.216   3.205  1.00  0.00     0.029 A 
ATOM     35  C   UNL     1      16.565  16.207   2.973  1.00  0.00     0.049 A 
ATOM     36  H   UNL     1      16.860  15.053   1.230  1.00  0.00     0.167 HD
ATOM     37  C   UNL     1      18.429  14.682   3.577  1.00  0.00     0.074 A 
ATOM     38  C   UNL     1      19.421  14.164   4.498  1.00  0.00     0.031 C 
ATOM     39  C   UNL     1      17.567  15.687   3.869  1.00  0.00     0.037 A 
BRANCH  26  40
ATOM     40  C   UNL     1      13.644  17.113  -0.697  1.00  0.00     0.058 A 
ATOM     41  C   UNL     1      12.355  16.580  -0.852  1.00  0.00     0.135 A 
ATOM     42  C   UNL     1      13.813  18.489  -0.924  1.00  0.00     0.135 A 
ATOM     43  F   UNL     1      12.138  15.268  -0.665  1.00  0.00    -0.206 F 
ATOM     44  C   UNL     1      11.277  17.377  -1.226  1.00  0.00     0.059 A 
ATOM     45  C   UNL     1      12.745  19.310  -1.277  1.00  0.00     0.059 A 
ATOM     46  F   UNL     1      15.024  19.052  -0.792  1.00  0.00    -0.206 F 
ATOM     47  C   UNL     1      11.481  18.742  -1.434  1.00  0.00     0.060 A 
BRANCH  47  48
ATOM     48  S   UNL     1      10.066  19.763  -1.898  1.00  0.00     0.124 S 
ATOM     49  O   UNL     1       9.832  19.327  -3.271  1.00  0.00    -0.237 OA
ATOM     50  O   UNL     1       9.057  19.357  -0.924  1.00  0.00    -0.237 OA
ATOM     51  O   UNL     1      10.565  21.126  -1.749  1.00  0.00    -0.744 OA
ENDBRANCH  47  48
ENDBRANCH  26  40
BRANCH  27  52
ATOM     52  C   UNL     1      21.313  11.284   2.050  1.00  0.00     0.058 A 
ATOM     53  C   UNL     1      21.192  10.285   3.026  1.00  0.00     0.135 A 
ATOM     54  C   UNL     1      22.566  11.452   1.438  1.00  0.00     0.135 A 
ATOM     55  F   UNL     1      20.015  10.085   3.640  1.00  0.00    -0.206 F 
ATOM     56  C   UNL     1      22.276   9.497   3.399  1.00  0.00     0.059 A 
ATOM     57  C   UNL     1      23.655  10.656   1.770  1.00  0.00     0.059 A 
ATOM     58  F   UNL     1      22.728  12.379   0.481  1.00  0.00    -0.206 F 
ATOM     59  C   UNL     1      23.505   9.692   2.764  1.00  0.00     0.060 A 
BRANCH  59  60
ATOM     60  S   UNL     1      24.901   8.644   3.225  1.00  0.00     0.124 S 
ATOM     61  O   UNL     1      25.298   9.233   4.498  1.00  0.00    -0.237 OA
ATOM     62  O   UNL     1      24.284   7.322   3.296  1.00  0.00    -0.237 OA
ATOM     63  O   UNL     1      25.837   8.830   2.121  1.00  0.00    -0.744 OA
ENDBRANCH  59  60
ENDBRANCH  27  52
BRANCH  39  64
ATOM     64  C   UNL     1      17.665  16.278   5.247  1.00  0.00     0.058 A 
ATOM     65  C   UNL     1      18.748  17.088   5.623  1.00  0.00     0.135 A 
ATOM     66  C   UNL     1      16.667  16.028   6.203  1.00  0.00     0.135 A 
ATOM     67  F   UNL     1      19.732  17.349   4.747  1.00  0.00    -0.206 F 
ATOM     68  C   UNL     1      18.861  17.595   6.912  1.00  0.00     0.059 A 
ATOM     69  C   UNL     1      16.746  16.549   7.490  1.00  0.00     0.059 A 
ATOM     70  F   UNL     1      15.606  15.268   5.891  1.00  0.00    -0.206 F 
ATOM     71  C   UNL     1      17.858  17.315   7.841  1.00  0.00     0.060 A 
BRANCH  71  72
ATOM     72  S   UNL     1      18.018  17.972   9.514  1.00  0.00     0.124 S 
ATOM     73  O   UNL     1      19.026  17.083  10.082  1.00  0.00    -0.237 OA
ATOM     74  O   UNL     1      18.448  19.346   9.272  1.00  0.00    -0.237 OA
ATOM     75  O   UNL     1      16.673  17.831  10.064  1.00  0.00    -0.744 OA
ENDBRANCH  71  72
ENDBRANCH  39  64
ENDBRANCH  13  14
ENDBRANCH   6   8
ENDBRANCH   3   4
ENDBRANCH   2   3
ENDBRANCH   1   2
BRANCH   1  76
ATOM     76  C   UNL     1      13.571   6.172  -8.022  1.00  0.00     0.002 C 
BRANCH  76  77
ATOM     77  C   UNL     1      12.672   5.843  -6.828  1.00  0.00     0.021 C 
BRANCH  77  78
ATOM     78  C   UNL     1      11.200   6.181  -7.052  1.00  0.00     0.116 C 
BRANCH  78  79
ATOM     79  N   UNL     1      10.472   5.054  -7.578  1.00  0.00    -0.354 N 
ATOM     80  C   UNL     1       9.601   4.178  -7.018  1.00  0.00     0.242 C 
ATOM     81  H   UNL     1      10.641   4.887  -8.533  1.00  0.00     0.163 HD
ATOM     82  O   UNL     1       9.206   3.293  -7.795  1.00  0.00    -0.273 OA
BRANCH  80  83
ATOM     83  C   UNL     1       9.034   4.231  -5.568  1.00  0.00     0.173 C 
ATOM     84  C   UNL     1       9.054   2.813  -4.972  1.00  0.00     0.035 C 
ATOM     85  N   UNL     1       9.636   5.201  -4.633  1.00  0.00    -0.344 N 
ATOM     86  C   UNL     1      10.444   2.454  -4.461  1.00  0.00     0.004 C 
ATOM     87  C   UNL     1      10.822   4.869  -3.847  1.00  0.00     0.119 C 
ATOM     88  C   UNL     1      10.832   3.425  -3.357  1.00  0.00     0.022 C 
BRANCH  85  89
ATOM     89  C   UNL     1       8.769   6.143  -4.083  1.00  0.00     0.133 A 
ATOM     90  C   UNL     1       9.018   7.489  -4.277  1.00  0.00     0.076 A 
ATOM     91  N   UNL     1       7.680   5.729  -3.425  1.00  0.00    -0.211 NA
ATOM     92  C   UNL     1       8.067   8.392  -3.848  1.00  0.00     0.076 A 
ATOM     93  C   UNL     1       6.833   6.683  -2.985  1.00  0.00     0.162 A 
ATOM     94  N   UNL     1       6.963   8.004  -3.191  1.00  0.00    -0.228 NA
BRANCH  92  95
ATOM     95  C   UNL     1       8.200   9.826  -4.130  1.00  0.00     0.000 A 
ATOM     96  C   UNL     1       8.320  10.761  -3.091  1.00  0.00     0.010 A 
ATOM     97  C   UNL     1       8.235  10.299  -5.455  1.00  0.00     0.010 A 
ATOM     98  C   UNL     1       8.490  12.121  -3.367  1.00  0.00     0.001 A 
ATOM     99  C   UNL     1       8.395  11.660  -5.732  1.00  0.00     0.001 A 
ATOM    100  C   UNL     1       8.528  12.569  -4.686  1.00  0.00     0.000 A 
ENDBRANCH  92  95
BRANCH  93 101
ATOM    101  C   UNL     1       5.670   6.239  -2.215  1.00  0.00     0.021 A 
ATOM    102  C   UNL     1       5.825   5.389  -1.105  1.00  0.00     0.012 A 
ATOM    103  C   UNL     1       4.373   6.655  -2.559  1.00  0.00     0.032 A 
ATOM    104  C   UNL     1       4.722   4.968  -0.359  1.00  0.00     0.002 A 
ATOM    105  C   UNL     1       3.272   6.215  -1.826  1.00  0.00     0.041 A 
ATOM    106  C   UNL     1       3.441   5.376  -0.726  1.00  0.00     0.020 A 
ATOM    107  Cl  UNL     1       1.686   6.699  -2.290  1.00  0.00    -0.084 Cl
ENDBRANCH  93 101
ENDBRANCH  85  89
ENDBRANCH  80  83
ENDBRANCH  78  79
ENDBRANCH  77  78
ENDBRANCH  76  77
ENDBRANCH   1  76
TORSDOF 19
