REMARK SMILES Cn1cc2cc(C(=O)NCCCCCCNC(=O)c3ccc(-c4c5nc(c(-c6c(F)cc(S(=O)(=O)[O-])cc6F)c6ccc([nH]6)c(-c6c(F)cc(S(=O)(=O)[O-])cc6F)c6nc(c(-c7c(F)cc(S(=O)(=O)[O-])cc7F)c7ccc4[nH]7)C=C6)C=C5)cc3)ccc2n1
REMARK SMILES IDX 14 1 13 2 12 3 11 4 10 5 9 6 7 7 8 8 6 10 1 11 2 12 3 13
REMARK SMILES IDX 88 14 4 15 87 16 5 17 86 18 85 19 15 20 16 21 17 22 18 24
REMARK SMILES IDX 19 25 20 26 84 27 21 28 83 29 22 30 23 31 24 32 77 33 25 34
REMARK SMILES IDX 82 35 76 36 78 37 26 38 81 39 75 40 74 41 27 43 61 44 40 45
REMARK SMILES IDX 60 46 41 47 44 48 59 49 79 50 42 51 43 52 58 54 80 55 45 56
REMARK SMILES IDX 28 57 29 58 38 59 30 60 31 61 37 62 39 63 32 64 33 65 34 66
REMARK SMILES IDX 35 67 36 68 62 69 63 70 72 71 64 72 65 73 71 74 73 75 66 76
REMARK SMILES IDX 67 77 68 78 69 79 70 80 46 81 47 82 56 83 48 84 49 85 55 86
REMARK SMILES IDX 57 87 50 88 51 89 52 90 53 91 54 92
REMARK H PARENT 9 9 16 23 78 42 44 53
REMARK Flexibility Score: inf
ROOT
ATOM      1  C   UNL     1       8.191   2.966  -0.059  1.00  0.00     0.021 C 
ENDROOT
BRANCH   1   2
ATOM      2  C   UNL     1       8.257   1.451   0.153  1.00  0.00     0.002 C 
BRANCH   2   3
ATOM      3  C   UNL     1       7.301   0.910   1.225  1.00  0.00     0.002 C 
BRANCH   3   4
ATOM      4  C   UNL     1       5.828   1.296   1.024  1.00  0.00     0.021 C 
BRANCH   4   5
ATOM      5  C   UNL     1       5.238   0.745  -0.277  1.00  0.00     0.116 C 
BRANCH   5   6
ATOM      6  N   UNL     1       4.816  -0.627  -0.080  1.00  0.00    -0.352 N 
ATOM      7  C   UNL     1       3.607  -1.226   0.148  1.00  0.00     0.251 C 
ATOM      8  O   UNL     1       3.626  -2.449   0.310  1.00  0.00    -0.269 OA
ATOM      9  H   UNL     1       5.562  -1.269  -0.120  1.00  0.00     0.163 HD
BRANCH   7  10
ATOM     10  C   UNL     1       2.286  -0.519   0.162  1.00  0.00     0.040 A 
ATOM     11  C   UNL     1      -3.578  -0.242  -0.018  1.00  0.00     0.173 C 
ATOM     12  N   UNL     1      -2.137  -0.182  -0.030  1.00  0.00    -0.275 N 
ATOM     13  C   UNL     1      -1.278  -1.238  -0.136  1.00  0.00     0.117 A 
ATOM     14  N   UNL     1      -1.533   1.016   0.114  1.00  0.00    -0.173 NA
ATOM     15  C   UNL     1      -0.036  -0.679  -0.027  1.00  0.00     0.021 A 
ATOM     16  C   UNL     1      -0.221   0.734   0.156  1.00  0.00     0.092 A 
ATOM     17  C   UNL     1       1.168  -1.371  -0.049  1.00  0.00     0.025 A 
ATOM     18  C   UNL     1       0.881   1.573   0.363  1.00  0.00     0.032 A 
ATOM     19  C   UNL     1       2.124   0.887   0.404  1.00  0.00     0.016 A 
ENDBRANCH   7  10
ENDBRANCH   5   6
ENDBRANCH   4   5
ENDBRANCH   3   4
ENDBRANCH   2   3
ENDBRANCH   1   2
BRANCH   1  20
ATOM     20  C   UNL     1       8.575   3.780   1.172  1.00  0.00     0.116 C 
BRANCH  20  21
ATOM     21  N   UNL     1       9.967   3.569   1.536  1.00  0.00    -0.352 N 
ATOM     22  C   UNL     1      10.980   4.488   1.652  1.00  0.00     0.251 C 
ATOM     23  H   UNL     1      10.218   2.636   1.726  1.00  0.00     0.163 HD
ATOM     24  O   UNL     1      12.146   4.113   1.715  1.00  0.00    -0.269 OA
BRANCH  22  25
ATOM     25  C   UNL     1      10.655   5.929   1.692  1.00  0.00     0.039 A 
ATOM     26  C   UNL     1      11.422   6.822   0.941  1.00  0.00     0.014 A 
ATOM     27  C   UNL     1       9.595   6.394   2.476  1.00  0.00     0.014 A 
ATOM     28  C   UNL     1      11.092   8.178   0.937  1.00  0.00     0.010 A 
ATOM     29  C   UNL     1       9.221   7.732   2.410  1.00  0.00     0.010 A 
ATOM     30  C   UNL     1       9.970   8.640   1.647  1.00  0.00    -0.014 A 
BRANCH  30  31
ATOM     31  C   UNL     1       9.566  10.068   1.607  1.00  0.00     0.031 A 
ATOM     32  C   UNL     1       9.576  10.890   2.868  1.00  0.00     0.074 A 
ATOM     33  C   UNL     1       9.130  10.604   0.450  1.00  0.00     0.049 A 
ATOM     34  N   UNL     1       9.195  12.128   3.049  1.00  0.00    -0.248 NA
ATOM     35  C   UNL     1      10.049  10.223   4.093  1.00  0.00     0.031 C 
ATOM     36  C   UNL     1       9.030   9.892  -0.826  1.00  0.00     0.029 A 
ATOM     37  N   UNL     1       8.678  11.866   0.161  1.00  0.00    -0.354 N 
ATOM     38  C   UNL     1       9.370  12.384   4.404  1.00  0.00     0.074 A 
ATOM     39  C   UNL     1       9.836  11.156   5.009  1.00  0.00     0.031 C 
ATOM     40  C   UNL     1       8.570  10.734  -1.765  1.00  0.00     0.029 A 
ATOM     41  C   UNL     1       8.303  12.031  -1.152  1.00  0.00     0.049 A 
ATOM     42  H   UNL     1       8.628  12.587   0.830  1.00  0.00     0.167 HD
ATOM     43  C   UNL     1       9.181  13.544   5.078  1.00  0.00     0.037 A 
ATOM     44  C   UNL     1       7.791  13.103  -1.788  1.00  0.00     0.037 A 
ATOM     45  C   UNL     1       8.736  14.767   4.461  1.00  0.00     0.049 A 
ATOM     46  C   UNL     1       7.584  14.379  -1.018  1.00  0.00     0.074 A 
ATOM     47  C   UNL     1       8.566  16.011   5.043  1.00  0.00     0.029 A 
ATOM     48  N   UNL     1       8.384  14.899   3.125  1.00  0.00    -0.354 N 
ATOM     49  N   UNL     1       7.816  14.623   0.251  1.00  0.00    -0.248 NA
ATOM     50  C   UNL     1       7.052  15.528  -1.763  1.00  0.00     0.031 C 
ATOM     51  C   UNL     1       8.063  16.882   4.072  1.00  0.00     0.029 A 
ATOM     52  C   UNL     1       7.976  16.198   2.869  1.00  0.00     0.049 A 
ATOM     53  H   UNL     1       8.419  14.176   2.458  1.00  0.00     0.167 HD
ATOM     54  C   UNL     1       7.491  15.961   0.447  1.00  0.00     0.074 A 
ATOM     55  C   UNL     1       7.053  16.475  -0.835  1.00  0.00     0.031 C 
ATOM     56  C   UNL     1       7.552  16.697   1.584  1.00  0.00     0.037 A 
BRANCH  43  57
ATOM     57  C   UNL     1       9.457  13.546   6.558  1.00  0.00     0.058 A 
ATOM     58  C   UNL     1      10.760  13.417   7.068  1.00  0.00     0.135 A 
ATOM     59  C   UNL     1       8.410  13.713   7.479  1.00  0.00     0.135 A 
ATOM     60  F   UNL     1      11.798  13.241   6.235  1.00  0.00    -0.206 F 
ATOM     61  C   UNL     1      11.010  13.419   8.436  1.00  0.00     0.059 A 
ATOM     62  C   UNL     1       8.641  13.750   8.851  1.00  0.00     0.059 A 
ATOM     63  F   UNL     1       7.145  13.841   7.049  1.00  0.00    -0.206 F 
ATOM     64  C   UNL     1       9.944  13.586   9.320  1.00  0.00     0.060 A 
BRANCH  64  65
ATOM     65  S   UNL     1      10.288  13.588  11.092  1.00  0.00     0.124 S 
ATOM     66  O   UNL     1      10.597  12.182  11.330  1.00  0.00    -0.237 OA
ATOM     67  O   UNL     1      11.415  14.510  11.190  1.00  0.00    -0.237 OA
ATOM     68  O   UNL     1       9.040  14.064  11.681  1.00  0.00    -0.744 OA
ENDBRANCH  64  65
ENDBRANCH  43  57
BRANCH  44  69
ATOM     69  C   UNL     1       7.462  13.019  -3.236  1.00  0.00     0.058 A 
ATOM     70  C   UNL     1       8.219  13.715  -4.191  1.00  0.00     0.135 A 
ATOM     71  C   UNL     1       6.399  12.227  -3.698  1.00  0.00     0.135 A 
ATOM     72  F   UNL     1       9.241  14.491  -3.799  1.00  0.00    -0.206 F 
ATOM     73  C   UNL     1       7.925  13.643  -5.548  1.00  0.00     0.059 A 
ATOM     74  C   UNL     1       6.103  12.116  -5.053  1.00  0.00     0.059 A 
ATOM     75  F   UNL     1       5.655  11.525  -2.828  1.00  0.00    -0.206 F 
ATOM     76  C   UNL     1       6.867  12.837  -5.971  1.00  0.00     0.060 A 
BRANCH  76  77
ATOM     77  S   UNL     1       6.527  12.711  -7.740  1.00  0.00     0.124 S 
ATOM     78  O   UNL     1       5.961  14.024  -8.025  1.00  0.00    -0.237 OA
ATOM     79  O   UNL     1       7.855  12.454  -8.288  1.00  0.00    -0.237 OA
ATOM     80  O   UNL     1       5.595  11.590  -7.823  1.00  0.00    -0.744 OA
ENDBRANCH  76  77
ENDBRANCH  44  69
BRANCH  56  81
ATOM     81  C   UNL     1       7.180  18.152   1.492  1.00  0.00     0.058 A 
ATOM     82  C   UNL     1       5.851  18.568   1.322  1.00  0.00     0.135 A 
ATOM     83  C   UNL     1       8.164  19.144   1.639  1.00  0.00     0.135 A 
ATOM     84  F   UNL     1       4.872  17.662   1.169  1.00  0.00    -0.206 F 
ATOM     85  C   UNL     1       5.512  19.917   1.280  1.00  0.00     0.059 A 
ATOM     86  C   UNL     1       7.844  20.498   1.630  1.00  0.00     0.059 A 
ATOM     87  F   UNL     1       9.450  18.800   1.814  1.00  0.00    -0.206 F 
ATOM     88  C   UNL     1       6.516  20.875   1.440  1.00  0.00     0.060 A 
BRANCH  88  89
ATOM     89  S   UNL     1       6.056  22.620   1.425  1.00  0.00     0.124 S 
ATOM     90  O   UNL     1       5.758  22.834   0.013  1.00  0.00    -0.237 OA
ATOM     91  O   UNL     1       4.909  22.648   2.327  1.00  0.00    -0.237 OA
ATOM     92  O   UNL     1       7.254  23.292   1.922  1.00  0.00    -0.744 OA
ENDBRANCH  88  89
ENDBRANCH  56  81
ENDBRANCH  30  31
ENDBRANCH  22  25
ENDBRANCH  20  21
ENDBRANCH   1  20
TORSDOF 16
