REMARK SMILES C[C@H](C(=O)NCCCCCCNC(=O)c1ccc(-c2c3nc(c(-c4c(F)cc(S(=O)(=O)[O-])cc4F)c4ccc([nH]4)c(-c4c(F)cc(S(=O)(=O)[O-])cc4F)c4nc(c(-c5c(F)cc(S(=O)(=O)[O-])cc5F)c5ccc2[nH]5)C=C4)C=C3)cc1)c1ccc2c(c1)[nH]c1ccc(Cl)cc12
REMARK SMILES IDX 9 1 8 2 7 3 6 4 5 5 3 6 4 7 2 9 1 10 81 11 82 12 86 13 83 14
REMARK SMILES IDX 85 15 84 16 87 17 94 18 88 19 93 21 89 22 91 23 90 24 92 25
REMARK SMILES IDX 10 26 11 27 12 28 13 29 14 31 15 32 16 33 80 34 17 35 79 36
REMARK SMILES IDX 18 37 19 38 20 39 73 40 21 41 78 42 72 43 74 44 22 45 77 46
REMARK SMILES IDX 71 47 70 48 23 50 57 51 36 52 56 53 37 54 40 55 55 56 75 57
REMARK SMILES IDX 38 58 39 59 54 61 76 62 41 63 24 64 25 65 34 66 26 67 27 68
REMARK SMILES IDX 33 69 35 70 28 71 29 72 30 73 31 74 32 75 58 76 59 77 68 78
REMARK SMILES IDX 60 79 61 80 67 81 69 82 62 83 63 84 64 85 65 86 66 87 42 88
REMARK SMILES IDX 43 89 52 90 44 91 45 92 51 93 53 94 46 95 47 96 48 97 49 98
REMARK SMILES IDX 50 99
REMARK H PARENT 5 8 87 20 12 30 74 49 40 60
REMARK Flexibility Score: inf
ROOT
ATOM      1  C   UNL     1      -1.405   1.171   4.400  1.00  0.00     0.002 C 
ENDROOT
BRANCH   1   2
ATOM      2  C   UNL     1      -1.568   0.049   3.373  1.00  0.00     0.002 C 
BRANCH   2   3
ATOM      3  C   UNL     1      -1.831   0.513   1.937  1.00  0.00     0.021 C 
BRANCH   3   4
ATOM      4  C   UNL     1      -0.733   1.394   1.334  1.00  0.00     0.116 C 
BRANCH   4   5
ATOM      5  N   UNL     1       0.456   0.625   1.016  1.00  0.00    -0.356 N 
ATOM      6  C   UNL     1       0.908   0.166  -0.190  1.00  0.00     0.227 C 
ATOM      7  O   UNL     1       1.924  -0.534  -0.176  1.00  0.00    -0.274 OA
ATOM      8  H   UNL     1       1.024   0.399   1.787  1.00  0.00     0.163 HD
BRANCH   6   9
ATOM      9  C   UNL     1       0.205   0.564  -1.504  1.00  0.00     0.105 C 
ATOM     10  C   UNL     1       0.957  -0.009  -2.709  1.00  0.00     0.023 C 
BRANCH   9  11
ATOM     11  C   UNL     1      -1.256   0.140  -1.568  1.00  0.00    -0.034 A 
ATOM     12  C   UNL     1      -2.238   1.079  -1.922  1.00  0.00     0.005 A 
ATOM     13  C   UNL     1      -1.634  -1.163  -1.206  1.00  0.00     0.031 A 
ATOM     14  C   UNL     1      -3.601   0.775  -1.828  1.00  0.00     0.011 A 
ATOM     15  C   UNL     1      -3.000  -1.422  -1.050  1.00  0.00     0.047 A 
ATOM     16  C   UNL     1      -3.991  -0.488  -1.340  1.00  0.00     0.007 A 
ATOM     17  N   UNL     1      -3.628  -2.536  -0.547  1.00  0.00    -0.355 N 
ATOM     18  C   UNL     1      -5.249  -1.079  -1.000  1.00  0.00     0.009 A 
ATOM     19  C   UNL     1      -4.982  -2.329  -0.440  1.00  0.00     0.047 A 
ATOM     20  H   UNL     1      -3.169  -3.370  -0.296  1.00  0.00     0.167 HD
ATOM     21  C   UNL     1      -6.588  -0.643  -1.067  1.00  0.00     0.031 A 
ATOM     22  C   UNL     1      -5.975  -3.145   0.111  1.00  0.00     0.028 A 
ATOM     23  C   UNL     1      -7.594  -1.462  -0.544  1.00  0.00     0.041 A 
ATOM     24  C   UNL     1      -7.293  -2.684   0.053  1.00  0.00     0.022 A 
ATOM     25  Cl  UNL     1      -9.233  -0.946  -0.635  1.00  0.00    -0.084 Cl
ENDBRANCH   9  11
ENDBRANCH   6   9
ENDBRANCH   4   5
ENDBRANCH   3   4
ENDBRANCH   2   3
ENDBRANCH   1   2
BRANCH   1  26
ATOM     26  C   UNL     1      -2.538   2.200   4.423  1.00  0.00     0.021 C 
BRANCH  26  27
ATOM     27  C   UNL     1      -3.921   1.625   4.716  1.00  0.00     0.116 C 
BRANCH  27  28
ATOM     28  N   UNL     1      -3.994   1.048   6.048  1.00  0.00    -0.352 N 
ATOM     29  C   UNL     1      -4.885   1.304   7.061  1.00  0.00     0.251 C 
ATOM     30  H   UNL     1      -3.305   0.376   6.254  1.00  0.00     0.163 HD
ATOM     31  O   UNL     1      -4.656   0.879   8.190  1.00  0.00    -0.269 OA
BRANCH  29  32
ATOM     32  C   UNL     1      -6.109   2.093   6.798  1.00  0.00     0.039 A 
ATOM     33  C   UNL     1      -6.526   3.027   7.751  1.00  0.00     0.014 A 
ATOM     34  C   UNL     1      -6.871   1.885   5.645  1.00  0.00     0.014 A 
ATOM     35  C   UNL     1      -7.689   3.770   7.533  1.00  0.00     0.010 A 
ATOM     36  C   UNL     1      -7.988   2.679   5.394  1.00  0.00     0.010 A 
ATOM     37  C   UNL     1      -8.422   3.613   6.346  1.00  0.00    -0.014 A 
BRANCH  37  38
ATOM     38  C   UNL     1      -9.668   4.387   6.108  1.00  0.00     0.031 A 
ATOM     39  C   UNL     1     -10.991   3.672   6.006  1.00  0.00     0.074 A 
ATOM     40  C   UNL     1      -9.607   5.723   5.945  1.00  0.00     0.049 A 
ATOM     41  N   UNL     1     -12.182   4.165   5.781  1.00  0.00    -0.248 NA
ATOM     42  C   UNL     1     -10.968   2.208   6.150  1.00  0.00     0.031 C 
ATOM     43  C   UNL     1      -8.380   6.524   5.975  1.00  0.00     0.029 A 
ATOM     44  N   UNL     1     -10.598   6.645   5.720  1.00  0.00    -0.354 N 
ATOM     45  C   UNL     1     -13.042   3.073   5.734  1.00  0.00     0.074 A 
ATOM     46  C   UNL     1     -12.230   1.889   5.903  1.00  0.00     0.031 C 
ATOM     47  C   UNL     1      -8.696   7.819   5.808  1.00  0.00     0.029 A 
ATOM     48  C   UNL     1     -10.140   7.938   5.628  1.00  0.00     0.049 A 
ATOM     49  H   UNL     1     -11.548   6.403   5.633  1.00  0.00     0.167 HD
ATOM     50  C   UNL     1     -14.389   3.059   5.587  1.00  0.00     0.037 A 
ATOM     51  C   UNL     1     -10.809   9.090   5.425  1.00  0.00     0.037 A 
ATOM     52  C   UNL     1     -15.195   4.245   5.456  1.00  0.00     0.049 A 
ATOM     53  C   UNL     1     -12.307   9.051   5.285  1.00  0.00     0.074 A 
ATOM     54  C   UNL     1     -16.573   4.345   5.374  1.00  0.00     0.029 A 
ATOM     55  N   UNL     1     -14.696   5.538   5.388  1.00  0.00    -0.354 N 
ATOM     56  N   UNL     1     -13.113   8.016   5.315  1.00  0.00    -0.248 NA
ATOM     57  C   UNL     1     -12.989  10.339   5.095  1.00  0.00     0.031 C 
ATOM     58  C   UNL     1     -16.904   5.695   5.212  1.00  0.00     0.029 A 
ATOM     59  C   UNL     1     -15.736   6.441   5.245  1.00  0.00     0.049 A 
ATOM     60  H   UNL     1     -13.742   5.778   5.434  1.00  0.00     0.167 HD
ATOM     61  C   UNL     1     -14.399   8.530   5.184  1.00  0.00     0.074 A 
ATOM     62  C   UNL     1     -14.262   9.969   5.082  1.00  0.00     0.031 C 
ATOM     63  C   UNL     1     -15.584   7.872   5.157  1.00  0.00     0.037 A 
BRANCH  50  64
ATOM     64  C   UNL     1     -15.075   1.720   5.561  1.00  0.00     0.058 A 
ATOM     65  C   UNL     1     -15.165   0.911   6.705  1.00  0.00     0.135 A 
ATOM     66  C   UNL     1     -15.671   1.247   4.380  1.00  0.00     0.135 A 
ATOM     67  F   UNL     1     -14.601   1.305   7.858  1.00  0.00    -0.206 F 
ATOM     68  C   UNL     1     -15.790  -0.332   6.672  1.00  0.00     0.059 A 
ATOM     69  C   UNL     1     -16.327   0.020   4.331  1.00  0.00     0.059 A 
ATOM     70  F   UNL     1     -15.618   1.979   3.256  1.00  0.00    -0.206 F 
ATOM     71  C   UNL     1     -16.366  -0.770   5.478  1.00  0.00     0.060 A 
BRANCH  71  72
ATOM     72  S   UNL     1     -17.170  -2.386   5.451  1.00  0.00     0.124 S 
ATOM     73  O   UNL     1     -16.019  -3.284   5.476  1.00  0.00    -0.237 OA
ATOM     74  O   UNL     1     -17.975  -2.356   6.667  1.00  0.00    -0.237 OA
ATOM     75  O   UNL     1     -17.925  -2.370   4.202  1.00  0.00    -0.744 OA
ENDBRANCH  71  72
ENDBRANCH  50  64
BRANCH  51  76
ATOM     76  C   UNL     1     -10.073  10.382   5.389  1.00  0.00     0.058 A 
ATOM     77  C   UNL     1     -10.199  11.310   6.435  1.00  0.00     0.135 A 
ATOM     78  C   UNL     1      -9.225  10.713   4.322  1.00  0.00     0.135 A 
ATOM     79  F   UNL     1     -11.002  11.042   7.476  1.00  0.00    -0.206 F 
ATOM     80  C   UNL     1      -9.526  12.527   6.415  1.00  0.00     0.059 A 
ATOM     81  C   UNL     1      -8.521  11.913   4.292  1.00  0.00     0.059 A 
ATOM     82  F   UNL     1      -9.056   9.852   3.305  1.00  0.00    -0.206 F 
ATOM     83  C   UNL     1      -8.687  12.819   5.339  1.00  0.00     0.060 A 
BRANCH  83  84
ATOM     84  S   UNL     1      -7.782  14.382   5.346  1.00  0.00     0.124 S 
ATOM     85  O   UNL     1      -8.844  15.337   5.055  1.00  0.00    -0.237 OA
ATOM     86  O   UNL     1      -7.243  14.418   6.702  1.00  0.00    -0.237 OA
ATOM     87  O   UNL     1      -6.790  14.199   4.290  1.00  0.00    -0.744 OA
ENDBRANCH  83  84
ENDBRANCH  51  76
BRANCH  63  88
ATOM     88  C   UNL     1     -16.834   8.704   5.060  1.00  0.00     0.058 A 
ATOM     89  C   UNL     1     -17.195   9.365   3.876  1.00  0.00     0.135 A 
ATOM     90  C   UNL     1     -17.700   8.809   6.161  1.00  0.00     0.135 A 
ATOM     91  F   UNL     1     -16.400   9.301   2.796  1.00  0.00    -0.206 F 
ATOM     92  C   UNL     1     -18.357  10.127   3.796  1.00  0.00     0.059 A 
ATOM     93  C   UNL     1     -18.880   9.541   6.094  1.00  0.00     0.059 A 
ATOM     94  F   UNL     1     -17.408   8.185   7.313  1.00  0.00    -0.206 F 
ATOM     95  C   UNL     1     -19.192  10.211   4.912  1.00  0.00     0.060 A 
BRANCH  95  96
ATOM     96  S   UNL     1     -20.705  11.188   4.791  1.00  0.00     0.124 S 
ATOM     97  O   UNL     1     -20.181  12.549   4.856  1.00  0.00    -0.237 OA
ATOM     98  O   UNL     1     -21.242  10.777   3.498  1.00  0.00    -0.237 OA
ATOM     99  O   UNL     1     -21.481  10.757   5.950  1.00  0.00    -0.744 OA
ENDBRANCH  95  96
ENDBRANCH  63  88
ENDBRANCH  37  38
ENDBRANCH  29  32
ENDBRANCH  27  28
ENDBRANCH  26  27
ENDBRANCH   1  26
TORSDOF 17
