REMARK SMILES O=C(NCCCCCCNC(=O)c1ccc(-c2c3nc(c(-c4c(F)cc(S(=O)(=O)[O-])cc4F)c4ccc([nH]4)c(-c4c(F)cc(S(=O)(=O)[O-])cc4F)c4nc(c(-c5c(F)cc(S(=O)(=O)[O-])cc5F)c5ccc2[nH]5)C=C4)C=C3)cc1)C1=Cc2c(ccc(Cl)c2-c2ccccc2)O[C@H]1C(F)(F)F
REMARK SMILES IDX 7 1 6 2 5 3 4 4 3 5 1 6 2 7 79 9 80 10 95 11 81 12 94 13
REMARK SMILES IDX 82 14 87 15 83 16 85 17 84 18 86 19 96 20 97 21 98 22 99 23
REMARK SMILES IDX 88 24 89 25 93 26 90 27 92 28 91 29 8 30 9 31 10 32 11 33
REMARK SMILES IDX 12 35 13 36 14 37 78 38 15 39 77 40 16 41 17 42 18 43 71 44
REMARK SMILES IDX 19 45 76 46 70 47 72 48 20 49 75 50 69 51 68 52 21 54 55 55
REMARK SMILES IDX 34 56 54 57 35 58 38 59 53 60 73 61 36 62 37 63 52 65 74 66
REMARK SMILES IDX 39 67 22 68 23 69 32 70 24 71 25 72 31 73 33 74 26 75 27 76
REMARK SMILES IDX 28 77 29 78 30 79 56 80 57 81 66 82 58 83 59 84 65 85 67 86
REMARK SMILES IDX 60 87 61 88 62 89 63 90 64 91 40 92 41 93 50 94 42 95 43 96
REMARK SMILES IDX 49 97 51 98 44 99 45 100 46 101 47 102 48 103
REMARK H PARENT 3 8 10 34 72 53 38 64
REMARK Flexibility Score: inf
ROOT
ATOM      1  C   UNL     1       4.264  -4.255  -1.947  1.00  0.00     0.002 C 
ENDROOT
BRANCH   1   2
ATOM      2  C   UNL     1       3.676  -4.431  -0.542  1.00  0.00     0.002 C 
BRANCH   2   3
ATOM      3  C   UNL     1       4.103  -3.432   0.537  1.00  0.00     0.021 C 
BRANCH   3   4
ATOM      4  C   UNL     1       3.850  -1.955   0.246  1.00  0.00     0.116 C 
BRANCH   4   5
ATOM      5  N   UNL     1       2.482  -1.514   0.450  1.00  0.00    -0.352 N 
ATOM      6  O   UNL     1       0.815  -0.063   0.885  1.00  0.00    -0.270 OA
ATOM      7  C   UNL     1       2.007  -0.246   0.651  1.00  0.00     0.251 C 
ATOM      8  H   UNL     1       1.801  -2.225   0.444  1.00  0.00     0.163 HD
BRANCH   7   9
ATOM      9  C   UNL     1       2.911   0.922   0.582  1.00  0.00     0.067 C 
ATOM     10  C   UNL     1       3.268   1.363  -0.630  1.00  0.00     0.026 C 
ATOM     11  C   UNL     1       3.741   1.317   1.762  1.00  0.00     0.314 C 
ATOM     12  C   UNL     1       4.691   1.000  -0.884  1.00  0.00     0.027 A 
ATOM     13  O   UNL     1       5.175   1.137   1.510  1.00  0.00    -0.475 OA
ATOM     14  C   UNL     1       5.563   0.889   0.212  1.00  0.00     0.128 A 
ATOM     15  C   UNL     1       5.071   0.605  -2.193  1.00  0.00     0.011 A 
ATOM     16  C   UNL     1       6.839   0.377   0.017  1.00  0.00     0.049 A 
ATOM     17  C   UNL     1       6.349   0.055  -2.355  1.00  0.00     0.049 A 
ATOM     18  C   UNL     1       7.224  -0.055  -1.259  1.00  0.00     0.025 A 
ATOM     19  Cl  UNL     1       6.872  -0.582  -3.871  1.00  0.00    -0.084 Cl
BRANCH  11  20
ATOM     20  C   UNL     1       3.443   2.763   2.222  1.00  0.00     0.429 C 
ATOM     21  F   UNL     1       2.405   3.329   1.558  1.00  0.00    -0.167 F 
ATOM     22  F   UNL     1       3.127   2.798   3.540  1.00  0.00    -0.167 F 
ATOM     23  F   UNL     1       4.504   3.587   2.045  1.00  0.00    -0.167 F 
ENDBRANCH  11  20
BRANCH  15  24
ATOM     24  C   UNL     1       4.037   0.697  -3.244  1.00  0.00    -0.016 A 
ATOM     25  C   UNL     1       3.169  -0.386  -3.461  1.00  0.00     0.009 A 
ATOM     26  C   UNL     1       3.679   1.955  -3.758  1.00  0.00     0.009 A 
ATOM     27  C   UNL     1       1.923  -0.193  -4.059  1.00  0.00     0.001 A 
ATOM     28  C   UNL     1       2.430   2.147  -4.354  1.00  0.00     0.001 A 
ATOM     29  C   UNL     1       1.543   1.079  -4.476  1.00  0.00     0.000 A 
ENDBRANCH  15  24
ENDBRANCH   7   9
ENDBRANCH   4   5
ENDBRANCH   3   4
ENDBRANCH   2   3
ENDBRANCH   1   2
BRANCH   1  30
ATOM     30  C   UNL     1       5.774  -4.029  -2.062  1.00  0.00     0.021 C 
BRANCH  30  31
ATOM     31  C   UNL     1       6.674  -5.108  -1.464  1.00  0.00     0.116 C 
BRANCH  31  32
ATOM     32  N   UNL     1       6.503  -6.408  -2.088  1.00  0.00    -0.352 N 
ATOM     33  C   UNL     1       7.434  -7.290  -2.583  1.00  0.00     0.251 C 
ATOM     34  H   UNL     1       5.569  -6.706  -2.169  1.00  0.00     0.163 HD
ATOM     35  O   UNL     1       7.042  -8.293  -3.177  1.00  0.00    -0.269 OA
BRANCH  33  36
ATOM     36  C   UNL     1       8.893  -7.050  -2.439  1.00  0.00     0.039 A 
ATOM     37  C   UNL     1       9.732  -7.389  -3.507  1.00  0.00     0.014 A 
ATOM     38  C   UNL     1       9.453  -6.554  -1.258  1.00  0.00     0.014 A 
ATOM     39  C   UNL     1      11.113  -7.186  -3.412  1.00  0.00     0.010 A 
ATOM     40  C   UNL     1      10.824  -6.291  -1.188  1.00  0.00     0.010 A 
ATOM     41  C   UNL     1      11.671  -6.610  -2.260  1.00  0.00    -0.014 A 
BRANCH  41  42
ATOM     42  C   UNL     1      13.133  -6.349  -2.159  1.00  0.00     0.031 A 
ATOM     43  C   UNL     1      13.970  -7.080  -1.142  1.00  0.00     0.074 A 
ATOM     44  C   UNL     1      13.703  -5.415  -2.947  1.00  0.00     0.049 A 
ATOM     45  N   UNL     1      15.243  -6.947  -0.868  1.00  0.00    -0.248 NA
ATOM     46  C   UNL     1      13.280  -8.075  -0.306  1.00  0.00     0.031 C 
ATOM     47  C   UNL     1      13.001  -4.610  -3.949  1.00  0.00     0.029 A 
ATOM     48  N   UNL     1      15.003  -4.978  -3.025  1.00  0.00    -0.354 N 
ATOM     49  C   UNL     1      15.502  -7.821   0.182  1.00  0.00     0.074 A 
ATOM     50  C   UNL     1      14.243  -8.449   0.523  1.00  0.00     0.031 C 
ATOM     51  C   UNL     1      13.880  -3.798  -4.557  1.00  0.00     0.029 A 
ATOM     52  C   UNL     1      15.201  -3.995  -3.966  1.00  0.00     0.049 A 
ATOM     53  H   UNL     1      15.726  -5.335  -2.460  1.00  0.00     0.167 HD
ATOM     54  C   UNL     1      16.680  -8.088   0.796  1.00  0.00     0.037 A 
ATOM     55  C   UNL     1      16.317  -3.324  -4.313  1.00  0.00     0.037 A 
ATOM     56  C   UNL     1      17.938  -7.489   0.429  1.00  0.00     0.049 A 
ATOM     57  C   UNL     1      17.615  -3.640  -3.620  1.00  0.00     0.074 A 
ATOM     58  C   UNL     1      19.198  -7.753   0.939  1.00  0.00     0.029 A 
ATOM     59  N   UNL     1      18.097  -6.503  -0.534  1.00  0.00    -0.354 N 
ATOM     60  N   UNL     1      17.851  -4.516  -2.673  1.00  0.00    -0.248 NA
ATOM     61  C   UNL     1      18.798  -2.879  -4.044  1.00  0.00     0.031 C 
ATOM     62  C   UNL     1      20.112  -6.897   0.315  1.00  0.00     0.029 A 
ATOM     63  C   UNL     1      19.429  -6.131  -0.616  1.00  0.00     0.049 A 
ATOM     64  H   UNL     1      17.370  -6.125  -1.079  1.00  0.00     0.167 HD
ATOM     65  C   UNL     1      19.214  -4.432  -2.409  1.00  0.00     0.074 A 
ATOM     66  C   UNL     1      19.751  -3.424  -3.300  1.00  0.00     0.031 C 
ATOM     67  C   UNL     1      19.953  -5.130  -1.511  1.00  0.00     0.037 A 
BRANCH  54  68
ATOM     68  C   UNL     1      16.667  -9.071   1.935  1.00  0.00     0.058 A 
ATOM     69  C   UNL     1      16.463 -10.444   1.727  1.00  0.00     0.135 A 
ATOM     70  C   UNL     1      16.889  -8.636   3.252  1.00  0.00     0.135 A 
ATOM     71  F   UNL     1      16.234 -10.913   0.490  1.00  0.00    -0.206 F 
ATOM     72  C   UNL     1      16.444 -11.346   2.786  1.00  0.00     0.059 A 
ATOM     73  C   UNL     1      16.902  -9.525   4.324  1.00  0.00     0.059 A 
ATOM     74  F   UNL     1      17.093  -7.335   3.510  1.00  0.00    -0.206 F 
ATOM     75  C   UNL     1      16.659 -10.876   4.082  1.00  0.00     0.060 A 
BRANCH  75  76
ATOM     76  S   UNL     1      16.620 -12.054   5.450  1.00  0.00     0.124 S 
ATOM     77  O   UNL     1      15.187 -12.311   5.568  1.00  0.00    -0.237 OA
ATOM     78  O   UNL     1      17.418 -13.164   4.930  1.00  0.00    -0.237 OA
ATOM     79  O   UNL     1      17.220 -11.318   6.552  1.00  0.00    -0.744 OA
ENDBRANCH  75  76
ENDBRANCH  54  68
BRANCH  55  80
ATOM     80  C   UNL     1      16.264  -2.306  -5.396  1.00  0.00     0.058 A 
ATOM     81  C   UNL     1      16.850  -2.558  -6.646  1.00  0.00     0.135 A 
ATOM     82  C   UNL     1      15.616  -1.075  -5.213  1.00  0.00     0.135 A 
ATOM     83  F   UNL     1      17.488  -3.717  -6.865  1.00  0.00    -0.206 F 
ATOM     84  C   UNL     1      16.806  -1.621  -7.673  1.00  0.00     0.059 A 
ATOM     85  C   UNL     1      15.538  -0.132  -6.233  1.00  0.00     0.059 A 
ATOM     86  F   UNL     1      15.028  -0.792  -4.040  1.00  0.00    -0.206 F 
ATOM     87  C   UNL     1      16.144  -0.411  -7.458  1.00  0.00     0.060 A 
BRANCH  87  88
ATOM     88  S   UNL     1      16.045   0.774  -8.817  1.00  0.00     0.124 S 
ATOM     89  O   UNL     1      17.406   1.296  -8.851  1.00  0.00    -0.237 OA
ATOM     90  O   UNL     1      15.657  -0.075  -9.938  1.00  0.00    -0.237 OA
ATOM     91  O   UNL     1      15.020   1.712  -8.368  1.00  0.00    -0.744 OA
ENDBRANCH  87  88
ENDBRANCH  55  80
BRANCH  67  92
ATOM     92  C   UNL     1      21.431  -4.854  -1.467  1.00  0.00     0.058 A 
ATOM     93  C   UNL     1      21.945  -3.676  -0.904  1.00  0.00     0.135 A 
ATOM     94  C   UNL     1      22.346  -5.805  -1.948  1.00  0.00     0.135 A 
ATOM     95  F   UNL     1      21.113  -2.732  -0.436  1.00  0.00    -0.206 F 
ATOM     96  C   UNL     1      23.315  -3.441  -0.838  1.00  0.00     0.059 A 
ATOM     97  C   UNL     1      23.720  -5.602  -1.870  1.00  0.00     0.059 A 
ATOM     98  F   UNL     1      21.906  -6.954  -2.487  1.00  0.00    -0.206 F 
ATOM     99  C   UNL     1      24.195  -4.410  -1.323  1.00  0.00     0.060 A 
BRANCH  99 100
ATOM    100  S   UNL     1      25.971  -4.110  -1.199  1.00  0.00     0.124 S 
ATOM    101  O   UNL     1      26.180  -3.140  -2.269  1.00  0.00    -0.237 OA
ATOM    102  O   UNL     1      26.108  -3.595   0.160  1.00  0.00    -0.237 OA
ATOM    103  O   UNL     1      26.555  -5.429  -1.424  1.00  0.00    -0.744 OA
ENDBRANCH  99 100
ENDBRANCH  67  92
ENDBRANCH  41  42
ENDBRANCH  33  36
ENDBRANCH  31  32
ENDBRANCH  30  31
ENDBRANCH   1  30
TORSDOF 18
