REMARK SMILES CCOc1ccc(NC(=O)N2CC[C@@H](C(=O)NCCCCCCNC(=O)c3ccc(-c4c5nc(c(-c6c(F)cc(S(=O)(=O)[O-])cc6F)c6ccc([nH]6)c(-c6c(F)cc(S(=O)(=O)[O-])cc6F)c6nc(c(-c7c(F)cc(S(=O)(=O)[O-])cc7F)c7ccc4[nH]7)C=C6)C=C5)cc3)[C@@H]2C)cc1
REMARK SMILES IDX 20 1 19 2 18 3 17 4 15 5 16 6 14 8 11 9 12 10 93 11 13 12
REMARK SMILES IDX 94 13 9 14 8 15 10 17 7 18 4 19 5 20 96 21 6 22 95 23 3 24
REMARK SMILES IDX 2 25 1 26 21 27 22 28 23 29 24 30 25 31 26 33 27 34 28 35
REMARK SMILES IDX 92 36 29 37 91 38 30 39 31 40 32 41 85 42 33 43 90 44 84 45
REMARK SMILES IDX 86 46 34 47 89 48 83 49 82 50 35 52 69 53 48 54 68 55 49 56
REMARK SMILES IDX 52 57 67 58 87 59 50 60 51 61 66 63 88 64 53 65 36 66 37 67
REMARK SMILES IDX 46 68 38 69 39 70 45 71 47 72 40 73 41 74 42 75 43 76 44 77
REMARK SMILES IDX 70 78 71 79 80 80 72 81 73 82 79 83 81 84 74 85 75 86 76 87
REMARK SMILES IDX 77 88 78 89 54 90 55 91 64 92 56 93 57 94 63 95 65 96 58 97
REMARK SMILES IDX 59 98 60 99 61 100 62 101
REMARK H PARENT 17 7 8 16 24 32 86 51 52 62
REMARK Flexibility Score: inf
ROOT
ATOM      1  C   UNL     1       1.504   3.523  -3.677  1.00  0.00     0.002 C 
ENDROOT
BRANCH   1   2
ATOM      2  C   UNL     1       2.970   3.880  -3.423  1.00  0.00     0.021 C 
BRANCH   2   3
ATOM      3  C   UNL     1       3.328   5.366  -3.381  1.00  0.00     0.116 C 
BRANCH   3   4
ATOM      4  N   UNL     1       2.722   6.087  -2.267  1.00  0.00    -0.356 N 
ATOM      5  C   UNL     1       3.188   6.967  -1.345  1.00  0.00     0.225 C 
ATOM      6  O   UNL     1       2.341   7.409  -0.554  1.00  0.00    -0.275 OA
ATOM      7  H   UNL     1       1.763   5.891  -2.161  1.00  0.00     0.163 HD
BRANCH   5   8
ATOM      8  C   UNL     1       4.645   7.401  -1.153  1.00  0.00     0.102 C 
ATOM      9  N   UNL     1       6.181   5.656  -1.332  1.00  0.00    -0.321 N 
ATOM     10  C   UNL     1       6.571   6.582  -2.385  1.00  0.00     0.122 C 
ATOM     11  C   UNL     1       5.467   6.412  -0.312  1.00  0.00     0.096 C 
ATOM     12  C   UNL     1       5.470   7.640  -2.421  1.00  0.00     0.037 C 
ATOM     13  C   UNL     1       6.436   7.117   0.648  1.00  0.00     0.032 C 
BRANCH   9  14
ATOM     14  C   UNL     1       6.829   4.469  -1.244  1.00  0.00     0.322 C 
ATOM     15  N   UNL     1       6.284   3.316  -0.795  1.00  0.00    -0.308 N 
ATOM     16  H   UNL     1       6.980   2.631  -0.671  1.00  0.00     0.171 HD
ATOM     17  O   UNL     1       7.965   4.358  -1.724  1.00  0.00    -0.248 OA
BRANCH  15  18
ATOM     18  C   UNL     1       5.018   2.800  -0.450  1.00  0.00     0.043 A 
ATOM     19  C   UNL     1       2.486   1.587  -0.202  1.00  0.00     0.119 A 
ATOM     20  C   UNL     1       2.621   2.943   0.005  1.00  0.00     0.048 A 
ATOM     21  C   UNL     1       3.607   0.802  -0.438  1.00  0.00     0.048 A 
ATOM     22  C   UNL     1       3.874   3.532  -0.168  1.00  0.00     0.030 A 
ATOM     23  C   UNL     1       4.873   1.403  -0.518  1.00  0.00     0.030 A 
BRANCH  19  24
ATOM     24  O   UNL     1       1.236   1.111  -0.460  1.00  0.00    -0.494 OA
BRANCH  24  25
ATOM     25  C   UNL     1       0.586   0.591   0.695  1.00  0.00     0.226 C 
ATOM     26  C   UNL     1       0.488  -0.909   0.516  1.00  0.00     0.049 C 
ENDBRANCH  24  25
ENDBRANCH  19  24
ENDBRANCH  15  18
ENDBRANCH   9  14
ENDBRANCH   5   8
ENDBRANCH   3   4
ENDBRANCH   2   3
ENDBRANCH   1   2
BRANCH   1  27
ATOM     27  C   UNL     1       1.175   3.199  -5.136  1.00  0.00     0.002 C 
BRANCH  27  28
ATOM     28  C   UNL     1       2.061   2.138  -5.802  1.00  0.00     0.021 C 
BRANCH  28  29
ATOM     29  C   UNL     1       2.232   0.837  -5.018  1.00  0.00     0.116 C 
BRANCH  29  30
ATOM     30  N   UNL     1       1.008   0.051  -4.999  1.00  0.00    -0.352 N 
ATOM     31  C   UNL     1       0.735  -1.139  -5.631  1.00  0.00     0.251 C 
ATOM     32  H   UNL     1       0.274   0.422  -4.458  1.00  0.00     0.163 HD
ATOM     33  O   UNL     1      -0.417  -1.552  -5.707  1.00  0.00    -0.269 OA
BRANCH  31  34
ATOM     34  C   UNL     1       1.842  -1.915  -6.235  1.00  0.00     0.039 A 
ATOM     35  C   UNL     1       1.719  -2.369  -7.550  1.00  0.00     0.014 A 
ATOM     36  C   UNL     1       2.997  -2.195  -5.499  1.00  0.00     0.014 A 
ATOM     37  C   UNL     1       2.784  -3.047  -8.149  1.00  0.00     0.010 A 
ATOM     38  C   UNL     1       4.080  -2.816  -6.118  1.00  0.00     0.010 A 
ATOM     39  C   UNL     1       3.987  -3.246  -7.450  1.00  0.00    -0.014 A 
BRANCH  39  40
ATOM     40  C   UNL     1       5.161  -3.883  -8.104  1.00  0.00     0.031 A 
ATOM     41  C   UNL     1       5.688  -5.202  -7.607  1.00  0.00     0.074 A 
ATOM     42  C   UNL     1       5.796  -3.240  -9.103  1.00  0.00     0.049 A 
ATOM     43  N   UNL     1       6.736  -5.876  -8.006  1.00  0.00    -0.248 NA
ATOM     44  C   UNL     1       4.955  -5.832  -6.499  1.00  0.00     0.031 C 
ATOM     45  C   UNL     1       5.417  -1.931  -9.639  1.00  0.00     0.029 A 
ATOM     46  N   UNL     1       6.903  -3.589  -9.836  1.00  0.00    -0.354 N 
ATOM     47  C   UNL     1       6.791  -7.006  -7.199  1.00  0.00     0.074 A 
ATOM     48  C   UNL     1       5.705  -6.896  -6.248  1.00  0.00     0.031 C 
ATOM     49  C   UNL     1       6.270  -1.592 -10.618  1.00  0.00     0.029 A 
ATOM     50  C   UNL     1       7.277  -2.640 -10.758  1.00  0.00     0.049 A 
ATOM     51  H   UNL     1       7.385  -4.439  -9.712  1.00  0.00     0.167 HD
ATOM     52  C   UNL     1       7.651  -8.052  -7.259  1.00  0.00     0.037 A 
ATOM     53  C   UNL     1       8.320  -2.607 -11.611  1.00  0.00     0.037 A 
ATOM     54  C   UNL     1       8.728  -8.159  -8.209  1.00  0.00     0.049 A 
ATOM     55  C   UNL     1       9.269  -3.772 -11.657  1.00  0.00     0.074 A 
ATOM     56  C   UNL     1       9.625  -9.198  -8.382  1.00  0.00     0.029 A 
ATOM     57  N   UNL     1       9.060  -7.188  -9.144  1.00  0.00    -0.354 N 
ATOM     58  N   UNL     1       9.266  -4.866 -10.931  1.00  0.00    -0.248 NA
ATOM     59  C   UNL     1      10.358  -3.706 -12.640  1.00  0.00     0.031 C 
ATOM     60  C   UNL     1      10.526  -8.837  -9.390  1.00  0.00     0.029 A 
ATOM     61  C   UNL     1      10.161  -7.594  -9.881  1.00  0.00     0.049 A 
ATOM     62  H   UNL     1       8.583  -6.335  -9.266  1.00  0.00     0.167 HD
ATOM     63  C   UNL     1      10.341  -5.624 -11.380  1.00  0.00     0.074 A 
ATOM     64  C   UNL     1      10.961  -4.873 -12.453  1.00  0.00     0.031 C 
ATOM     65  C   UNL     1      10.774  -6.833 -10.943  1.00  0.00     0.037 A 
BRANCH  52  66
ATOM     66  C   UNL     1       7.455  -9.165  -6.264  1.00  0.00     0.058 A 
ATOM     67  C   UNL     1       6.341 -10.020  -6.327  1.00  0.00     0.135 A 
ATOM     68  C   UNL     1       8.391  -9.389  -5.242  1.00  0.00     0.135 A 
ATOM     69  F   UNL     1       5.408  -9.845  -7.277  1.00  0.00    -0.206 F 
ATOM     70  C   UNL     1       6.140 -11.025  -5.387  1.00  0.00     0.059 A 
ATOM     71  C   UNL     1       8.225 -10.410  -4.308  1.00  0.00     0.059 A 
ATOM     72  F   UNL     1       9.477  -8.607  -5.135  1.00  0.00    -0.206 F 
ATOM     73  C   UNL     1       7.085 -11.208  -4.377  1.00  0.00     0.060 A 
BRANCH  73  74
ATOM     74  S   UNL     1       6.795 -12.501  -3.150  1.00  0.00     0.124 S 
ATOM     75  O   UNL     1       5.730 -11.906  -2.349  1.00  0.00    -0.237 OA
ATOM     76  O   UNL     1       6.405 -13.637  -3.978  1.00  0.00    -0.237 OA
ATOM     77  O   UNL     1       8.086 -12.630  -2.481  1.00  0.00    -0.744 OA
ENDBRANCH  73  74
ENDBRANCH  52  66
BRANCH  53  78
ATOM     78  C   UNL     1       8.505  -1.427 -12.497  1.00  0.00     0.058 A 
ATOM     79  C   UNL     1       8.258  -1.509 -13.875  1.00  0.00     0.135 A 
ATOM     80  C   UNL     1       8.892  -0.183 -11.975  1.00  0.00     0.135 A 
ATOM     81  F   UNL     1       7.894  -2.678 -14.423  1.00  0.00    -0.206 F 
ATOM     82  C   UNL     1       8.390  -0.400 -14.706  1.00  0.00     0.059 A 
ATOM     83  C   UNL     1       9.007   0.945 -12.781  1.00  0.00     0.059 A 
ATOM     84  F   UNL     1       9.125  -0.049 -10.660  1.00  0.00    -0.206 F 
ATOM     85  C   UNL     1       8.758   0.825 -14.147  1.00  0.00     0.060 A 
BRANCH  85  86
ATOM     86  S   UNL     1       8.850   2.275 -15.221  1.00  0.00     0.124 S 
ATOM     87  O   UNL     1      10.074   2.010 -15.968  1.00  0.00    -0.237 OA
ATOM     88  O   UNL     1       7.606   2.175 -15.977  1.00  0.00    -0.237 OA
ATOM     89  O   UNL     1       8.913   3.387 -14.278  1.00  0.00    -0.744 OA
ENDBRANCH  85  86
ENDBRANCH  53  78
BRANCH  65  90
ATOM     90  C   UNL     1      11.971  -7.430 -11.632  1.00  0.00     0.058 A 
ATOM     91  C   UNL     1      13.265  -6.926 -11.430  1.00  0.00     0.135 A 
ATOM     92  C   UNL     1      11.828  -8.554 -12.462  1.00  0.00     0.135 A 
ATOM     93  F   UNL     1      13.457  -5.849 -10.652  1.00  0.00    -0.206 F 
ATOM     94  C   UNL     1      14.373  -7.503 -12.041  1.00  0.00     0.059 A 
ATOM     95  C   UNL     1      12.925  -9.164 -13.063  1.00  0.00     0.059 A 
ATOM     96  F   UNL     1      10.613  -9.082 -12.683  1.00  0.00    -0.206 F 
ATOM     97  C   UNL     1      14.194  -8.624 -12.854  1.00  0.00     0.060 A 
BRANCH  97  98
ATOM     98  S   UNL     1      15.645  -9.387 -13.610  1.00  0.00     0.124 S 
ATOM     99  O   UNL     1      15.974  -8.422 -14.655  1.00  0.00    -0.237 OA
ATOM    100  O   UNL     1      16.581  -9.454 -12.492  1.00  0.00    -0.237 OA
ATOM    101  O   UNL     1      15.146 -10.676 -14.080  1.00  0.00    -0.744 OA
ENDBRANCH  97  98
ENDBRANCH  65  90
ENDBRANCH  39  40
ENDBRANCH  31  34
ENDBRANCH  29  30
ENDBRANCH  28  29
ENDBRANCH  27  28
ENDBRANCH   1  27
TORSDOF 20
