REMARK SMILES O=C(NCCCCCCNC(=O)c1ncc2ccccc2n1)c1ccc(-c2c3nc(c(-c4c(F)cc(S(=O)(=O)[O-])cc4F)c4ccc([nH]4)c(-c4c(F)cc(S(=O)(=O)[O-])cc4F)c4nc(c(-c5c(F)cc(S(=O)(=O)[O-])cc5F)c5ccc2[nH]5)C=C4)C=C3)cc1
REMARK SMILES IDX 5 1 4 2 3 3 1 4 2 5 23 7 24 8 88 9 25 10 87 11 26 12 27 13
REMARK SMILES IDX 28 14 81 15 29 16 86 17 80 18 82 19 30 20 85 21 79 22 78 23
REMARK SMILES IDX 31 25 65 26 44 27 64 28 45 29 48 30 63 31 83 32 46 33 47 34
REMARK SMILES IDX 62 36 84 37 49 38 32 39 33 40 42 41 34 42 35 43 41 44 43 45
REMARK SMILES IDX 36 46 37 47 38 48 39 49 40 50 66 51 67 52 76 53 68 54 69 55
REMARK SMILES IDX 75 56 77 57 70 58 71 59 72 60 73 61 74 62 50 63 51 64 60 65
REMARK SMILES IDX 52 66 53 67 59 68 61 69 54 70 55 71 56 72 57 73 58 74 6 75
REMARK SMILES IDX 7 76 8 77 9 78 10 79 11 80 12 82 13 83 14 84 22 85 15 86
REMARK SMILES IDX 21 87 16 88 20 89 17 90 19 91 18 92
REMARK H PARENT 3 6 82 24 48 35 10 81
REMARK Flexibility Score: inf
ROOT
ATOM      1  C   UNL     1       4.575  -0.140  -2.820  1.00  0.00     0.021 C 
ENDROOT
BRANCH   1   2
ATOM      2  C   UNL     1       4.372   0.355  -1.393  1.00  0.00     0.116 C 
BRANCH   2   3
ATOM      3  N   UNL     1       2.971   0.501  -1.036  1.00  0.00    -0.352 N 
ATOM      4  O   UNL     1       1.094   0.153   0.168  1.00  0.00    -0.269 OA
ATOM      5  C   UNL     1       2.316   0.054   0.089  1.00  0.00     0.251 C 
ATOM      6  H   UNL     1       2.414   0.987  -1.687  1.00  0.00     0.163 HD
BRANCH   5   7
ATOM      7  C   UNL     1       3.084  -0.572   1.190  1.00  0.00     0.039 A 
ATOM      8  C   UNL     1       4.276  -0.002   1.640  1.00  0.00     0.014 A 
ATOM      9  C   UNL     1       2.606  -1.748   1.777  1.00  0.00     0.014 A 
ATOM     10  C   UNL     1       5.058  -0.679   2.570  1.00  0.00     0.010 A 
ATOM     11  C   UNL     1       3.354  -2.385   2.775  1.00  0.00     0.010 A 
ATOM     12  C   UNL     1       4.602  -1.872   3.157  1.00  0.00    -0.014 A 
BRANCH  12  13
ATOM     13  C   UNL     1       5.433  -2.513   4.210  1.00  0.00     0.031 A 
ATOM     14  C   UNL     1       6.068  -3.860   4.000  1.00  0.00     0.074 A 
ATOM     15  C   UNL     1       5.661  -1.828   5.348  1.00  0.00     0.049 A 
ATOM     16  N   UNL     1       6.882  -4.516   4.790  1.00  0.00    -0.248 NA
ATOM     17  C   UNL     1       5.749  -4.569   2.751  1.00  0.00     0.031 C 
ATOM     18  C   UNL     1       5.071  -0.526   5.677  1.00  0.00     0.029 A 
ATOM     19  N   UNL     1       6.465  -2.107   6.422  1.00  0.00    -0.354 N 
ATOM     20  C   UNL     1       7.167  -5.712   4.142  1.00  0.00     0.074 A 
ATOM     21  C   UNL     1       6.415  -5.707   2.905  1.00  0.00     0.031 C 
ATOM     22  C   UNL     1       5.575  -0.097   6.843  1.00  0.00     0.029 A 
ATOM     23  C   UNL     1       6.483  -1.109   7.368  1.00  0.00     0.049 A 
ATOM     24  H   UNL     1       6.980  -2.942   6.508  1.00  0.00     0.167 HD
ATOM     25  C   UNL     1       7.988  -6.715   4.538  1.00  0.00     0.037 A 
ATOM     26  C   UNL     1       7.152  -1.018   8.532  1.00  0.00     0.037 A 
ATOM     27  C   UNL     1       8.740  -6.712   5.768  1.00  0.00     0.049 A 
ATOM     28  C   UNL     1       8.072  -2.132   8.934  1.00  0.00     0.074 A 
ATOM     29  C   UNL     1       9.599  -7.682   6.258  1.00  0.00     0.029 A 
ATOM     30  N   UNL     1       8.728  -5.686   6.703  1.00  0.00    -0.354 N 
ATOM     31  N   UNL     1       8.338  -3.248   8.298  1.00  0.00    -0.248 NA
ATOM     32  C   UNL     1       8.785  -1.977  10.208  1.00  0.00     0.031 C 
ATOM     33  C   UNL     1      10.087  -7.253   7.498  1.00  0.00     0.029 A 
ATOM     34  C   UNL     1       9.560  -6.001   7.766  1.00  0.00     0.049 A 
ATOM     35  H   UNL     1       8.204  -4.856   6.622  1.00  0.00     0.167 HD
ATOM     36  C   UNL     1       9.246  -3.931   9.097  1.00  0.00     0.074 A 
ATOM     37  C   UNL     1       9.511  -3.086  10.244  1.00  0.00     0.031 C 
ATOM     38  C   UNL     1       9.802  -5.152   8.904  1.00  0.00     0.037 A 
BRANCH  25  39
ATOM     39  C   UNL     1       8.124  -7.908   3.631  1.00  0.00     0.058 A 
ATOM     40  C   UNL     1       8.865  -7.841   2.441  1.00  0.00     0.135 A 
ATOM     41  C   UNL     1       7.556  -9.144   3.980  1.00  0.00     0.135 A 
ATOM     42  F   UNL     1       9.416  -6.681   2.052  1.00  0.00    -0.206 F 
ATOM     43  C   UNL     1       9.026  -8.954   1.620  1.00  0.00     0.059 A 
ATOM     44  C   UNL     1       7.721 -10.275   3.184  1.00  0.00     0.059 A 
ATOM     45  F   UNL     1       6.838  -9.263   5.108  1.00  0.00    -0.206 F 
ATOM     46  C   UNL     1       8.449 -10.167   2.000  1.00  0.00     0.060 A 
BRANCH  46  47
ATOM     47  S   UNL     1       8.680 -11.605   0.933  1.00  0.00     0.124 S 
ATOM     48  O   UNL     1       7.770 -11.299  -0.167  1.00  0.00    -0.237 OA
ATOM     49  O   UNL     1      10.103 -11.535   0.614  1.00  0.00    -0.237 OA
ATOM     50  O   UNL     1       8.286 -12.726   1.781  1.00  0.00    -0.744 OA
ENDBRANCH  46  47
ENDBRANCH  25  39
BRANCH  26  51
ATOM     51  C   UNL     1       6.966   0.177   9.394  1.00  0.00     0.058 A 
ATOM     52  C   UNL     1       7.982   1.132   9.544  1.00  0.00     0.135 A 
ATOM     53  C   UNL     1       5.752   0.399  10.063  1.00  0.00     0.135 A 
ATOM     54  F   UNL     1       9.160   0.961   8.925  1.00  0.00    -0.206 F 
ATOM     55  C   UNL     1       7.807   2.260  10.338  1.00  0.00     0.059 A 
ATOM     56  C   UNL     1       5.544   1.531  10.841  1.00  0.00     0.059 A 
ATOM     57  F   UNL     1       4.743  -0.476   9.933  1.00  0.00    -0.206 F 
ATOM     58  C   UNL     1       6.583   2.451  10.983  1.00  0.00     0.060 A 
BRANCH  58  59
ATOM     59  S   UNL     1       6.337   3.943  11.970  1.00  0.00     0.124 S 
ATOM     60  O   UNL     1       7.017   3.587  13.210  1.00  0.00    -0.237 OA
ATOM     61  O   UNL     1       6.987   4.966  11.156  1.00  0.00    -0.237 OA
ATOM     62  O   UNL     1       4.884   4.051  12.052  1.00  0.00    -0.744 OA
ENDBRANCH  58  59
ENDBRANCH  26  51
BRANCH  38  63
ATOM     63  C   UNL     1      10.753  -5.635   9.961  1.00  0.00     0.058 A 
ATOM     64  C   UNL     1      10.291  -6.083  11.209  1.00  0.00     0.135 A 
ATOM     65  C   UNL     1      12.136  -5.656   9.724  1.00  0.00     0.135 A 
ATOM     66  F   UNL     1       8.977  -6.075  11.485  1.00  0.00    -0.206 F 
ATOM     67  C   UNL     1      11.171  -6.502  12.200  1.00  0.00     0.059 A 
ATOM     68  C   UNL     1      13.033  -6.092  10.694  1.00  0.00     0.059 A 
ATOM     69  F   UNL     1      12.626  -5.246   8.544  1.00  0.00    -0.206 F 
ATOM     70  C   UNL     1      12.542  -6.495  11.935  1.00  0.00     0.060 A 
BRANCH  70  71
ATOM     71  S   UNL     1      13.679  -7.040  13.227  1.00  0.00     0.124 S 
ATOM     72  O   UNL     1      13.729  -5.863  14.088  1.00  0.00    -0.237 OA
ATOM     73  O   UNL     1      12.994  -8.203  13.783  1.00  0.00    -0.237 OA
ATOM     74  O   UNL     1      14.906  -7.335  12.493  1.00  0.00    -0.744 OA
ENDBRANCH  70  71
ENDBRANCH  38  63
ENDBRANCH  12  13
ENDBRANCH   5   7
ENDBRANCH   2   3
ENDBRANCH   1   2
BRANCH   1  75
ATOM     75  C   UNL     1       4.127   0.824  -3.918  1.00  0.00     0.002 C 
BRANCH  75  76
ATOM     76  C   UNL     1       4.742   2.225  -3.867  1.00  0.00     0.002 C 
BRANCH  76  77
ATOM     77  C   UNL     1       6.271   2.283  -3.790  1.00  0.00     0.021 C 
BRANCH  77  78
ATOM     78  C   UNL     1       7.015   1.537  -4.897  1.00  0.00     0.116 C 
BRANCH  78  79
ATOM     79  N   UNL     1       6.731   2.089  -6.209  1.00  0.00    -0.349 N 
ATOM     80  C   UNL     1       7.621   2.584  -7.146  1.00  0.00     0.289 C 
ATOM     81  H   UNL     1       5.781   2.115  -6.466  1.00  0.00     0.163 HD
ATOM     82  O   UNL     1       7.174   3.141  -8.149  1.00  0.00    -0.266 OA
BRANCH  80  83
ATOM     83  C   UNL     1       9.102   2.448  -6.926  1.00  0.00     0.218 A 
ATOM     84  N   UNL     1       9.850   3.551  -7.124  1.00  0.00    -0.232 NA
ATOM     85  N   UNL     1       9.554   1.244  -6.511  1.00  0.00    -0.224 NA
ATOM     86  C   UNL     1      11.158   3.412  -6.847  1.00  0.00     0.124 A 
ATOM     87  C   UNL     1      10.860   1.150  -6.243  1.00  0.00     0.074 A 
ATOM     88  C   UNL     1      11.735   2.234  -6.388  1.00  0.00     0.019 A 
ATOM     89  C   UNL     1      11.383  -0.052  -5.786  1.00  0.00     0.029 A 
ATOM     90  C   UNL     1      13.102   2.110  -6.074  1.00  0.00     0.012 A 
ATOM     91  C   UNL     1      12.738  -0.189  -5.468  1.00  0.00     0.002 A 
ATOM     92  C   UNL     1      13.598   0.895  -5.610  1.00  0.00     0.001 A 
ENDBRANCH  80  83
ENDBRANCH  78  79
ENDBRANCH  77  78
ENDBRANCH  76  77
ENDBRANCH  75  76
ENDBRANCH   1  75
TORSDOF 16
