REMARK SMILES O=C(NCCCCCCNC(=O)[C@H]1CCCC[C@H]1C(=O)N1CCN(S(=O)(=O)c2ccc(F)cc2)CC1)c1ccc(-c2c3nc(c(-c4c(F)cc(S(=O)(=O)[O-])cc4F)c4ccc([nH]4)c(-c4c(F)cc(S(=O)(=O)[O-])cc4F)c4nc(c(-c5c(F)cc(S(=O)(=O)[O-])cc5F)c5ccc2[nH]5)C=C4)C=C3)cc1
REMARK SMILES IDX 6 1 5 2 4 3 3 4 1 5 2 6 37 8 38 9 102 10 39 11 101 12 40 13
REMARK SMILES IDX 41 14 42 15 95 16 43 17 100 18 94 19 96 20 44 21 99 22 93 23
REMARK SMILES IDX 92 24 45 26 79 27 58 28 78 29 59 30 62 31 77 32 97 33 60 34
REMARK SMILES IDX 61 35 76 37 98 38 63 39 46 40 47 41 56 42 48 43 49 44 55 45
REMARK SMILES IDX 57 46 50 47 51 48 52 49 53 50 54 51 80 52 81 53 90 54 82 55
REMARK SMILES IDX 83 56 89 57 91 58 84 59 85 60 86 61 87 62 88 63 64 64 65 65
REMARK SMILES IDX 74 66 66 67 67 68 73 69 75 70 68 71 69 72 70 73 71 74 72 75
REMARK SMILES IDX 7 76 8 77 9 78 10 79 11 80 12 82 13 83 14 84 18 85 15 86
REMARK SMILES IDX 17 87 16 88 19 89 20 90 21 91 22 92 36 93 23 94 35 95 24 96
REMARK SMILES IDX 25 97 26 98 27 99 28 100 29 101 34 102 30 103 33 104 31 105
REMARK SMILES IDX 32 106
REMARK H PARENT 3 7 96 25 62 36 10 81
REMARK Flexibility Score: inf
ROOT
ATOM      1  C   UNL     1      14.351  -6.170  -7.851  1.00  0.00     0.002 C 
ENDROOT
BRANCH   1   2
ATOM      2  C   UNL     1      15.059  -6.494  -6.534  1.00  0.00     0.021 C 
BRANCH   2   3
ATOM      3  C   UNL     1      15.407  -7.960  -6.303  1.00  0.00     0.116 C 
BRANCH   3   4
ATOM      4  N   UNL     1      16.301  -8.509  -7.306  1.00  0.00    -0.352 N 
ATOM      5  O   UNL     1      18.122  -9.577  -8.098  1.00  0.00    -0.269 OA
ATOM      6  C   UNL     1      17.430  -9.273  -7.131  1.00  0.00     0.251 C 
ATOM      7  H   UNL     1      16.066  -8.306  -8.241  1.00  0.00     0.163 HD
BRANCH   6   8
ATOM      8  C   UNL     1      17.828  -9.693  -5.768  1.00  0.00     0.039 A 
ATOM      9  C   UNL     1      16.894 -10.235  -4.882  1.00  0.00     0.014 A 
ATOM     10  C   UNL     1      19.159  -9.528  -5.371  1.00  0.00     0.014 A 
ATOM     11  C   UNL     1      17.257 -10.479  -3.561  1.00  0.00     0.010 A 
ATOM     12  C   UNL     1      19.540  -9.850  -4.065  1.00  0.00     0.010 A 
ATOM     13  C   UNL     1      18.586 -10.299  -3.139  1.00  0.00    -0.014 A 
BRANCH  13  14
ATOM     14  C   UNL     1      18.958 -10.638  -1.742  1.00  0.00     0.031 A 
ATOM     15  C   UNL     1      19.409  -9.579  -0.775  1.00  0.00     0.074 A 
ATOM     16  C   UNL     1      18.840 -11.918  -1.337  1.00  0.00     0.049 A 
ATOM     17  N   UNL     1      19.734  -9.704   0.487  1.00  0.00    -0.248 NA
ATOM     18  C   UNL     1      19.513  -8.204  -1.286  1.00  0.00     0.031 C 
ATOM     19  C   UNL     1      18.416 -13.031  -2.191  1.00  0.00     0.029 A 
ATOM     20  N   UNL     1      19.035 -12.497  -0.110  1.00  0.00    -0.354 N 
ATOM     21  C   UNL     1      20.090  -8.432   0.919  1.00  0.00     0.074 A 
ATOM     22  C   UNL     1      19.970  -7.552  -0.225  1.00  0.00     0.031 C 
ATOM     23  C   UNL     1      18.319 -14.142  -1.448  1.00  0.00     0.029 A 
ATOM     24  C   UNL     1      18.733 -13.838  -0.083  1.00  0.00     0.049 A 
ATOM     25  H   UNL     1      19.358 -12.000   0.676  1.00  0.00     0.167 HD
ATOM     26  C   UNL     1      20.472  -8.035   2.158  1.00  0.00     0.037 A 
ATOM     27  C   UNL     1      18.786 -14.728   0.925  1.00  0.00     0.037 A 
ATOM     28  C   UNL     1      20.585  -8.918   3.291  1.00  0.00     0.049 A 
ATOM     29  C   UNL     1      19.233 -14.270   2.281  1.00  0.00     0.074 A 
ATOM     30  C   UNL     1      20.966  -8.612   4.587  1.00  0.00     0.029 A 
ATOM     31  N   UNL     1      20.318 -10.280   3.267  1.00  0.00    -0.354 N 
ATOM     32  N   UNL     1      19.574 -13.064   2.668  1.00  0.00    -0.248 NA
ATOM     33  C   UNL     1      19.313 -15.290   3.334  1.00  0.00     0.031 C 
ATOM     34  C   UNL     1      20.960  -9.793   5.337  1.00  0.00     0.029 A 
ATOM     35  C   UNL     1      20.535 -10.829   4.521  1.00  0.00     0.049 A 
ATOM     36  H   UNL     1      20.017 -10.781   2.475  1.00  0.00     0.167 HD
ATOM     37  C   UNL     1      19.907 -13.177   4.011  1.00  0.00     0.074 A 
ATOM     38  C   UNL     1      19.706 -14.566   4.375  1.00  0.00     0.031 C 
ATOM     39  C   UNL     1      20.342 -12.217   4.864  1.00  0.00     0.037 A 
BRANCH  26  40
ATOM     40  C   UNL     1      20.806  -6.581   2.352  1.00  0.00     0.058 A 
ATOM     41  C   UNL     1      22.135  -6.171   2.551  1.00  0.00     0.135 A 
ATOM     42  C   UNL     1      19.808  -5.594   2.377  1.00  0.00     0.135 A 
ATOM     43  F   UNL     1      23.130  -7.071   2.533  1.00  0.00    -0.206 F 
ATOM     44  C   UNL     1      22.461  -4.836   2.769  1.00  0.00     0.059 A 
ATOM     45  C   UNL     1      20.114  -4.249   2.572  1.00  0.00     0.059 A 
ATOM     46  F   UNL     1      18.524  -5.927   2.171  1.00  0.00    -0.206 F 
ATOM     47  C   UNL     1      21.443  -3.881   2.776  1.00  0.00     0.060 A 
BRANCH  47  48
ATOM     48  S   UNL     1      21.887  -2.143   2.992  1.00  0.00     0.124 S 
ATOM     49  O   UNL     1      22.204  -2.089   4.414  1.00  0.00    -0.237 OA
ATOM     50  O   UNL     1      23.017  -1.998   2.080  1.00  0.00    -0.237 OA
ATOM     51  O   UNL     1      20.675  -1.436   2.587  1.00  0.00    -0.744 OA
ENDBRANCH  47  48
ENDBRANCH  26  40
BRANCH  27  52
ATOM     52  C   UNL     1      18.376 -16.133   0.670  1.00  0.00     0.058 A 
ATOM     53  C   UNL     1      19.150 -16.979  -0.138  1.00  0.00     0.135 A 
ATOM     54  C   UNL     1      17.154 -16.622   1.153  1.00  0.00     0.135 A 
ATOM     55  F   UNL     1      20.322 -16.551  -0.633  1.00  0.00    -0.206 F 
ATOM     56  C   UNL     1      18.706 -18.246  -0.498  1.00  0.00     0.059 A 
ATOM     57  C   UNL     1      16.698 -17.896   0.826  1.00  0.00     0.059 A 
ATOM     58  F   UNL     1      16.386 -15.850   1.937  1.00  0.00    -0.206 F 
ATOM     59  C   UNL     1      17.471 -18.689  -0.021  1.00  0.00     0.060 A 
BRANCH  59  60
ATOM     60  S   UNL     1      16.884 -20.313  -0.547  1.00  0.00     0.124 S 
ATOM     61  O   UNL     1      16.558 -20.064  -1.948  1.00  0.00    -0.237 OA
ATOM     62  O   UNL     1      18.051 -21.155  -0.306  1.00  0.00    -0.237 OA
ATOM     63  O   UNL     1      15.743 -20.559   0.329  1.00  0.00    -0.744 OA
ENDBRANCH  59  60
ENDBRANCH  27  52
BRANCH  39  64
ATOM     64  C   UNL     1      20.630 -12.633   6.278  1.00  0.00     0.058 A 
ATOM     65  C   UNL     1      19.770 -12.256   7.321  1.00  0.00     0.135 A 
ATOM     66  C   UNL     1      21.785 -13.360   6.606  1.00  0.00     0.135 A 
ATOM     67  F   UNL     1      18.653 -11.559   7.059  1.00  0.00    -0.206 F 
ATOM     68  C   UNL     1      20.052 -12.574   8.644  1.00  0.00     0.059 A 
ATOM     69  C   UNL     1      22.076 -13.708   7.922  1.00  0.00     0.059 A 
ATOM     70  F   UNL     1      22.631 -13.755   5.642  1.00  0.00    -0.206 F 
ATOM     71  C   UNL     1      21.210 -13.297   8.936  1.00  0.00     0.060 A 
BRANCH  71  72
ATOM     72  S   UNL     1      21.550 -13.723  10.657  1.00  0.00     0.124 S 
ATOM     73  O   UNL     1      21.972 -12.438  11.203  1.00  0.00    -0.237 OA
ATOM     74  O   UNL     1      20.255 -14.215  11.117  1.00  0.00    -0.237 OA
ATOM     75  O   UNL     1      22.596 -14.736  10.554  1.00  0.00    -0.744 OA
ENDBRANCH  71  72
ENDBRANCH  39  64
ENDBRANCH  13  14
ENDBRANCH   6   8
ENDBRANCH   3   4
ENDBRANCH   2   3
ENDBRANCH   1   2
BRANCH   1  76
ATOM     76  C   UNL     1      13.099  -6.994  -8.171  1.00  0.00     0.002 C 
BRANCH  76  77
ATOM     77  C   UNL     1      12.085  -7.147  -7.034  1.00  0.00     0.021 C 
BRANCH  77  78
ATOM     78  C   UNL     1      11.469  -5.842  -6.532  1.00  0.00     0.116 C 
BRANCH  78  79
ATOM     79  N   UNL     1      10.281  -5.494  -7.276  1.00  0.00    -0.356 N 
ATOM     80  C   UNL     1       9.081  -5.017  -6.866  1.00  0.00     0.223 C 
ATOM     81  H   UNL     1      10.356  -5.627  -8.248  1.00  0.00     0.163 HD
ATOM     82  O   UNL     1       8.150  -5.200  -7.664  1.00  0.00    -0.275 OA
BRANCH  80  83
ATOM     83  C   UNL     1       8.808  -4.244  -5.569  1.00  0.00     0.091 C 
ATOM     84  C   UNL     1       8.995  -5.103  -4.296  1.00  0.00     0.014 C 
ATOM     85  C   UNL     1       9.315  -2.805  -5.358  1.00  0.00     0.091 C 
ATOM     86  C   UNL     1      10.226  -4.835  -3.414  1.00  0.00     0.001 C 
ATOM     87  C   UNL     1      10.739  -2.763  -4.807  1.00  0.00     0.014 C 
ATOM     88  C   UNL     1      10.770  -3.413  -3.429  1.00  0.00     0.001 C 
BRANCH  85  89
ATOM     89  C   UNL     1       9.066  -1.625  -6.326  1.00  0.00     0.226 C 
ATOM     90  O   UNL     1       8.365  -0.677  -5.960  1.00  0.00    -0.275 OA
ATOM     91  N   UNL     1       9.846  -1.517  -7.455  1.00  0.00    -0.340 N 
ATOM     92  C   UNL     1      10.414  -0.222  -7.847  1.00  0.00     0.136 C 
ATOM     93  C   UNL     1       9.665  -2.398  -8.586  1.00  0.00     0.136 C 
ATOM     94  C   UNL     1      11.744  -0.408  -8.618  1.00  0.00     0.124 C 
ATOM     95  C   UNL     1      11.024  -2.693  -9.204  1.00  0.00     0.124 C 
ATOM     96  N   UNL     1      11.652  -1.440  -9.730  1.00  0.00    -0.194 NA
BRANCH  96  97
ATOM     97  S   UNL     1      11.069  -0.806 -11.208  1.00  0.00     0.243 S 
ATOM     98  O   UNL     1       9.662  -0.492 -11.057  1.00  0.00    -0.207 OA
ATOM     99  O   UNL     1      12.001   0.211 -11.636  1.00  0.00    -0.207 OA
BRANCH  97 100
ATOM    100  C   UNL     1      11.177  -2.167 -12.358  1.00  0.00     0.082 A 
ATOM    101  C   UNL     1      10.171  -3.145 -12.371  1.00  0.00     0.025 A 
ATOM    102  C   UNL     1      12.212  -2.205 -13.299  1.00  0.00     0.025 A 
ATOM    103  C   UNL     1      10.248  -4.209 -13.269  1.00  0.00     0.040 A 
ATOM    104  C   UNL     1      12.261  -3.254 -14.222  1.00  0.00     0.040 A 
ATOM    105  C   UNL     1      11.290  -4.252 -14.189  1.00  0.00     0.123 A 
ATOM    106  F   UNL     1      11.352  -5.263 -15.065  1.00  0.00    -0.207 F 
ENDBRANCH  97 100
ENDBRANCH  96  97
ENDBRANCH  85  89
ENDBRANCH  80  83
ENDBRANCH  78  79
ENDBRANCH  77  78
ENDBRANCH  76  77
ENDBRANCH   1  76
TORSDOF 19
