REMARK SMILES Cc1noc(C)c1CSCC(=O)N1CC[C@H](C(=O)NCCCCCCNC(=O)c2ccc(-c3c4nc(c(-c5c(F)cc(S(=O)(=O)[O-])cc5F)c5ccc([nH]5)c(-c5c(F)cc(S(=O)(=O)[O-])cc5F)c5nc(c(-c6c(F)cc(S(=O)(=O)[O-])cc6F)c6ccc3[nH]6)C=C5)C=C4)cc2)[C@@H]1C
REMARK SMILES IDX 21 1 20 2 19 3 17 4 18 5 16 7 13 8 14 9 95 10 15 11 96 12
REMARK SMILES IDX 11 13 12 14 10 15 9 16 8 17 7 18 1 19 2 20 3 21 4 22 5 23
REMARK SMILES IDX 6 24 22 25 23 26 24 27 25 28 26 29 27 30 28 32 29 33 30 34
REMARK SMILES IDX 94 35 31 36 93 37 32 38 33 39 34 40 87 41 35 42 92 43 86 44
REMARK SMILES IDX 88 45 36 46 91 47 85 48 84 49 37 51 71 52 50 53 70 54 51 55
REMARK SMILES IDX 54 56 69 57 89 58 52 59 53 60 68 62 90 63 55 64 38 65 39 66
REMARK SMILES IDX 48 67 40 68 41 69 47 70 49 71 42 72 43 73 44 74 45 75 46 76
REMARK SMILES IDX 72 77 73 78 82 79 74 80 75 81 81 82 83 83 76 84 77 85 78 86
REMARK SMILES IDX 79 87 80 88 56 89 57 90 66 91 58 92 59 93 65 94 67 95 60 96
REMARK SMILES IDX 61 97 62 98 63 99 64 100
REMARK H PARENT 19 6 26 31 88 50 54 61
REMARK Flexibility Score: inf
ROOT
ATOM      1  C   UNL     1       3.394  10.834  -2.647  1.00  0.00     0.021 C 
ENDROOT
BRANCH   1   2
ATOM      2  C   UNL     1       3.501   9.345  -2.966  1.00  0.00     0.116 C 
BRANCH   2   3
ATOM      3  N   UNL     1       3.478   8.553  -1.756  1.00  0.00    -0.356 N 
ATOM      4  C   UNL     1       2.744   7.469  -1.407  1.00  0.00     0.225 C 
ATOM      5  O   UNL     1       2.915   7.070  -0.257  1.00  0.00    -0.275 OA
ATOM      6  H   UNL     1       4.109   8.855  -1.063  1.00  0.00     0.163 HD
BRANCH   4   7
ATOM      7  C   UNL     1       1.770   6.850  -2.417  1.00  0.00     0.102 C 
ATOM      8  N   UNL     1       1.632   4.449  -2.578  1.00  0.00    -0.338 N 
ATOM      9  C   UNL     1       2.854   4.882  -3.225  1.00  0.00     0.120 C 
ATOM     10  C   UNL     1       0.944   5.602  -1.961  1.00  0.00     0.094 C 
ATOM     11  C   UNL     1       2.548   6.312  -3.625  1.00  0.00     0.037 C 
ATOM     12  C   UNL     1       0.814   5.476  -0.444  1.00  0.00     0.032 C 
BRANCH   8  13
ATOM     13  C   UNL     1       1.269   3.126  -2.701  1.00  0.00     0.232 C 
ATOM     14  O   UNL     1       2.133   2.262  -2.891  1.00  0.00    -0.274 OA
BRANCH  13  15
ATOM     15  C   UNL     1      -0.192   2.730  -2.820  1.00  0.00     0.170 C 
BRANCH  15  16
ATOM     16  S   UNL     1      -1.235   2.864  -1.357  1.00  0.00    -0.147 SA
BRANCH  16  17
ATOM     17  C   UNL     1      -0.161   2.137  -0.080  1.00  0.00     0.111 C 
BRANCH  17  18
ATOM     18  C   UNL     1      -0.133   0.659  -0.085  1.00  0.00     0.027 A 
ATOM     19  C   UNL     1      -2.668   0.018   0.070  1.00  0.00     0.071 C 
ATOM     20  C   UNL     1      -1.214  -0.264  -0.003  1.00  0.00     0.085 A 
ATOM     21  N   UNL     1      -0.776  -1.528   0.028  1.00  0.00    -0.085 NA
ATOM     22  O   UNL     1       0.602  -1.452  -0.014  1.00  0.00    -0.361 OA
ATOM     23  C   UNL     1       0.984  -0.151  -0.068  1.00  0.00     0.137 A 
ATOM     24  C   UNL     1       2.437   0.112  -0.056  1.00  0.00     0.091 C 
ENDBRANCH  17  18
ENDBRANCH  16  17
ENDBRANCH  15  16
ENDBRANCH  13  15
ENDBRANCH   8  13
ENDBRANCH   4   7
ENDBRANCH   2   3
ENDBRANCH   1   2
BRANCH   1  25
ATOM     25  C   UNL     1       4.392  11.354  -1.603  1.00  0.00     0.002 C 
BRANCH  25  26
ATOM     26  C   UNL     1       5.864  11.010  -1.852  1.00  0.00     0.002 C 
BRANCH  26  27
ATOM     27  C   UNL     1       6.411  11.420  -3.218  1.00  0.00     0.021 C 
BRANCH  27  28
ATOM     28  C   UNL     1       6.184  12.880  -3.589  1.00  0.00     0.116 C 
BRANCH  28  29
ATOM     29  N   UNL     1       6.825  13.797  -2.661  1.00  0.00    -0.352 N 
ATOM     30  C   UNL     1       7.669  14.845  -2.933  1.00  0.00     0.251 C 
ATOM     31  H   UNL     1       6.626  13.646  -1.709  1.00  0.00     0.163 HD
ATOM     32  O   UNL     1       8.246  15.428  -2.019  1.00  0.00    -0.269 OA
BRANCH  30  33
ATOM     33  C   UNL     1       7.903  15.242  -4.337  1.00  0.00     0.039 A 
ATOM     34  C   UNL     1       9.218  15.389  -4.785  1.00  0.00     0.014 A 
ATOM     35  C   UNL     1       6.831  15.421  -5.216  1.00  0.00     0.014 A 
ATOM     36  C   UNL     1       9.460  15.635  -6.138  1.00  0.00     0.010 A 
ATOM     37  C   UNL     1       7.077  15.600  -6.575  1.00  0.00     0.010 A 
ATOM     38  C   UNL     1       8.394  15.694  -7.050  1.00  0.00    -0.014 A 
BRANCH  38  39
ATOM     39  C   UNL     1       8.636  15.796  -8.512  1.00  0.00     0.031 A 
ATOM     40  C   UNL     1       8.170  17.001  -9.278  1.00  0.00     0.074 A 
ATOM     41  C   UNL     1       9.200  14.757  -9.159  1.00  0.00     0.049 A 
ATOM     42  N   UNL     1       8.209  17.224 -10.566  1.00  0.00    -0.248 NA
ATOM     43  C   UNL     1       7.560  18.089  -8.497  1.00  0.00     0.031 C 
ATOM     44  C   UNL     1       9.649  13.512  -8.530  1.00  0.00     0.029 A 
ATOM     45  N   UNL     1       9.474  14.570 -10.491  1.00  0.00    -0.354 N 
ATOM     46  C   UNL     1       7.620  18.468 -10.754  1.00  0.00     0.074 A 
ATOM     47  C   UNL     1       7.193  18.933  -9.451  1.00  0.00     0.031 C 
ATOM     48  C   UNL     1      10.150  12.698  -9.472  1.00  0.00     0.029 A 
ATOM     49  C   UNL     1      10.018  13.340 -10.776  1.00  0.00     0.049 A 
ATOM     50  H   UNL     1       9.298  15.253 -11.178  1.00  0.00     0.167 HD
ATOM     51  C   UNL     1       7.465  19.165 -11.906  1.00  0.00     0.037 A 
ATOM     52  C   UNL     1      10.353  12.780 -11.955  1.00  0.00     0.037 A 
ATOM     53  C   UNL     1       7.909  18.700 -13.195  1.00  0.00     0.049 A 
ATOM     54  C   UNL     1      10.151  13.563 -13.222  1.00  0.00     0.074 A 
ATOM     55  C   UNL     1       7.869  19.364 -14.408  1.00  0.00     0.029 A 
ATOM     56  N   UNL     1       8.460  17.451 -13.443  1.00  0.00    -0.354 N 
ATOM     57  N   UNL     1       9.666  14.773 -13.372  1.00  0.00    -0.248 NA
ATOM     58  C   UNL     1      10.538  12.908 -14.479  1.00  0.00     0.031 C 
ATOM     59  C   UNL     1       8.343  18.497 -15.398  1.00  0.00     0.029 A 
ATOM     60  C   UNL     1       8.727  17.310 -14.796  1.00  0.00     0.049 A 
ATOM     61  H   UNL     1       8.635  16.765 -12.759  1.00  0.00     0.167 HD
ATOM     62  C   UNL     1       9.698  15.027 -14.739  1.00  0.00     0.074 A 
ATOM     63  C   UNL     1      10.271  13.855 -15.368  1.00  0.00     0.031 C 
ATOM     64  C   UNL     1       9.285  16.131 -15.411  1.00  0.00     0.037 A 
BRANCH  51  65
ATOM     65  C   UNL     1       6.783  20.503 -11.828  1.00  0.00     0.058 A 
ATOM     66  C   UNL     1       7.400  21.613 -11.229  1.00  0.00     0.135 A 
ATOM     67  C   UNL     1       5.512  20.689 -12.395  1.00  0.00     0.135 A 
ATOM     68  F   UNL     1       8.609  21.489 -10.659  1.00  0.00    -0.206 F 
ATOM     69  C   UNL     1       6.770  22.852 -11.170  1.00  0.00     0.059 A 
ATOM     70  C   UNL     1       4.875  21.927 -12.373  1.00  0.00     0.059 A 
ATOM     71  F   UNL     1       4.876  19.662 -12.980  1.00  0.00    -0.206 F 
ATOM     72  C   UNL     1       5.507  22.999 -11.745  1.00  0.00     0.060 A 
BRANCH  72  73
ATOM     73  S   UNL     1       4.705  24.614 -11.661  1.00  0.00     0.124 S 
ATOM     74  O   UNL     1       4.339  24.684 -10.249  1.00  0.00    -0.237 OA
ATOM     75  O   UNL     1       5.772  25.514 -12.084  1.00  0.00    -0.237 OA
ATOM     76  O   UNL     1       3.588  24.488 -12.592  1.00  0.00    -0.744 OA
ENDBRANCH  72  73
ENDBRANCH  51  65
BRANCH  52  77
ATOM     77  C   UNL     1      10.908  11.400 -11.986  1.00  0.00     0.058 A 
ATOM     78  C   UNL     1      12.254  11.169 -12.303  1.00  0.00     0.135 A 
ATOM     79  C   UNL     1      10.109  10.289 -11.672  1.00  0.00     0.135 A 
ATOM     80  F   UNL     1      13.055  12.199 -12.618  1.00  0.00    -0.206 F 
ATOM     81  C   UNL     1      12.789   9.885 -12.315  1.00  0.00     0.059 A 
ATOM     82  C   UNL     1      10.628   8.998 -11.653  1.00  0.00     0.059 A 
ATOM     83  F   UNL     1       8.818  10.458 -11.347  1.00  0.00    -0.206 F 
ATOM     84  C   UNL     1      11.969   8.806 -11.982  1.00  0.00     0.060 A 
BRANCH  84  85
ATOM     85  S   UNL     1      12.689   7.151 -11.937  1.00  0.00     0.124 S 
ATOM     86  O   UNL     1      12.857   6.865 -13.357  1.00  0.00    -0.237 OA
ATOM     87  O   UNL     1      13.916   7.372 -11.179  1.00  0.00    -0.237 OA
ATOM     88  O   UNL     1      11.671   6.362 -11.250  1.00  0.00    -0.744 OA
ENDBRANCH  84  85
ENDBRANCH  52  77
BRANCH  64  89
ATOM     89  C   UNL     1       9.434  16.124 -16.907  1.00  0.00     0.058 A 
ATOM     90  C   UNL     1       8.597  15.345 -17.722  1.00  0.00     0.135 A 
ATOM     91  C   UNL     1      10.382  16.946 -17.537  1.00  0.00     0.135 A 
ATOM     92  F   UNL     1       7.681  14.534 -17.169  1.00  0.00    -0.206 F 
ATOM     93  C   UNL     1       8.706  15.368 -19.108  1.00  0.00     0.059 A 
ATOM     94  C   UNL     1      10.491  17.006 -18.923  1.00  0.00     0.059 A 
ATOM     95  F   UNL     1      11.202  17.716 -16.805  1.00  0.00    -0.206 F 
ATOM     96  C   UNL     1       9.654  16.206 -19.700  1.00  0.00     0.060 A 
BRANCH  96  97
ATOM     97  S   UNL     1       9.753  16.259 -21.502  1.00  0.00     0.124 S 
ATOM     98  O   UNL     1      10.373  14.972 -21.800  1.00  0.00    -0.237 OA
ATOM     99  O   UNL     1       8.352  16.393 -21.887  1.00  0.00    -0.237 OA
ATOM    100  O   UNL     1      10.584  17.430 -21.762  1.00  0.00    -0.744 OA
ENDBRANCH  96  97
ENDBRANCH  64  89
ENDBRANCH  38  39
ENDBRANCH  30  33
ENDBRANCH  28  29
ENDBRANCH  27  28
ENDBRANCH  26  27
ENDBRANCH  25  26
ENDBRANCH   1  25
TORSDOF 21
