REMARK SMILES C[NH+](C)[C@@H]1CC[N@@H+](Cc2ccc(C(=O)NCCCCCCNC(=O)c3ccc(-c4c5nc(c(-c6c(F)cc(S(=O)(=O)[O-])cc6F)c6ccc([nH]6)c(-c6c(F)cc(S(=O)(=O)[O-])cc6F)c6nc(c(-c7c(F)cc(S(=O)(=O)[O-])cc7F)c7ccc4[nH]7)C=C6)C=C5)cc3)cn2)C1
REMARK SMILES IDX 18 1 17 2 16 3 15 4 13 5 14 6 12 8 9 9 10 10 92 11 11 12
REMARK SMILES IDX 91 13 8 14 7 15 4 16 5 17 93 18 6 19 2 21 1 22 3 23 19 25
REMARK SMILES IDX 20 26 21 27 22 28 23 29 24 31 25 32 26 33 90 34 27 35 89 36
REMARK SMILES IDX 28 37 29 38 30 39 83 40 31 41 88 42 82 43 84 44 32 45 87 46
REMARK SMILES IDX 81 47 80 48 33 50 67 51 46 52 66 53 47 54 50 55 65 56 85 57
REMARK SMILES IDX 48 58 49 59 64 61 86 62 51 63 34 64 35 65 44 66 36 67 37 68
REMARK SMILES IDX 43 69 45 70 38 71 39 72 40 73 41 74 42 75 68 76 69 77 78 78
REMARK SMILES IDX 70 79 71 80 77 81 79 82 72 83 73 84 74 85 75 86 76 87 52 88
REMARK SMILES IDX 53 89 62 90 54 91 55 92 61 93 63 94 56 95 57 96 58 97 59 98
REMARK SMILES IDX 60 99
REMARK H PARENT 15 7 7 20 2 24 22 30 84 49 50 60
REMARK Flexibility Score: inf
ROOT
ATOM      1  C   UNL     1       6.656   1.977   4.409  1.00  0.00     0.002 C 
ENDROOT
BRANCH   1   2
ATOM      2  C   UNL     1       5.834   0.742   4.019  1.00  0.00     0.021 C 
BRANCH   2   3
ATOM      3  C   UNL     1       5.101   0.891   2.684  1.00  0.00     0.116 C 
BRANCH   3   4
ATOM      4  N   UNL     1       6.035   0.746   1.580  1.00  0.00    -0.352 N 
ATOM      5  C   UNL     1       6.271  -0.295   0.720  1.00  0.00     0.252 C 
ATOM      6  O   UNL     1       7.109  -0.147  -0.169  1.00  0.00    -0.269 OA
ATOM      7  H   UNL     1       6.600   1.537   1.422  1.00  0.00     0.163 HD
BRANCH   5   8
ATOM      8  C   UNL     1       5.497  -1.553   0.772  1.00  0.00     0.058 A 
ATOM      9  C   UNL     1       3.820  -3.732   0.570  1.00  0.00     0.095 A 
ATOM     10  C   UNL     1       4.189  -3.272   1.834  1.00  0.00     0.030 A 
ATOM     11  N   UNL     1       4.348  -3.215  -0.568  1.00  0.00    -0.255 NA
ATOM     12  C   UNL     1       5.049  -2.178   1.932  1.00  0.00     0.017 A 
ATOM     13  C   UNL     1       5.174  -2.147  -0.441  1.00  0.00     0.125 A 
BRANCH   9  14
ATOM     14  C   UNL     1       2.699  -4.746   0.428  1.00  0.00     0.319 C 
BRANCH  14  15
ATOM     15  N   UNL     1       1.342  -4.228   0.158  1.00  0.00    -0.325 N 
ATOM     16  C   UNL     1       1.156  -1.857   0.607  1.00  0.00     0.245 C 
ATOM     17  C   UNL     1       1.237  -2.054  -0.912  1.00  0.00     0.132 C 
ATOM     18  C   UNL     1       0.818  -3.267   1.141  1.00  0.00     0.328 C 
ATOM     19  C   UNL     1       1.210  -3.562  -1.141  1.00  0.00     0.269 C 
ATOM     20  H   UNL     1       0.803  -5.093   0.197  1.00  0.00     0.348 HD
BRANCH  16  21
ATOM     21  N   UNL     1       0.368  -0.712   1.102  1.00  0.00    -0.333 N 
ATOM     22  C   UNL     1       0.730   0.537   0.430  1.00  0.00     0.332 C 
ATOM     23  C   UNL     1      -1.078  -0.914   1.056  1.00  0.00     0.332 C 
ATOM     24  H   UNL     1       0.617  -0.640   2.088  1.00  0.00     0.348 HD
ENDBRANCH  16  21
ENDBRANCH  14  15
ENDBRANCH   9  14
ENDBRANCH   5   8
ENDBRANCH   3   4
ENDBRANCH   2   3
ENDBRANCH   1   2
BRANCH   1  25
ATOM     25  C   UNL     1       5.837   3.252   4.643  1.00  0.00     0.002 C 
BRANCH  25  26
ATOM     26  C   UNL     1       4.703   3.116   5.662  1.00  0.00     0.021 C 
BRANCH  26  27
ATOM     27  C   UNL     1       5.156   2.710   7.062  1.00  0.00     0.116 C 
BRANCH  27  28
ATOM     28  N   UNL     1       6.002   3.724   7.669  1.00  0.00    -0.352 N 
ATOM     29  C   UNL     1       5.854   4.377   8.867  1.00  0.00     0.251 C 
ATOM     30  H   UNL     1       6.796   3.979   7.146  1.00  0.00     0.163 HD
ATOM     31  O   UNL     1       6.536   5.367   9.112  1.00  0.00    -0.269 OA
BRANCH  29  32
ATOM     32  C   UNL     1       4.866   3.891   9.856  1.00  0.00     0.039 A 
ATOM     33  C   UNL     1       4.080   4.821  10.541  1.00  0.00     0.014 A 
ATOM     34  C   UNL     1       4.736   2.526  10.129  1.00  0.00     0.014 A 
ATOM     35  C   UNL     1       3.135   4.378  11.470  1.00  0.00     0.010 A 
ATOM     36  C   UNL     1       3.744   2.083  10.998  1.00  0.00     0.010 A 
ATOM     37  C   UNL     1       2.943   3.004  11.690  1.00  0.00    -0.014 A 
BRANCH  37  38
ATOM     38  C   UNL     1       1.928   2.515  12.658  1.00  0.00     0.031 A 
ATOM     39  C   UNL     1       2.360   1.759  13.886  1.00  0.00     0.074 A 
ATOM     40  C   UNL     1       0.619   2.709  12.408  1.00  0.00     0.049 A 
ATOM     41  N   UNL     1       1.626   1.216  14.823  1.00  0.00    -0.248 NA
ATOM     42  C   UNL     1       3.807   1.564  14.071  1.00  0.00     0.031 C 
ATOM     43  C   UNL     1       0.075   3.387  11.229  1.00  0.00     0.029 A 
ATOM     44  N   UNL     1      -0.494   2.351  13.127  1.00  0.00    -0.354 N 
ATOM     45  C   UNL     1       2.518   0.608  15.700  1.00  0.00     0.074 A 
ATOM     46  C   UNL     1       3.843   0.796  15.149  1.00  0.00     0.031 C 
ATOM     47  C   UNL     1      -1.264   3.422  11.321  1.00  0.00     0.029 A 
ATOM     48  C   UNL     1      -1.677   2.739  12.543  1.00  0.00     0.049 A 
ATOM     49  H   UNL     1      -0.449   1.863  13.980  1.00  0.00     0.167 HD
ATOM     50  C   UNL     1       2.261  -0.025  16.869  1.00  0.00     0.037 A 
ATOM     51  C   UNL     1      -2.950   2.564  12.948  1.00  0.00     0.037 A 
ATOM     52  C   UNL     1       0.941  -0.190  17.420  1.00  0.00     0.049 A 
ATOM     53  C   UNL     1      -3.213   1.857  14.250  1.00  0.00     0.074 A 
ATOM     54  C   UNL     1       0.574  -0.775  18.620  1.00  0.00     0.029 A 
ATOM     55  N   UNL     1      -0.231   0.230  16.807  1.00  0.00    -0.354 N 
ATOM     56  N   UNL     1      -2.353   1.336  15.094  1.00  0.00    -0.248 NA
ATOM     57  C   UNL     1      -4.617   1.721  14.659  1.00  0.00     0.031 C 
ATOM     58  C   UNL     1      -0.822  -0.747  18.712  1.00  0.00     0.029 A 
ATOM     59  C   UNL     1      -1.323  -0.097  17.595  1.00  0.00     0.049 A 
ATOM     60  H   UNL     1      -0.280   0.693  15.940  1.00  0.00     0.167 HD
ATOM     61  C   UNL     1      -3.111   0.841  16.150  1.00  0.00     0.074 A 
ATOM     62  C   UNL     1      -4.496   1.132  15.841  1.00  0.00     0.031 C 
ATOM     63  C   UNL     1      -2.696   0.206  17.275  1.00  0.00     0.037 A 
BRANCH  50  64
ATOM     64  C   UNL     1       3.435  -0.583  17.629  1.00  0.00     0.058 A 
ATOM     65  C   UNL     1       4.385   0.254  18.239  1.00  0.00     0.135 A 
ATOM     66  C   UNL     1       3.609  -1.970  17.762  1.00  0.00     0.135 A 
ATOM     67  F   UNL     1       4.277   1.588  18.134  1.00  0.00    -0.206 F 
ATOM     68  C   UNL     1       5.485  -0.263  18.915  1.00  0.00     0.059 A 
ATOM     69  C   UNL     1       4.686  -2.510  18.460  1.00  0.00     0.059 A 
ATOM     70  F   UNL     1       2.732  -2.819  17.202  1.00  0.00    -0.206 F 
ATOM     71  C   UNL     1       5.630  -1.647  19.016  1.00  0.00     0.060 A 
BRANCH  71  72
ATOM     72  S   UNL     1       7.071  -2.302  19.883  1.00  0.00     0.124 S 
ATOM     73  O   UNL     1       8.135  -2.036  18.919  1.00  0.00    -0.237 OA
ATOM     74  O   UNL     1       7.100  -1.494  21.098  1.00  0.00    -0.237 OA
ATOM     75  O   UNL     1       6.740  -3.710  20.078  1.00  0.00    -0.744 OA
ENDBRANCH  71  72
ENDBRANCH  50  64
BRANCH  51  76
ATOM     76  C   UNL     1      -4.068   3.104  12.130  1.00  0.00     0.058 A 
ATOM     77  C   UNL     1      -4.814   4.207  12.569  1.00  0.00     0.135 A 
ATOM     78  C   UNL     1      -4.398   2.546  10.885  1.00  0.00     0.135 A 
ATOM     79  F   UNL     1      -4.540   4.772  13.755  1.00  0.00    -0.206 F 
ATOM     80  C   UNL     1      -5.856   4.732  11.812  1.00  0.00     0.059 A 
ATOM     81  C   UNL     1      -5.420   3.069  10.097  1.00  0.00     0.059 A 
ATOM     82  F   UNL     1      -3.704   1.500  10.410  1.00  0.00    -0.206 F 
ATOM     83  C   UNL     1      -6.149   4.157  10.574  1.00  0.00     0.060 A 
BRANCH  83  84
ATOM     84  S   UNL     1      -7.466   4.882   9.574  1.00  0.00     0.124 S 
ATOM     85  O   UNL     1      -8.656   4.463  10.306  1.00  0.00    -0.237 OA
ATOM     86  O   UNL     1      -7.148   6.305   9.633  1.00  0.00    -0.237 OA
ATOM     87  O   UNL     1      -7.276   4.259   8.267  1.00  0.00    -0.744 OA
ENDBRANCH  83  84
ENDBRANCH  51  76
BRANCH  63  88
ATOM     88  C   UNL     1      -3.750  -0.180  18.278  1.00  0.00     0.058 A 
ATOM     89  C   UNL     1      -4.652  -1.228  18.039  1.00  0.00     0.135 A 
ATOM     90  C   UNL     1      -3.828   0.484  19.513  1.00  0.00     0.135 A 
ATOM     91  F   UNL     1      -4.623  -1.892  16.872  1.00  0.00    -0.206 F 
ATOM     92  C   UNL     1      -5.615  -1.585  18.977  1.00  0.00     0.059 A 
ATOM     93  C   UNL     1      -4.764   0.124  20.478  1.00  0.00     0.059 A 
ATOM     94  F   UNL     1      -2.982   1.486  19.798  1.00  0.00    -0.206 F 
ATOM     95  C   UNL     1      -5.663  -0.903  20.194  1.00  0.00     0.060 A 
BRANCH  95  96
ATOM     96  S   UNL     1      -6.903  -1.391  21.412  1.00  0.00     0.124 S 
ATOM     97  O   UNL     1      -8.121  -0.841  20.828  1.00  0.00    -0.237 OA
ATOM     98  O   UNL     1      -6.795  -2.846  21.402  1.00  0.00    -0.237 OA
ATOM     99  O   UNL     1      -6.447  -0.743  22.639  1.00  0.00    -0.744 OA
ENDBRANCH  95  96
ENDBRANCH  63  88
ENDBRANCH  37  38
ENDBRANCH  29  32
ENDBRANCH  27  28
ENDBRANCH  26  27
ENDBRANCH  25  26
ENDBRANCH   1  25
TORSDOF 19
