REMARK SMILES C=CCOc1ccc(C(=O)N2CCC[C@H]2C(=O)NCCCCCCNC(=O)c2ccc(-c3c4nc(c(-c5c(F)cc(S(=O)(=O)[O-])cc5F)c5ccc([nH]5)c(-c5c(F)cc(S(=O)(=O)[O-])cc5F)c5nc(c(-c6c(F)cc(S(=O)(=O)[O-])cc6F)c6ccc3[nH]6)C=C5)C=C4)cc2)cc1
REMARK SMILES IDX 20 1 19 2 18 3 16 4 17 5 15 7 11 8 12 9 13 10 14 11 9 12
REMARK SMILES IDX 10 13 8 14 5 15 6 16 95 17 7 18 94 19 4 20 3 21 2 22 1 23
REMARK SMILES IDX 21 24 22 25 23 26 24 27 25 28 26 29 27 31 28 32 29 33 93 34
REMARK SMILES IDX 30 35 92 36 31 37 32 38 33 39 86 40 34 41 91 42 85 43 87 44
REMARK SMILES IDX 35 45 90 46 84 47 83 48 36 50 70 51 49 52 69 53 50 54 53 55
REMARK SMILES IDX 68 56 88 57 51 58 52 59 67 61 89 62 54 63 37 64 38 65 47 66
REMARK SMILES IDX 39 67 40 68 46 69 48 70 41 71 42 72 43 73 44 74 45 75 71 76
REMARK SMILES IDX 72 77 81 78 73 79 74 80 80 81 82 82 75 83 76 84 77 85 78 86
REMARK SMILES IDX 79 87 55 88 56 89 65 90 57 91 58 92 64 93 66 94 59 95 60 96
REMARK SMILES IDX 61 97 62 98 63 99
REMARK H PARENT 18 6 25 30 87 49 53 60
REMARK Flexibility Score: inf
ROOT
ATOM      1  C   UNL     1      -1.399  -2.831   8.886  1.00  0.00     0.021 C 
ENDROOT
BRANCH   1   2
ATOM      2  C   UNL     1       0.086  -2.473   8.854  1.00  0.00     0.116 C 
BRANCH   2   3
ATOM      3  N   UNL     1       0.909  -3.664   8.884  1.00  0.00    -0.354 N 
ATOM      4  C   UNL     1       1.545  -4.354   7.904  1.00  0.00     0.242 C 
ATOM      5  O   UNL     1       2.018  -5.452   8.234  1.00  0.00    -0.273 OA
ATOM      6  H   UNL     1       1.028  -4.045   9.784  1.00  0.00     0.163 HD
BRANCH   4   7
ATOM      7  C   UNL     1       1.763  -3.841   6.459  1.00  0.00     0.174 C 
ATOM      8  N   UNL     1       1.314  -2.520   6.037  1.00  0.00    -0.327 N 
ATOM      9  C   UNL     1       2.413  -1.575   6.145  1.00  0.00     0.121 C 
ATOM     10  C   UNL     1       3.581  -2.398   5.644  1.00  0.00     0.024 C 
ATOM     11  C   UNL     1       3.289  -3.798   6.192  1.00  0.00     0.037 C 
BRANCH   8  12
ATOM     12  C   UNL     1       0.053  -2.365   5.483  1.00  0.00     0.254 C 
ATOM     13  O   UNL     1      -0.841  -3.191   5.661  1.00  0.00    -0.269 OA
BRANCH  12  14
ATOM     14  C   UNL     1      -0.234  -1.216   4.589  1.00  0.00     0.040 A 
ATOM     15  C   UNL     1      -0.883   0.729   2.692  1.00  0.00     0.119 A 
ATOM     16  C   UNL     1      -1.835   0.341   3.633  1.00  0.00     0.047 A 
ATOM     17  C   UNL     1       0.403   0.199   2.737  1.00  0.00     0.047 A 
ATOM     18  C   UNL     1      -1.512  -0.638   4.582  1.00  0.00     0.017 A 
ATOM     19  C   UNL     1       0.708  -0.809   3.642  1.00  0.00     0.017 A 
BRANCH  15  20
ATOM     20  O   UNL     1      -1.226   1.650   1.739  1.00  0.00    -0.490 OA
BRANCH  20  21
ATOM     21  C   UNL     1      -1.221   1.086   0.415  1.00  0.00     0.257 C 
BRANCH  21  22
ATOM     22  C   UNL     1       0.126   1.250  -0.238  1.00  0.00     0.006 C 
ATOM     23  C   UNL     1       0.862   0.241  -0.726  1.00  0.00     0.007 C 
ENDBRANCH  21  22
ENDBRANCH  20  21
ENDBRANCH  15  20
ENDBRANCH  12  14
ENDBRANCH   8  12
ENDBRANCH   4   7
ENDBRANCH   2   3
ENDBRANCH   1   2
BRANCH   1  24
ATOM     24  C   UNL     1      -1.927  -3.111  10.298  1.00  0.00     0.002 C 
BRANCH  24  25
ATOM     25  C   UNL     1      -1.803  -1.938  11.279  1.00  0.00     0.002 C 
BRANCH  25  26
ATOM     26  C   UNL     1      -2.418  -0.621  10.797  1.00  0.00     0.021 C 
BRANCH  26  27
ATOM     27  C   UNL     1      -3.915  -0.693  10.514  1.00  0.00     0.116 C 
BRANCH  27  28
ATOM     28  N   UNL     1      -4.669  -1.019  11.715  1.00  0.00    -0.352 N 
ATOM     29  C   UNL     1      -5.649  -0.299  12.350  1.00  0.00     0.251 C 
ATOM     30  H   UNL     1      -4.443  -1.882  12.132  1.00  0.00     0.163 HD
ATOM     31  O   UNL     1      -5.991  -0.601  13.489  1.00  0.00    -0.269 OA
BRANCH  29  32
ATOM     32  C   UNL     1      -6.287   0.842  11.659  1.00  0.00     0.039 A 
ATOM     33  C   UNL     1      -6.522   2.022  12.370  1.00  0.00     0.014 A 
ATOM     34  C   UNL     1      -6.679   0.735  10.322  1.00  0.00     0.014 A 
ATOM     35  C   UNL     1      -7.109   3.112  11.723  1.00  0.00     0.010 A 
ATOM     36  C   UNL     1      -7.201   1.843   9.662  1.00  0.00     0.010 A 
ATOM     37  C   UNL     1      -7.430   3.039  10.358  1.00  0.00    -0.014 A 
BRANCH  37  38
ATOM     38  C   UNL     1      -8.025   4.195   9.641  1.00  0.00     0.031 A 
ATOM     39  C   UNL     1      -9.418   4.094   9.080  1.00  0.00     0.074 A 
ATOM     40  C   UNL     1      -7.290   5.307   9.443  1.00  0.00     0.049 A 
ATOM     41  N   UNL     1     -10.079   4.954   8.350  1.00  0.00    -0.248 NA
ATOM     42  C   UNL     1     -10.154   2.849   9.354  1.00  0.00     0.031 C 
ATOM     43  C   UNL     1      -5.916   5.508   9.906  1.00  0.00     0.029 A 
ATOM     44  N   UNL     1      -7.593   6.475   8.789  1.00  0.00    -0.354 N 
ATOM     45  C   UNL     1     -11.300   4.352   8.067  1.00  0.00     0.074 A 
ATOM     46  C   UNL     1     -11.267   3.033   8.659  1.00  0.00     0.031 C 
ATOM     47  C   UNL     1      -5.502   6.731   9.539  1.00  0.00     0.029 A 
ATOM     48  C   UNL     1      -6.563   7.387   8.782  1.00  0.00     0.049 A 
ATOM     49  H   UNL     1      -8.464   6.644   8.364  1.00  0.00     0.167 HD
ATOM     50  C   UNL     1     -12.361   4.862   7.398  1.00  0.00     0.037 A 
ATOM     51  C   UNL     1      -6.483   8.609   8.222  1.00  0.00     0.037 A 
ATOM     52  C   UNL     1     -12.394   6.186   6.833  1.00  0.00     0.049 A 
ATOM     53  C   UNL     1      -7.672   9.151   7.475  1.00  0.00     0.074 A 
ATOM     54  C   UNL     1     -13.434   6.814   6.171  1.00  0.00     0.029 A 
ATOM     55  N   UNL     1     -11.340   7.088   6.866  1.00  0.00    -0.354 N 
ATOM     56  N   UNL     1      -8.836   8.586   7.257  1.00  0.00    -0.248 NA
ATOM     57  C   UNL     1      -7.540  10.498   6.902  1.00  0.00     0.031 C 
ATOM     58  C   UNL     1     -12.997   8.082   5.772  1.00  0.00     0.029 A 
ATOM     59  C   UNL     1     -11.700   8.261   6.226  1.00  0.00     0.049 A 
ATOM     60  H   UNL     1     -10.464   6.918   7.284  1.00  0.00     0.167 HD
ATOM     61  C   UNL     1      -9.586   9.520   6.551  1.00  0.00     0.074 A 
ATOM     62  C   UNL     1      -8.746  10.689   6.385  1.00  0.00     0.031 C 
ATOM     63  C   UNL     1     -10.855   9.421   6.083  1.00  0.00     0.037 A 
BRANCH  50  64
ATOM     64  C   UNL     1     -13.577   3.989   7.249  1.00  0.00     0.058 A 
ATOM     65  C   UNL     1     -14.396   3.677   8.346  1.00  0.00     0.135 A 
ATOM     66  C   UNL     1     -13.947   3.483   5.992  1.00  0.00     0.135 A 
ATOM     67  F   UNL     1     -14.080   4.120   9.573  1.00  0.00    -0.206 F 
ATOM     68  C   UNL     1     -15.521   2.871   8.209  1.00  0.00     0.059 A 
ATOM     69  C   UNL     1     -15.085   2.698   5.827  1.00  0.00     0.059 A 
ATOM     70  F   UNL     1     -13.200   3.750   4.909  1.00  0.00    -0.206 F 
ATOM     71  C   UNL     1     -15.857   2.385   6.944  1.00  0.00     0.060 A 
BRANCH  71  72
ATOM     72  S   UNL     1     -17.324   1.346   6.783  1.00  0.00     0.124 S 
ATOM     73  O   UNL     1     -16.863   0.098   7.383  1.00  0.00    -0.237 OA
ATOM     74  O   UNL     1     -18.320   2.088   7.550  1.00  0.00    -0.237 OA
ATOM     75  O   UNL     1     -17.553   1.302   5.342  1.00  0.00    -0.744 OA
ENDBRANCH  71  72
ENDBRANCH  50  64
BRANCH  51  76
ATOM     76  C   UNL     1      -5.241   9.415   8.366  1.00  0.00     0.058 A 
ATOM     77  C   UNL     1      -5.218  10.564   9.169  1.00  0.00     0.135 A 
ATOM     78  C   UNL     1      -4.054   9.053   7.710  1.00  0.00     0.135 A 
ATOM     79  F   UNL     1      -6.329  10.954   9.813  1.00  0.00    -0.206 F 
ATOM     80  C   UNL     1      -4.071  11.339   9.302  1.00  0.00     0.059 A 
ATOM     81  C   UNL     1      -2.887   9.798   7.847  1.00  0.00     0.059 A 
ATOM     82  F   UNL     1      -4.018   7.952   6.943  1.00  0.00    -0.206 F 
ATOM     83  C   UNL     1      -2.909  10.947   8.636  1.00  0.00     0.060 A 
BRANCH  83  84
ATOM     84  S   UNL     1      -1.414  11.939   8.844  1.00  0.00     0.124 S 
ATOM     85  O   UNL     1      -1.725  13.111   8.034  1.00  0.00    -0.237 OA
ATOM     86  O   UNL     1      -1.383  12.150  10.288  1.00  0.00    -0.237 OA
ATOM     87  O   UNL     1      -0.361  11.072   8.323  1.00  0.00    -0.744 OA
ENDBRANCH  83  84
ENDBRANCH  51  76
BRANCH  63  88
ATOM     88  C   UNL     1     -11.431  10.621   5.386  1.00  0.00     0.058 A 
ATOM     89  C   UNL     1     -11.030  10.989   4.093  1.00  0.00     0.135 A 
ATOM     90  C   UNL     1     -12.440  11.380   6.002  1.00  0.00     0.135 A 
ATOM     91  F   UNL     1     -10.065  10.300   3.464  1.00  0.00    -0.206 F 
ATOM     92  C   UNL     1     -11.595  12.080   3.441  1.00  0.00     0.059 A 
ATOM     93  C   UNL     1     -13.038  12.459   5.358  1.00  0.00     0.059 A 
ATOM     94  F   UNL     1     -12.867  11.065   7.235  1.00  0.00    -0.206 F 
ATOM     95  C   UNL     1     -12.600  12.808   4.082  1.00  0.00     0.060 A 
BRANCH  95  96
ATOM     96  S   UNL     1     -13.352  14.198   3.209  1.00  0.00     0.124 S 
ATOM     97  O   UNL     1     -12.300  15.206   3.301  1.00  0.00    -0.237 OA
ATOM     98  O   UNL     1     -13.585  13.644   1.879  1.00  0.00    -0.237 OA
ATOM     99  O   UNL     1     -14.557  14.475   3.986  1.00  0.00    -0.744 OA
ENDBRANCH  95  96
ENDBRANCH  63  88
ENDBRANCH  37  38
ENDBRANCH  29  32
ENDBRANCH  27  28
ENDBRANCH  26  27
ENDBRANCH  25  26
ENDBRANCH  24  25
ENDBRANCH   1  24
TORSDOF 21
