REMARK SMILES O=C(NCCCCCCNC(=O)[C@@H]1CCCN1C(=O)[C@@H]1CCCN1C(=O)OCC1c2ccccc2-c2ccccc21)c1ccc(-c2c3nc(c(-c4c(F)cc(S(=O)(=O)[O-])cc4F)c4ccc([nH]4)c(-c4c(F)cc(S(=O)(=O)[O-])cc4F)c4nc(c(-c5c(F)cc(S(=O)(=O)[O-])cc5F)c5ccc2[nH]5)C=C4)C=C3)cc1
REMARK SMILES IDX 8 1 7 2 6 3 5 4 4 5 3 6 1 7 2 8 42 10 43 11 107 12 44 13
REMARK SMILES IDX 106 14 45 15 46 16 47 17 100 18 48 19 105 20 99 21 101 22
REMARK SMILES IDX 49 23 104 24 98 25 97 26 50 28 84 29 63 30 83 31 64 32 67 33
REMARK SMILES IDX 82 34 102 35 65 36 66 37 81 39 103 40 68 41 51 42 52 43
REMARK SMILES IDX 61 44 53 45 54 46 60 47 62 48 55 49 56 50 57 51 58 52 59 53
REMARK SMILES IDX 85 54 86 55 95 56 87 57 88 58 94 59 96 60 89 61 90 62 91 63
REMARK SMILES IDX 92 64 93 65 69 66 70 67 79 68 71 69 72 70 78 71 80 72 73 73
REMARK SMILES IDX 74 74 75 75 76 76 77 77 9 78 10 79 11 80 12 82 13 83 14 84
REMARK SMILES IDX 17 85 15 86 16 87 18 88 19 89 20 90 21 91 24 92 22 93 23 94
REMARK SMILES IDX 25 95 26 96 27 97 28 98 29 99 30 100 41 101 31 102 35 103
REMARK SMILES IDX 36 104 40 105 32 106 34 107 37 108 39 109 33 110 38 111
REMARK H PARENT 3 9 101 27 67 38 10 81
REMARK Flexibility Score: inf
ROOT
ATOM      1  C   UNL     1       5.908   3.455   2.341  1.00  0.00     0.021 C 
ENDROOT
BRANCH   1   2
ATOM      2  C   UNL     1       4.442   3.741   1.985  1.00  0.00     0.002 C 
BRANCH   2   3
ATOM      3  C   UNL     1       4.112   3.860   0.492  1.00  0.00     0.002 C 
BRANCH   3   4
ATOM      4  C   UNL     1       4.627   2.732  -0.401  1.00  0.00     0.021 C 
BRANCH   4   5
ATOM      5  C   UNL     1       4.307   1.325   0.078  1.00  0.00     0.116 C 
BRANCH   5   6
ATOM      6  N   UNL     1       2.885   1.068   0.200  1.00  0.00    -0.352 N 
ATOM      7  O   UNL     1       0.984  -0.125  -0.059  1.00  0.00    -0.269 OA
ATOM      8  C   UNL     1       2.208  -0.083  -0.124  1.00  0.00     0.251 C 
ATOM      9  H   UNL     1       2.341   1.805   0.559  1.00  0.00     0.163 HD
BRANCH   8  10
ATOM     10  C   UNL     1       2.979  -1.259  -0.582  1.00  0.00     0.039 A 
ATOM     11  C   UNL     1       4.106  -1.684   0.127  1.00  0.00     0.014 A 
ATOM     12  C   UNL     1       2.583  -1.923  -1.745  1.00  0.00     0.014 A 
ATOM     13  C   UNL     1       4.902  -2.698  -0.388  1.00  0.00     0.010 A 
ATOM     14  C   UNL     1       3.335  -3.003  -2.213  1.00  0.00     0.010 A 
ATOM     15  C   UNL     1       4.505  -3.392  -1.543  1.00  0.00    -0.014 A 
BRANCH  15  16
ATOM     16  C   UNL     1       5.258  -4.605  -1.948  1.00  0.00     0.031 A 
ATOM     17  C   UNL     1       5.995  -4.676  -3.254  1.00  0.00     0.074 A 
ATOM     18  C   UNL     1       5.259  -5.653  -1.099  1.00  0.00     0.049 A 
ATOM     19  N   UNL     1       6.679  -5.673  -3.753  1.00  0.00    -0.248 NA
ATOM     20  C   UNL     1       5.957  -3.485  -4.117  1.00  0.00     0.031 C 
ATOM     21  C   UNL     1       4.553  -5.694   0.187  1.00  0.00     0.029 A 
ATOM     22  N   UNL     1       5.871  -6.876  -1.175  1.00  0.00    -0.354 N 
ATOM     23  C   UNL     1       7.136  -5.244  -4.993  1.00  0.00     0.074 A 
ATOM     24  C   UNL     1       6.641  -3.896  -5.179  1.00  0.00     0.031 C 
ATOM     25  C   UNL     1       4.800  -6.864   0.791  1.00  0.00     0.029 A 
ATOM     26  C   UNL     1       5.617  -7.685  -0.092  1.00  0.00     0.049 A 
ATOM     27  H   UNL     1       6.437  -7.151  -1.932  1.00  0.00     0.167 HD
ATOM     28  C   UNL     1       7.898  -5.918  -5.887  1.00  0.00     0.037 A 
ATOM     29  C   UNL     1       5.972  -8.959   0.152  1.00  0.00     0.037 A 
ATOM     30  C   UNL     1       8.396  -7.255  -5.674  1.00  0.00     0.049 A 
ATOM     31  C   UNL     1       6.799  -9.684  -0.869  1.00  0.00     0.074 A 
ATOM     32  C   UNL     1       9.226  -8.002  -6.493  1.00  0.00     0.029 A 
ATOM     33  N   UNL     1       8.107  -8.048  -4.573  1.00  0.00    -0.354 N 
ATOM     34  N   UNL     1       7.268  -9.240  -2.011  1.00  0.00    -0.248 NA
ATOM     35  C   UNL     1       7.141 -11.080  -0.576  1.00  0.00     0.031 C 
ATOM     36  C   UNL     1       9.393  -9.264  -5.915  1.00  0.00     0.029 A 
ATOM     37  C   UNL     1       8.714  -9.287  -4.707  1.00  0.00     0.049 A 
ATOM     38  H   UNL     1       7.551  -7.772  -3.808  1.00  0.00     0.167 HD
ATOM     39  C   UNL     1       7.972 -10.300  -2.567  1.00  0.00     0.074 A 
ATOM     40  C   UNL     1       7.890 -11.396  -1.623  1.00  0.00     0.031 C 
ATOM     41  C   UNL     1       8.621 -10.365  -3.755  1.00  0.00     0.037 A 
BRANCH  28  42
ATOM     42  C   UNL     1       8.242  -5.247  -7.189  1.00  0.00     0.058 A 
ATOM     43  C   UNL     1       9.193  -4.218  -7.262  1.00  0.00     0.135 A 
ATOM     44  C   UNL     1       7.692  -5.717  -8.394  1.00  0.00     0.135 A 
ATOM     45  F   UNL     1       9.739  -3.721  -6.141  1.00  0.00    -0.206 F 
ATOM     46  C   UNL     1       9.588  -3.680  -8.484  1.00  0.00     0.059 A 
ATOM     47  C   UNL     1       8.089  -5.209  -9.628  1.00  0.00     0.059 A 
ATOM     48  F   UNL     1       6.776  -6.698  -8.380  1.00  0.00    -0.206 F 
ATOM     49  C   UNL     1       9.037  -4.188  -9.662  1.00  0.00     0.060 A 
BRANCH  49  50
ATOM     50  S   UNL     1       9.604  -3.516 -11.239  1.00  0.00     0.124 S 
ATOM     51  O   UNL     1       9.005  -2.185 -11.221  1.00  0.00    -0.237 OA
ATOM     52  O   UNL     1      11.055  -3.559 -11.092  1.00  0.00    -0.237 OA
ATOM     53  O   UNL     1       9.049  -4.439 -12.224  1.00  0.00    -0.744 OA
ENDBRANCH  49  50
ENDBRANCH  28  42
BRANCH  29  54
ATOM     54  C   UNL     1       5.512  -9.637   1.392  1.00  0.00     0.058 A 
ATOM     55  C   UNL     1       6.418 -10.018   2.391  1.00  0.00     0.135 A 
ATOM     56  C   UNL     1       4.152  -9.920   1.600  1.00  0.00     0.135 A 
ATOM     57  F   UNL     1       7.728  -9.769   2.239  1.00  0.00    -0.206 F 
ATOM     58  C   UNL     1       5.999 -10.686   3.537  1.00  0.00     0.059 A 
ATOM     59  C   UNL     1       3.704 -10.556   2.752  1.00  0.00     0.059 A 
ATOM     60  F   UNL     1       3.240  -9.555   0.685  1.00  0.00    -0.206 F 
ATOM     61  C   UNL     1       4.639 -10.954   3.706  1.00  0.00     0.060 A 
BRANCH  61  62
ATOM     62  S   UNL     1       4.102 -11.812   5.200  1.00  0.00     0.124 S 
ATOM     63  O   UNL     1       4.527 -13.178   4.919  1.00  0.00    -0.237 OA
ATOM     64  O   UNL     1       4.846 -11.112   6.242  1.00  0.00    -0.237 OA
ATOM     65  O   UNL     1       2.659 -11.588   5.213  1.00  0.00    -0.744 OA
ENDBRANCH  61  62
ENDBRANCH  29  54
BRANCH  41  66
ATOM     66  C   UNL     1       9.311 -11.658  -4.085  1.00  0.00     0.058 A 
ATOM     67  C   UNL     1       8.588 -12.810  -4.428  1.00  0.00     0.135 A 
ATOM     68  C   UNL     1      10.713 -11.735  -4.087  1.00  0.00     0.135 A 
ATOM     69  F   UNL     1       7.246 -12.791  -4.430  1.00  0.00    -0.206 F 
ATOM     70  C   UNL     1       9.230 -14.004  -4.736  1.00  0.00     0.059 A 
ATOM     71  C   UNL     1      11.377 -12.911  -4.421  1.00  0.00     0.059 A 
ATOM     72  F   UNL     1      11.451 -10.659  -3.773  1.00  0.00    -0.206 F 
ATOM     73  C   UNL     1      10.626 -14.044  -4.731  1.00  0.00     0.060 A 
BRANCH  73  74
ATOM     74  S   UNL     1      11.448 -15.593  -5.158  1.00  0.00     0.124 S 
ATOM     75  O   UNL     1      11.214 -16.390  -3.958  1.00  0.00    -0.237 OA
ATOM     76  O   UNL     1      10.720 -16.014  -6.351  1.00  0.00    -0.237 OA
ATOM     77  O   UNL     1      12.833 -15.191  -5.385  1.00  0.00    -0.744 OA
ENDBRANCH  73  74
ENDBRANCH  41  66
ENDBRANCH  15  16
ENDBRANCH   8  10
ENDBRANCH   5   6
ENDBRANCH   4   5
ENDBRANCH   3   4
ENDBRANCH   2   3
ENDBRANCH   1   2
BRANCH   1  78
ATOM     78  C   UNL     1       6.902   4.456   1.773  1.00  0.00     0.116 C 
BRANCH  78  79
ATOM     79  N   UNL     1       6.835   5.736   2.447  1.00  0.00    -0.354 N 
ATOM     80  C   UNL     1       7.483   6.810   1.907  1.00  0.00     0.242 C 
ATOM     81  H   UNL     1       6.328   5.830   3.286  1.00  0.00     0.163 HD
ATOM     82  O   UNL     1       6.744   7.604   1.329  1.00  0.00    -0.273 OA
BRANCH  80  83
ATOM     83  C   UNL     1       9.013   7.012   2.061  1.00  0.00     0.174 C 
ATOM     84  C   UNL     1       9.682   5.785   2.709  1.00  0.00     0.037 C 
ATOM     85  N   UNL     1       9.572   8.117   2.886  1.00  0.00    -0.329 N 
ATOM     86  C   UNL     1      11.060   6.255   3.110  1.00  0.00     0.024 C 
ATOM     87  C   UNL     1      10.846   7.705   3.472  1.00  0.00     0.120 C 
BRANCH  85  88
ATOM     88  C   UNL     1       9.363   9.479   2.904  1.00  0.00     0.246 C 
ATOM     89  O   UNL     1      10.072  10.180   3.651  1.00  0.00    -0.272 OA
BRANCH  88  90
ATOM     90  C   UNL     1       8.200  10.210   2.222  1.00  0.00     0.178 C 
ATOM     91  C   UNL     1       6.891   9.999   2.994  1.00  0.00     0.037 C 
ATOM     92  N   UNL     1       7.847  10.024   0.833  1.00  0.00    -0.296 N 
ATOM     93  C   UNL     1       5.770  10.223   1.979  1.00  0.00     0.024 C 
ATOM     94  C   UNL     1       6.449  10.336   0.620  1.00  0.00     0.124 C 
BRANCH  92  95
ATOM     95  C   UNL     1       8.729  10.096  -0.216  1.00  0.00     0.410 C 
ATOM     96  O   UNL     1       8.411  10.486  -1.333  1.00  0.00    -0.224 OA
BRANCH  95  97
ATOM     97  O   UNL     1       9.973   9.639   0.107  1.00  0.00    -0.448 OA
BRANCH  97  98
ATOM     98  C   UNL     1      10.927   9.624  -0.971  1.00  0.00     0.248 C 
BRANCH  98  99
ATOM     99  C   UNL     1      11.119   8.263  -1.681  1.00  0.00     0.088 C 
ATOM    100  C   UNL     1      12.289   7.433  -1.142  1.00  0.00    -0.029 A 
ATOM    101  C   UNL     1       9.986   7.242  -1.651  1.00  0.00    -0.029 A 
ATOM    102  C   UNL     1      13.624   7.793  -1.025  1.00  0.00     0.005 A 
ATOM    103  C   UNL     1      11.868   6.115  -0.866  1.00  0.00    -0.014 A 
ATOM    104  C   UNL     1      10.464   5.995  -1.183  1.00  0.00    -0.014 A 
ATOM    105  C   UNL     1       8.672   7.379  -2.067  1.00  0.00     0.005 A 
ATOM    106  C   UNL     1      14.535   6.826  -0.590  1.00  0.00     0.000 A 
ATOM    107  C   UNL     1      12.769   5.162  -0.417  1.00  0.00     0.009 A 
ATOM    108  C   UNL     1       9.631   4.889  -1.119  1.00  0.00     0.009 A 
ATOM    109  C   UNL     1       7.826   6.270  -1.984  1.00  0.00     0.000 A 
ATOM    110  C   UNL     1      14.110   5.526  -0.278  1.00  0.00     0.001 A 
ATOM    111  C   UNL     1       8.305   5.034  -1.528  1.00  0.00     0.001 A 
ENDBRANCH  98  99
ENDBRANCH  97  98
ENDBRANCH  95  97
ENDBRANCH  92  95
ENDBRANCH  88  90
ENDBRANCH  85  88
ENDBRANCH  80  83
ENDBRANCH  78  79
ENDBRANCH   1  78
TORSDOF 22
