REMARK SMILES CCCc1cc(OC(F)(F)F)cc2c1O[C@H](C(F)(F)F)C(C(=O)NCCCCCCNC(=O)c1ccc(-c3c4nc(c(-c5c(F)cc(S(=O)(=O)[O-])cc5F)c5ccc([nH]5)c(-c5c(F)cc(S(=O)(=O)[O-])cc5F)c5nc(c(-c6c(F)cc(S(=O)(=O)[O-])cc6F)c6ccc3[nH]6)C=C5)C=C4)cc1)=C2
REMARK SMILES IDX 28 1 27 2 26 3 25 4 24 5 22 6 23 7 21 9 4 10 5 11 14 12 6 13
REMARK SMILES IDX 13 14 15 15 12 16 100 17 16 18 3 19 2 20 1 21 7 22 8 23 9 24
REMARK SMILES IDX 10 25 11 26 17 27 18 28 19 29 20 30 29 31 30 32 31 33 32 34
REMARK SMILES IDX 33 36 34 37 35 38 99 39 36 40 98 41 37 42 38 43 39 44 92 45
REMARK SMILES IDX 40 46 97 47 91 48 93 49 41 50 96 51 90 52 89 53 42 55 76 56
REMARK SMILES IDX 55 57 75 58 56 59 59 60 74 61 94 62 57 63 58 64 73 66 95 67
REMARK SMILES IDX 60 68 43 69 44 70 53 71 45 72 46 73 52 74 54 75 47 76 48 77
REMARK SMILES IDX 49 78 50 79 51 80 77 81 78 82 87 83 79 84 80 85 86 86 88 87
REMARK SMILES IDX 81 88 82 89 83 90 84 91 85 92 61 93 62 94 71 95 63 96 64 97
REMARK SMILES IDX 70 98 72 99 65 100 66 101 67 102 68 103 69 104
REMARK H PARENT 24 8 31 35 93 54 59 65
REMARK Flexibility Score: inf
ROOT
ATOM      1  C   UNL     1      -1.457  -4.979  10.938  1.00  0.00     0.002 C 
ENDROOT
BRANCH   1   2
ATOM      2  C   UNL     1      -2.425  -4.894   9.751  1.00  0.00     0.002 C 
BRANCH   2   3
ATOM      3  C   UNL     1      -1.917  -4.061   8.568  1.00  0.00     0.021 C 
BRANCH   3   4
ATOM      4  C   UNL     1      -0.679  -4.664   7.899  1.00  0.00     0.116 C 
BRANCH   4   5
ATOM      5  N   UNL     1      -1.071  -5.705   6.967  1.00  0.00    -0.352 N 
ATOM      6  C   UNL     1      -1.282  -5.718   5.628  1.00  0.00     0.251 C 
ATOM      7  O   UNL     1      -1.598  -6.792   5.117  1.00  0.00    -0.270 OA
ATOM      8  H   UNL     1      -1.214  -6.580   7.395  1.00  0.00     0.163 HD
BRANCH   6   9
ATOM      9  C   UNL     1      -1.023  -4.544   4.746  1.00  0.00     0.067 C 
ATOM     10  C   UNL     1       0.686  -1.731   2.126  1.00  0.00    -0.002 A 
ATOM     11  C   UNL     1       0.819  -0.407   2.580  1.00  0.00     0.054 A 
ATOM     12  C   UNL     1       0.052  -2.665   2.963  1.00  0.00     0.131 A 
ATOM     13  C   UNL     1       0.261   0.008   3.788  1.00  0.00     0.130 A 
ATOM     14  C   UNL     1      -0.487  -2.265   4.192  1.00  0.00     0.021 A 
ATOM     15  O   UNL     1       0.075  -3.980   2.580  1.00  0.00    -0.475 OA
ATOM     16  C   UNL     1      -0.392  -0.927   4.590  1.00  0.00     0.058 A 
ATOM     17  C   UNL     1      -1.014  -3.259   5.122  1.00  0.00     0.025 C 
ATOM     18  C   UNL     1      -0.790  -4.906   3.290  1.00  0.00     0.314 C 
BRANCH  10  19
ATOM     19  C   UNL     1       1.269  -2.117   0.781  1.00  0.00     0.039 C 
BRANCH  19  20
ATOM     20  C   UNL     1       0.582  -1.468  -0.432  1.00  0.00     0.001 C 
ATOM     21  C   UNL     1       0.955  -0.010  -0.671  1.00  0.00     0.004 C 
ENDBRANCH  19  20
ENDBRANCH  10  19
BRANCH  13  22
ATOM     22  O   UNL     1       0.318   1.269   4.309  1.00  0.00    -0.406 OA
BRANCH  22  23
ATOM     23  C   UNL     1       0.679   2.322   3.428  1.00  0.00     0.573 C 
ATOM     24  F   UNL     1       1.976   2.224   3.062  1.00  0.00    -0.132 F 
ATOM     25  F   UNL     1      -0.098   2.322   2.323  1.00  0.00    -0.132 F 
ATOM     26  F   UNL     1       0.508   3.501   4.062  1.00  0.00    -0.132 F 
ENDBRANCH  22  23
ENDBRANCH  13  22
BRANCH  18  27
ATOM     27  C   UNL     1      -2.111  -5.069   2.510  1.00  0.00     0.429 C 
ATOM     28  F   UNL     1      -2.854  -3.935   2.527  1.00  0.00    -0.167 F 
ATOM     29  F   UNL     1      -1.869  -5.362   1.206  1.00  0.00    -0.167 F 
ATOM     30  F   UNL     1      -2.897  -6.060   2.983  1.00  0.00    -0.167 F 
ENDBRANCH  18  27
ENDBRANCH   6   9
ENDBRANCH   4   5
ENDBRANCH   3   4
ENDBRANCH   2   3
ENDBRANCH   1   2
BRANCH   1  31
ATOM     31  C   UNL     1      -1.004  -3.628  11.502  1.00  0.00     0.021 C 
BRANCH  31  32
ATOM     32  C   UNL     1      -2.137  -2.763  12.045  1.00  0.00     0.116 C 
BRANCH  32  33
ATOM     33  N   UNL     1      -2.771  -3.380  13.200  1.00  0.00    -0.352 N 
ATOM     34  C   UNL     1      -2.932  -2.883  14.469  1.00  0.00     0.251 C 
ATOM     35  H   UNL     1      -3.135  -4.282  13.050  1.00  0.00     0.163 HD
ATOM     36  O   UNL     1      -3.264  -3.633  15.381  1.00  0.00    -0.269 OA
BRANCH  34  37
ATOM     37  C   UNL     1      -2.701  -1.446  14.732  1.00  0.00     0.039 A 
ATOM     38  C   UNL     1      -2.003  -1.071  15.882  1.00  0.00     0.014 A 
ATOM     39  C   UNL     1      -3.199  -0.472  13.862  1.00  0.00     0.014 A 
ATOM     40  C   UNL     1      -1.770   0.282  16.140  1.00  0.00     0.010 A 
ATOM     41  C   UNL     1      -2.908   0.871  14.085  1.00  0.00     0.010 A 
ATOM     42  C   UNL     1      -2.203   1.263  15.232  1.00  0.00    -0.014 A 
BRANCH  42  43
ATOM     43  C   UNL     1      -1.952   2.705  15.481  1.00  0.00     0.031 A 
ATOM     44  C   UNL     1      -3.108   3.640  15.712  1.00  0.00     0.074 A 
ATOM     45  C   UNL     1      -0.692   3.180  15.442  1.00  0.00     0.049 A 
ATOM     46  N   UNL     1      -3.101   4.937  15.880  1.00  0.00    -0.248 NA
ATOM     47  C   UNL     1      -4.453   3.042  15.727  1.00  0.00     0.031 C 
ATOM     48  C   UNL     1       0.506   2.380  15.180  1.00  0.00     0.029 A 
ATOM     49  N   UNL     1      -0.209   4.452  15.614  1.00  0.00    -0.354 N 
ATOM     50  C   UNL     1      -4.434   5.311  16.005  1.00  0.00     0.074 A 
ATOM     51  C   UNL     1      -5.226   4.112  15.841  1.00  0.00     0.031 C 
ATOM     52  C   UNL     1       1.586   3.176  15.227  1.00  0.00     0.029 A 
ATOM     53  C   UNL     1       1.157   4.547  15.490  1.00  0.00     0.049 A 
ATOM     54  H   UNL     1      -0.787   5.226  15.807  1.00  0.00     0.167 HD
ATOM     55  C   UNL     1      -4.950   6.538  16.258  1.00  0.00     0.037 A 
ATOM     56  C   UNL     1       1.970   5.617  15.574  1.00  0.00     0.037 A 
ATOM     57  C   UNL     1      -4.154   7.722  16.452  1.00  0.00     0.049 A 
ATOM     58  C   UNL     1       1.375   6.967  15.871  1.00  0.00     0.074 A 
ATOM     59  C   UNL     1      -4.576   9.001  16.769  1.00  0.00     0.029 A 
ATOM     60  N   UNL     1      -2.771   7.771  16.349  1.00  0.00    -0.354 N 
ATOM     61  N   UNL     1       0.116   7.293  16.043  1.00  0.00    -0.248 NA
ATOM     62  C   UNL     1       2.311   8.093  15.994  1.00  0.00     0.031 C 
ATOM     63  C   UNL     1      -3.451   9.832  16.822  1.00  0.00     0.029 A 
ATOM     64  C   UNL     1      -2.324   9.061  16.582  1.00  0.00     0.049 A 
ATOM     65  H   UNL     1      -2.193   7.002  16.141  1.00  0.00     0.167 HD
ATOM     66  C   UNL     1       0.110   8.655  16.322  1.00  0.00     0.074 A 
ATOM     67  C   UNL     1       1.493   9.089  16.306  1.00  0.00     0.031 C 
ATOM     68  C   UNL     1      -0.943   9.473  16.569  1.00  0.00     0.037 A 
BRANCH  55  69
ATOM     69  C   UNL     1      -6.447   6.659  16.346  1.00  0.00     0.058 A 
ATOM     70  C   UNL     1      -7.168   6.115  17.422  1.00  0.00     0.135 A 
ATOM     71  C   UNL     1      -7.169   7.348  15.358  1.00  0.00     0.135 A 
ATOM     72  F   UNL     1      -6.531   5.433  18.387  1.00  0.00    -0.206 F 
ATOM     73  C   UNL     1      -8.553   6.221  17.499  1.00  0.00     0.059 A 
ATOM     74  C   UNL     1      -8.552   7.491  15.429  1.00  0.00     0.059 A 
ATOM     75  F   UNL     1      -6.532   7.887  14.307  1.00  0.00    -0.206 F 
ATOM     76  C   UNL     1      -9.237   6.910  16.496  1.00  0.00     0.060 A 
BRANCH  76  77
ATOM     77  S   UNL     1     -11.034   7.038  16.609  1.00  0.00     0.124 S 
ATOM     78  O   UNL     1     -11.445   5.685  16.250  1.00  0.00    -0.237 OA
ATOM     79  O   UNL     1     -11.233   7.410  18.006  1.00  0.00    -0.237 OA
ATOM     80  O   UNL     1     -11.363   8.074  15.635  1.00  0.00    -0.744 OA
ENDBRANCH  76  77
ENDBRANCH  55  69
BRANCH  56  81
ATOM     81  C   UNL     1       3.437   5.450  15.403  1.00  0.00     0.058 A 
ATOM     82  C   UNL     1       4.309   5.572  16.496  1.00  0.00     0.135 A 
ATOM     83  C   UNL     1       3.996   5.151  14.151  1.00  0.00     0.135 A 
ATOM     84  F   UNL     1       3.822   5.862  17.712  1.00  0.00    -0.206 F 
ATOM     85  C   UNL     1       5.684   5.420  16.352  1.00  0.00     0.059 A 
ATOM     86  C   UNL     1       5.366   4.971  13.987  1.00  0.00     0.059 A 
ATOM     87  F   UNL     1       3.204   5.005  13.078  1.00  0.00    -0.206 F 
ATOM     88  C   UNL     1       6.203   5.118  15.092  1.00  0.00     0.060 A 
BRANCH  88  89
ATOM     89  S   UNL     1       7.985   4.874  14.925  1.00  0.00     0.124 S 
ATOM     90  O   UNL     1       8.478   6.243  15.012  1.00  0.00    -0.237 OA
ATOM     91  O   UNL     1       8.285   4.012  16.064  1.00  0.00    -0.237 OA
ATOM     92  O   UNL     1       8.114   4.238  13.617  1.00  0.00    -0.744 OA
ENDBRANCH  88  89
ENDBRANCH  56  81
BRANCH  68  93
ATOM     93  C   UNL     1      -0.640  10.913  16.878  1.00  0.00     0.058 A 
ATOM     94  C   UNL     1      -0.220  11.808  15.882  1.00  0.00     0.135 A 
ATOM     95  C   UNL     1      -0.813  11.411  18.179  1.00  0.00     0.135 A 
ATOM     96  F   UNL     1      -0.034  11.380  14.623  1.00  0.00    -0.206 F 
ATOM     97  C   UNL     1       0.044  13.143  16.171  1.00  0.00     0.059 A 
ATOM     98  C   UNL     1      -0.580  12.748  18.485  1.00  0.00     0.059 A 
ATOM     99  F   UNL     1      -1.223  10.599  19.166  1.00  0.00    -0.206 F 
ATOM    100  C   UNL     1      -0.139  13.604  17.476  1.00  0.00     0.060 A 
BRANCH 100 101
ATOM    101  S   UNL     1       0.183  15.343  17.834  1.00  0.00     0.124 S 
ATOM    102  O   UNL     1       1.641  15.377  17.841  1.00  0.00    -0.237 OA
ATOM    103  O   UNL     1      -0.461  16.019  16.712  1.00  0.00    -0.237 OA
ATOM    104  O   UNL     1      -0.457  15.547  19.131  1.00  0.00    -0.744 OA
ENDBRANCH 100 101
ENDBRANCH  68  93
ENDBRANCH  42  43
ENDBRANCH  34  37
ENDBRANCH  32  33
ENDBRANCH  31  32
ENDBRANCH   1  31
TORSDOF 21
