REMARK SMILES Cc1ccc(-c2nc(NC(=O)[C@H]3[C@@H](C(=O)NCCCCCCNC(=O)c4ccc(-c5c6nc(c(-c7c(F)cc(S(=O)(=O)[O-])cc7F)c7ccc([nH]7)c(-c7c(F)cc(S(=O)(=O)[O-])cc7F)c7nc(c(-c8c(F)cc(S(=O)(=O)[O-])cc8F)c8ccc5[nH]8)C=C7)C=C6)cc4)[C@@H]4CC[C@H]3O4)sc2C)cc1
REMARK SMILES IDX 19 1 18 2 17 3 16 4 14 5 15 6 13 8 12 9 95 10 92 11 94 12
REMARK SMILES IDX 96 13 93 14 10 15 9 16 11 18 8 19 6 20 7 21 98 22 97 23
REMARK SMILES IDX 99 24 5 25 1 26 2 27 3 28 101 29 4 30 100 31 20 32 21 33
REMARK SMILES IDX 22 34 23 35 24 36 25 38 26 39 27 40 91 41 28 42 90 43 29 44
REMARK SMILES IDX 30 45 31 46 84 47 32 48 89 49 83 50 85 51 33 52 88 53 82 54
REMARK SMILES IDX 81 55 34 57 68 58 47 59 67 60 48 61 51 62 66 63 86 64 49 65
REMARK SMILES IDX 50 66 65 68 87 69 52 70 35 71 36 72 45 73 37 74 38 75 44 76
REMARK SMILES IDX 46 77 39 78 40 79 41 80 42 81 43 82 69 83 70 84 79 85 71 86
REMARK SMILES IDX 72 87 78 88 80 89 73 90 74 91 75 92 76 93 77 94 53 95 54 96
REMARK SMILES IDX 63 97 55 98 56 99 62 100 64 101 57 102 58 103 59 104 60 105
REMARK SMILES IDX 61 106
REMARK H PARENT 16 7 9 17 23 37 85 56 51 67
REMARK Flexibility Score: inf
ROOT
ATOM      1  C   UNL     1      -4.718   1.082   0.207  1.00  0.00     0.002 C 
ENDROOT
BRANCH   1   2
ATOM      2  C   UNL     1      -5.502  -0.218   0.359  1.00  0.00     0.021 C 
BRANCH   2   3
ATOM      3  C   UNL     1      -6.452  -0.376   1.539  1.00  0.00     0.116 C 
BRANCH   3   4
ATOM      4  N   UNL     1      -7.410   0.690   1.753  1.00  0.00    -0.356 N 
ATOM      5  C   UNL     1      -8.754   0.616   1.523  1.00  0.00     0.226 C 
ATOM      6  O   UNL     1      -9.517   1.059   2.385  1.00  0.00    -0.275 OA
ATOM      7  H   UNL     1      -7.061   1.544   2.095  1.00  0.00     0.163 HD
BRANCH   5   8
ATOM      8  C   UNL     1      -9.256  -0.136   0.317  1.00  0.00     0.122 C 
ATOM      9  C   UNL     1      -8.719   0.018  -1.112  1.00  0.00     0.123 C 
ATOM     10  C   UNL     1      -9.976  -0.405  -1.895  1.00  0.00     0.132 C 
ATOM     11  C   UNL     1     -10.794  -0.066   0.086  1.00  0.00     0.132 C 
ATOM     12  C   UNL     1     -10.502  -1.799  -1.467  1.00  0.00     0.035 C 
ATOM     13  O   UNL     1     -10.926   0.476  -1.257  1.00  0.00    -0.373 OA
ATOM     14  C   UNL     1     -11.312  -1.470  -0.204  1.00  0.00     0.035 C 
BRANCH   9  15
ATOM     15  C   UNL     1      -8.045   1.164  -1.917  1.00  0.00     0.232 C 
ATOM     16  N   UNL     1      -7.915   2.499  -1.772  1.00  0.00    -0.302 N 
ATOM     17  H   UNL     1      -7.332   2.873  -2.471  1.00  0.00     0.172 HD
ATOM     18  O   UNL     1      -7.507   0.767  -2.977  1.00  0.00    -0.274 OA
BRANCH  16  19
ATOM     19  C   UNL     1      -8.362   3.478  -0.932  1.00  0.00     0.190 A 
ATOM     20  C   UNL     1      -8.548   5.468   0.074  1.00  0.00     0.086 A 
ATOM     21  N   UNL     1      -7.950   4.735  -0.966  1.00  0.00    -0.220 NA
ATOM     22  C   UNL     1      -9.466   4.729   0.809  1.00  0.00     0.031 A 
ATOM     23  S   UNL     1      -9.605   3.171   0.140  1.00  0.00    -0.101 S 
ATOM     24  C   UNL     1     -10.332   5.038   1.976  1.00  0.00     0.059 C 
BRANCH  20  25
ATOM     25  C   UNL     1      -8.266   6.890   0.347  1.00  0.00     0.001 A 
ATOM     26  C   UNL     1      -7.929  11.126   1.284  1.00  0.00     0.044 C 
ATOM     27  C   UNL     1      -8.025   9.664   0.953  1.00  0.00    -0.051 A 
ATOM     28  C   UNL     1      -8.041   9.215  -0.375  1.00  0.00     0.004 A 
ATOM     29  C   UNL     1      -8.074   8.715   1.973  1.00  0.00     0.004 A 
ATOM     30  C   UNL     1      -8.162   7.841  -0.677  1.00  0.00     0.010 A 
ATOM     31  C   UNL     1      -8.171   7.352   1.671  1.00  0.00     0.010 A 
ENDBRANCH  20  25
ENDBRANCH  16  19
ENDBRANCH   9  15
ENDBRANCH   5   8
ENDBRANCH   3   4
ENDBRANCH   2   3
ENDBRANCH   1   2
BRANCH   1  32
ATOM     32  C   UNL     1      -3.875   1.595   1.375  1.00  0.00     0.002 C 
BRANCH  32  33
ATOM     33  C   UNL     1      -3.145   0.592   2.263  1.00  0.00     0.021 C 
BRANCH  33  34
ATOM     34  C   UNL     1      -2.181  -0.344   1.544  1.00  0.00     0.116 C 
BRANCH  34  35
ATOM     35  N   UNL     1      -0.910  -0.435   2.259  1.00  0.00    -0.352 N 
ATOM     36  C   UNL     1       0.076  -1.402   2.210  1.00  0.00     0.251 C 
ATOM     37  H   UNL     1      -0.727   0.311   2.874  1.00  0.00     0.163 HD
ATOM     38  O   UNL     1       1.037  -1.414   2.955  1.00  0.00    -0.269 OA
BRANCH  36  39
ATOM     39  C   UNL     1       0.013  -2.346   1.081  1.00  0.00     0.039 A 
ATOM     40  C   UNL     1       1.004  -2.208   0.104  1.00  0.00     0.014 A 
ATOM     41  C   UNL     1      -1.143  -3.086   0.854  1.00  0.00     0.014 A 
ATOM     42  C   UNL     1       0.731  -2.631  -1.186  1.00  0.00     0.010 A 
ATOM     43  C   UNL     1      -1.455  -3.416  -0.448  1.00  0.00     0.010 A 
ATOM     44  C   UNL     1      -0.541  -3.130  -1.468  1.00  0.00    -0.014 A 
BRANCH  44  45
ATOM     45  C   UNL     1      -0.975  -3.390  -2.830  1.00  0.00     0.031 A 
ATOM     46  C   UNL     1      -0.807  -4.755  -3.356  1.00  0.00     0.074 A 
ATOM     47  C   UNL     1      -1.448  -2.388  -3.598  1.00  0.00     0.049 A 
ATOM     48  N   UNL     1      -0.684  -5.059  -4.601  1.00  0.00    -0.248 NA
ATOM     49  C   UNL     1      -0.677  -5.897  -2.461  1.00  0.00     0.031 C 
ATOM     50  C   UNL     1      -2.002  -2.485  -4.943  1.00  0.00     0.029 A 
ATOM     51  N   UNL     1      -1.246  -1.016  -3.394  1.00  0.00    -0.354 N 
ATOM     52  C   UNL     1      -0.696  -6.433  -4.698  1.00  0.00     0.074 A 
ATOM     53  C   UNL     1      -0.620  -6.902  -3.335  1.00  0.00     0.031 C 
ATOM     54  C   UNL     1      -1.815  -1.307  -5.561  1.00  0.00     0.029 A 
ATOM     55  C   UNL     1      -1.028  -0.464  -4.674  1.00  0.00     0.049 A 
ATOM     56  H   UNL     1      -1.254  -0.536  -2.535  1.00  0.00     0.167 HD
ATOM     57  C   UNL     1      -0.896  -7.009  -5.918  1.00  0.00     0.037 A 
ATOM     58  C   UNL     1       0.188   0.076  -4.979  1.00  0.00     0.037 A 
ATOM     59  C   UNL     1      -0.827  -6.005  -6.984  1.00  0.00     0.049 A 
ATOM     60  C   UNL     1       0.955  -0.677  -6.051  1.00  0.00     0.074 A 
ATOM     61  C   UNL     1      -1.760  -5.280  -7.707  1.00  0.00     0.029 A 
ATOM     62  N   UNL     1       0.384  -5.363  -7.194  1.00  0.00    -0.354 N 
ATOM     63  N   UNL     1       0.556  -1.786  -6.618  1.00  0.00    -0.248 NA
ATOM     64  C   UNL     1       2.273  -0.258  -6.531  1.00  0.00     0.031 C 
ATOM     65  C   UNL     1      -1.097  -4.164  -8.304  1.00  0.00     0.029 A 
ATOM     66  C   UNL     1       0.241  -4.223  -7.963  1.00  0.00     0.049 A 
ATOM     67  H   UNL     1       1.245  -5.683  -6.838  1.00  0.00     0.167 HD
ATOM     68  C   UNL     1       1.520  -2.233  -7.486  1.00  0.00     0.074 A 
ATOM     69  C   UNL     1       2.576  -1.240  -7.397  1.00  0.00     0.031 C 
ATOM     70  C   UNL     1       1.414  -3.393  -8.202  1.00  0.00     0.037 A 
BRANCH  57  71
ATOM     71  C   UNL     1      -1.448  -8.415  -6.068  1.00  0.00     0.058 A 
ATOM     72  C   UNL     1      -2.305  -8.739  -7.139  1.00  0.00     0.135 A 
ATOM     73  C   UNL     1      -1.270  -9.456  -5.133  1.00  0.00     0.135 A 
ATOM     74  F   UNL     1      -2.473  -7.905  -8.174  1.00  0.00    -0.206 F 
ATOM     75  C   UNL     1      -3.041  -9.927  -7.192  1.00  0.00     0.059 A 
ATOM     76  C   UNL     1      -2.046 -10.619  -5.120  1.00  0.00     0.059 A 
ATOM     77  F   UNL     1      -0.290  -9.417  -4.222  1.00  0.00    -0.206 F 
ATOM     78  C   UNL     1      -2.946 -10.840  -6.149  1.00  0.00     0.060 A 
BRANCH  78  79
ATOM     79  S   UNL     1      -3.991 -12.308  -6.163  1.00  0.00     0.124 S 
ATOM     80  O   UNL     1      -5.324 -11.738  -6.334  1.00  0.00    -0.237 OA
ATOM     81  O   UNL     1      -3.462 -13.045  -7.306  1.00  0.00    -0.237 OA
ATOM     82  O   UNL     1      -3.743 -12.915  -4.858  1.00  0.00    -0.744 OA
ENDBRANCH  78  79
ENDBRANCH  57  71
BRANCH  58  83
ATOM     83  C   UNL     1       0.770   0.869  -3.856  1.00  0.00     0.058 A 
ATOM     84  C   UNL     1       0.081   2.025  -3.433  1.00  0.00     0.135 A 
ATOM     85  C   UNL     1       1.745   0.359  -2.991  1.00  0.00     0.135 A 
ATOM     86  F   UNL     1      -0.852   2.577  -4.227  1.00  0.00    -0.206 F 
ATOM     87  C   UNL     1       0.257   2.574  -2.165  1.00  0.00     0.059 A 
ATOM     88  C   UNL     1       1.942   0.895  -1.712  1.00  0.00     0.059 A 
ATOM     89  F   UNL     1       2.454  -0.725  -3.339  1.00  0.00    -0.206 F 
ATOM     90  C   UNL     1       1.152   1.966  -1.289  1.00  0.00     0.060 A 
BRANCH  90  91
ATOM     91  S   UNL     1       1.239   2.574   0.414  1.00  0.00     0.124 S 
ATOM     92  O   UNL     1       1.248   4.022   0.229  1.00  0.00    -0.237 OA
ATOM     93  O   UNL     1       0.017   2.027   1.000  1.00  0.00    -0.237 OA
ATOM     94  O   UNL     1       2.485   2.002   0.908  1.00  0.00    -0.744 OA
ENDBRANCH  90  91
ENDBRANCH  58  83
BRANCH  70  95
ATOM     95  C   UNL     1       2.451  -3.845  -9.198  1.00  0.00     0.058 A 
ATOM     96  C   UNL     1       2.994  -2.982 -10.166  1.00  0.00     0.135 A 
ATOM     97  C   UNL     1       2.843  -5.199  -9.288  1.00  0.00     0.135 A 
ATOM     98  F   UNL     1       2.635  -1.689 -10.210  1.00  0.00    -0.206 F 
ATOM     99  C   UNL     1       3.910  -3.422 -11.124  1.00  0.00     0.059 A 
ATOM    100  C   UNL     1       3.712  -5.669 -10.267  1.00  0.00     0.059 A 
ATOM    101  F   UNL     1       2.417  -6.110  -8.402  1.00  0.00    -0.206 F 
ATOM    102  C   UNL     1       4.265  -4.768 -11.165  1.00  0.00     0.060 A 
BRANCH 102 103
ATOM    103  S   UNL     1       5.438  -5.348 -12.405  1.00  0.00     0.124 S 
ATOM    104  O   UNL     1       5.104  -4.532 -13.569  1.00  0.00    -0.237 OA
ATOM    105  O   UNL     1       6.712  -5.042 -11.763  1.00  0.00    -0.237 OA
ATOM    106  O   UNL     1       5.120  -6.767 -12.533  1.00  0.00    -0.744 OA
ENDBRANCH 102 103
ENDBRANCH  70  95
ENDBRANCH  44  45
ENDBRANCH  36  39
ENDBRANCH  34  35
ENDBRANCH  33  34
ENDBRANCH  32  33
ENDBRANCH   1  32
TORSDOF 19
