REMARK SMILES C[C@H](O)[C@H](C)[NH2+]C1(C(=O)NCCCCCCNC(=O)c2ccc(-c3c4nc(c(-c5c(F)cc(S(=O)(=O)[O-])cc5F)c5ccc([nH]5)c(-c5c(F)cc(S(=O)(=O)[O-])cc5F)c5nc(c(-c6c(F)cc(S(=O)(=O)[O-])cc6F)c6ccc3[nH]6)C=C5)C=C4)cc2)CC1
REMARK SMILES IDX 13 1 12 2 11 3 10 4 8 5 9 6 7 8 86 9 87 10 6 11 4 14 5 15
REMARK SMILES IDX 2 16 1 17 3 18 14 20 15 21 16 22 17 23 18 24 19 26 20 27
REMARK SMILES IDX 21 28 85 29 22 30 84 31 23 32 24 33 25 34 78 35 26 36 83 37
REMARK SMILES IDX 77 38 79 39 27 40 82 41 76 42 75 43 28 45 62 46 41 47 61 48
REMARK SMILES IDX 42 49 45 50 60 51 80 52 43 53 44 54 59 56 81 57 46 58 29 59
REMARK SMILES IDX 30 60 39 61 31 62 32 63 38 64 40 65 33 66 34 67 35 68 36 69
REMARK SMILES IDX 37 70 63 71 64 72 73 73 65 74 66 75 72 76 74 77 67 78 68 79
REMARK SMILES IDX 69 80 70 81 71 82 47 83 48 84 57 85 49 86 50 87 56 88 58 89
REMARK SMILES IDX 51 90 52 91 53 92 54 93 55 94
REMARK H PARENT 10 7 6 12 6 13 3 19 17 25 79 44 45 55
REMARK Flexibility Score: inf
ROOT
ATOM      1  C   UNL     1      -6.533   2.395   4.301  1.00  0.00     0.002 C 
ENDROOT
BRANCH   1   2
ATOM      2  C   UNL     1      -6.314   2.088   2.811  1.00  0.00     0.021 C 
BRANCH   2   3
ATOM      3  C   UNL     1      -5.750   3.264   2.014  1.00  0.00     0.116 C 
BRANCH   3   4
ATOM      4  N   UNL     1      -4.422   3.601   2.475  1.00  0.00    -0.351 N 
ATOM      5  C   UNL     1      -3.175   3.357   1.982  1.00  0.00     0.281 C 
ATOM      6  O   UNL     1      -2.221   3.629   2.722  1.00  0.00    -0.268 OA
ATOM      7  H   UNL     1      -4.418   4.112   3.317  1.00  0.00     0.163 HD
BRANCH   5   8
ATOM      8  C   UNL     1      -2.857   2.809   0.592  1.00  0.00     0.176 C 
ATOM      9  C   UNL     1      -3.571   3.465  -0.581  1.00  0.00     0.086 C 
ATOM     10  C   UNL     1      -3.768   2.008  -0.304  1.00  0.00     0.086 C 
BRANCH   8  11
ATOM     11  N   UNL     1      -1.375   2.637   0.440  1.00  0.00    -0.329 N 
ATOM     12  H   UNL     1      -1.094   3.130  -0.408  1.00  0.00     0.347 HD
ATOM     13  H   UNL     1      -0.976   3.004   1.303  1.00  0.00     0.347 HD
BRANCH  11  14
ATOM     14  C   UNL     1      -0.868   1.260   0.341  1.00  0.00     0.208 C 
ATOM     15  C   UNL     1       0.665   1.382   0.310  1.00  0.00     0.078 C 
BRANCH  14  16
ATOM     16  C   UNL     1      -1.261   0.215   1.440  1.00  0.00     0.169 C 
ATOM     17  C   UNL     1      -2.115  -0.912   0.867  1.00  0.00     0.045 C 
BRANCH  16  18
ATOM     18  O   UNL     1      -1.971   0.765   2.547  1.00  0.00    -0.387 OA
ATOM     19  H   UNL     1      -2.829   1.102   2.245  1.00  0.00     0.211 HD
ENDBRANCH  16  18
ENDBRANCH  14  16
ENDBRANCH  11  14
ENDBRANCH   8  11
ENDBRANCH   5   8
ENDBRANCH   3   4
ENDBRANCH   2   3
ENDBRANCH   1   2
BRANCH   1  20
ATOM     20  C   UNL     1      -7.363   3.651   4.592  1.00  0.00     0.002 C 
BRANCH  20  21
ATOM     21  C   UNL     1      -8.719   3.706   3.885  1.00  0.00     0.021 C 
BRANCH  21  22
ATOM     22  C   UNL     1      -9.651   2.551   4.225  1.00  0.00     0.116 C 
BRANCH  22  23
ATOM     23  N   UNL     1     -10.043   2.566   5.626  1.00  0.00    -0.352 N 
ATOM     24  C   UNL     1     -11.303   2.578   6.169  1.00  0.00     0.251 C 
ATOM     25  H   UNL     1      -9.301   2.568   6.274  1.00  0.00     0.163 HD
ATOM     26  O   UNL     1     -11.454   2.808   7.367  1.00  0.00    -0.269 OA
BRANCH  24  27
ATOM     27  C   UNL     1     -12.475   2.333   5.303  1.00  0.00     0.039 A 
ATOM     28  C   UNL     1     -13.598   3.154   5.433  1.00  0.00     0.014 A 
ATOM     29  C   UNL     1     -12.463   1.301   4.360  1.00  0.00     0.014 A 
ATOM     30  C   UNL     1     -14.687   2.974   4.577  1.00  0.00     0.010 A 
ATOM     31  C   UNL     1     -13.513   1.177   3.456  1.00  0.00     0.010 A 
ATOM     32  C   UNL     1     -14.640   2.006   3.560  1.00  0.00    -0.014 A 
BRANCH  32  33
ATOM     33  C   UNL     1     -15.759   1.849   2.595  1.00  0.00     0.031 A 
ATOM     34  C   UNL     1     -16.526   0.556   2.530  1.00  0.00     0.074 A 
ATOM     35  C   UNL     1     -16.039   2.845   1.732  1.00  0.00     0.049 A 
ATOM     36  N   UNL     1     -17.488   0.206   1.716  1.00  0.00    -0.248 NA
ATOM     37  C   UNL     1     -16.139  -0.492   3.488  1.00  0.00     0.031 C 
ATOM     38  C   UNL     1     -15.328   4.122   1.657  1.00  0.00     0.029 A 
ATOM     39  N   UNL     1     -16.984   2.933   0.741  1.00  0.00    -0.354 N 
ATOM     40  C   UNL     1     -17.814  -1.102   2.054  1.00  0.00     0.074 A 
ATOM     41  C   UNL     1     -16.903  -1.504   3.104  1.00  0.00     0.031 C 
ATOM     42  C   UNL     1     -15.868   4.871   0.683  1.00  0.00     0.029 A 
ATOM     43  C   UNL     1     -16.936   4.113   0.037  1.00  0.00     0.049 A 
ATOM     44  H   UNL     1     -17.635   2.219   0.551  1.00  0.00     0.167 HD
ATOM     45  C   UNL     1     -18.798  -1.888   1.554  1.00  0.00     0.037 A 
ATOM     46  C   UNL     1     -17.657   4.533  -1.022  1.00  0.00     0.037 A 
ATOM     47  C   UNL     1     -19.703  -1.475   0.513  1.00  0.00     0.049 A 
ATOM     48  C   UNL     1     -18.742   3.646  -1.567  1.00  0.00     0.074 A 
ATOM     49  C   UNL     1     -20.770  -2.173  -0.027  1.00  0.00     0.029 A 
ATOM     50  N   UNL     1     -19.642  -0.261  -0.157  1.00  0.00    -0.354 N 
ATOM     51  N   UNL     1     -19.090   2.441  -1.183  1.00  0.00    -0.248 NA
ATOM     52  C   UNL     1     -19.539   4.177  -2.680  1.00  0.00     0.031 C 
ATOM     53  C   UNL     1     -21.317  -1.404  -1.060  1.00  0.00     0.029 A 
ATOM     54  C   UNL     1     -20.634  -0.200  -1.123  1.00  0.00     0.049 A 
ATOM     55  H   UNL     1     -18.990   0.454   0.028  1.00  0.00     0.167 HD
ATOM     56  C   UNL     1     -20.160   2.077  -1.993  1.00  0.00     0.074 A 
ATOM     57  C   UNL     1     -20.411   3.197  -2.877  1.00  0.00     0.031 C 
ATOM     58  C   UNL     1     -20.871   0.921  -2.001  1.00  0.00     0.037 A 
BRANCH  45  59
ATOM     59  C   UNL     1     -18.933  -3.277   2.123  1.00  0.00     0.058 A 
ATOM     60  C   UNL     1     -19.336  -3.497   3.451  1.00  0.00     0.135 A 
ATOM     61  C   UNL     1     -18.657  -4.404   1.332  1.00  0.00     0.135 A 
ATOM     62  F   UNL     1     -19.603  -2.458   4.259  1.00  0.00    -0.206 F 
ATOM     63  C   UNL     1     -19.411  -4.779   3.988  1.00  0.00     0.059 A 
ATOM     64  C   UNL     1     -18.761  -5.697   1.837  1.00  0.00     0.059 A 
ATOM     65  F   UNL     1     -18.273  -4.256   0.054  1.00  0.00    -0.206 F 
ATOM     66  C   UNL     1     -19.115  -5.873   3.174  1.00  0.00     0.060 A 
BRANCH  66  67
ATOM     67  S   UNL     1     -19.189  -7.526   3.893  1.00  0.00     0.124 S 
ATOM     68  O   UNL     1     -18.005  -7.523   4.748  1.00  0.00    -0.237 OA
ATOM     69  O   UNL     1     -20.471  -7.508   4.589  1.00  0.00    -0.237 OA
ATOM     70  O   UNL     1     -19.120  -8.407   2.732  1.00  0.00    -0.744 OA
ENDBRANCH  66  67
ENDBRANCH  45  59
BRANCH  46  71
ATOM     71  C   UNL     1     -17.370   5.865  -1.620  1.00  0.00     0.058 A 
ATOM     72  C   UNL     1     -18.262   6.936  -1.474  1.00  0.00     0.135 A 
ATOM     73  C   UNL     1     -16.171   6.103  -2.312  1.00  0.00     0.135 A 
ATOM     74  F   UNL     1     -19.425   6.758  -0.828  1.00  0.00    -0.206 F 
ATOM     75  C   UNL     1     -17.980   8.196  -1.994  1.00  0.00     0.059 A 
ATOM     76  C   UNL     1     -15.854   7.359  -2.817  1.00  0.00     0.059 A 
ATOM     77  F   UNL     1     -15.276   5.115  -2.464  1.00  0.00    -0.206 F 
ATOM     78  C   UNL     1     -16.768   8.399  -2.657  1.00  0.00     0.060 A 
BRANCH  78  79
ATOM     79  S   UNL     1     -16.377  10.056  -3.260  1.00  0.00     0.124 S 
ATOM     80  O   UNL     1     -17.298  10.186  -4.383  1.00  0.00    -0.237 OA
ATOM     81  O   UNL     1     -16.672  10.882  -2.093  1.00  0.00    -0.237 OA
ATOM     82  O   UNL     1     -14.963   9.962  -3.609  1.00  0.00    -0.744 OA
ENDBRANCH  78  79
ENDBRANCH  46  71
BRANCH  58  83
ATOM     83  C   UNL     1     -22.011   0.813  -2.979  1.00  0.00     0.058 A 
ATOM     84  C   UNL     1     -21.794   0.677  -4.359  1.00  0.00     0.135 A 
ATOM     85  C   UNL     1     -23.338   0.787  -2.520  1.00  0.00     0.135 A 
ATOM     86  F   UNL     1     -20.546   0.703  -4.853  1.00  0.00    -0.206 F 
ATOM     87  C   UNL     1     -22.852   0.541  -5.251  1.00  0.00     0.059 A 
ATOM     88  C   UNL     1     -24.410   0.620  -3.391  1.00  0.00     0.059 A 
ATOM     89  F   UNL     1     -23.603   0.903  -1.209  1.00  0.00    -0.206 F 
ATOM     90  C   UNL     1     -24.158   0.509  -4.757  1.00  0.00     0.060 A 
BRANCH  90  91
ATOM     91  S   UNL     1     -25.519   0.293  -5.922  1.00  0.00     0.124 S 
ATOM     92  O   UNL     1     -25.544   1.591  -6.590  1.00  0.00    -0.237 OA
ATOM     93  O   UNL     1     -25.059  -0.829  -6.734  1.00  0.00    -0.237 OA
ATOM     94  O   UNL     1     -26.663   0.009  -5.061  1.00  0.00    -0.744 OA
ENDBRANCH  90  91
ENDBRANCH  58  83
ENDBRANCH  32  33
ENDBRANCH  24  27
ENDBRANCH  22  23
ENDBRANCH  21  22
ENDBRANCH  20  21
ENDBRANCH   1  20
TORSDOF 20
