REMARK SMILES O=C(COc1nc(NCc2cccc(Cl)c2)nc2c1CCC2)NCCCCCCNC(=O)c1ccc(-c2c3nc(c(-c4c(F)cc(S(=O)(=O)[O-])cc4F)c4ccc([nH]4)c(-c4c(F)cc(S(=O)(=O)[O-])cc4F)c4nc(c(-c5c(F)cc(S(=O)(=O)[O-])cc5F)c5ccc2[nH]5)C=C4)C=C3)cc1
REMARK SMILES IDX 25 1 24 2 23 3 1 4 2 5 3 7 4 8 5 9 6 10 19 11 7 12 18 13
REMARK SMILES IDX 20 14 17 15 22 16 21 17 8 18 9 20 10 21 11 22 16 23 12 24
REMARK SMILES IDX 14 25 13 26 15 27 26 28 27 29 28 30 29 31 30 32 31 33 32 35
REMARK SMILES IDX 33 36 34 37 98 38 35 39 97 40 36 41 37 42 38 43 91 44 39 45
REMARK SMILES IDX 96 46 90 47 92 48 40 49 95 50 89 51 88 52 41 54 75 55 54 56
REMARK SMILES IDX 74 57 55 58 58 59 73 60 93 61 56 62 57 63 72 65 94 66 59 67
REMARK SMILES IDX 42 68 43 69 52 70 44 71 45 72 51 73 53 74 46 75 47 76 48 77
REMARK SMILES IDX 49 78 50 79 76 80 77 81 86 82 78 83 79 84 85 85 87 86 80 87
REMARK SMILES IDX 81 88 82 89 83 90 84 91 60 92 61 93 70 94 62 95 63 96 69 97
REMARK SMILES IDX 71 98 64 99 65 100 66 101 67 102 68 103
REMARK H PARENT 23 6 8 19 30 34 92 53 58 64
REMARK Flexibility Score: inf
ROOT
ATOM      1  C   UNL     1       2.716  -2.566  -2.120  1.00  0.00     0.021 C 
ENDROOT
BRANCH   1   2
ATOM      2  C   UNL     1       2.138  -2.309  -0.729  1.00  0.00     0.116 C 
BRANCH   2   3
ATOM      3  N   UNL     1       2.736  -1.157  -0.092  1.00  0.00    -0.353 N 
ATOM      4  O   UNL     1       0.987   0.282  -0.485  1.00  0.00    -0.271 OA
ATOM      5  C   UNL     1       2.084   0.051   0.018  1.00  0.00     0.258 C 
ATOM      6  H   UNL     1       3.645  -1.239   0.277  1.00  0.00     0.163 HD
BRANCH   5   7
ATOM      7  C   UNL     1       2.889   1.146   0.730  1.00  0.00     0.331 C 
BRANCH   7   8
ATOM      8  O   UNL     1       3.846   0.761   1.709  1.00  0.00    -0.467 OA
BRANCH   8   9
ATOM      9  C   UNL     1       3.233   0.469   2.904  1.00  0.00     0.222 A 
ATOM     10  N   UNL     1       2.261  -0.457   2.905  1.00  0.00    -0.177 NA
ATOM     11  C   UNL     1       3.689   1.054   4.043  1.00  0.00     0.036 A 
ATOM     12  C   UNL     1       1.708  -0.776   4.089  1.00  0.00     0.226 A 
ATOM     13  C   UNL     1       3.054   0.674   5.198  1.00  0.00     0.053 A 
ATOM     14  C   UNL     1       4.701   2.112   4.283  1.00  0.00     0.043 C 
ATOM     15  N   UNL     1       2.068  -0.226   5.261  1.00  0.00    -0.218 NA
ATOM     16  C   UNL     1       3.562   1.457   6.373  1.00  0.00     0.057 C 
ATOM     17  C   UNL     1       4.882   2.005   5.808  1.00  0.00     0.011 C 
BRANCH  12  18
ATOM     18  N   UNL     1       0.712  -1.705   4.042  1.00  0.00    -0.350 N 
ATOM     19  H   UNL     1       0.419  -2.030   3.161  1.00  0.00     0.164 HD
BRANCH  18  20
ATOM     20  C   UNL     1       0.069  -2.235   5.211  1.00  0.00     0.152 C 
BRANCH  20  21
ATOM     21  C   UNL     1      -1.426  -2.045   5.102  1.00  0.00    -0.027 A 
ATOM     22  C   UNL     1      -2.291  -3.146   5.033  1.00  0.00     0.005 A 
ATOM     23  C   UNL     1      -1.971  -0.750   5.085  1.00  0.00     0.026 A 
ATOM     24  C   UNL     1      -3.673  -2.958   4.951  1.00  0.00     0.002 A 
ATOM     25  C   UNL     1      -3.351  -0.569   5.002  1.00  0.00     0.041 A 
ATOM     26  C   UNL     1      -4.204  -1.668   4.936  1.00  0.00     0.020 A 
ATOM     27  Cl  UNL     1      -4.005   1.023   4.987  1.00  0.00    -0.084 Cl
ENDBRANCH  20  21
ENDBRANCH  18  20
ENDBRANCH  12  18
ENDBRANCH   8   9
ENDBRANCH   7   8
ENDBRANCH   5   7
ENDBRANCH   2   3
ENDBRANCH   1   2
BRANCH   1  28
ATOM     28  C   UNL     1       4.222  -2.857  -2.145  1.00  0.00     0.002 C 
BRANCH  28  29
ATOM     29  C   UNL     1       4.683  -4.036  -1.282  1.00  0.00     0.002 C 
BRANCH  29  30
ATOM     30  C   UNL     1       3.989  -5.370  -1.565  1.00  0.00     0.021 C 
BRANCH  30  31
ATOM     31  C   UNL     1       4.102  -5.864  -3.004  1.00  0.00     0.116 C 
BRANCH  31  32
ATOM     32  N   UNL     1       5.476  -6.151  -3.385  1.00  0.00    -0.352 N 
ATOM     33  C   UNL     1       6.023  -7.317  -3.861  1.00  0.00     0.251 C 
ATOM     34  H   UNL     1       6.105  -5.399  -3.289  1.00  0.00     0.163 HD
ATOM     35  O   UNL     1       7.243  -7.423  -3.962  1.00  0.00    -0.269 OA
BRANCH  33  36
ATOM     36  C   UNL     1       5.147  -8.451  -4.230  1.00  0.00     0.039 A 
ATOM     37  C   UNL     1       5.494  -9.738  -3.810  1.00  0.00     0.014 A 
ATOM     38  C   UNL     1       3.995  -8.249  -4.996  1.00  0.00     0.014 A 
ATOM     39  C   UNL     1       4.654 -10.814  -4.109  1.00  0.00     0.010 A 
ATOM     40  C   UNL     1       3.125  -9.310  -5.233  1.00  0.00     0.010 A 
ATOM     41  C   UNL     1       3.449 -10.605  -4.799  1.00  0.00    -0.014 A 
BRANCH  41  42
ATOM     42  C   UNL     1       2.530 -11.732  -5.100  1.00  0.00     0.031 A 
ATOM     43  C   UNL     1       2.288 -12.144  -6.526  1.00  0.00     0.074 A 
ATOM     44  C   UNL     1       1.887 -12.361  -4.096  1.00  0.00     0.049 A 
ATOM     45  N   UNL     1       1.490 -13.068  -6.995  1.00  0.00    -0.248 NA
ATOM     46  C   UNL     1       3.026 -11.405  -7.564  1.00  0.00     0.031 C 
ATOM     47  C   UNL     1       2.020 -12.036  -2.674  1.00  0.00     0.029 A 
ATOM     48  N   UNL     1       0.994 -13.403  -4.116  1.00  0.00    -0.354 N 
ATOM     49  C   UNL     1       1.628 -13.022  -8.377  1.00  0.00     0.074 A 
ATOM     50  C   UNL     1       2.538 -11.937  -8.675  1.00  0.00     0.031 C 
ATOM     51  C   UNL     1       1.262 -12.883  -1.958  1.00  0.00     0.029 A 
ATOM     52  C   UNL     1       0.560 -13.784  -2.868  1.00  0.00     0.049 A 
ATOM     53  H   UNL     1       0.693 -13.837  -4.946  1.00  0.00     0.167 HD
ATOM     54  C   UNL     1       1.073 -13.830  -9.312  1.00  0.00     0.037 A 
ATOM     55  C   UNL     1      -0.307 -14.747  -2.499  1.00  0.00     0.037 A 
ATOM     56  C   UNL     1       0.180 -14.917  -9.009  1.00  0.00     0.049 A 
ATOM     57  C   UNL     1      -0.945 -15.605  -3.558  1.00  0.00     0.074 A 
ATOM     58  C   UNL     1      -0.409 -15.815  -9.882  1.00  0.00     0.029 A 
ATOM     59  N   UNL     1      -0.255 -15.254  -7.736  1.00  0.00    -0.354 N 
ATOM     60  N   UNL     1      -0.771 -15.574  -4.858  1.00  0.00    -0.248 NA
ATOM     61  C   UNL     1      -1.897 -16.627  -3.102  1.00  0.00     0.031 C 
ATOM     62  C   UNL     1      -1.235 -16.666  -9.142  1.00  0.00     0.029 A 
ATOM     63  C   UNL     1      -1.125 -16.331  -7.801  1.00  0.00     0.049 A 
ATOM     64  H   UNL     1       0.014 -14.796  -6.907  1.00  0.00     0.167 HD
ATOM     65  C   UNL     1      -1.580 -16.581  -5.374  1.00  0.00     0.074 A 
ATOM     66  C   UNL     1      -2.228 -17.215  -4.244  1.00  0.00     0.031 C 
ATOM     67  C   UNL     1      -1.770 -16.945  -6.667  1.00  0.00     0.037 A 
BRANCH  54  68
ATOM     68  C   UNL     1       1.428 -13.572 -10.751  1.00  0.00     0.058 A 
ATOM     69  C   UNL     1       2.714 -13.839 -11.248  1.00  0.00     0.135 A 
ATOM     70  C   UNL     1       0.468 -13.083 -11.652  1.00  0.00     0.135 A 
ATOM     71  F   UNL     1       3.676 -14.291 -10.428  1.00  0.00    -0.206 F 
ATOM     72  C   UNL     1       3.045 -13.602 -12.578  1.00  0.00     0.059 A 
ATOM     73  C   UNL     1       0.768 -12.867 -12.994  1.00  0.00     0.059 A 
ATOM     74  F   UNL     1      -0.777 -12.810 -11.231  1.00  0.00    -0.206 F 
ATOM     75  C   UNL     1       2.064 -13.117 -13.444  1.00  0.00     0.060 A 
BRANCH  75  76
ATOM     76  S   UNL     1       2.512 -12.819 -15.167  1.00  0.00     0.124 S 
ATOM     77  O   UNL     1       3.392 -11.660 -15.043  1.00  0.00    -0.237 OA
ATOM     78  O   UNL     1       3.163 -14.071 -15.539  1.00  0.00    -0.237 OA
ATOM     79  O   UNL     1       1.230 -12.564 -15.815  1.00  0.00    -0.744 OA
ENDBRANCH  75  76
ENDBRANCH  54  68
BRANCH  55  80
ATOM     80  C   UNL     1      -0.593 -14.970  -1.056  1.00  0.00     0.058 A 
ATOM     81  C   UNL     1      -0.114 -16.112  -0.398  1.00  0.00     0.135 A 
ATOM     82  C   UNL     1      -1.316 -14.035  -0.299  1.00  0.00     0.135 A 
ATOM     83  F   UNL     1       0.573 -17.041  -1.081  1.00  0.00    -0.206 F 
ATOM     84  C   UNL     1      -0.339 -16.320   0.959  1.00  0.00     0.059 A 
ATOM     85  C   UNL     1      -1.534 -14.209   1.065  1.00  0.00     0.059 A 
ATOM     86  F   UNL     1      -1.787 -12.920  -0.879  1.00  0.00    -0.206 F 
ATOM     87  C   UNL     1      -1.042 -15.357   1.684  1.00  0.00     0.060 A 
BRANCH  87  88
ATOM     88  S   UNL     1      -1.262 -15.605   3.460  1.00  0.00     0.124 S 
ATOM     89  O   UNL     1      -2.191 -16.728   3.490  1.00  0.00    -0.237 OA
ATOM     90  O   UNL     1       0.102 -15.891   3.897  1.00  0.00    -0.237 OA
ATOM     91  O   UNL     1      -1.802 -14.326   3.914  1.00  0.00    -0.744 OA
ENDBRANCH  87  88
ENDBRANCH  55  80
BRANCH  67  92
ATOM     92  C   UNL     1      -2.715 -18.084  -6.936  1.00  0.00     0.058 A 
ATOM     93  C   UNL     1      -4.104 -17.929  -6.804  1.00  0.00     0.135 A 
ATOM     94  C   UNL     1      -2.234 -19.320  -7.397  1.00  0.00     0.135 A 
ATOM     95  F   UNL     1      -4.616 -16.770  -6.361  1.00  0.00    -0.206 F 
ATOM     96  C   UNL     1      -4.982 -18.966  -7.103  1.00  0.00     0.059 A 
ATOM     97  C   UNL     1      -3.096 -20.362  -7.729  1.00  0.00     0.059 A 
ATOM     98  F   UNL     1      -0.915 -19.518  -7.552  1.00  0.00    -0.206 F 
ATOM     99  C   UNL     1      -4.468 -20.177  -7.570  1.00  0.00     0.060 A 
BRANCH  99 100
ATOM    100  S   UNL     1      -5.625 -21.498  -7.991  1.00  0.00     0.124 S 
ATOM    101  O   UNL     1      -6.106 -21.899  -6.673  1.00  0.00    -0.237 OA
ATOM    102  O   UNL     1      -6.593 -20.805  -8.835  1.00  0.00    -0.237 OA
ATOM    103  O   UNL     1      -4.789 -22.477  -8.678  1.00  0.00    -0.744 OA
ENDBRANCH  99 100
ENDBRANCH  67  92
ENDBRANCH  41  42
ENDBRANCH  33  36
ENDBRANCH  31  32
ENDBRANCH  30  31
ENDBRANCH  29  30
ENDBRANCH  28  29
ENDBRANCH   1  28
TORSDOF 21
