REMARK SMILES O=C(NCCCCCCNC(=O)[C@H]1CCCCN1S(=O)(=O)c1cc[nH]c1)c1ccc(-c2c3nc(c(-c4c(F)cc(S(=O)(=O)[O-])cc4F)c4ccc([nH]4)c(-c4c(F)cc(S(=O)(=O)[O-])cc4F)c4nc(c(-c5c(F)cc(S(=O)(=O)[O-])cc5F)c5ccc2[nH]5)C=C4)C=C3)cc1
REMARK SMILES IDX 6 1 5 2 4 3 3 4 1 5 2 6 27 8 28 9 92 10 29 11 91 12 30 13
REMARK SMILES IDX 31 14 32 15 85 16 33 17 90 18 84 19 86 20 34 21 89 22 83 23
REMARK SMILES IDX 82 24 35 26 69 27 48 28 68 29 49 30 52 31 67 32 87 33 50 34
REMARK SMILES IDX 51 35 66 37 88 38 53 39 36 40 37 41 46 42 38 43 39 44 45 45
REMARK SMILES IDX 47 46 40 47 41 48 42 49 43 50 44 51 70 52 71 53 80 54 72 55
REMARK SMILES IDX 73 56 79 57 81 58 74 59 75 60 76 61 77 62 78 63 54 64 55 65
REMARK SMILES IDX 64 66 56 67 57 68 63 69 65 70 58 71 59 72 60 73 61 74 62 75
REMARK SMILES IDX 7 76 8 77 9 78 10 79 11 80 12 82 13 83 14 84 18 85 15 86
REMARK SMILES IDX 17 87 16 88 19 89 20 90 21 91 22 92 23 93 26 94 24 95 25 96
REMARK H PARENT 3 7 86 25 52 36 10 81 25 97
REMARK Flexibility Score: inf
ROOT
ATOM      1  C   UNL     1       6.617   9.121  -0.977  1.00  0.00     0.002 C 
ENDROOT
BRANCH   1   2
ATOM      2  C   UNL     1       5.602  10.144  -0.466  1.00  0.00     0.021 C 
BRANCH   2   3
ATOM      3  C   UNL     1       6.174  11.546  -0.222  1.00  0.00     0.116 C 
BRANCH   3   4
ATOM      4  N   UNL     1       6.338  12.349  -1.420  1.00  0.00    -0.352 N 
ATOM      5  O   UNL     1       5.760  13.485  -3.276  1.00  0.00    -0.269 OA
ATOM      6  C   UNL     1       5.400  12.827  -2.304  1.00  0.00     0.251 C 
ATOM      7  H   UNL     1       7.269  12.590  -1.634  1.00  0.00     0.163 HD
BRANCH   6   8
ATOM      8  C   UNL     1       3.970  12.492  -2.127  1.00  0.00     0.039 A 
ATOM      9  C   UNL     1       3.351  12.579  -0.878  1.00  0.00     0.014 A 
ATOM     10  C   UNL     1       3.242  12.064  -3.246  1.00  0.00     0.014 A 
ATOM     11  C   UNL     1       2.049  12.137  -0.719  1.00  0.00     0.010 A 
ATOM     12  C   UNL     1       1.909  11.679  -3.103  1.00  0.00     0.010 A 
ATOM     13  C   UNL     1       1.317  11.714  -1.835  1.00  0.00    -0.014 A 
BRANCH  13  14
ATOM     14  C   UNL     1      -0.144  11.570  -1.637  1.00  0.00     0.031 A 
ATOM     15  C   UNL     1      -0.824  12.939  -1.476  1.00  0.00     0.074 A 
ATOM     16  C   UNL     1      -0.648  10.309  -1.512  1.00  0.00     0.049 A 
ATOM     17  N   UNL     1      -1.851  13.287  -0.761  1.00  0.00    -0.248 NA
ATOM     18  C   UNL     1      -0.181  14.123  -2.113  1.00  0.00     0.031 C 
ATOM     19  C   UNL     1       0.144   9.078  -1.680  1.00  0.00     0.029 A 
ATOM     20  N   UNL     1      -1.896   9.801  -1.210  1.00  0.00    -0.354 N 
ATOM     21  C   UNL     1      -2.085  14.656  -1.007  1.00  0.00     0.074 A 
ATOM     22  C   UNL     1      -0.948  15.143  -1.728  1.00  0.00     0.031 C 
ATOM     23  C   UNL     1      -0.609   7.989  -1.418  1.00  0.00     0.029 A 
ATOM     24  C   UNL     1      -1.955   8.392  -1.059  1.00  0.00     0.049 A 
ATOM     25  H   UNL     1      -2.688  10.376  -1.107  1.00  0.00     0.167 HD
ATOM     26  C   UNL     1      -3.252  15.297  -0.712  1.00  0.00     0.037 A 
ATOM     27  C   UNL     1      -2.997   7.610  -0.632  1.00  0.00     0.037 A 
ATOM     28  C   UNL     1      -4.191  14.395  -0.136  1.00  0.00     0.049 A 
ATOM     29  C   UNL     1      -4.140   8.528  -0.459  1.00  0.00     0.074 A 
ATOM     30  C   UNL     1      -4.351  13.883   1.123  1.00  0.00     0.029 A 
ATOM     31  N   UNL     1      -4.997  13.697  -1.002  1.00  0.00    -0.354 N 
ATOM     32  N   UNL     1      -4.801   9.092  -1.425  1.00  0.00    -0.248 NA
ATOM     33  C   UNL     1      -4.543   8.901   0.904  1.00  0.00     0.031 C 
ATOM     34  C   UNL     1      -4.991  12.640   0.925  1.00  0.00     0.029 A 
ATOM     35  C   UNL     1      -5.252  12.469  -0.438  1.00  0.00     0.049 A 
ATOM     36  H   UNL     1      -5.331  14.019  -1.871  1.00  0.00     0.167 HD
ATOM     37  C   UNL     1      -5.471  10.110  -0.788  1.00  0.00     0.074 A 
ATOM     38  C   UNL     1      -5.513   9.762   0.613  1.00  0.00     0.031 C 
ATOM     39  C   UNL     1      -5.489  11.352  -1.333  1.00  0.00     0.037 A 
BRANCH  26  40
ATOM     40  C   UNL     1      -3.747  16.671  -1.074  1.00  0.00     0.058 A 
ATOM     41  C   UNL     1      -4.729  17.270  -0.248  1.00  0.00     0.135 A 
ATOM     42  C   UNL     1      -3.535  17.280  -2.321  1.00  0.00     0.135 A 
ATOM     43  F   UNL     1      -4.966  16.800   0.989  1.00  0.00    -0.206 F 
ATOM     44  C   UNL     1      -5.533  18.320  -0.677  1.00  0.00     0.059 A 
ATOM     45  C   UNL     1      -4.304  18.365  -2.756  1.00  0.00     0.059 A 
ATOM     46  F   UNL     1      -2.633  16.792  -3.183  1.00  0.00    -0.206 F 
ATOM     47  C   UNL     1      -5.337  18.840  -1.950  1.00  0.00     0.060 A 
BRANCH  47  48
ATOM     48  S   UNL     1      -6.478  20.106  -2.544  1.00  0.00     0.124 S 
ATOM     49  O   UNL     1      -7.678  19.321  -2.812  1.00  0.00    -0.237 OA
ATOM     50  O   UNL     1      -6.560  21.013  -1.403  1.00  0.00    -0.237 OA
ATOM     51  O   UNL     1      -5.799  20.648  -3.716  1.00  0.00    -0.744 OA
ENDBRANCH  47  48
ENDBRANCH  26  40
BRANCH  27  52
ATOM     52  C   UNL     1      -3.216   6.170  -0.191  1.00  0.00     0.058 A 
ATOM     53  C   UNL     1      -2.253   5.150  -0.169  1.00  0.00     0.135 A 
ATOM     54  C   UNL     1      -4.462   5.791   0.391  1.00  0.00     0.135 A 
ATOM     55  F   UNL     1      -1.080   5.281  -0.795  1.00  0.00    -0.206 F 
ATOM     56  C   UNL     1      -2.446   3.936   0.515  1.00  0.00     0.059 A 
ATOM     57  C   UNL     1      -4.662   4.617   1.115  1.00  0.00     0.059 A 
ATOM     58  F   UNL     1      -5.544   6.579   0.314  1.00  0.00    -0.206 F 
ATOM     59  C   UNL     1      -3.632   3.704   1.204  1.00  0.00     0.060 A 
BRANCH  59  60
ATOM     60  S   UNL     1      -3.794   2.292   2.317  1.00  0.00     0.124 S 
ATOM     61  O   UNL     1      -4.329   1.265   1.431  1.00  0.00    -0.237 OA
ATOM     62  O   UNL     1      -2.422   2.086   2.774  1.00  0.00    -0.237 OA
ATOM     63  O   UNL     1      -4.711   2.786   3.341  1.00  0.00    -0.744 OA
ENDBRANCH  59  60
ENDBRANCH  27  52
BRANCH  39  64
ATOM     64  C   UNL     1      -5.307  11.364  -2.839  1.00  0.00     0.058 A 
ATOM     65  C   UNL     1      -6.305  10.848  -3.679  1.00  0.00     0.135 A 
ATOM     66  C   UNL     1      -4.122  11.775  -3.471  1.00  0.00     0.135 A 
ATOM     67  F   UNL     1      -7.464  10.418  -3.155  1.00  0.00    -0.206 F 
ATOM     68  C   UNL     1      -6.138  10.762  -5.065  1.00  0.00     0.059 A 
ATOM     69  C   UNL     1      -3.931  11.717  -4.852  1.00  0.00     0.059 A 
ATOM     70  F   UNL     1      -3.103  12.241  -2.751  1.00  0.00    -0.206 F 
ATOM     71  C   UNL     1      -4.947  11.203  -5.645  1.00  0.00     0.060 A 
BRANCH  71  72
ATOM     72  S   UNL     1      -4.751  11.108  -7.438  1.00  0.00     0.124 S 
ATOM     73  O   UNL     1      -4.849   9.673  -7.687  1.00  0.00    -0.237 OA
ATOM     74  O   UNL     1      -5.877  11.908  -7.910  1.00  0.00    -0.237 OA
ATOM     75  O   UNL     1      -3.433  11.690  -7.675  1.00  0.00    -0.744 OA
ENDBRANCH  71  72
ENDBRANCH  39  64
ENDBRANCH  13  14
ENDBRANCH   6   8
ENDBRANCH   3   4
ENDBRANCH   2   3
ENDBRANCH   1   2
BRANCH   1  76
ATOM     76  C   UNL     1       7.889   9.010  -0.142  1.00  0.00     0.002 C 
BRANCH  76  77
ATOM     77  C   UNL     1       7.646   8.825   1.358  1.00  0.00     0.021 C 
BRANCH  77  78
ATOM     78  C   UNL     1       7.342   7.391   1.793  1.00  0.00     0.116 C 
BRANCH  78  79
ATOM     79  N   UNL     1       8.500   6.529   1.614  1.00  0.00    -0.355 N 
ATOM     80  C   UNL     1       9.379   5.980   2.496  1.00  0.00     0.238 C 
ATOM     81  H   UNL     1       8.682   6.299   0.674  1.00  0.00     0.163 HD
ATOM     82  O   UNL     1      10.342   5.380   2.004  1.00  0.00    -0.273 OA
BRANCH  80  83
ATOM     83  C   UNL     1       9.184   6.076   4.024  1.00  0.00     0.162 C 
ATOM     84  C   UNL     1       9.363   4.685   4.670  1.00  0.00     0.030 C 
ATOM     85  N   UNL     1      10.091   7.065   4.732  1.00  0.00    -0.185 NA
ATOM     86  C   UNL     1      10.819   4.229   4.769  1.00  0.00     0.004 C 
ATOM     87  C   UNL     1      11.518   6.651   4.684  1.00  0.00     0.103 C 
ATOM     88  C   UNL     1      11.694   5.311   5.387  1.00  0.00     0.017 C 
BRANCH  85  89
ATOM     89  S   UNL     1       9.805   8.662   4.221  1.00  0.00     0.245 S 
ATOM     90  O   UNL     1      10.547   8.866   2.988  1.00  0.00    -0.207 OA
ATOM     91  O   UNL     1       8.387   8.902   4.319  1.00  0.00    -0.207 OA
BRANCH  89  92
ATOM     92  C   UNL     1      10.474   9.858   5.274  1.00  0.00     0.100 A 
ATOM     93  C   UNL     1      11.824  10.291   5.295  1.00  0.00     0.041 A 
ATOM     94  C   UNL     1       9.758  10.708   6.097  1.00  0.00     0.104 A 
ATOM     95  C   UNL     1      11.883  11.405   6.105  1.00  0.00     0.083 A 
ATOM     96  N   UNL     1      10.620  11.653   6.583  1.00  0.00    -0.366 N 
ATOM     97  H   UNL     1      10.374  12.395   7.181  1.00  0.00     0.165 HD
ENDBRANCH  89  92
ENDBRANCH  85  89
ENDBRANCH  80  83
ENDBRANCH  78  79
ENDBRANCH  77  78
ENDBRANCH  76  77
ENDBRANCH   1  76
TORSDOF 18
