REMARK SMILES CC1=Nc2c(c(C)nn2-c2ccc(F)cc2)[C@H](c2ccc(C(=O)NCCCCCCNC(=O)c3ccc(-c4c5nc(c(-c6c(F)cc(S(=O)(=O)[O-])cc6F)c6ccc([nH]6)c(-c6c(F)cc(S(=O)(=O)[O-])cc6F)c6nc(c(-c7c(F)cc(S(=O)(=O)[O-])cc7F)c7ccc4[nH]7)C=C6)C=C5)cc3)cc2)S1
REMARK SMILES IDX 28 1 27 2 26 3 25 4 24 5 22 6 23 7 21 9 18 10 19 11 101 12
REMARK SMILES IDX 20 13 100 14 17 15 1 16 2 17 3 18 102 19 4 20 5 21 9 22 6 23
REMARK SMILES IDX 8 24 7 25 10 26 11 27 16 28 12 29 15 30 13 31 14 32 29 33
REMARK SMILES IDX 30 34 31 35 32 36 33 38 34 39 35 40 99 41 36 42 98 43 37 44
REMARK SMILES IDX 38 45 39 46 92 47 40 48 97 49 91 50 93 51 41 52 96 53 90 54
REMARK SMILES IDX 89 55 42 57 76 58 55 59 75 60 56 61 59 62 74 63 94 64 57 65
REMARK SMILES IDX 58 66 73 68 95 69 60 70 43 71 44 72 53 73 45 74 46 75 52 76
REMARK SMILES IDX 54 77 47 78 48 79 49 80 50 81 51 82 77 83 78 84 87 85 79 86
REMARK SMILES IDX 80 87 86 88 88 89 81 90 82 91 83 92 84 93 85 94 61 95 62 96
REMARK SMILES IDX 71 97 63 98 64 99 70 100 72 101 65 102 66 103 67 104 68 105
REMARK SMILES IDX 69 106
REMARK H PARENT 24 8 31 37 93 56 59 67
REMARK Flexibility Score: inf
ROOT
ATOM      1  C   UNL     1      -0.064  -0.578  10.085  1.00  0.00     0.002 C 
ENDROOT
BRANCH   1   2
ATOM      2  C   UNL     1       0.853   0.489   9.463  1.00  0.00     0.002 C 
BRANCH   2   3
ATOM      3  C   UNL     1       0.767   0.630   7.937  1.00  0.00     0.021 C 
BRANCH   3   4
ATOM      4  C   UNL     1      -0.647   0.915   7.432  1.00  0.00     0.116 C 
BRANCH   4   5
ATOM      5  N   UNL     1      -1.013   2.288   7.724  1.00  0.00    -0.352 N 
ATOM      6  C   UNL     1      -1.218   3.373   6.915  1.00  0.00     0.251 C 
ATOM      7  O   UNL     1      -1.559   4.432   7.441  1.00  0.00    -0.269 OA
ATOM      8  H   UNL     1      -1.137   2.474   8.682  1.00  0.00     0.163 HD
BRANCH   6   9
ATOM      9  C   UNL     1      -1.142   3.288   5.435  1.00  0.00     0.039 A 
ATOM     10  C   UNL     1      -1.222   3.177   2.608  1.00  0.00    -0.030 A 
ATOM     11  C   UNL     1      -2.103   4.005   3.325  1.00  0.00     0.006 A 
ATOM     12  C   UNL     1      -0.269   2.443   3.337  1.00  0.00     0.006 A 
ATOM     13  C   UNL     1      -2.055   4.068   4.717  1.00  0.00     0.014 A 
ATOM     14  C   UNL     1      -0.217   2.514   4.734  1.00  0.00     0.014 A 
BRANCH  10  15
ATOM     15  C   UNL     1      -1.287   3.175   1.089  1.00  0.00     0.119 C 
ATOM     16  C   UNL     1       0.974  -0.077  -0.121  1.00  0.00     0.075 C 
ATOM     17  C   UNL     1       0.491   1.344   0.005  1.00  0.00     0.074 C 
ATOM     18  N   UNL     1       1.345   2.297  -0.182  1.00  0.00    -0.227 NA
ATOM     19  S   UNL     1      -1.227   1.511   0.350  1.00  0.00    -0.098 SA
ATOM     20  C   UNL     1       0.952   3.576   0.030  1.00  0.00     0.161 A 
ATOM     21  C   UNL     1      -0.188   4.052   0.632  1.00  0.00     0.038 A 
ATOM     22  N   UNL     1       1.753   4.680  -0.220  1.00  0.00    -0.215 N 
ATOM     23  C   UNL     1      -0.003   5.456   0.712  1.00  0.00     0.067 A 
ATOM     24  N   UNL     1       1.199   5.826   0.256  1.00  0.00    -0.171 NA
ATOM     25  C   UNL     1      -0.925   6.486   1.252  1.00  0.00     0.069 C 
BRANCH  22  26
ATOM     26  C   UNL     1       2.964   4.697  -0.946  1.00  0.00     0.067 A 
ATOM     27  C   UNL     1       3.066   3.947  -2.127  1.00  0.00     0.031 A 
ATOM     28  C   UNL     1       4.056   5.427  -0.463  1.00  0.00     0.031 A 
ATOM     29  C   UNL     1       4.267   3.933  -2.830  1.00  0.00     0.041 A 
ATOM     30  C   UNL     1       5.274   5.355  -1.143  1.00  0.00     0.041 A 
ATOM     31  C   UNL     1       5.364   4.624  -2.325  1.00  0.00     0.123 A 
ATOM     32  F   UNL     1       6.521   4.583  -2.999  1.00  0.00    -0.207 F 
ENDBRANCH  22  26
ENDBRANCH  10  15
ENDBRANCH   6   9
ENDBRANCH   4   5
ENDBRANCH   3   4
ENDBRANCH   2   3
ENDBRANCH   1   2
BRANCH   1  33
ATOM     33  C   UNL     1      -0.004  -1.980   9.457  1.00  0.00     0.021 C 
BRANCH  33  34
ATOM     34  C   UNL     1       1.325  -2.690   9.667  1.00  0.00     0.116 C 
BRANCH  34  35
ATOM     35  N   UNL     1       1.571  -2.995  11.080  1.00  0.00    -0.352 N 
ATOM     36  C   UNL     1       2.711  -3.495  11.687  1.00  0.00     0.251 C 
ATOM     37  H   UNL     1       0.815  -2.818  11.686  1.00  0.00     0.163 HD
ATOM     38  O   UNL     1       2.646  -4.048  12.771  1.00  0.00    -0.269 OA
BRANCH  36  39
ATOM     39  C   UNL     1       4.006  -3.332  11.000  1.00  0.00     0.039 A 
ATOM     40  C   UNL     1       5.023  -4.290  11.074  1.00  0.00     0.014 A 
ATOM     41  C   UNL     1       4.180  -2.178  10.250  1.00  0.00     0.014 A 
ATOM     42  C   UNL     1       6.186  -4.088  10.331  1.00  0.00     0.010 A 
ATOM     43  C   UNL     1       5.196  -2.106   9.345  1.00  0.00     0.010 A 
ATOM     44  C   UNL     1       6.256  -2.990   9.462  1.00  0.00    -0.014 A 
BRANCH  44  45
ATOM     45  C   UNL     1       7.392  -2.749   8.586  1.00  0.00     0.031 A 
ATOM     46  C   UNL     1       7.649  -3.842   7.616  1.00  0.00     0.074 A 
ATOM     47  C   UNL     1       7.953  -1.522   8.475  1.00  0.00     0.049 A 
ATOM     48  N   UNL     1       8.651  -4.656   7.585  1.00  0.00    -0.248 NA
ATOM     49  C   UNL     1       6.577  -4.186   6.665  1.00  0.00     0.031 C 
ATOM     50  C   UNL     1       7.543  -0.268   9.129  1.00  0.00     0.029 A 
ATOM     51  N   UNL     1       8.943  -1.101   7.647  1.00  0.00    -0.354 N 
ATOM     52  C   UNL     1       8.457  -5.444   6.455  1.00  0.00     0.074 A 
ATOM     53  C   UNL     1       7.077  -5.277   6.083  1.00  0.00     0.031 C 
ATOM     54  C   UNL     1       8.108   0.784   8.497  1.00  0.00     0.029 A 
ATOM     55  C   UNL     1       9.051   0.282   7.517  1.00  0.00     0.049 A 
ATOM     56  H   UNL     1       9.540  -1.726   7.174  1.00  0.00     0.167 HD
ATOM     57  C   UNL     1       9.511  -5.947   5.754  1.00  0.00     0.037 A 
ATOM     58  C   UNL     1       9.843   0.953   6.641  1.00  0.00     0.037 A 
ATOM     59  C   UNL     1      10.734  -5.839   6.511  1.00  0.00     0.049 A 
ATOM     60  C   UNL     1      10.891  -0.008   6.203  1.00  0.00     0.074 A 
ATOM     61  C   UNL     1      11.161  -6.315   7.735  1.00  0.00     0.029 A 
ATOM     62  N   UNL     1      11.582  -4.804   6.194  1.00  0.00    -0.354 N 
ATOM     63  N   UNL     1      11.797  -0.510   7.000  1.00  0.00    -0.248 NA
ATOM     64  C   UNL     1      10.637  -0.771   4.991  1.00  0.00     0.031 C 
ATOM     65  C   UNL     1      11.921  -5.250   8.302  1.00  0.00     0.029 A 
ATOM     66  C   UNL     1      11.984  -4.215   7.366  1.00  0.00     0.049 A 
ATOM     67  H   UNL     1      11.854  -4.535   5.287  1.00  0.00     0.167 HD
ATOM     68  C   UNL     1      11.914  -1.839   6.615  1.00  0.00     0.074 A 
ATOM     69  C   UNL     1      11.238  -1.917   5.321  1.00  0.00     0.031 C 
ATOM     70  C   UNL     1      12.287  -2.805   7.507  1.00  0.00     0.037 A 
BRANCH  57  71
ATOM     71  C   UNL     1       9.507  -6.188   4.263  1.00  0.00     0.058 A 
ATOM     72  C   UNL     1       8.645  -5.531   3.356  1.00  0.00     0.135 A 
ATOM     73  C   UNL     1      10.572  -6.902   3.675  1.00  0.00     0.135 A 
ATOM     74  F   UNL     1       7.658  -4.722   3.759  1.00  0.00    -0.206 F 
ATOM     75  C   UNL     1       8.811  -5.589   1.979  1.00  0.00     0.059 A 
ATOM     76  C   UNL     1      10.794  -6.922   2.296  1.00  0.00     0.059 A 
ATOM     77  F   UNL     1      11.468  -7.544   4.443  1.00  0.00    -0.206 F 
ATOM     78  C   UNL     1       9.905  -6.261   1.457  1.00  0.00     0.060 A 
BRANCH  78  79
ATOM     79  S   UNL     1      10.176  -6.159  -0.319  1.00  0.00     0.124 S 
ATOM     80  O   UNL     1       9.050  -6.934  -0.829  1.00  0.00    -0.237 OA
ATOM     81  O   UNL     1      10.115  -4.720  -0.550  1.00  0.00    -0.237 OA
ATOM     82  O   UNL     1      11.491  -6.767  -0.493  1.00  0.00    -0.744 OA
ENDBRANCH  78  79
ENDBRANCH  57  71
BRANCH  58  83
ATOM     83  C   UNL     1       9.542   2.204   5.887  1.00  0.00     0.058 A 
ATOM     84  C   UNL     1       8.219   2.610   5.623  1.00  0.00     0.135 A 
ATOM     85  C   UNL     1      10.546   2.861   5.149  1.00  0.00     0.135 A 
ATOM     86  F   UNL     1       7.179   2.029   6.240  1.00  0.00    -0.206 F 
ATOM     87  C   UNL     1       7.905   3.555   4.646  1.00  0.00     0.059 A 
ATOM     88  C   UNL     1      10.256   3.809   4.159  1.00  0.00     0.059 A 
ATOM     89  F   UNL     1      11.835   2.533   5.329  1.00  0.00    -0.206 F 
ATOM     90  C   UNL     1       8.926   4.124   3.892  1.00  0.00     0.060 A 
BRANCH  90  91
ATOM     91  S   UNL     1       8.466   5.199   2.512  1.00  0.00     0.124 S 
ATOM     92  O   UNL     1       7.712   4.286   1.658  1.00  0.00    -0.237 OA
ATOM     93  O   UNL     1       7.677   6.231   3.177  1.00  0.00    -0.237 OA
ATOM     94  O   UNL     1       9.750   5.642   1.978  1.00  0.00    -0.744 OA
ENDBRANCH  90  91
ENDBRANCH  58  83
BRANCH  70  95
ATOM     95  C   UNL     1      12.862  -2.374   8.836  1.00  0.00     0.058 A 
ATOM     96  C   UNL     1      14.138  -2.847   9.179  1.00  0.00     0.135 A 
ATOM     97  C   UNL     1      12.152  -1.679   9.834  1.00  0.00     0.135 A 
ATOM     98  F   UNL     1      14.849  -3.562   8.292  1.00  0.00    -0.206 F 
ATOM     99  C   UNL     1      14.681  -2.657  10.445  1.00  0.00     0.059 A 
ATOM    100  C   UNL     1      12.691  -1.446  11.103  1.00  0.00     0.059 A 
ATOM    101  F   UNL     1      10.894  -1.270   9.626  1.00  0.00    -0.206 F 
ATOM    102  C   UNL     1      13.952  -1.955  11.403  1.00  0.00     0.060 A 
BRANCH 102 103
ATOM    103  S   UNL     1      14.678  -1.756  13.044  1.00  0.00     0.124 S 
ATOM    104  O   UNL     1      14.692  -3.130  13.538  1.00  0.00    -0.237 OA
ATOM    105  O   UNL     1      15.986  -1.185  12.738  1.00  0.00    -0.237 OA
ATOM    106  O   UNL     1      13.753  -0.858  13.730  1.00  0.00    -0.744 OA
ENDBRANCH 102 103
ENDBRANCH  70  95
ENDBRANCH  44  45
ENDBRANCH  36  39
ENDBRANCH  34  35
ENDBRANCH  33  34
ENDBRANCH   1  33
TORSDOF 18
