REMARK SMILES CCC1CN(c2cccc(F)c2C(=O)NCCCCCCNC(=O)c2ccc(-c3c4nc(c(-c5c(F)cc(S(=O)(=O)[O-])cc5F)c5ccc([nH]5)c(-c5c(F)cc(S(=O)(=O)[O-])cc5F)c5nc(c(-c6c(F)cc(S(=O)(=O)[O-])cc6F)c6ccc3[nH]6)C=C5)C=C4)cc2)C1
REMARK SMILES IDX 19 1 18 2 17 3 16 4 15 5 13 6 14 7 12 9 6 10 7 11 8 12 10 13
REMARK SMILES IDX 9 14 11 15 5 16 3 17 4 18 91 19 2 20 1 21 20 22 21 23 22 24
REMARK SMILES IDX 23 25 24 27 25 28 26 29 90 30 27 31 89 32 28 33 29 34 30 35
REMARK SMILES IDX 83 36 31 37 88 38 82 39 84 40 32 41 87 42 81 43 80 44 33 46
REMARK SMILES IDX 67 47 46 48 66 49 47 50 50 51 65 52 85 53 48 54 49 55 64 57
REMARK SMILES IDX 86 58 51 59 34 60 35 61 44 62 36 63 37 64 43 65 45 66 38 67
REMARK SMILES IDX 39 68 40 69 41 70 42 71 68 72 69 73 78 74 70 75 71 76 77 77
REMARK SMILES IDX 79 78 72 79 73 80 74 81 75 82 76 83 52 84 53 85 62 86 54 87
REMARK SMILES IDX 55 88 61 89 63 90 56 91 57 92 58 93 59 94 60 95
REMARK H PARENT 15 8 22 26 84 45 50 56
REMARK Flexibility Score: inf
ROOT
ATOM      1  C   UNL     1      -6.447  -4.631   6.624  1.00  0.00     0.002 C 
ENDROOT
BRANCH   1   2
ATOM      2  C   UNL     1      -5.661  -3.328   6.793  1.00  0.00     0.002 C 
BRANCH   2   3
ATOM      3  C   UNL     1      -4.209  -3.442   7.264  1.00  0.00     0.021 C 
BRANCH   3   4
ATOM      4  C   UNL     1      -3.295  -4.390   6.490  1.00  0.00     0.116 C 
BRANCH   4   5
ATOM      5  N   UNL     1      -3.216  -4.123   5.065  1.00  0.00    -0.352 N 
ATOM      6  C   UNL     1      -2.195  -4.323   4.157  1.00  0.00     0.256 C 
ATOM      7  O   UNL     1      -2.475  -4.166   2.969  1.00  0.00    -0.269 OA
ATOM      8  H   UNL     1      -4.032  -3.732   4.679  1.00  0.00     0.163 HD
BRANCH   6   9
ATOM      9  C   UNL     1      -0.804  -4.673   4.572  1.00  0.00     0.098 A 
ATOM     10  C   UNL     1       0.316  -4.100   3.922  1.00  0.00     0.053 A 
ATOM     11  C   UNL     1       1.612  -4.411   4.386  1.00  0.00     0.027 A 
ATOM     12  C   UNL     1       1.813  -5.306   5.434  1.00  0.00     0.005 A 
ATOM     13  C   UNL     1      -0.568  -5.646   5.551  1.00  0.00     0.138 A 
ATOM     14  C   UNL     1       0.719  -5.944   5.999  1.00  0.00     0.040 A 
ATOM     15  F   UNL     1      -1.569  -6.374   6.065  1.00  0.00    -0.206 F 
BRANCH  10  16
ATOM     16  N   UNL     1       0.192  -3.304   2.764  1.00  0.00    -0.370 N 
ATOM     17  C   UNL     1       1.008  -1.958   1.413  1.00  0.00     0.028 C 
ATOM     18  C   UNL     1       0.113  -1.881   2.666  1.00  0.00     0.122 C 
ATOM     19  C   UNL     1       0.871  -3.478   1.518  1.00  0.00     0.122 C 
BRANCH  17  20
ATOM     20  C   UNL     1       0.496  -1.367   0.106  1.00  0.00     0.004 C 
ATOM     21  C   UNL     1       0.802   0.119   0.032  1.00  0.00     0.004 C 
ENDBRANCH  17  20
ENDBRANCH  10  16
ENDBRANCH   6   9
ENDBRANCH   4   5
ENDBRANCH   3   4
ENDBRANCH   2   3
ENDBRANCH   1   2
BRANCH   1  22
ATOM     22  C   UNL     1      -6.479  -5.580   7.824  1.00  0.00     0.021 C 
BRANCH  22  23
ATOM     23  C   UNL     1      -6.915  -4.979   9.156  1.00  0.00     0.116 C 
BRANCH  23  24
ATOM     24  N   UNL     1      -8.254  -4.420   9.123  1.00  0.00    -0.352 N 
ATOM     25  C   UNL     1      -9.287  -4.553  10.019  1.00  0.00     0.251 C 
ATOM     26  H   UNL     1      -8.452  -3.858   8.339  1.00  0.00     0.163 HD
ATOM     27  O   UNL     1     -10.387  -4.083   9.741  1.00  0.00    -0.269 OA
BRANCH  25  28
ATOM     28  C   UNL     1      -9.101  -5.278  11.301  1.00  0.00     0.039 A 
ATOM     29  C   UNL     1     -10.128  -6.117  11.745  1.00  0.00     0.014 A 
ATOM     30  C   UNL     1      -7.956  -5.113  12.086  1.00  0.00     0.014 A 
ATOM     31  C   UNL     1      -9.988  -6.820  12.945  1.00  0.00     0.010 A 
ATOM     32  C   UNL     1      -7.787  -5.868  13.249  1.00  0.00     0.010 A 
ATOM     33  C   UNL     1      -8.806  -6.722  13.697  1.00  0.00    -0.014 A 
BRANCH  33  34
ATOM     34  C   UNL     1      -8.638  -7.503  14.952  1.00  0.00     0.031 A 
ATOM     35  C   UNL     1      -8.525  -6.803  16.280  1.00  0.00     0.074 A 
ATOM     36  C   UNL     1      -8.570  -8.848  14.894  1.00  0.00     0.049 A 
ATOM     37  N   UNL     1      -8.390  -7.319  17.475  1.00  0.00    -0.248 NA
ATOM     38  C   UNL     1      -8.545  -5.331  16.264  1.00  0.00     0.031 C 
ATOM     39  C   UNL     1      -8.621  -9.642  13.665  1.00  0.00     0.029 A 
ATOM     40  N   UNL     1      -8.454  -9.786  15.890  1.00  0.00    -0.354 N 
ATOM     41  C   UNL     1      -8.305  -6.240  18.349  1.00  0.00     0.074 A 
ATOM     42  C   UNL     1      -8.347  -5.041  17.542  1.00  0.00     0.031 C 
ATOM     43  C   UNL     1      -8.580 -10.946  13.981  1.00  0.00     0.029 A 
ATOM     44  C   UNL     1      -8.469 -11.083  15.431  1.00  0.00     0.049 A 
ATOM     45  H   UNL     1      -8.367  -9.553  16.842  1.00  0.00     0.167 HD
ATOM     46  C   UNL     1      -8.229  -6.248  19.701  1.00  0.00     0.037 A 
ATOM     47  C   UNL     1      -8.410 -12.252  16.100  1.00  0.00     0.037 A 
ATOM     48  C   UNL     1      -8.217  -7.445  20.503  1.00  0.00     0.049 A 
ATOM     49  C   UNL     1      -8.330 -12.237  17.601  1.00  0.00     0.074 A 
ATOM     50  C   UNL     1      -8.199  -7.555  21.882  1.00  0.00     0.029 A 
ATOM     51  N   UNL     1      -8.226  -8.738  20.000  1.00  0.00    -0.354 N 
ATOM     52  N   UNL     1      -8.306 -11.207  18.413  1.00  0.00    -0.248 NA
ATOM     53  C   UNL     1      -8.275 -13.540  18.279  1.00  0.00     0.031 C 
ATOM     54  C   UNL     1      -8.153  -8.913  22.213  1.00  0.00     0.029 A 
ATOM     55  C   UNL     1      -8.191  -9.651  21.041  1.00  0.00     0.049 A 
ATOM     56  H   UNL     1      -8.252  -8.972  19.044  1.00  0.00     0.167 HD
ATOM     57  C   UNL     1      -8.249 -11.736  19.698  1.00  0.00     0.074 A 
ATOM     58  C   UNL     1      -8.259 -13.178  19.555  1.00  0.00     0.031 C 
ATOM     59  C   UNL     1      -8.195 -11.085  20.886  1.00  0.00     0.037 A 
BRANCH  46  60
ATOM     60  C   UNL     1      -8.169  -4.921  20.408  1.00  0.00     0.058 A 
ATOM     61  C   UNL     1      -7.001  -4.515  21.072  1.00  0.00     0.135 A 
ATOM     62  C   UNL     1      -9.287  -4.073  20.475  1.00  0.00     0.135 A 
ATOM     63  F   UNL     1      -5.900  -5.283  21.038  1.00  0.00    -0.206 F 
ATOM     64  C   UNL     1      -6.946  -3.321  21.785  1.00  0.00     0.059 A 
ATOM     65  C   UNL     1      -9.246  -2.862  21.160  1.00  0.00     0.059 A 
ATOM     66  F   UNL     1     -10.424  -4.404  19.842  1.00  0.00    -0.206 F 
ATOM     67  C   UNL     1      -8.074  -2.501  21.823  1.00  0.00     0.060 A 
BRANCH  67  68
ATOM     68  S   UNL     1      -7.974  -0.934  22.716  1.00  0.00     0.124 S 
ATOM     69  O   UNL     1      -7.945  -1.381  24.104  1.00  0.00    -0.237 OA
ATOM     70  O   UNL     1      -6.730  -0.367  22.202  1.00  0.00    -0.237 OA
ATOM     71  O   UNL     1      -9.187  -0.233  22.304  1.00  0.00    -0.744 OA
ENDBRANCH  67  68
ENDBRANCH  46  60
BRANCH  47  72
ATOM     72  C   UNL     1      -8.481 -13.531  15.346  1.00  0.00     0.058 A 
ATOM     73  C   UNL     1      -7.420 -13.960  14.534  1.00  0.00     0.135 A 
ATOM     74  C   UNL     1      -9.639 -14.322  15.380  1.00  0.00     0.135 A 
ATOM     75  F   UNL     1      -6.293 -13.236  14.460  1.00  0.00    -0.206 F 
ATOM     76  C   UNL     1      -7.516 -15.111  13.758  1.00  0.00     0.059 A 
ATOM     77  C   UNL     1      -9.751 -15.489  14.631  1.00  0.00     0.059 A 
ATOM     78  F   UNL     1     -10.675 -13.958  16.152  1.00  0.00    -0.206 F 
ATOM     79  C   UNL     1      -8.691 -15.864  13.807  1.00  0.00     0.060 A 
BRANCH  79  80
ATOM     80  S   UNL     1      -8.810 -17.333  12.764  1.00  0.00     0.124 S 
ATOM     81  O   UNL     1      -8.879 -16.739  11.432  1.00  0.00    -0.237 OA
ATOM     82  O   UNL     1      -7.572 -18.036  13.083  1.00  0.00    -0.237 OA
ATOM     83  O   UNL     1     -10.034 -17.979  13.228  1.00  0.00    -0.744 OA
ENDBRANCH  79  80
ENDBRANCH  47  72
BRANCH  59  84
ATOM     84  C   UNL     1      -8.148 -11.919  22.136  1.00  0.00     0.058 A 
ATOM     85  C   UNL     1      -9.252 -11.969  23.002  1.00  0.00     0.135 A 
ATOM     86  C   UNL     1      -6.985 -12.609  22.514  1.00  0.00     0.135 A 
ATOM     87  F   UNL     1     -10.386 -11.323  22.691  1.00  0.00    -0.206 F 
ATOM     88  C   UNL     1      -9.199 -12.660  24.208  1.00  0.00     0.059 A 
ATOM     89  C   UNL     1      -6.918 -13.328  23.704  1.00  0.00     0.059 A 
ATOM     90  F   UNL     1      -5.906 -12.601  21.715  1.00  0.00    -0.206 F 
ATOM     91  C   UNL     1      -8.026 -13.334  24.552  1.00  0.00     0.060 A 
BRANCH  91  92
ATOM     92  S   UNL     1      -7.978 -14.239  26.114  1.00  0.00     0.124 S 
ATOM     93  O   UNL     1      -7.926 -13.153  27.087  1.00  0.00    -0.237 OA
ATOM     94  O   UNL     1      -9.227 -14.994  26.072  1.00  0.00    -0.237 OA
ATOM     95  O   UNL     1      -6.764 -15.042  26.003  1.00  0.00    -0.744 OA
ENDBRANCH  91  92
ENDBRANCH  59  84
ENDBRANCH  33  34
ENDBRANCH  25  28
ENDBRANCH  23  24
ENDBRANCH  22  23
ENDBRANCH   1  22
TORSDOF 18
