REMARK SMILES CCc1ccc([C@H](C)[N@@H+]2[C@@H](C(=O)NCCCCCCNC(=O)c3ccc(-c4c5nc(c(-c6c(F)cc(S(=O)(=O)[O-])cc6F)c6ccc([nH]6)c(-c6c(F)cc(S(=O)(=O)[O-])cc6F)c6nc(c(-c7c(F)cc(S(=O)(=O)[O-])cc7F)c7ccc4[nH]7)C=C6)C=C5)cc3)C[C@H]3CCCC[C@H]32)s1
REMARK SMILES IDX 16 1 15 2 14 3 13 4 11 5 12 6 10 8 9 9 95 10 89 12 90 13
REMARK SMILES IDX 94 14 91 15 93 16 92 17 7 18 8 19 6 20 3 21 4 22 96 23 5 24
REMARK SMILES IDX 2 25 1 26 17 27 18 28 19 29 20 30 21 31 22 33 23 34 24 35
REMARK SMILES IDX 88 36 25 37 87 38 26 39 27 40 28 41 81 42 29 43 86 44 80 45
REMARK SMILES IDX 82 46 30 47 85 48 79 49 78 50 31 52 65 53 44 54 64 55 45 56
REMARK SMILES IDX 48 57 63 58 83 59 46 60 47 61 62 63 84 64 49 65 32 66 33 67
REMARK SMILES IDX 42 68 34 69 35 70 41 71 43 72 36 73 37 74 38 75 39 76 40 77
REMARK SMILES IDX 66 78 67 79 76 80 68 81 69 82 75 83 77 84 70 85 71 86 72 87
REMARK SMILES IDX 73 88 74 89 50 90 51 91 60 92 52 93 53 94 59 95 61 96 54 97
REMARK SMILES IDX 55 98 56 99 57 100 58 101
REMARK H PARENT 13 7 9 11 20 32 82 51 48 62
REMARK Flexibility Score: inf
ROOT
ATOM      1  C   UNL     1       8.653  -3.929   5.669  1.00  0.00     0.002 C 
ENDROOT
BRANCH   1   2
ATOM      2  C   UNL     1       7.502  -3.296   4.880  1.00  0.00     0.021 C 
BRANCH   2   3
ATOM      3  C   UNL     1       6.767  -4.252   3.943  1.00  0.00     0.116 C 
BRANCH   3   4
ATOM      4  N   UNL     1       6.108  -5.316   4.678  1.00  0.00    -0.351 N 
ATOM      5  C   UNL     1       4.793  -5.694   4.667  1.00  0.00     0.278 C 
ATOM      6  O   UNL     1       4.454  -6.587   5.446  1.00  0.00    -0.268 OA
ATOM      7  H   UNL     1       6.692  -5.842   5.270  1.00  0.00     0.163 HD
BRANCH   5   8
ATOM      8  C   UNL     1       3.833  -4.980   3.690  1.00  0.00     0.275 C 
ATOM      9  N   UNL     1       2.432  -5.429   3.901  1.00  0.00    -0.315 N 
ATOM     10  C   UNL     1       1.984  -6.135   2.694  1.00  0.00     0.188 C 
ATOM     11  H   UNL     1       2.394  -6.101   4.668  1.00  0.00     0.349 HD
ATOM     12  C   UNL     1       4.177  -5.328   2.234  1.00  0.00     0.085 C 
ATOM     13  C   UNL     1       2.826  -5.542   1.570  1.00  0.00     0.054 C 
ATOM     14  C   UNL     1       2.226  -7.644   2.894  1.00  0.00     0.065 C 
ATOM     15  C   UNL     1       2.858  -6.383   0.296  1.00  0.00     0.010 C 
ATOM     16  C   UNL     1       2.129  -8.420   1.586  1.00  0.00     0.006 C 
ATOM     17  C   UNL     1       3.098  -7.868   0.547  1.00  0.00     0.001 C 
BRANCH   9  18
ATOM     18  C   UNL     1       1.535  -4.390   4.440  1.00  0.00     0.223 C 
ATOM     19  C   UNL     1       1.343  -3.163   3.531  1.00  0.00     0.082 C 
BRANCH  18  20
ATOM     20  C   UNL     1       0.225  -5.018   4.918  1.00  0.00     0.062 A 
ATOM     21  C   UNL     1      -2.148  -5.684   5.285  1.00  0.00     0.005 A 
ATOM     22  C   UNL     1      -1.271  -6.404   6.071  1.00  0.00     0.016 A 
ATOM     23  S   UNL     1      -1.310  -4.558   4.305  1.00  0.00    -0.139 S 
ATOM     24  C   UNL     1       0.086  -6.017   5.866  1.00  0.00     0.022 A 
BRANCH  21  25
ATOM     25  C   UNL     1      -3.642  -5.766   5.159  1.00  0.00     0.043 C 
ATOM     26  C   UNL     1      -4.319  -6.555   6.268  1.00  0.00     0.010 C 
ENDBRANCH  21  25
ENDBRANCH  18  20
ENDBRANCH   9  18
ENDBRANCH   5   8
ENDBRANCH   3   4
ENDBRANCH   2   3
ENDBRANCH   1   2
BRANCH   1  27
ATOM     27  C   UNL     1       9.745  -4.589   4.823  1.00  0.00     0.002 C 
BRANCH  27  28
ATOM     28  C   UNL     1      10.387  -3.689   3.764  1.00  0.00     0.021 C 
BRANCH  28  29
ATOM     29  C   UNL     1      11.001  -2.400   4.300  1.00  0.00     0.116 C 
BRANCH  29  30
ATOM     30  N   UNL     1      12.111  -2.646   5.207  1.00  0.00    -0.352 N 
ATOM     31  C   UNL     1      13.361  -2.075   5.212  1.00  0.00     0.251 C 
ATOM     32  H   UNL     1      11.944  -3.311   5.914  1.00  0.00     0.163 HD
ATOM     33  O   UNL     1      14.236  -2.510   5.955  1.00  0.00    -0.269 OA
BRANCH  31  34
ATOM     34  C   UNL     1      13.652  -0.952   4.295  1.00  0.00     0.039 A 
ATOM     35  C   UNL     1      14.815  -0.989   3.521  1.00  0.00     0.014 A 
ATOM     36  C   UNL     1      12.768   0.126   4.190  1.00  0.00     0.014 A 
ATOM     37  C   UNL     1      15.059   0.026   2.591  1.00  0.00     0.010 A 
ATOM     38  C   UNL     1      12.981   1.100   3.219  1.00  0.00     0.010 A 
ATOM     39  C   UNL     1      14.128   1.060   2.410  1.00  0.00    -0.014 A 
BRANCH  39  40
ATOM     40  C   UNL     1      14.328   2.127   1.395  1.00  0.00     0.031 A 
ATOM     41  C   UNL     1      14.491   3.555   1.839  1.00  0.00     0.074 A 
ATOM     42  C   UNL     1      14.271   1.828   0.083  1.00  0.00     0.049 A 
ATOM     43  N   UNL     1      14.523   4.646   1.120  1.00  0.00    -0.248 NA
ATOM     44  C   UNL     1      14.600   3.785   3.289  1.00  0.00     0.031 C 
ATOM     45  C   UNL     1      14.089   0.486  -0.475  1.00  0.00     0.029 A 
ATOM     46  N   UNL     1      14.340   2.639  -1.023  1.00  0.00    -0.354 N 
ATOM     47  C   UNL     1      14.630   5.693   2.028  1.00  0.00     0.074 A 
ATOM     48  C   UNL     1      14.613   5.108   3.352  1.00  0.00     0.031 C 
ATOM     49  C   UNL     1      14.070   0.565  -1.815  1.00  0.00     0.029 A 
ATOM     50  C   UNL     1      14.195   1.965  -2.213  1.00  0.00     0.049 A 
ATOM     51  H   UNL     1      14.480   3.612  -0.970  1.00  0.00     0.167 HD
ATOM     52  C   UNL     1      14.749   7.020   1.781  1.00  0.00     0.037 A 
ATOM     53  C   UNL     1      14.150   2.424  -3.479  1.00  0.00     0.037 A 
ATOM     54  C   UNL     1      14.796   7.591   0.461  1.00  0.00     0.049 A 
ATOM     55  C   UNL     1      14.285   3.901  -3.732  1.00  0.00     0.074 A 
ATOM     56  C   UNL     1      14.961   8.918   0.103  1.00  0.00     0.029 A 
ATOM     57  N   UNL     1      14.684   6.870  -0.718  1.00  0.00    -0.354 N 
ATOM     58  N   UNL     1      14.421   4.875  -2.863  1.00  0.00    -0.248 NA
ATOM     59  C   UNL     1      14.262   4.344  -5.133  1.00  0.00     0.031 C 
ATOM     60  C   UNL     1      14.915   9.003  -1.292  1.00  0.00     0.029 A 
ATOM     61  C   UNL     1      14.766   7.724  -1.805  1.00  0.00     0.049 A 
ATOM     62  H   UNL     1      14.564   5.894  -0.774  1.00  0.00     0.167 HD
ATOM     63  C   UNL     1      14.537   6.040  -3.614  1.00  0.00     0.074 A 
ATOM     64  C   UNL     1      14.452   5.651  -5.006  1.00  0.00     0.031 C 
ATOM     65  C   UNL     1      14.703   7.316  -3.187  1.00  0.00     0.037 A 
BRANCH  52  66
ATOM     66  C   UNL     1      14.834   7.941   2.966  1.00  0.00     0.058 A 
ATOM     67  C   UNL     1      15.969   7.977   3.792  1.00  0.00     0.135 A 
ATOM     68  C   UNL     1      13.774   8.810   3.273  1.00  0.00     0.135 A 
ATOM     69  F   UNL     1      17.005   7.157   3.553  1.00  0.00    -0.206 F 
ATOM     70  C   UNL     1      16.035   8.813   4.901  1.00  0.00     0.059 A 
ATOM     71  C   UNL     1      13.831   9.676   4.361  1.00  0.00     0.059 A 
ATOM     72  F   UNL     1      12.665   8.818   2.516  1.00  0.00    -0.206 F 
ATOM     73  C   UNL     1      14.959   9.656   5.181  1.00  0.00     0.060 A 
BRANCH  73  74
ATOM     74  S   UNL     1      15.053  10.725   6.632  1.00  0.00     0.124 S 
ATOM     75  O   UNL     1      14.830   9.768   7.711  1.00  0.00    -0.237 OA
ATOM     76  O   UNL     1      16.404  11.267   6.535  1.00  0.00    -0.237 OA
ATOM     77  O   UNL     1      13.977  11.687   6.415  1.00  0.00    -0.744 OA
ENDBRANCH  73  74
ENDBRANCH  52  66
BRANCH  53  78
ATOM     78  C   UNL     1      13.993   1.468  -4.608  1.00  0.00     0.058 A 
ATOM     79  C   UNL     1      15.065   1.191  -5.468  1.00  0.00     0.135 A 
ATOM     80  C   UNL     1      12.781   0.800  -4.837  1.00  0.00     0.135 A 
ATOM     81  F   UNL     1      16.242   1.811  -5.294  1.00  0.00    -0.206 F 
ATOM     82  C   UNL     1      14.940   0.293  -6.524  1.00  0.00     0.059 A 
ATOM     83  C   UNL     1      12.638  -0.120  -5.872  1.00  0.00     0.059 A 
ATOM     84  F   UNL     1      11.729   1.018  -4.032  1.00  0.00    -0.206 F 
ATOM     85  C   UNL     1      13.722  -0.360  -6.715  1.00  0.00     0.060 A 
BRANCH  85  86
ATOM     86  S   UNL     1      13.587  -1.567  -8.053  1.00  0.00     0.124 S 
ATOM     87  O   UNL     1      13.532  -0.700  -9.224  1.00  0.00    -0.237 OA
ATOM     88  O   UNL     1      14.811  -2.345  -7.889  1.00  0.00    -0.237 OA
ATOM     89  O   UNL     1      12.353  -2.280  -7.736  1.00  0.00    -0.744 OA
ENDBRANCH  85  86
ENDBRANCH  53  78
BRANCH  65  90
ATOM     90  C   UNL     1      14.860   8.387  -4.229  1.00  0.00     0.058 A 
ATOM     91  C   UNL     1      13.767   8.866  -4.968  1.00  0.00     0.135 A 
ATOM     92  C   UNL     1      16.108   8.998  -4.430  1.00  0.00     0.135 A 
ATOM     93  F   UNL     1      12.555   8.310  -4.818  1.00  0.00    -0.206 F 
ATOM     94  C   UNL     1      13.909   9.910  -5.876  1.00  0.00     0.059 A 
ATOM     95  C   UNL     1      16.268  10.059  -5.315  1.00  0.00     0.059 A 
ATOM     96  F   UNL     1      17.183   8.581  -3.741  1.00  0.00    -0.206 F 
ATOM     97  C   UNL     1      15.162  10.505  -6.037  1.00  0.00     0.060 A 
BRANCH  97  98
ATOM     98  S   UNL     1      15.320  11.901  -7.172  1.00  0.00     0.124 S 
ATOM     99  O   UNL     1      15.268  11.234  -8.468  1.00  0.00    -0.237 OA
ATOM    100  O   UNL     1      14.157  12.714  -6.830  1.00  0.00    -0.237 OA
ATOM    101  O   UNL     1      16.610  12.484  -6.816  1.00  0.00    -0.744 OA
ENDBRANCH  97  98
ENDBRANCH  65  90
ENDBRANCH  39  40
ENDBRANCH  31  34
ENDBRANCH  29  30
ENDBRANCH  28  29
ENDBRANCH  27  28
ENDBRANCH   1  27
TORSDOF 19
