REMARK SMILES O=C1CC[C@@H](CC(=O)N2CCC(Oc3ccccc3)(C(=O)NCCCCCCNC(=O)c3ccc(-c4c5nc(c(-c6c(F)cc(S(=O)(=O)[O-])cc6F)c6ccc([nH]6)c(-c6c(F)cc(S(=O)(=O)[O-])cc6F)c6nc(c(-c7c(F)cc(S(=O)(=O)[O-])cc7F)c7ccc4[nH]7)C=C6)C=C5)cc3)CC2)N1
REMARK SMILES IDX 26 1 25 2 24 3 23 4 22 5 20 6 21 7 12 9 7 10 8 11 9 12 10 13
REMARK SMILES IDX 99 14 11 15 98 16 6 17 5 18 1 19 2 20 3 21 100 22 4 23 13 25
REMARK SMILES IDX 14 26 15 27 19 28 16 29 18 30 17 31 27 32 28 33 29 34 30 35
REMARK SMILES IDX 31 37 32 38 33 39 97 40 34 41 96 42 35 43 36 44 37 45 90 46
REMARK SMILES IDX 38 47 95 48 89 49 91 50 39 51 94 52 88 53 87 54 40 56 74 57
REMARK SMILES IDX 53 58 73 59 54 60 57 61 72 62 92 63 55 64 56 65 71 67 93 68
REMARK SMILES IDX 58 69 41 70 42 71 51 72 43 73 44 74 50 75 52 76 45 77 46 78
REMARK SMILES IDX 47 79 48 80 49 81 75 82 76 83 85 84 77 85 78 86 84 87 86 88
REMARK SMILES IDX 79 89 80 90 81 91 82 92 83 93 59 94 60 95 69 96 61 97 62 98
REMARK SMILES IDX 68 99 70 100 63 101 64 102 65 103 66 104 67 105
REMARK H PARENT 22 8 100 24 29 36 91 55 57 66
REMARK Flexibility Score: inf
ROOT
ATOM      1  C   UNL     1       1.168   4.002  -8.847  1.00  0.00     0.002 C 
ENDROOT
BRANCH   1   2
ATOM      2  C   UNL     1       0.058   3.136  -8.242  1.00  0.00     0.002 C 
BRANCH   2   3
ATOM      3  C   UNL     1       0.500   1.722  -7.842  1.00  0.00     0.021 C 
BRANCH   3   4
ATOM      4  C   UNL     1       1.721   1.707  -6.931  1.00  0.00     0.116 C 
BRANCH   4   5
ATOM      5  N   UNL     1       1.394   2.353  -5.684  1.00  0.00    -0.353 N 
ATOM      6  C   UNL     1       1.282   1.832  -4.438  1.00  0.00     0.264 C 
ATOM      7  O   UNL     1       0.981   2.643  -3.555  1.00  0.00    -0.270 OA
ATOM      8  H   UNL     1       1.227   3.321  -5.747  1.00  0.00     0.163 HD
BRANCH   6   9
ATOM      9  C   UNL     1       1.555   0.326  -4.151  1.00  0.00     0.190 C 
ATOM     10  C   UNL     1      -1.584  -1.655  -2.248  1.00  0.00     0.224 C 
ATOM     11  O   UNL     1      -1.862  -2.686  -2.876  1.00  0.00    -0.275 OA
ATOM     12  N   UNL     1      -0.901  -0.633  -2.876  1.00  0.00    -0.342 N 
ATOM     13  C   UNL     1      -0.851  -0.559  -4.336  1.00  0.00     0.124 C 
ATOM     14  C   UNL     1      -0.033   0.306  -2.214  1.00  0.00     0.124 C 
ATOM     15  C   UNL     1       0.581  -0.646  -4.857  1.00  0.00     0.080 C 
ATOM     16  C   UNL     1       1.421   0.133  -2.636  1.00  0.00     0.080 C 
BRANCH  10  17
ATOM     17  C   UNL     1      -2.238  -1.484  -0.863  1.00  0.00     0.125 C 
BRANCH  17  18
ATOM     18  C   UNL     1      -1.650  -0.862   0.406  1.00  0.00     0.091 C 
ATOM     19  O   UNL     1       1.602  -0.158   1.538  1.00  0.00    -0.275 OA
ATOM     20  C   UNL     1       0.437  -0.109   1.176  1.00  0.00     0.220 C 
ATOM     21  C   UNL     1      -0.419   1.131   1.107  1.00  0.00     0.102 C 
ATOM     22  N   UNL     1      -0.290  -1.185   0.717  1.00  0.00    -0.353 N 
ATOM     23  C   UNL     1      -1.752   0.662   0.515  1.00  0.00     0.035 C 
ATOM     24  H   UNL     1       0.088  -2.088   0.613  1.00  0.00     0.163 HD
ENDBRANCH  17  18
ENDBRANCH  10  17
BRANCH   9  25
ATOM     25  O   UNL     1       2.934   0.227  -4.592  1.00  0.00    -0.477 OA
BRANCH  25  26
ATOM     26  C   UNL     1       3.594  -0.947  -4.393  1.00  0.00     0.120 A 
ATOM     27  C   UNL     1       4.578  -0.991  -3.408  1.00  0.00     0.046 A 
ATOM     28  C   UNL     1       3.416  -2.027  -5.253  1.00  0.00     0.046 A 
ATOM     29  C   UNL     1       5.332  -2.152  -3.232  1.00  0.00     0.004 A 
ATOM     30  C   UNL     1       4.153  -3.195  -5.064  1.00  0.00     0.004 A 
ATOM     31  C   UNL     1       5.107  -3.259  -4.050  1.00  0.00     0.000 A 
ENDBRANCH  25  26
ENDBRANCH   9  25
ENDBRANCH   6   9
ENDBRANCH   4   5
ENDBRANCH   3   4
ENDBRANCH   2   3
ENDBRANCH   1   2
BRANCH   1  32
ATOM     32  C   UNL     1       1.928   3.342  -9.999  1.00  0.00     0.021 C 
BRANCH  32  33
ATOM     33  C   UNL     1       1.037   2.896 -11.149  1.00  0.00     0.116 C 
BRANCH  33  34
ATOM     34  N   UNL     1       0.377   4.024 -11.781  1.00  0.00    -0.352 N 
ATOM     35  C   UNL     1       0.391   4.392 -13.103  1.00  0.00     0.251 C 
ATOM     36  H   UNL     1      -0.150   4.602 -11.183  1.00  0.00     0.163 HD
ATOM     37  O   UNL     1      -0.020   5.497 -13.440  1.00  0.00    -0.269 OA
BRANCH  35  38
ATOM     38  C   UNL     1       0.922   3.448 -14.107  1.00  0.00     0.039 A 
ATOM     39  C   UNL     1       1.800   3.920 -15.083  1.00  0.00     0.014 A 
ATOM     40  C   UNL     1       0.564   2.096 -14.071  1.00  0.00     0.014 A 
ATOM     41  C   UNL     1       2.358   3.024 -15.995  1.00  0.00     0.010 A 
ATOM     42  C   UNL     1       1.185   1.194 -14.926  1.00  0.00     0.010 A 
ATOM     43  C   UNL     1       2.080   1.649 -15.905  1.00  0.00    -0.014 A 
BRANCH  43  44
ATOM     44  C   UNL     1       2.714   0.675 -16.829  1.00  0.00     0.031 A 
ATOM     45  C   UNL     1       1.865  -0.136 -17.770  1.00  0.00     0.074 A 
ATOM     46  C   UNL     1       4.047   0.481 -16.779  1.00  0.00     0.049 A 
ATOM     47  N   UNL     1       2.227  -1.067 -18.614  1.00  0.00    -0.248 NA
ATOM     48  C   UNL     1       0.414   0.113 -17.737  1.00  0.00     0.031 C 
ATOM     49  C   UNL     1       4.969   1.175 -15.877  1.00  0.00     0.029 A 
ATOM     50  N   UNL     1       4.858  -0.360 -17.499  1.00  0.00    -0.354 N 
ATOM     51  C   UNL     1       1.052  -1.522 -19.203  1.00  0.00     0.074 A 
ATOM     52  C   UNL     1      -0.038  -0.807 -18.576  1.00  0.00     0.031 C 
ATOM     53  C   UNL     1       6.220   0.753 -16.117  1.00  0.00     0.029 A 
ATOM     54  C   UNL     1       6.187  -0.271 -17.157  1.00  0.00     0.049 A 
ATOM     55  H   UNL     1       4.520  -0.970 -18.194  1.00  0.00     0.167 HD
ATOM     56  C   UNL     1       0.899  -2.434 -20.192  1.00  0.00     0.037 A 
ATOM     57  C   UNL     1       7.257  -0.943 -17.624  1.00  0.00     0.037 A 
ATOM     58  C   UNL     1       1.994  -3.128 -20.820  1.00  0.00     0.049 A 
ATOM     59  C   UNL     1       7.061  -1.964 -18.712  1.00  0.00     0.074 A 
ATOM     60  C   UNL     1       1.952  -4.028 -21.870  1.00  0.00     0.029 A 
ATOM     61  N   UNL     1       3.327  -3.008 -20.450  1.00  0.00    -0.354 N 
ATOM     62  N   UNL     1       5.952  -2.332 -19.307  1.00  0.00    -0.248 NA
ATOM     63  C   UNL     1       8.263  -2.656 -19.197  1.00  0.00     0.031 C 
ATOM     64  C   UNL     1       3.250  -4.496 -22.096  1.00  0.00     0.029 A 
ATOM     65  C   UNL     1       4.112  -3.840 -21.232  1.00  0.00     0.049 A 
ATOM     66  H   UNL     1       3.664  -2.418 -19.738  1.00  0.00     0.167 HD
ATOM     67  C   UNL     1       6.324  -3.277 -20.257  1.00  0.00     0.074 A 
ATOM     68  C   UNL     1       7.764  -3.415 -20.163  1.00  0.00     0.031 C 
ATOM     69  C   UNL     1       5.546  -3.966 -21.129  1.00  0.00     0.037 A 
BRANCH  56  70
ATOM     70  C   UNL     1      -0.503  -2.740 -20.649  1.00  0.00     0.058 A 
ATOM     71  C   UNL     1      -1.283  -1.792 -21.333  1.00  0.00     0.135 A 
ATOM     72  C   UNL     1      -1.068  -4.005 -20.420  1.00  0.00     0.135 A 
ATOM     73  F   UNL     1      -0.801  -0.561 -21.569  1.00  0.00    -0.206 F 
ATOM     74  C   UNL     1      -2.584  -2.075 -21.737  1.00  0.00     0.059 A 
ATOM     75  C   UNL     1      -2.355  -4.321 -20.846  1.00  0.00     0.059 A 
ATOM     76  F   UNL     1      -0.369  -4.950 -19.772  1.00  0.00    -0.206 F 
ATOM     77  C   UNL     1      -3.112  -3.342 -21.487  1.00  0.00     0.060 A 
BRANCH  77  78
ATOM     78  S   UNL     1      -4.804  -3.688 -22.011  1.00  0.00     0.124 S 
ATOM     79  O   UNL     1      -5.572  -2.892 -21.058  1.00  0.00    -0.237 OA
ATOM     80  O   UNL     1      -4.809  -3.206 -23.388  1.00  0.00    -0.237 OA
ATOM     81  O   UNL     1      -4.920  -5.135 -21.855  1.00  0.00    -0.744 OA
ENDBRANCH  77  78
ENDBRANCH  56  70
BRANCH  57  82
ATOM     82  C   UNL     1       8.610  -0.649 -17.081  1.00  0.00     0.058 A 
ATOM     83  C   UNL     1       9.576   0.000 -17.864  1.00  0.00     0.135 A 
ATOM     84  C   UNL     1       8.957  -0.984 -15.763  1.00  0.00     0.135 A 
ATOM     85  F   UNL     1       9.296   0.336 -19.133  1.00  0.00    -0.206 F 
ATOM     86  C   UNL     1      10.841   0.296 -17.366  1.00  0.00     0.059 A 
ATOM     87  C   UNL     1      10.205  -0.673 -15.232  1.00  0.00     0.059 A 
ATOM     88  F   UNL     1       8.063  -1.592 -14.966  1.00  0.00    -0.206 F 
ATOM     89  C   UNL     1      11.143  -0.039 -16.045  1.00  0.00     0.060 A 
BRANCH  89  90
ATOM     90  S   UNL     1      12.767   0.405 -15.391  1.00  0.00     0.124 S 
ATOM     91  O   UNL     1      13.636  -0.524 -16.103  1.00  0.00    -0.237 OA
ATOM     92  O   UNL     1      12.877   1.808 -15.778  1.00  0.00    -0.237 OA
ATOM     93  O   UNL     1      12.628   0.167 -13.957  1.00  0.00    -0.744 OA
ENDBRANCH  89  90
ENDBRANCH  57  82
BRANCH  69  94
ATOM     94  C   UNL     1       6.234  -4.907 -22.080  1.00  0.00     0.058 A 
ATOM     95  C   UNL     1       6.807  -6.114 -21.647  1.00  0.00     0.135 A 
ATOM     96  C   UNL     1       6.273  -4.622 -23.456  1.00  0.00     0.135 A 
ATOM     97  F   UNL     1       6.804  -6.433 -20.343  1.00  0.00    -0.206 F 
ATOM     98  C   UNL     1       7.415  -6.991 -22.539  1.00  0.00     0.059 A 
ATOM     99  C   UNL     1       6.846  -5.500 -24.369  1.00  0.00     0.059 A 
ATOM    100  F   UNL     1       5.731  -3.487 -23.926  1.00  0.00    -0.206 F 
ATOM    101  C   UNL     1       7.426  -6.677 -23.900  1.00  0.00     0.060 A 
BRANCH 101 102
ATOM    102  S   UNL     1       8.186  -7.842 -25.050  1.00  0.00     0.124 S 
ATOM    103  O   UNL     1       9.603  -7.670 -24.749  1.00  0.00    -0.237 OA
ATOM    104  O   UNL     1       7.600  -9.114 -24.637  1.00  0.00    -0.237 OA
ATOM    105  O   UNL     1       7.759  -7.357 -26.359  1.00  0.00    -0.744 OA
ENDBRANCH 101 102
ENDBRANCH  69  94
ENDBRANCH  43  44
ENDBRANCH  35  38
ENDBRANCH  33  34
ENDBRANCH  32  33
ENDBRANCH   1  32
TORSDOF 20
