REMARK SMILES COc1ccc(CCC(=O)Nc2ccc(N3CCCC3)cc2C(=O)NCCCCCCNC(=O)c2ccc(-c3c4nc(c(-c5c(F)cc(S(=O)(=O)[O-])cc5F)c5ccc([nH]5)c(-c5c(F)cc(S(=O)(=O)[O-])cc5F)c5nc(c(-c6c(F)cc(S(=O)(=O)[O-])cc6F)c6ccc3[nH]6)C=C5)C=C4)cc2)cc1
REMARK SMILES IDX 27 1 26 2 25 3 23 4 24 5 22 7 12 8 13 9 14 10 21 11 15 12
REMARK SMILES IDX 11 13 9 14 10 15 8 17 7 18 6 19 3 20 4 21 102 22 5 23 101 24
REMARK SMILES IDX 2 25 1 26 16 27 17 28 20 29 18 30 19 31 28 32 29 33 30 34
REMARK SMILES IDX 31 35 32 36 33 37 34 39 35 40 36 41 100 42 37 43 99 44 38 45
REMARK SMILES IDX 39 46 40 47 93 48 41 49 98 50 92 51 94 52 42 53 97 54 91 55
REMARK SMILES IDX 90 56 43 58 77 59 56 60 76 61 57 62 60 63 75 64 95 65 58 66
REMARK SMILES IDX 59 67 74 69 96 70 61 71 44 72 45 73 54 74 46 75 47 76 53 77
REMARK SMILES IDX 55 78 48 79 49 80 50 81 51 82 52 83 78 84 79 85 88 86 80 87
REMARK SMILES IDX 81 88 87 89 89 90 82 91 83 92 84 93 85 94 86 95 62 96 63 97
REMARK SMILES IDX 72 98 64 99 65 100 71 101 73 102 66 103 67 104 68 105 69 106
REMARK SMILES IDX 70 107
REMARK H PARENT 25 6 11 16 32 38 94 57 60 68
REMARK Flexibility Score: inf
ROOT
ATOM      1  C   UNL     1      -2.150   7.798   1.047  1.00  0.00     0.021 C 
ENDROOT
BRANCH   1   2
ATOM      2  C   UNL     1      -1.512   7.382  -0.281  1.00  0.00     0.116 C 
BRANCH   2   3
ATOM      3  N   UNL     1      -0.127   7.017  -0.179  1.00  0.00    -0.352 N 
ATOM      4  C   UNL     1       0.283   5.763   0.244  1.00  0.00     0.253 C 
ATOM      5  O   UNL     1       0.370   5.699   1.453  1.00  0.00    -0.269 OA
ATOM      6  H   UNL     1       0.558   7.683  -0.420  1.00  0.00     0.163 HD
BRANCH   4   7
ATOM      7  C   UNL     1       0.783   4.751  -0.815  1.00  0.00     0.065 A 
ATOM      8  C   UNL     1       1.034   5.356  -2.005  1.00  0.00     0.054 A 
ATOM      9  C   UNL     1       0.901   4.638  -3.183  1.00  0.00     0.029 A 
ATOM     10  C   UNL     1       1.294   3.307  -3.139  1.00  0.00     0.028 A 
ATOM     11  C   UNL     1       1.384   3.478  -0.779  1.00  0.00     0.042 A 
ATOM     12  C   UNL     1       1.797   2.787  -1.953  1.00  0.00     0.038 A 
BRANCH   8  13
ATOM     13  N   UNL     1       1.885   6.481  -1.954  1.00  0.00    -0.325 N 
ATOM     14  C   UNL     1       2.670   6.888  -0.867  1.00  0.00     0.224 C 
ATOM     15  O   UNL     1       2.928   8.100  -0.825  1.00  0.00    -0.275 OA
ATOM     16  H   UNL     1       1.931   7.037  -2.765  1.00  0.00     0.169 HD
BRANCH  14  17
ATOM     17  C   UNL     1       3.430   5.870   0.162  1.00  0.00     0.105 C 
BRANCH  17  18
ATOM     18  C   UNL     1       3.212   5.381   1.709  1.00  0.00     0.045 C 
BRANCH  18  19
ATOM     19  C   UNL     1       2.659   3.997   2.196  1.00  0.00    -0.047 A 
ATOM     20  C   UNL     1       1.264   1.542   2.092  1.00  0.00     0.118 A 
ATOM     21  C   UNL     1       0.631   2.678   2.555  1.00  0.00     0.046 A 
ATOM     22  C   UNL     1       2.661   1.548   2.057  1.00  0.00     0.046 A 
ATOM     23  C   UNL     1       1.375   3.851   2.755  1.00  0.00     0.007 A 
ATOM     24  C   UNL     1       3.354   2.790   2.047  1.00  0.00     0.007 A 
BRANCH  20  25
ATOM     25  O   UNL     1       0.490   0.783   1.244  1.00  0.00    -0.497 OA
ATOM     26  C   UNL     1       0.424  -0.615   1.433  1.00  0.00     0.278 C 
ENDBRANCH  20  25
ENDBRANCH  18  19
ENDBRANCH  17  18
ENDBRANCH  14  17
ENDBRANCH   8  13
BRANCH  12  27
ATOM     27  N   UNL     1       2.726   1.769  -1.998  1.00  0.00    -0.372 N 
ATOM     28  C   UNL     1       2.739   0.557  -1.209  1.00  0.00     0.116 C 
ATOM     29  C   UNL     1       3.805   1.732  -2.999  1.00  0.00     0.116 C 
ATOM     30  C   UNL     1       4.184   0.070  -1.295  1.00  0.00     0.023 C 
ATOM     31  C   UNL     1       4.575   0.433  -2.715  1.00  0.00     0.023 C 
ENDBRANCH  12  27
ENDBRANCH   4   7
ENDBRANCH   2   3
ENDBRANCH   1   2
BRANCH   1  32
ATOM     32  C   UNL     1      -1.465   8.830   1.966  1.00  0.00     0.002 C 
BRANCH  32  33
ATOM     33  C   UNL     1      -0.688  10.027   1.408  1.00  0.00     0.002 C 
BRANCH  33  34
ATOM     34  C   UNL     1      -1.297  10.818   0.259  1.00  0.00     0.021 C 
BRANCH  34  35
ATOM     35  C   UNL     1      -2.763  11.177   0.414  1.00  0.00     0.116 C 
BRANCH  35  36
ATOM     36  N   UNL     1      -3.010  12.114   1.498  1.00  0.00    -0.352 N 
ATOM     37  C   UNL     1      -3.818  13.223   1.470  1.00  0.00     0.251 C 
ATOM     38  H   UNL     1      -2.546  11.932   2.347  1.00  0.00     0.163 HD
ATOM     39  O   UNL     1      -3.831  14.020   2.410  1.00  0.00    -0.269 OA
BRANCH  37  40
ATOM     40  C   UNL     1      -4.650  13.464   0.274  1.00  0.00     0.039 A 
ATOM     41  C   UNL     1      -4.581  14.700  -0.369  1.00  0.00     0.014 A 
ATOM     42  C   UNL     1      -5.437  12.433  -0.251  1.00  0.00     0.014 A 
ATOM     43  C   UNL     1      -5.266  14.887  -1.570  1.00  0.00     0.010 A 
ATOM     44  C   UNL     1      -6.045  12.593  -1.490  1.00  0.00     0.010 A 
ATOM     45  C   UNL     1      -5.979  13.826  -2.156  1.00  0.00    -0.014 A 
BRANCH  45  46
ATOM     46  C   UNL     1      -6.685  13.997  -3.451  1.00  0.00     0.031 A 
ATOM     47  C   UNL     1      -8.182  13.855  -3.508  1.00  0.00     0.074 A 
ATOM     48  C   UNL     1      -5.979  14.229  -4.575  1.00  0.00     0.049 A 
ATOM     49  N   UNL     1      -8.980  13.922  -4.542  1.00  0.00    -0.248 NA
ATOM     50  C   UNL     1      -8.873  13.573  -2.238  1.00  0.00     0.031 C 
ATOM     51  C   UNL     1      -4.520  14.336  -4.651  1.00  0.00     0.029 A 
ATOM     52  N   UNL     1      -6.391  14.412  -5.871  1.00  0.00    -0.354 N 
ATOM     53  C   UNL     1     -10.257  13.679  -4.051  1.00  0.00     0.074 A 
ATOM     54  C   UNL     1     -10.123  13.399  -2.639  1.00  0.00     0.031 C 
ATOM     55  C   UNL     1      -4.162  14.594  -5.919  1.00  0.00     0.029 A 
ATOM     56  C   UNL     1      -5.359  14.631  -6.754  1.00  0.00     0.049 A 
ATOM     57  H   UNL     1      -7.336  14.389  -6.143  1.00  0.00     0.167 HD
ATOM     58  C   UNL     1     -11.439  13.714  -4.711  1.00  0.00     0.037 A 
ATOM     59  C   UNL     1      -5.376  14.832  -8.086  1.00  0.00     0.037 A 
ATOM     60  C   UNL     1     -11.562  14.018  -6.113  1.00  0.00     0.049 A 
ATOM     61  C   UNL     1      -6.701  14.859  -8.801  1.00  0.00     0.074 A 
ATOM     62  C   UNL     1     -12.715  14.136  -6.868  1.00  0.00     0.029 A 
ATOM     63  N   UNL     1     -10.496  14.246  -6.971  1.00  0.00    -0.354 N 
ATOM     64  N   UNL     1      -7.907  14.696  -8.309  1.00  0.00    -0.248 NA
ATOM     65  C   UNL     1      -6.672  15.103 -10.249  1.00  0.00     0.031 C 
ATOM     66  C   UNL     1     -12.344  14.382  -8.193  1.00  0.00     0.029 A 
ATOM     67  C   UNL     1     -10.962  14.478  -8.254  1.00  0.00     0.049 A 
ATOM     68  H   UNL     1      -9.547  14.243  -6.706  1.00  0.00     0.167 HD
ATOM     69  C   UNL     1      -8.780  14.846  -9.381  1.00  0.00     0.074 A 
ATOM     70  C   UNL     1      -7.964  15.126 -10.545  1.00  0.00     0.031 C 
ATOM     71  C   UNL     1     -10.134  14.762  -9.400  1.00  0.00     0.037 A 
BRANCH  58  72
ATOM     72  C   UNL     1     -12.688  13.419  -3.926  1.00  0.00     0.058 A 
ATOM     73  C   UNL     1     -13.166  14.296  -2.938  1.00  0.00     0.135 A 
ATOM     74  C   UNL     1     -13.436  12.258  -4.184  1.00  0.00     0.135 A 
ATOM     75  F   UNL     1     -12.484  15.412  -2.636  1.00  0.00    -0.206 F 
ATOM     76  C   UNL     1     -14.321  14.018  -2.214  1.00  0.00     0.059 A 
ATOM     77  C   UNL     1     -14.612  11.976  -3.494  1.00  0.00     0.059 A 
ATOM     78  F   UNL     1     -13.025  11.383  -5.115  1.00  0.00    -0.206 F 
ATOM     79  C   UNL     1     -15.038  12.856  -2.500  1.00  0.00     0.060 A 
BRANCH  79  80
ATOM     80  S   UNL     1     -16.539  12.515  -1.557  1.00  0.00     0.124 S 
ATOM     81  O   UNL     1     -15.989  12.168  -0.250  1.00  0.00    -0.237 OA
ATOM     82  O   UNL     1     -17.246  13.790  -1.628  1.00  0.00    -0.237 OA
ATOM     83  O   UNL     1     -17.159  11.415  -2.288  1.00  0.00    -0.744 OA
ENDBRANCH  79  80
ENDBRANCH  58  72
BRANCH  59  84
ATOM     84  C   UNL     1      -4.101  15.042  -8.825  1.00  0.00     0.058 A 
ATOM     85  C   UNL     1      -3.783  16.289  -9.382  1.00  0.00     0.135 A 
ATOM     86  C   UNL     1      -3.168  14.004  -8.977  1.00  0.00     0.135 A 
ATOM     87  F   UNL     1      -4.644  17.313  -9.271  1.00  0.00    -0.206 F 
ATOM     88  C   UNL     1      -2.596  16.497 -10.078  1.00  0.00     0.059 A 
ATOM     89  C   UNL     1      -1.961  14.195  -9.643  1.00  0.00     0.059 A 
ATOM     90  F   UNL     1      -3.415  12.794  -8.450  1.00  0.00    -0.206 F 
ATOM     91  C   UNL     1      -1.689  15.443 -10.200  1.00  0.00     0.060 A 
BRANCH  91  92
ATOM     92  S   UNL     1      -0.132  15.737 -11.067  1.00  0.00     0.124 S 
ATOM     93  O   UNL     1      -0.582  15.847 -12.450  1.00  0.00    -0.237 OA
ATOM     94  O   UNL     1       0.335  16.972 -10.446  1.00  0.00    -0.237 OA
ATOM     95  O   UNL     1       0.656  14.549 -10.752  1.00  0.00    -0.744 OA
ENDBRANCH  91  92
ENDBRANCH  59  84
BRANCH  71  96
ATOM     96  C   UNL     1     -10.826  15.007 -10.713  1.00  0.00     0.058 A 
ATOM     97  C   UNL     1     -10.768  14.081 -11.765  1.00  0.00     0.135 A 
ATOM     98  C   UNL     1     -11.610  16.159 -10.895  1.00  0.00     0.135 A 
ATOM     99  F   UNL     1     -10.028  12.967 -11.645  1.00  0.00    -0.206 F 
ATOM    100  C   UNL     1     -11.445  14.297 -12.960  1.00  0.00     0.059 A 
ATOM    101  C   UNL     1     -12.321  16.380 -12.070  1.00  0.00     0.059 A 
ATOM    102  F   UNL     1     -11.709  17.072  -9.916  1.00  0.00    -0.206 F 
ATOM    103  C   UNL     1     -12.223  15.448 -13.101  1.00  0.00     0.060 A 
BRANCH 103 104
ATOM    104  S   UNL     1     -13.129  15.694 -14.643  1.00  0.00     0.124 S 
ATOM    105  O   UNL     1     -12.050  16.020 -15.570  1.00  0.00    -0.237 OA
ATOM    106  O   UNL     1     -13.765  14.395 -14.841  1.00  0.00    -0.237 OA
ATOM    107  O   UNL     1     -14.041  16.791 -14.331  1.00  0.00    -0.744 OA
ENDBRANCH 103 104
ENDBRANCH  71  96
ENDBRANCH  45  46
ENDBRANCH  37  40
ENDBRANCH  35  36
ENDBRANCH  34  35
ENDBRANCH  33  34
ENDBRANCH  32  33
ENDBRANCH   1  32
TORSDOF 22
