REMARK SMILES Cc1c(C(=O)NCCCCCCNC(=O)c2ccc(-c3c4nc(c(-c5c(F)cc(S(=O)(=O)[O-])cc5F)c5ccc([nH]5)c(-c5c(F)cc(S(=O)(=O)[O-])cc5F)c5nc(c(-c6c(F)cc(S(=O)(=O)[O-])cc6F)c6ccc3[nH]6)C=C5)C=C4)cc2)cccc1-n1c(C)cc(/C=C2/C(=O)NC(=S)N=C2O)c1C
REMARK SMILES IDX 9 1 8 2 7 3 6 4 4 5 5 6 3 8 1 9 2 10 85 11 82 12 84 13 83 14
REMARK SMILES IDX 86 15 87 16 101 17 88 18 89 19 90 20 102 21 91 22 92 23
REMARK SMILES IDX 93 24 99 25 94 26 95 27 98 28 96 29 97 31 100 32 10 34 11 35
REMARK SMILES IDX 12 36 13 37 14 38 15 40 16 41 17 42 81 43 18 44 80 45 19 46
REMARK SMILES IDX 20 47 21 48 74 49 22 50 79 51 73 52 75 53 23 54 78 55 72 56
REMARK SMILES IDX 71 57 24 59 58 60 37 61 57 62 38 63 41 64 56 65 76 66 39 67
REMARK SMILES IDX 40 68 55 70 77 71 42 72 25 73 26 74 35 75 27 76 28 77 34 78
REMARK SMILES IDX 36 79 29 80 30 81 31 82 32 83 33 84 59 85 60 86 69 87 61 88
REMARK SMILES IDX 62 89 68 90 70 91 63 92 64 93 65 94 66 95 67 96 43 97 44 98
REMARK SMILES IDX 53 99 45 100 46 101 52 102 54 103 47 104 48 105 49 106
REMARK SMILES IDX 50 107 51 108
REMARK H PARENT 6 7 95 30 100 33 13 39 75 58 41 69
REMARK Flexibility Score: inf
ROOT
ATOM      1  C   UNL     1       5.532  -3.186   0.983  1.00  0.00     0.002 C 
ENDROOT
BRANCH   1   2
ATOM      2  C   UNL     1       4.284  -2.296   0.941  1.00  0.00     0.021 C 
BRANCH   2   3
ATOM      3  C   UNL     1       3.323  -2.552  -0.235  1.00  0.00     0.116 C 
BRANCH   3   4
ATOM      4  N   UNL     1       2.032  -3.006   0.253  1.00  0.00    -0.352 N 
ATOM      5  C   UNL     1       0.767  -2.502   0.354  1.00  0.00     0.251 C 
ATOM      6  O   UNL     1      -0.069  -3.299   0.800  1.00  0.00    -0.269 OA
ATOM      7  H   UNL     1       2.083  -3.923   0.605  1.00  0.00     0.163 HD
BRANCH   5   8
ATOM      8  C   UNL     1       0.272  -1.144  -0.055  1.00  0.00     0.044 A 
ATOM      9  C   UNL     1       2.301   0.281   0.595  1.00  0.00     0.047 C 
ATOM     10  C   UNL     1       0.911   0.109   0.063  1.00  0.00    -0.014 A 
ATOM     11  C   UNL     1       0.168   1.269  -0.293  1.00  0.00     0.049 A 
ATOM     12  C   UNL     1      -1.093  -1.161  -0.452  1.00  0.00     0.014 A 
ATOM     13  C   UNL     1      -1.177   1.224  -0.676  1.00  0.00     0.027 A 
ATOM     14  C   UNL     1      -1.813  -0.001  -0.744  1.00  0.00     0.003 A 
BRANCH  11  15
ATOM     15  N   UNL     1       0.727   2.562  -0.152  1.00  0.00    -0.318 N 
ATOM     16  C   UNL     1       1.419   3.243  -1.134  1.00  0.00     0.020 A 
ATOM     17  C   UNL     1       0.718   3.311   1.020  1.00  0.00     0.027 A 
ATOM     18  C   UNL     1       1.752   2.658  -2.462  1.00  0.00     0.065 C 
ATOM     19  C   UNL     1       1.740   4.483  -0.620  1.00  0.00     0.031 A 
ATOM     20  C   UNL     1       1.290   4.539   0.727  1.00  0.00    -0.003 A 
ATOM     21  C   UNL     1       0.207   2.726   2.298  1.00  0.00     0.065 C 
BRANCH  20  22
ATOM     22  C   UNL     1       1.591   5.630   1.601  1.00  0.00     0.029 C 
ATOM     23  C   UNL     1       0.922   6.176   2.634  1.00  0.00     0.102 C 
ATOM     24  C   UNL     1       1.657   7.208   3.413  1.00  0.00     0.262 C 
ATOM     25  C   UNL     1      -0.399   5.870   3.176  1.00  0.00     0.226 C 
ATOM     26  O   UNL     1       2.629   7.821   2.988  1.00  0.00    -0.269 OA
ATOM     27  N   UNL     1       1.145   7.422   4.666  1.00  0.00    -0.297 N 
ATOM     28  N   UNL     1      -0.851   6.196   4.331  1.00  0.00    -0.184 NA
ATOM     29  C   UNL     1      -0.034   6.920   5.161  1.00  0.00     0.203 C 
ATOM     30  H   UNL     1       1.675   7.990   5.271  1.00  0.00     0.172 HD
ATOM     31  S   UNL     1      -0.455   7.296   6.738  1.00  0.00    -0.038 S 
BRANCH  25  32
ATOM     32  O   UNL     1      -1.256   5.255   2.359  1.00  0.00    -0.493 OA
ATOM     33  H   UNL     1      -0.981   4.993   1.502  1.00  0.00     0.295 HD
ENDBRANCH  25  32
ENDBRANCH  20  22
ENDBRANCH  11  15
ENDBRANCH   5   8
ENDBRANCH   3   4
ENDBRANCH   2   3
ENDBRANCH   1   2
BRANCH   1  34
ATOM     34  C   UNL     1       6.412  -3.182  -0.275  1.00  0.00     0.002 C 
BRANCH  34  35
ATOM     35  C   UNL     1       6.763  -1.803  -0.832  1.00  0.00     0.021 C 
BRANCH  35  36
ATOM     36  C   UNL     1       7.785  -1.049   0.009  1.00  0.00     0.116 C 
BRANCH  36  37
ATOM     37  N   UNL     1       9.126  -1.115  -0.553  1.00  0.00    -0.352 N 
ATOM     38  C   UNL     1      10.180  -0.262  -0.260  1.00  0.00     0.251 C 
ATOM     39  H   UNL     1       9.301  -1.834  -1.202  1.00  0.00     0.163 HD
ATOM     40  O   UNL     1      11.076  -0.001  -1.036  1.00  0.00    -0.269 OA
BRANCH  38  41
ATOM     41  C   UNL     1      10.248   0.181   1.147  1.00  0.00     0.039 A 
ATOM     42  C   UNL     1      11.141  -0.503   1.982  1.00  0.00     0.014 A 
ATOM     43  C   UNL     1       9.240   0.990   1.661  1.00  0.00     0.014 A 
ATOM     44  C   UNL     1      10.909  -0.524   3.353  1.00  0.00     0.010 A 
ATOM     45  C   UNL     1       8.965   0.901   3.009  1.00  0.00     0.010 A 
ATOM     46  C   UNL     1       9.766   0.102   3.842  1.00  0.00    -0.014 A 
BRANCH  46  47
ATOM     47  C   UNL     1       9.269  -0.065   5.200  1.00  0.00     0.031 A 
ATOM     48  C   UNL     1       9.398   1.050   6.160  1.00  0.00     0.074 A 
ATOM     49  C   UNL     1       8.560  -1.171   5.510  1.00  0.00     0.049 A 
ATOM     50  N   UNL     1       9.171   0.968   7.426  1.00  0.00    -0.248 NA
ATOM     51  C   UNL     1       9.876   2.365   5.752  1.00  0.00     0.031 C 
ATOM     52  C   UNL     1       7.649  -1.351   6.634  1.00  0.00     0.029 A 
ATOM     53  N   UNL     1       8.687  -2.446   4.957  1.00  0.00    -0.354 N 
ATOM     54  C   UNL     1       9.185   2.246   7.945  1.00  0.00     0.074 A 
ATOM     55  C   UNL     1       9.732   3.055   6.885  1.00  0.00     0.031 C 
ATOM     56  C   UNL     1       7.476  -2.664   6.849  1.00  0.00     0.029 A 
ATOM     57  C   UNL     1       8.407  -3.368   5.984  1.00  0.00     0.049 A 
ATOM     58  H   UNL     1       8.926  -2.660   4.026  1.00  0.00     0.167 HD
ATOM     59  C   UNL     1       8.597   2.464   9.159  1.00  0.00     0.037 A 
ATOM     60  C   UNL     1       9.376  -4.219   6.438  1.00  0.00     0.037 A 
ATOM     61  C   UNL     1       8.308   1.183   9.815  1.00  0.00     0.049 A 
ATOM     62  C   UNL     1       9.758  -3.995   7.886  1.00  0.00     0.074 A 
ATOM     63  C   UNL     1       7.155   0.425   9.950  1.00  0.00     0.029 A 
ATOM     64  N   UNL     1       9.366   0.349  10.175  1.00  0.00    -0.354 N 
ATOM     65  N   UNL     1       9.478  -2.912   8.558  1.00  0.00    -0.248 NA
ATOM     66  C   UNL     1      10.476  -4.977   8.695  1.00  0.00     0.031 C 
ATOM     67  C   UNL     1       7.539  -0.900  10.287  1.00  0.00     0.029 A 
ATOM     68  C   UNL     1       8.919  -0.940  10.397  1.00  0.00     0.049 A 
ATOM     69  H   UNL     1      10.303   0.639  10.259  1.00  0.00     0.167 HD
ATOM     70  C   UNL     1       9.971  -3.015   9.833  1.00  0.00     0.074 A 
ATOM     71  C   UNL     1      10.566  -4.338   9.876  1.00  0.00     0.031 C 
ATOM     72  C   UNL     1       9.854  -2.004  10.747  1.00  0.00     0.037 A 
BRANCH  59  73
ATOM     73  C   UNL     1       8.014   3.802   9.616  1.00  0.00     0.058 A 
ATOM     74  C   UNL     1       7.018   3.844  10.621  1.00  0.00     0.135 A 
ATOM     75  C   UNL     1       8.295   5.062   9.047  1.00  0.00     0.135 A 
ATOM     76  F   UNL     1       6.691   2.752  11.326  1.00  0.00    -0.206 F 
ATOM     77  C   UNL     1       6.296   5.001  10.944  1.00  0.00     0.059 A 
ATOM     78  C   UNL     1       7.569   6.224   9.329  1.00  0.00     0.059 A 
ATOM     79  F   UNL     1       9.317   5.260   8.214  1.00  0.00    -0.206 F 
ATOM     80  C   UNL     1       6.554   6.182  10.266  1.00  0.00     0.060 A 
BRANCH  80  81
ATOM     81  S   UNL     1       5.575   7.652  10.622  1.00  0.00     0.124 S 
ATOM     82  O   UNL     1       4.230   7.213  10.266  1.00  0.00    -0.237 OA
ATOM     83  O   UNL     1       5.828   7.853  12.045  1.00  0.00    -0.237 OA
ATOM     84  O   UNL     1       6.147   8.666   9.739  1.00  0.00    -0.744 OA
ENDBRANCH  80  81
ENDBRANCH  59  73
BRANCH  60  85
ATOM     85  C   UNL     1      10.278  -4.697   5.350  1.00  0.00     0.058 A 
ATOM     86  C   UNL     1       9.714  -5.540   4.372  1.00  0.00     0.135 A 
ATOM     87  C   UNL     1      11.439  -3.992   5.002  1.00  0.00     0.135 A 
ATOM     88  F   UNL     1       8.617  -6.261   4.662  1.00  0.00    -0.206 F 
ATOM     89  C   UNL     1      10.160  -5.536   3.055  1.00  0.00     0.059 A 
ATOM     90  C   UNL     1      11.912  -3.983   3.686  1.00  0.00     0.059 A 
ATOM     91  F   UNL     1      12.030  -3.182   5.892  1.00  0.00    -0.206 F 
ATOM     92  C   UNL     1      11.211  -4.692   2.708  1.00  0.00     0.060 A 
BRANCH  92  93
ATOM     93  S   UNL     1      11.522  -4.405   0.946  1.00  0.00     0.124 S 
ATOM     94  O   UNL     1      11.764  -5.756   0.455  1.00  0.00    -0.237 OA
ATOM     95  O   UNL     1      10.266  -3.791   0.511  1.00  0.00    -0.237 OA
ATOM     96  O   UNL     1      12.679  -3.518   0.951  1.00  0.00    -0.744 OA
ENDBRANCH  92  93
ENDBRANCH  60  85
BRANCH  72  97
ATOM     97  C   UNL     1      10.539  -1.953  12.094  1.00  0.00     0.058 A 
ATOM     98  C   UNL     1      11.791  -2.533  12.363  1.00  0.00     0.135 A 
ATOM     99  C   UNL     1       9.996  -1.167  13.140  1.00  0.00     0.135 A 
ATOM    100  F   UNL     1      12.463  -3.208  11.420  1.00  0.00    -0.206 F 
ATOM    101  C   UNL     1      12.427  -2.402  13.600  1.00  0.00     0.059 A 
ATOM    102  C   UNL     1      10.640  -0.976  14.360  1.00  0.00     0.059 A 
ATOM    103  F   UNL     1       8.816  -0.541  13.005  1.00  0.00    -0.206 F 
ATOM    104  C   UNL     1      11.845  -1.621  14.593  1.00  0.00     0.060 A 
BRANCH 104 105
ATOM    105  S   UNL     1      12.688  -1.389  16.169  1.00  0.00     0.124 S 
ATOM    106  O   UNL     1      12.108  -2.462  16.969  1.00  0.00    -0.237 OA
ATOM    107  O   UNL     1      14.095  -1.557  15.815  1.00  0.00    -0.237 OA
ATOM    108  O   UNL     1      12.306  -0.034  16.552  1.00  0.00    -0.744 OA
ENDBRANCH 104 105
ENDBRANCH  72  97
ENDBRANCH  46  47
ENDBRANCH  38  41
ENDBRANCH  36  37
ENDBRANCH  35  36
ENDBRANCH  34  35
ENDBRANCH   1  34
TORSDOF 19
