REMARK SMILES Cc1nn(C)cc1C[NH+]1CCN(C(=O)c2cnn(CC(=O)NCCCCCCNC(=O)c3ccc(-c4c5nc(c(-c6c(F)cc(S(=O)(=O)[O-])cc6F)c6ccc([nH]6)c(-c6c(F)cc(S(=O)(=O)[O-])cc6F)c6nc(c(-c7c(F)cc(S(=O)(=O)[O-])cc7F)c7ccc4[nH]7)C=C6)C=C5)cc3)c2)CC1
REMARK SMILES IDX 25 1 24 2 23 3 22 4 20 5 21 6 19 8 18 9 15 10 16 11 98 12
REMARK SMILES IDX 17 13 13 14 9 15 10 16 100 17 11 19 99 20 12 21 14 22 8 23
REMARK SMILES IDX 7 24 1 25 2 26 3 27 4 28 6 29 5 30 26 31 27 32 28 33 29 34
REMARK SMILES IDX 30 35 31 37 32 38 33 39 97 40 34 41 96 42 35 43 36 44 37 45
REMARK SMILES IDX 90 46 38 47 95 48 89 49 91 50 39 51 94 52 88 53 87 54 40 56
REMARK SMILES IDX 74 57 53 58 73 59 54 60 57 61 72 62 92 63 55 64 56 65 71 67
REMARK SMILES IDX 93 68 58 69 41 70 42 71 51 72 43 73 44 74 50 75 52 76 45 77
REMARK SMILES IDX 46 78 47 79 48 80 49 81 75 82 76 83 85 84 77 85 78 86 84 87
REMARK SMILES IDX 86 88 79 89 80 90 81 91 82 92 83 93 59 94 60 95 69 96 61 97
REMARK SMILES IDX 62 98 68 99 70 100 63 101 64 102 65 103 66 104 67 105
REMARK H PARENT 22 7 9 18 29 36 91 55 57 66
REMARK Flexibility Score: inf
ROOT
ATOM      1  C   UNL     1       5.262  -1.964   1.861  1.00  0.00     0.002 C 
ENDROOT
BRANCH   1   2
ATOM      2  C   UNL     1       4.829  -1.658   0.421  1.00  0.00     0.021 C 
BRANCH   2   3
ATOM      3  C   UNL     1       5.809  -0.810  -0.390  1.00  0.00     0.116 C 
BRANCH   3   4
ATOM      4  N   UNL     1       6.985  -1.564  -0.772  1.00  0.00    -0.354 N 
ATOM      5  C   UNL     1       7.468  -1.877  -2.012  1.00  0.00     0.241 C 
ATOM      6  O   UNL     1       8.538  -2.495  -2.056  1.00  0.00    -0.273 OA
ATOM      7  H   UNL     1       7.522  -1.905  -0.020  1.00  0.00     0.163 HD
BRANCH   5   8
ATOM      8  C   UNL     1       6.820  -1.351  -3.274  1.00  0.00     0.243 C 
BRANCH   8   9
ATOM      9  N   UNL     1       5.466  -1.820  -3.496  1.00  0.00    -0.262 N 
ATOM     10  C   UNL     1       3.292  -1.889  -3.843  1.00  0.00     0.078 A 
ATOM     11  C   UNL     1       3.891  -3.167  -3.879  1.00  0.00     0.149 A 
ATOM     12  C   UNL     1       4.365  -1.034  -3.678  1.00  0.00     0.123 A 
ATOM     13  N   UNL     1       5.206  -3.130  -3.635  1.00  0.00    -0.180 NA
BRANCH  10  14
ATOM     14  C   UNL     1       1.911  -1.464  -4.011  1.00  0.00     0.257 C 
ATOM     15  N   UNL     1      -1.197  -2.973  -1.407  1.00  0.00    -0.328 N 
ATOM     16  C   UNL     1      -1.548  -2.359  -2.684  1.00  0.00     0.284 C 
ATOM     17  C   UNL     1       0.041  -3.730  -1.519  1.00  0.00     0.284 C 
ATOM     18  H   UNL     1      -1.942  -3.646  -1.227  1.00  0.00     0.348 HD
ATOM     19  C   UNL     1      -0.425  -1.545  -3.348  1.00  0.00     0.181 C 
ATOM     20  C   UNL     1       1.229  -2.989  -2.130  1.00  0.00     0.181 C 
ATOM     21  N   UNL     1       0.921  -2.128  -3.276  1.00  0.00    -0.327 N 
ATOM     22  O   UNL     1       1.664  -0.482  -4.707  1.00  0.00    -0.269 OA
BRANCH  15  23
ATOM     23  C   UNL     1      -1.378  -2.189  -0.193  1.00  0.00     0.302 C 
BRANCH  23  24
ATOM     24  C   UNL     1      -0.637  -0.893  -0.156  1.00  0.00     0.047 A 
ATOM     25  C   UNL     1      -2.467   0.775  -1.008  1.00  0.00     0.069 C 
ATOM     26  C   UNL     1      -1.129   0.399  -0.503  1.00  0.00     0.068 A 
ATOM     27  N   UNL     1      -0.192   1.345  -0.372  1.00  0.00    -0.178 NA
ATOM     28  N   UNL     1       0.905   0.659  -0.044  1.00  0.00    -0.275 N 
ATOM     29  C   UNL     1       0.661  -0.646   0.253  1.00  0.00     0.118 A 
ATOM     30  C   UNL     1       2.181   1.318  -0.133  1.00  0.00     0.173 C 
ENDBRANCH  23  24
ENDBRANCH  15  23
ENDBRANCH  10  14
ENDBRANCH   8   9
ENDBRANCH   5   8
ENDBRANCH   3   4
ENDBRANCH   2   3
ENDBRANCH   1   2
BRANCH   1  31
ATOM     31  C   UNL     1       5.644  -0.760   2.735  1.00  0.00     0.002 C 
BRANCH  31  32
ATOM     32  C   UNL     1       4.640   0.399   2.797  1.00  0.00     0.021 C 
BRANCH  32  33
ATOM     33  C   UNL     1       3.298   0.052   3.435  1.00  0.00     0.116 C 
BRANCH  33  34
ATOM     34  N   UNL     1       3.413  -0.219   4.862  1.00  0.00    -0.352 N 
ATOM     35  C   UNL     1       2.432  -0.627   5.741  1.00  0.00     0.251 C 
ATOM     36  H   UNL     1       4.310  -0.094   5.250  1.00  0.00     0.163 HD
ATOM     37  O   UNL     1       2.596  -0.486   6.949  1.00  0.00    -0.269 OA
BRANCH  35  38
ATOM     38  C   UNL     1       1.175  -1.208   5.223  1.00  0.00     0.039 A 
ATOM     39  C   UNL     1      -0.055  -0.835   5.772  1.00  0.00     0.014 A 
ATOM     40  C   UNL     1       1.219  -2.130   4.183  1.00  0.00     0.014 A 
ATOM     41  C   UNL     1      -1.242  -1.319   5.210  1.00  0.00     0.010 A 
ATOM     42  C   UNL     1       0.043  -2.531   3.570  1.00  0.00     0.010 A 
ATOM     43  C   UNL     1      -1.206  -2.147   4.078  1.00  0.00    -0.014 A 
BRANCH  43  44
ATOM     44  C   UNL     1      -2.458  -2.501   3.368  1.00  0.00     0.031 A 
ATOM     45  C   UNL     1      -3.416  -1.380   3.031  1.00  0.00     0.074 A 
ATOM     46  C   UNL     1      -2.660  -3.714   2.794  1.00  0.00     0.049 A 
ATOM     47  N   UNL     1      -4.711  -1.374   3.112  1.00  0.00    -0.248 NA
ATOM     48  C   UNL     1      -2.869  -0.102   2.549  1.00  0.00     0.031 C 
ATOM     49  C   UNL     1      -1.758  -4.871   2.774  1.00  0.00     0.029 A 
ATOM     50  N   UNL     1      -3.666  -4.112   1.955  1.00  0.00    -0.354 N 
ATOM     51  C   UNL     1      -5.160  -0.164   2.565  1.00  0.00     0.074 A 
ATOM     52  C   UNL     1      -3.973   0.597   2.275  1.00  0.00     0.031 C 
ATOM     53  C   UNL     1      -2.124  -5.712   1.783  1.00  0.00     0.029 A 
ATOM     54  C   UNL     1      -3.365  -5.243   1.196  1.00  0.00     0.049 A 
ATOM     55  H   UNL     1      -4.528  -3.640   1.893  1.00  0.00     0.167 HD
ATOM     56  C   UNL     1      -6.480   0.084   2.303  1.00  0.00     0.037 A 
ATOM     57  C   UNL     1      -4.063  -5.751   0.146  1.00  0.00     0.037 A 
ATOM     58  C   UNL     1      -7.328  -0.782   3.077  1.00  0.00     0.049 A 
ATOM     59  C   UNL     1      -5.446  -5.226   0.261  1.00  0.00     0.074 A 
ATOM     60  C   UNL     1      -7.481  -1.013   4.431  1.00  0.00     0.029 A 
ATOM     61  N   UNL     1      -7.986  -1.812   2.453  1.00  0.00    -0.354 N 
ATOM     62  N   UNL     1      -6.294  -5.598   1.179  1.00  0.00    -0.248 NA
ATOM     63  C   UNL     1      -5.786  -3.997  -0.442  1.00  0.00     0.031 C 
ATOM     64  C   UNL     1      -7.746  -2.407   4.535  1.00  0.00     0.029 A 
ATOM     65  C   UNL     1      -7.785  -2.917   3.238  1.00  0.00     0.049 A 
ATOM     66  H   UNL     1      -8.498  -1.767   1.613  1.00  0.00     0.167 HD
ATOM     67  C   UNL     1      -7.020  -4.456   1.468  1.00  0.00     0.074 A 
ATOM     68  C   UNL     1      -6.758  -3.547   0.355  1.00  0.00     0.031 C 
ATOM     69  C   UNL     1      -7.539  -4.240   2.713  1.00  0.00     0.037 A 
BRANCH  56  70
ATOM     70  C   UNL     1      -7.040   0.928   1.169  1.00  0.00     0.058 A 
ATOM     71  C   UNL     1      -8.434   1.135   1.056  1.00  0.00     0.135 A 
ATOM     72  C   UNL     1      -6.300   1.269   0.024  1.00  0.00     0.135 A 
ATOM     73  F   UNL     1      -9.250   0.890   2.093  1.00  0.00    -0.206 F 
ATOM     74  C   UNL     1      -9.046   1.512  -0.143  1.00  0.00     0.059 A 
ATOM     75  C   UNL     1      -6.881   1.680  -1.175  1.00  0.00     0.059 A 
ATOM     76  F   UNL     1      -4.976   1.137  -0.008  1.00  0.00    -0.206 F 
ATOM     77  C   UNL     1      -8.260   1.744  -1.266  1.00  0.00     0.060 A 
BRANCH  77  78
ATOM     78  S   UNL     1      -9.055   2.025  -2.860  1.00  0.00     0.124 S 
ATOM     79  O   UNL     1      -9.753   0.760  -3.063  1.00  0.00    -0.237 OA
ATOM     80  O   UNL     1      -9.896   3.183  -2.579  1.00  0.00    -0.237 OA
ATOM     81  O   UNL     1      -7.930   2.272  -3.757  1.00  0.00    -0.744 OA
ENDBRANCH  77  78
ENDBRANCH  56  70
BRANCH  57  82
ATOM     82  C   UNL     1      -3.612  -6.534  -1.041  1.00  0.00     0.058 A 
ATOM     83  C   UNL     1      -4.546  -7.055  -1.959  1.00  0.00     0.135 A 
ATOM     84  C   UNL     1      -2.270  -6.567  -1.460  1.00  0.00     0.135 A 
ATOM     85  F   UNL     1      -5.852  -7.093  -1.651  1.00  0.00    -0.206 F 
ATOM     86  C   UNL     1      -4.185  -7.486  -3.241  1.00  0.00     0.059 A 
ATOM     87  C   UNL     1      -1.885  -6.991  -2.733  1.00  0.00     0.059 A 
ATOM     88  F   UNL     1      -1.282  -6.124  -0.673  1.00  0.00    -0.206 F 
ATOM     89  C   UNL     1      -2.852  -7.418  -3.631  1.00  0.00     0.060 A 
BRANCH  89  90
ATOM     90  S   UNL     1      -2.395  -7.740  -5.350  1.00  0.00     0.124 S 
ATOM     91  O   UNL     1      -2.341  -9.197  -5.378  1.00  0.00    -0.237 OA
ATOM     92  O   UNL     1      -3.492  -7.126  -6.091  1.00  0.00    -0.237 OA
ATOM     93  O   UNL     1      -1.107  -7.062  -5.482  1.00  0.00    -0.744 OA
ENDBRANCH  89  90
ENDBRANCH  57  82
BRANCH  69  94
ATOM     94  C   UNL     1      -7.581  -5.377   3.702  1.00  0.00     0.058 A 
ATOM     95  C   UNL     1      -6.451  -6.090   4.140  1.00  0.00     0.135 A 
ATOM     96  C   UNL     1      -8.794  -5.641   4.361  1.00  0.00     0.135 A 
ATOM     97  F   UNL     1      -5.230  -5.817   3.662  1.00  0.00    -0.206 F 
ATOM     98  C   UNL     1      -6.532  -7.056   5.142  1.00  0.00     0.059 A 
ATOM     99  C   UNL     1      -8.890  -6.573   5.392  1.00  0.00     0.059 A 
ATOM    100  F   UNL     1      -9.899  -4.946   4.043  1.00  0.00    -0.206 F 
ATOM    101  C   UNL     1      -7.756  -7.291   5.765  1.00  0.00     0.060 A 
BRANCH 101 102
ATOM    102  S   UNL     1      -7.837  -8.477   7.122  1.00  0.00     0.124 S 
ATOM    103  O   UNL     1      -7.806  -9.752   6.414  1.00  0.00    -0.237 OA
ATOM    104  O   UNL     1      -6.644  -8.156   7.902  1.00  0.00    -0.237 OA
ATOM    105  O   UNL     1      -9.102  -8.157   7.779  1.00  0.00    -0.744 OA
ENDBRANCH 101 102
ENDBRANCH  69  94
ENDBRANCH  43  44
ENDBRANCH  35  38
ENDBRANCH  33  34
ENDBRANCH  32  33
ENDBRANCH  31  32
ENDBRANCH   1  31
TORSDOF 20
