REMARK SMILES O=C(NCCCCCCNC(=O)[C@H]1CC=CC[C@@H]1C(=O)Nc1ccccc1C(=O)NCc1ccco1)c1ccc(-c2c3nc(c(-c4c(F)cc(S(=O)(=O)[O-])cc4F)c4ccc([nH]4)c(-c4c(F)cc(S(=O)(=O)[O-])cc4F)c4nc(c(-c5c(F)cc(S(=O)(=O)[O-])cc5F)c5ccc2[nH]5)C=C4)C=C3)cc1
REMARK SMILES IDX 7 1 6 2 5 3 4 4 3 5 1 6 2 7 37 9 38 10 102 11 39 12 101 13
REMARK SMILES IDX 40 14 41 15 42 16 95 17 43 18 100 19 94 20 96 21 44 22 99 23
REMARK SMILES IDX 93 24 92 25 45 27 79 28 58 29 78 30 59 31 62 32 77 33 97 34
REMARK SMILES IDX 60 35 61 36 76 38 98 39 63 40 46 41 47 42 56 43 48 44 49 45
REMARK SMILES IDX 55 46 57 47 50 48 51 49 52 50 53 51 54 52 80 53 81 54 90 55
REMARK SMILES IDX 82 56 83 57 89 58 91 59 84 60 85 61 86 62 87 63 88 64 64 65
REMARK SMILES IDX 65 66 74 67 66 68 67 69 73 70 75 71 68 72 69 73 70 74 71 75
REMARK SMILES IDX 72 76 8 77 9 78 10 79 11 80 12 82 13 83 14 84 18 85 15 86
REMARK SMILES IDX 17 87 16 88 19 89 20 90 21 91 22 93 23 94 27 95 24 96 26 97
REMARK SMILES IDX 25 98 28 99 29 100 30 101 31 103 32 104 33 105 36 106 34 107
REMARK SMILES IDX 35 108
REMARK H PARENT 3 8 96 26 62 37 10 81 21 92 30 102
REMARK Flexibility Score: inf
ROOT
ATOM      1  C   UNL     1       4.521  -3.583  -1.837  1.00  0.00     0.002 C 
ENDROOT
BRANCH   1   2
ATOM      2  C   UNL     1       3.910  -3.656  -0.434  1.00  0.00     0.002 C 
BRANCH   2   3
ATOM      3  C   UNL     1       4.408  -2.573   0.522  1.00  0.00     0.021 C 
BRANCH   3   4
ATOM      4  C   UNL     1       4.283  -1.162  -0.032  1.00  0.00     0.116 C 
BRANCH   4   5
ATOM      5  N   UNL     1       2.913  -0.840  -0.402  1.00  0.00    -0.352 N 
ATOM      6  O   UNL     1       1.002   0.367  -0.337  1.00  0.00    -0.269 OA
ATOM      7  C   UNL     1       2.207   0.299  -0.116  1.00  0.00     0.251 C 
ATOM      8  H   UNL     1       2.435  -1.524  -0.924  1.00  0.00     0.163 HD
BRANCH   7   9
ATOM      9  C   UNL     1       2.932   1.431   0.488  1.00  0.00     0.039 A 
ATOM     10  C   UNL     1       4.138   1.855  -0.076  1.00  0.00     0.014 A 
ATOM     11  C   UNL     1       2.440   2.015   1.655  1.00  0.00     0.014 A 
ATOM     12  C   UNL     1       4.922   2.773   0.605  1.00  0.00     0.010 A 
ATOM     13  C   UNL     1       3.189   3.006   2.288  1.00  0.00     0.010 A 
ATOM     14  C   UNL     1       4.449   3.370   1.784  1.00  0.00    -0.014 A 
BRANCH  14  15
ATOM     15  C   UNL     1       5.269   4.415   2.441  1.00  0.00     0.031 A 
ATOM     16  C   UNL     1       5.830   4.210   3.820  1.00  0.00     0.074 A 
ATOM     17  C   UNL     1       5.520   5.549   1.760  1.00  0.00     0.049 A 
ATOM     18  N   UNL     1       6.575   5.017   4.531  1.00  0.00    -0.248 NA
ATOM     19  C   UNL     1       5.508   2.943   4.493  1.00  0.00     0.031 C 
ATOM     20  C   UNL     1       5.018   5.852   0.415  1.00  0.00     0.029 A 
ATOM     21  N   UNL     1       6.273   6.646   2.085  1.00  0.00    -0.354 N 
ATOM     22  C   UNL     1       6.784   4.374   5.745  1.00  0.00     0.074 A 
ATOM     23  C   UNL     1       6.072   3.115   5.681  1.00  0.00     0.031 C 
ATOM     24  C   UNL     1       5.521   7.025   0.011  1.00  0.00     0.029 A 
ATOM     25  C   UNL     1       6.323   7.590   1.088  1.00  0.00     0.049 A 
ATOM     26  H   UNL     1       6.733   6.748   2.949  1.00  0.00     0.167 HD
ATOM     27  C   UNL     1       7.504   4.799   6.812  1.00  0.00     0.037 A 
ATOM     28  C   UNL     1       6.936   8.787   1.050  1.00  0.00     0.037 A 
ATOM     29  C   UNL     1       8.222   6.048   6.851  1.00  0.00     0.049 A 
ATOM     30  C   UNL     1       7.723   9.234   2.246  1.00  0.00     0.074 A 
ATOM     31  C   UNL     1       9.015   6.555   7.866  1.00  0.00     0.029 A 
ATOM     32  N   UNL     1       8.231   6.991   5.831  1.00  0.00    -0.354 N 
ATOM     33  N   UNL     1       7.932   8.602   3.376  1.00  0.00    -0.248 NA
ATOM     34  C   UNL     1       8.354  10.556   2.164  1.00  0.00     0.031 C 
ATOM     35  C   UNL     1       9.466   7.822   7.478  1.00  0.00     0.029 A 
ATOM     36  C   UNL     1       8.999   8.084   6.200  1.00  0.00     0.049 A 
ATOM     37  H   UNL     1       7.760   6.897   4.972  1.00  0.00     0.167 HD
ATOM     38  C   UNL     1       8.743   9.438   4.132  1.00  0.00     0.074 A 
ATOM     39  C   UNL     1       8.992  10.616   3.325  1.00  0.00     0.031 C 
ATOM     40  C   UNL     1       9.240   9.246   5.380  1.00  0.00     0.037 A 
BRANCH  27  41
ATOM     41  C   UNL     1       7.525   3.921   8.035  1.00  0.00     0.058 A 
ATOM     42  C   UNL     1       8.210   2.696   8.062  1.00  0.00     0.135 A 
ATOM     43  C   UNL     1       6.861   4.323   9.206  1.00  0.00     0.135 A 
ATOM     44  F   UNL     1       8.851   2.255   6.968  1.00  0.00    -0.206 F 
ATOM     45  C   UNL     1       8.206   1.885   9.193  1.00  0.00     0.059 A 
ATOM     46  C   UNL     1       6.866   3.540  10.357  1.00  0.00     0.059 A 
ATOM     47  F   UNL     1       6.191   5.486   9.238  1.00  0.00    -0.206 F 
ATOM     48  C   UNL     1       7.526   2.313  10.334  1.00  0.00     0.060 A 
BRANCH  48  49
ATOM     49  S   UNL     1       7.510   1.240  11.787  1.00  0.00     0.124 S 
ATOM     50  O   UNL     1       6.579   0.198  11.366  1.00  0.00    -0.237 OA
ATOM     51  O   UNL     1       8.908   0.834  11.891  1.00  0.00    -0.237 OA
ATOM     52  O   UNL     1       7.034   2.116  12.852  1.00  0.00    -0.744 OA
ENDBRANCH  48  49
ENDBRANCH  27  41
BRANCH  28  53
ATOM     53  C   UNL     1       6.839   9.622  -0.174  1.00  0.00     0.058 A 
ATOM     54  C   UNL     1       7.951   9.807  -1.008  1.00  0.00     0.135 A 
ATOM     55  C   UNL     1       5.624  10.210  -0.561  1.00  0.00     0.135 A 
ATOM     56  F   UNL     1       9.133   9.264  -0.679  1.00  0.00    -0.206 F 
ATOM     57  C   UNL     1       7.866  10.551  -2.179  1.00  0.00     0.059 A 
ATOM     58  C   UNL     1       5.507  10.936  -1.741  1.00  0.00     0.059 A 
ATOM     59  F   UNL     1       4.526  10.043   0.193  1.00  0.00    -0.206 F 
ATOM     60  C   UNL     1       6.637  11.108  -2.539  1.00  0.00     0.060 A 
BRANCH  60  61
ATOM     61  S   UNL     1       6.523  12.018  -4.094  1.00  0.00     0.124 S 
ATOM     62  O   UNL     1       7.216  13.256  -3.760  1.00  0.00    -0.237 OA
ATOM     63  O   UNL     1       7.215  11.128  -5.022  1.00  0.00    -0.237 OA
ATOM     64  O   UNL     1       5.084  12.136  -4.308  1.00  0.00    -0.744 OA
ENDBRANCH  60  61
ENDBRANCH  28  53
BRANCH  40  65
ATOM     65  C   UNL     1      10.143  10.315   5.925  1.00  0.00     0.058 A 
ATOM     66  C   UNL     1       9.651  11.562   6.339  1.00  0.00     0.135 A 
ATOM     67  C   UNL     1      11.521  10.076   6.056  1.00  0.00     0.135 A 
ATOM     68  F   UNL     1       8.343  11.845   6.226  1.00  0.00    -0.206 F 
ATOM     69  C   UNL     1      10.498  12.548   6.835  1.00  0.00     0.059 A 
ATOM     70  C   UNL     1      12.382  11.036   6.575  1.00  0.00     0.059 A 
ATOM     71  F   UNL     1      12.040   8.895   5.682  1.00  0.00    -0.206 F 
ATOM     72  C   UNL     1      11.863  12.275   6.948  1.00  0.00     0.060 A 
BRANCH  72  73
ATOM     73  S   UNL     1      12.952  13.554   7.608  1.00  0.00     0.124 S 
ATOM     74  O   UNL     1      13.057  14.464   6.473  1.00  0.00    -0.237 OA
ATOM     75  O   UNL     1      12.195  14.051   8.753  1.00  0.00    -0.237 OA
ATOM     76  O   UNL     1      14.171  12.822   7.941  1.00  0.00    -0.744 OA
ENDBRANCH  72  73
ENDBRANCH  40  65
ENDBRANCH  14  15
ENDBRANCH   7   9
ENDBRANCH   4   5
ENDBRANCH   3   4
ENDBRANCH   2   3
ENDBRANCH   1   2
BRANCH   1  77
ATOM     77  C   UNL     1       6.052  -3.648  -1.859  1.00  0.00     0.021 C 
BRANCH  77  78
ATOM     78  C   UNL     1       6.623  -4.844  -1.107  1.00  0.00     0.116 C 
BRANCH  78  79
ATOM     79  N   UNL     1       6.105  -6.076  -1.675  1.00  0.00    -0.356 N 
ATOM     80  C   UNL     1       6.747  -7.227  -2.000  1.00  0.00     0.224 C 
ATOM     81  H   UNL     1       5.137  -6.077  -1.851  1.00  0.00     0.163 HD
ATOM     82  O   UNL     1       6.121  -8.092  -2.610  1.00  0.00    -0.275 OA
BRANCH  80  83
ATOM     83  C   UNL     1       8.165  -7.430  -1.494  1.00  0.00     0.095 C 
ATOM     84  C   UNL     1       7.998  -8.044  -0.095  1.00  0.00     0.041 C 
ATOM     85  C   UNL     1       8.978  -8.203  -2.538  1.00  0.00     0.095 C 
ATOM     86  C   UNL     1       8.343  -9.490   0.028  1.00  0.00    -0.030 C 
ATOM     87  C   UNL     1       9.084  -9.723  -2.346  1.00  0.00     0.041 C 
ATOM     88  C   UNL     1       8.819 -10.236  -0.972  1.00  0.00    -0.030 C 
BRANCH  85  89
ATOM     89  C   UNL     1      10.279  -7.620  -3.098  1.00  0.00     0.228 C 
ATOM     90  O   UNL     1      10.693  -8.062  -4.185  1.00  0.00    -0.274 OA
ATOM     91  N   UNL     1      11.007  -6.586  -2.614  1.00  0.00    -0.325 N 
ATOM     92  H   UNL     1      11.639  -6.235  -3.283  1.00  0.00     0.169 HD
BRANCH  91  93
ATOM     93  C   UNL     1      11.086  -5.891  -1.400  1.00  0.00     0.054 A 
ATOM     94  C   UNL     1      11.175  -4.491  -1.569  1.00  0.00     0.027 A 
ATOM     95  C   UNL     1      11.087  -6.416  -0.100  1.00  0.00     0.063 A 
ATOM     96  C   UNL     1      11.078  -3.615  -0.490  1.00  0.00     0.002 A 
ATOM     97  C   UNL     1      10.942  -5.507   0.977  1.00  0.00     0.016 A 
ATOM     98  C   UNL     1      10.913  -4.125   0.786  1.00  0.00     0.001 A 
BRANCH  95  99
ATOM     99  C   UNL     1      11.274  -7.833   0.335  1.00  0.00     0.253 C 
ATOM    100  O   UNL     1      10.803  -8.181   1.422  1.00  0.00    -0.269 OA
ATOM    101  N   UNL     1      11.992  -8.773  -0.344  1.00  0.00    -0.345 N 
ATOM    102  H   UNL     1      11.894  -9.685   0.013  1.00  0.00     0.164 HD
BRANCH 101 103
ATOM    103  C   UNL     1      12.869  -8.681  -1.486  1.00  0.00     0.191 C 
BRANCH 103 104
ATOM    104  C   UNL     1      13.879  -9.762  -1.416  1.00  0.00     0.122 A 
ATOM    105  C   UNL     1      14.035 -10.948  -2.105  1.00  0.00     0.047 A 
ATOM    106  O   UNL     1      14.885  -9.611  -0.510  1.00  0.00    -0.467 OA
ATOM    107  C   UNL     1      15.209 -11.550  -1.595  1.00  0.00     0.042 A 
ATOM    108  C   UNL     1      15.685 -10.700  -0.625  1.00  0.00     0.195 A 
ENDBRANCH 103 104
ENDBRANCH 101 103
ENDBRANCH  95  99
ENDBRANCH  91  93
ENDBRANCH  85  89
ENDBRANCH  80  83
ENDBRANCH  78  79
ENDBRANCH  77  78
ENDBRANCH   1  77
TORSDOF 21
