REMARK SMILES CS(=O)(=O)c1ccc(-c2cc(Cl)cc3c2O[C@H](C(F)(F)F)C(C(=O)NCCCCCCNC(=O)c2ccc(-c4c5nc(c(-c6c(F)cc(S(=O)(=O)[O-])cc6F)c6ccc([nH]6)c(-c6c(F)cc(S(=O)(=O)[O-])cc6F)c6nc(c(-c7c(F)cc(S(=O)(=O)[O-])cc7F)c7ccc4[nH]7)C=C6)C=C5)cc2)=C3)cc1
REMARK SMILES IDX 29 1 28 2 27 3 26 4 25 5 23 6 24 7 22 9 9 10 10 11 15 12
REMARK SMILES IDX 11 13 14 14 16 15 12 16 13 17 101 18 17 19 8 20 5 21 6 22
REMARK SMILES IDX 103 23 7 24 102 25 2 26 1 27 3 28 4 29 18 30 19 31 20 32
REMARK SMILES IDX 21 33 30 34 31 35 32 36 33 37 34 39 35 40 36 41 100 42 37 43
REMARK SMILES IDX 99 44 38 45 39 46 40 47 93 48 41 49 98 50 92 51 94 52 42 53
REMARK SMILES IDX 97 54 91 55 90 56 43 58 77 59 56 60 76 61 57 62 60 63 75 64
REMARK SMILES IDX 95 65 58 66 59 67 74 69 96 70 61 71 44 72 45 73 54 74 46 75
REMARK SMILES IDX 47 76 53 77 55 78 48 79 49 80 50 81 51 82 52 83 78 84 79 85
REMARK SMILES IDX 88 86 80 87 81 88 87 89 89 90 82 91 83 92 84 93 85 94 86 95
REMARK SMILES IDX 62 96 63 97 72 98 64 99 65 100 71 101 73 102 66 103 67 104
REMARK SMILES IDX 68 105 69 106 70 107
REMARK H PARENT 25 8 32 38 94 57 60 68
REMARK Flexibility Score: inf
ROOT
ATOM      1  C   UNL     1       5.382  -9.489 -13.167  1.00  0.00     0.002 C 
ENDROOT
BRANCH   1   2
ATOM      2  C   UNL     1       5.252 -10.163 -11.799  1.00  0.00     0.002 C 
BRANCH   2   3
ATOM      3  C   UNL     1       6.162  -9.585 -10.702  1.00  0.00     0.021 C 
BRANCH   3   4
ATOM      4  C   UNL     1       6.015  -8.073 -10.473  1.00  0.00     0.116 C 
BRANCH   4   5
ATOM      5  N   UNL     1       4.650  -7.764 -10.094  1.00  0.00    -0.352 N 
ATOM      6  C   UNL     1       4.281  -7.224  -8.905  1.00  0.00     0.251 C 
ATOM      7  O   UNL     1       3.402  -7.750  -8.233  1.00  0.00    -0.270 OA
ATOM      8  H   UNL     1       3.940  -7.961 -10.746  1.00  0.00     0.163 HD
BRANCH   6   9
ATOM      9  C   UNL     1       4.871  -5.892  -8.576  1.00  0.00     0.067 C 
ATOM     10  C   UNL     1       2.614  -4.970  -5.326  1.00  0.00     0.026 A 
ATOM     11  C   UNL     1       1.287  -5.354  -5.654  1.00  0.00     0.033 A 
ATOM     12  C   UNL     1       3.527  -4.925  -6.394  1.00  0.00     0.135 A 
ATOM     13  C   UNL     1       0.844  -5.471  -6.969  1.00  0.00     0.042 A 
ATOM     14  C   UNL     1       3.032  -4.922  -7.722  1.00  0.00     0.019 A 
ATOM     15  O   UNL     1       4.906  -4.955  -6.227  1.00  0.00    -0.475 OA
ATOM     16  Cl  UNL     1      -0.776  -5.948  -7.285  1.00  0.00    -0.084 Cl
ATOM     17  C   UNL     1       1.694  -5.170  -8.014  1.00  0.00     0.032 A 
ATOM     18  C   UNL     1       4.018  -4.878  -8.823  1.00  0.00     0.025 C 
ATOM     19  C   UNL     1       5.598  -5.821  -7.240  1.00  0.00     0.314 C 
BRANCH  10  20
ATOM     20  C   UNL     1       2.763  -4.401  -3.956  1.00  0.00    -0.015 A 
ATOM     21  C   UNL     1       1.800  -2.957  -1.719  1.00  0.00     0.067 A 
ATOM     22  C   UNL     1       1.705  -4.351  -1.746  1.00  0.00     0.021 A 
ATOM     23  C   UNL     1       2.499  -2.290  -2.723  1.00  0.00     0.021 A 
ATOM     24  C   UNL     1       2.205  -5.067  -2.844  1.00  0.00     0.010 A 
ATOM     25  C   UNL     1       2.990  -3.015  -3.826  1.00  0.00     0.010 A 
BRANCH  21  26
ATOM     26  S   UNL     1       0.890  -2.104  -0.446  1.00  0.00     0.175 S 
ATOM     27  C   UNL     1       1.383  -0.406  -0.450  1.00  0.00     0.163 C 
ATOM     28  O   UNL     1       1.317  -2.669   0.820  1.00  0.00    -0.224 OA
ATOM     29  O   UNL     1      -0.506  -2.144  -0.845  1.00  0.00    -0.224 OA
ENDBRANCH  21  26
ENDBRANCH  10  20
BRANCH  19  30
ATOM     30  C   UNL     1       7.047  -5.358  -7.516  1.00  0.00     0.429 C 
ATOM     31  F   UNL     1       7.298  -4.122  -7.030  1.00  0.00    -0.167 F 
ATOM     32  F   UNL     1       7.946  -6.208  -6.965  1.00  0.00    -0.167 F 
ATOM     33  F   UNL     1       7.334  -5.315  -8.845  1.00  0.00    -0.167 F 
ENDBRANCH  19  30
ENDBRANCH   6   9
ENDBRANCH   4   5
ENDBRANCH   3   4
ENDBRANCH   2   3
ENDBRANCH   1   2
BRANCH   1  34
ATOM     34  C   UNL     1       6.787  -9.542 -13.768  1.00  0.00     0.021 C 
BRANCH  34  35
ATOM     35  C   UNL     1       7.365 -10.946 -13.905  1.00  0.00     0.116 C 
BRANCH  35  36
ATOM     36  N   UNL     1       6.568 -11.791 -14.781  1.00  0.00    -0.352 N 
ATOM     37  C   UNL     1       6.984 -12.588 -15.817  1.00  0.00     0.251 C 
ATOM     38  H   UNL     1       5.599 -11.792 -14.605  1.00  0.00     0.163 HD
ATOM     39  O   UNL     1       6.159 -13.106 -16.567  1.00  0.00    -0.269 OA
BRANCH  37  40
ATOM     40  C   UNL     1       8.430 -12.795 -16.042  1.00  0.00     0.039 A 
ATOM     41  C   UNL     1       8.940 -12.669 -17.335  1.00  0.00     0.014 A 
ATOM     42  C   UNL     1       9.281 -13.091 -14.973  1.00  0.00     0.014 A 
ATOM     43  C   UNL     1      10.315 -12.781 -17.547  1.00  0.00     0.010 A 
ATOM     44  C   UNL     1      10.658 -13.124 -15.175  1.00  0.00     0.010 A 
ATOM     45  C   UNL     1      11.189 -12.974 -16.464  1.00  0.00    -0.014 A 
BRANCH  45  46
ATOM     46  C   UNL     1      12.661 -13.019 -16.662  1.00  0.00     0.031 A 
ATOM     47  C   UNL     1      13.428 -14.272 -16.337  1.00  0.00     0.074 A 
ATOM     48  C   UNL     1      13.312 -11.915 -17.078  1.00  0.00     0.049 A 
ATOM     49  N   UNL     1      14.718 -14.487 -16.387  1.00  0.00    -0.248 NA
ATOM     50  C   UNL     1      12.646 -15.428 -15.868  1.00  0.00     0.031 C 
ATOM     51  C   UNL     1      12.684 -10.626 -17.379  1.00  0.00     0.029 A 
ATOM     52  N   UNL     1      14.646 -11.694 -17.311  1.00  0.00    -0.354 N 
ATOM     53  C   UNL     1      14.902 -15.793 -15.948  1.00  0.00     0.074 A 
ATOM     54  C   UNL     1      13.599 -16.303 -15.581  1.00  0.00     0.031 C 
ATOM     55  C   UNL     1      13.628  -9.759 -17.779  1.00  0.00     0.029 A 
ATOM     56  C   UNL     1      14.931 -10.413 -17.724  1.00  0.00     0.049 A 
ATOM     57  H   UNL     1      15.335 -12.387 -17.193  1.00  0.00     0.167 HD
ATOM     58  C   UNL     1      16.050 -16.510 -15.881  1.00  0.00     0.037 A 
ATOM     59  C   UNL     1      16.110  -9.829 -18.017  1.00  0.00     0.037 A 
ATOM     60  C   UNL     1      17.340 -16.000 -16.267  1.00  0.00     0.049 A 
ATOM     61  C   UNL     1      17.372 -10.642 -17.924  1.00  0.00     0.074 A 
ATOM     62  C   UNL     1      18.554 -16.663 -16.289  1.00  0.00     0.029 A 
ATOM     63  N   UNL     1      17.586 -14.703 -16.694  1.00  0.00    -0.354 N 
ATOM     64  N   UNL     1      17.520 -11.897 -17.570  1.00  0.00    -0.248 NA
ATOM     65  C   UNL     1      18.628  -9.965 -18.275  1.00  0.00     0.031 C 
ATOM     66  C   UNL     1      19.542 -15.753 -16.678  1.00  0.00     0.029 A 
ATOM     67  C   UNL     1      18.936 -14.539 -16.957  1.00  0.00     0.049 A 
ATOM     68  H   UNL     1      16.901 -14.002 -16.795  1.00  0.00     0.167 HD
ATOM     69  C   UNL     1      18.880 -12.168 -17.686  1.00  0.00     0.074 A 
ATOM     70  C   UNL     1      19.508 -10.949 -18.153  1.00  0.00     0.031 C 
ATOM     71  C   UNL     1      19.547 -13.320 -17.430  1.00  0.00     0.037 A 
BRANCH  58  72
ATOM     72  C   UNL     1      15.963 -17.924 -15.371  1.00  0.00     0.058 A 
ATOM     73  C   UNL     1      15.333 -18.939 -16.111  1.00  0.00     0.135 A 
ATOM     74  C   UNL     1      16.549 -18.279 -14.146  1.00  0.00     0.135 A 
ATOM     75  F   UNL     1      14.742 -18.654 -17.283  1.00  0.00    -0.206 F 
ATOM     76  C   UNL     1      15.261 -20.246 -15.641  1.00  0.00     0.059 A 
ATOM     77  C   UNL     1      16.517 -19.587 -13.670  1.00  0.00     0.059 A 
ATOM     78  F   UNL     1      17.163 -17.351 -13.396  1.00  0.00    -0.206 F 
ATOM     79  C   UNL     1      15.857 -20.560 -14.419  1.00  0.00     0.060 A 
BRANCH  79  80
ATOM     80  S   UNL     1      15.761 -22.263 -13.828  1.00  0.00     0.124 S 
ATOM     81  O   UNL     1      14.351 -22.364 -13.462  1.00  0.00    -0.237 OA
ATOM     82  O   UNL     1      16.165 -23.025 -15.005  1.00  0.00    -0.237 OA
ATOM     83  O   UNL     1      16.701 -22.291 -12.712  1.00  0.00    -0.744 OA
ENDBRANCH  79  80
ENDBRANCH  58  72
BRANCH  59  84
ATOM     84  C   UNL     1      16.148  -8.403 -18.442  1.00  0.00     0.058 A 
ATOM     85  C   UNL     1      16.480  -8.050 -19.759  1.00  0.00     0.135 A 
ATOM     86  C   UNL     1      15.844  -7.366 -17.546  1.00  0.00     0.135 A 
ATOM     87  F   UNL     1      16.786  -9.004 -20.652  1.00  0.00    -0.206 F 
ATOM     88  C   UNL     1      16.528  -6.721 -20.168  1.00  0.00     0.059 A 
ATOM     89  C   UNL     1      15.856  -6.032 -17.939  1.00  0.00     0.059 A 
ATOM     90  F   UNL     1      15.502  -7.650 -16.279  1.00  0.00    -0.206 F 
ATOM     91  C   UNL     1      16.211  -5.718 -19.250  1.00  0.00     0.060 A 
BRANCH  91  92
ATOM     92  S   UNL     1      16.231  -4.000 -19.805  1.00  0.00     0.124 S 
ATOM     93  O   UNL     1      17.661  -3.754 -19.948  1.00  0.00    -0.237 OA
ATOM     94  O   UNL     1      15.466  -4.070 -21.046  1.00  0.00    -0.237 OA
ATOM     95  O   UNL     1      15.574  -3.288 -18.712  1.00  0.00    -0.744 OA
ENDBRANCH  91  92
ENDBRANCH  59  84
BRANCH  71  96
ATOM     96  C   UNL     1      21.030 -13.336 -17.684  1.00  0.00     0.058 A 
ATOM     97  C   UNL     1      21.931 -12.646 -16.859  1.00  0.00     0.135 A 
ATOM     98  C   UNL     1      21.559 -14.098 -18.739  1.00  0.00     0.135 A 
ATOM     99  F   UNL     1      21.478 -11.898 -15.841  1.00  0.00    -0.206 F 
ATOM    100  C   UNL     1      23.303 -12.691 -17.085  1.00  0.00     0.059 A 
ATOM    101  C   UNL     1      22.930 -14.183 -18.964  1.00  0.00     0.059 A 
ATOM    102  F   UNL     1      20.743 -14.786 -19.553  1.00  0.00    -0.206 F 
ATOM    103  C   UNL     1      23.793 -13.466 -18.138  1.00  0.00     0.060 A 
BRANCH 103 104
ATOM    104  S   UNL     1      25.578 -13.543 -18.397  1.00  0.00     0.124 S 
ATOM    105  O   UNL     1      25.855 -12.216 -18.937  1.00  0.00    -0.237 OA
ATOM    106  O   UNL     1      26.078 -13.796 -17.049  1.00  0.00    -0.237 OA
ATOM    107  O   UNL     1      25.738 -14.649 -19.337  1.00  0.00    -0.744 OA
ENDBRANCH 103 104
ENDBRANCH  71  96
ENDBRANCH  45  46
ENDBRANCH  37  40
ENDBRANCH  35  36
ENDBRANCH  34  35
ENDBRANCH   1  34
TORSDOF 19
