REMARK SMILES O=C(/C=C/c1ccc(O)cc1)NC[C@@H]1CC[C@H](C(=O)NCCCCCCNC(=O)c2ccc(-c3c4nc(c(-c5c(F)cc(S(=O)(=O)[O-])cc5F)c5ccc([nH]5)c(-c5c(F)cc(S(=O)(=O)[O-])cc5F)c5nc(c(-c6c(F)cc(S(=O)(=O)[O-])cc6F)c6ccc3[nH]6)C=C5)C=C4)cc2)O1
REMARK SMILES IDX 22 1 21 2 20 3 18 4 19 5 17 7 14 8 15 9 96 10 16 11 13 12
REMARK SMILES IDX 12 13 1 14 2 15 3 17 4 18 5 19 6 20 11 21 7 22 10 23 8 24
REMARK SMILES IDX 9 25 23 27 24 28 25 29 26 30 27 31 28 32 29 34 30 35 31 36
REMARK SMILES IDX 95 37 32 38 94 39 33 40 34 41 35 42 88 43 36 44 93 45 87 46
REMARK SMILES IDX 89 47 37 48 92 49 86 50 85 51 38 53 72 54 51 55 71 56 52 57
REMARK SMILES IDX 55 58 70 59 90 60 53 61 54 62 69 64 91 65 56 66 39 67 40 68
REMARK SMILES IDX 49 69 41 70 42 71 48 72 50 73 43 74 44 75 45 76 46 77 47 78
REMARK SMILES IDX 73 79 74 80 83 81 75 82 76 83 82 84 84 85 77 86 78 87 79 88
REMARK SMILES IDX 80 89 81 90 57 91 58 92 67 93 59 94 60 95 66 96 68 97 61 98
REMARK SMILES IDX 62 99 63 100 64 101 65 102
REMARK H PARENT 20 6 12 16 9 26 27 33 89 52 55 63
REMARK Flexibility Score: inf
ROOT
ATOM      1  C   UNL     1       0.224   3.119   0.192  1.00  0.00     0.021 C 
ENDROOT
BRANCH   1   2
ATOM      2  C   UNL     1       0.025   2.746  -1.277  1.00  0.00     0.116 C 
BRANCH   2   3
ATOM      3  N   UNL     1      -0.280   3.913  -2.080  1.00  0.00    -0.354 N 
ATOM      4  C   UNL     1       0.462   4.531  -3.043  1.00  0.00     0.249 C 
ATOM      5  O   UNL     1      -0.018   5.540  -3.572  1.00  0.00    -0.272 OA
ATOM      6  H   UNL     1      -1.157   4.322  -1.904  1.00  0.00     0.163 HD
BRANCH   4   7
ATOM      7  C   UNL     1       1.877   4.042  -3.433  1.00  0.00     0.207 C 
ATOM      8  C   UNL     1       3.175   2.125  -3.087  1.00  0.00     0.138 C 
ATOM      9  C   UNL     1       3.469   3.063  -1.925  1.00  0.00     0.037 C 
ATOM     10  O   UNL     1       1.997   2.651  -3.730  1.00  0.00    -0.363 OA
ATOM     11  C   UNL     1       2.941   4.395  -2.404  1.00  0.00     0.045 C 
BRANCH   8  12
ATOM     12  C   UNL     1       2.940   0.641  -2.743  1.00  0.00     0.148 C 
BRANCH  12  13
ATOM     13  N   UNL     1       3.487   0.210  -1.467  1.00  0.00    -0.350 N 
ATOM     14  O   UNL     1       1.458  -0.300  -0.541  1.00  0.00    -0.270 OA
ATOM     15  C   UNL     1       2.675  -0.237  -0.454  1.00  0.00     0.244 C 
ATOM     16  H   UNL     1       4.461   0.239  -1.326  1.00  0.00     0.163 HD
BRANCH  15  17
ATOM     17  C   UNL     1       3.328  -0.634   0.824  1.00  0.00     0.072 C 
ATOM     18  C   UNL     1       4.622  -0.488   1.140  1.00  0.00     0.014 C 
BRANCH  18  19
ATOM     19  C   UNL     1       5.196  -0.829   2.452  1.00  0.00    -0.025 A 
ATOM     20  C   UNL     1       4.788  -1.940   3.206  1.00  0.00     0.012 A 
ATOM     21  C   UNL     1       6.243  -0.031   2.937  1.00  0.00     0.012 A 
ATOM     22  C   UNL     1       5.408  -2.241   4.426  1.00  0.00     0.047 A 
ATOM     23  C   UNL     1       6.859  -0.329   4.153  1.00  0.00     0.047 A 
ATOM     24  C   UNL     1       6.440  -1.431   4.886  1.00  0.00     0.115 A 
BRANCH  24  25
ATOM     25  O   UNL     1       7.084  -1.687   6.059  1.00  0.00    -0.508 OA
ATOM     26  H   UNL     1       6.830  -2.421   6.582  1.00  0.00     0.293 HD
ENDBRANCH  24  25
ENDBRANCH  18  19
ENDBRANCH  15  17
ENDBRANCH  12  13
ENDBRANCH   8  12
ENDBRANCH   4   7
ENDBRANCH   2   3
ENDBRANCH   1   2
BRANCH   1  27
ATOM     27  C   UNL     1      -1.084   3.228   0.984  1.00  0.00     0.002 C 
BRANCH  27  28
ATOM     28  C   UNL     1      -1.905   1.935   1.072  1.00  0.00     0.002 C 
BRANCH  28  29
ATOM     29  C   UNL     1      -1.152   0.709   1.594  1.00  0.00     0.021 C 
BRANCH  29  30
ATOM     30  C   UNL     1      -0.576   0.853   2.998  1.00  0.00     0.116 C 
BRANCH  30  31
ATOM     31  N   UNL     1      -1.625   1.007   3.994  1.00  0.00    -0.352 N 
ATOM     32  C   UNL     1      -1.905   0.240   5.096  1.00  0.00     0.251 C 
ATOM     33  H   UNL     1      -2.223   1.776   3.856  1.00  0.00     0.163 HD
ATOM     34  O   UNL     1      -2.974   0.391   5.684  1.00  0.00    -0.269 OA
BRANCH  32  35
ATOM     35  C   UNL     1      -0.935  -0.769   5.576  1.00  0.00     0.039 A 
ATOM     36  C   UNL     1      -1.415  -2.010   6.007  1.00  0.00     0.014 A 
ATOM     37  C   UNL     1       0.433  -0.487   5.643  1.00  0.00     0.014 A 
ATOM     38  C   UNL     1      -0.519  -2.980   6.461  1.00  0.00     0.010 A 
ATOM     39  C   UNL     1       1.331  -1.479   6.032  1.00  0.00     0.010 A 
ATOM     40  C   UNL     1       0.864  -2.732   6.453  1.00  0.00    -0.014 A 
BRANCH  40  41
ATOM     41  C   UNL     1       1.825  -3.782   6.875  1.00  0.00     0.031 A 
ATOM     42  C   UNL     1       2.674  -3.596   8.101  1.00  0.00     0.074 A 
ATOM     43  C   UNL     1       1.969  -4.887   6.120  1.00  0.00     0.049 A 
ATOM     44  N   UNL     1       3.579  -4.395   8.606  1.00  0.00    -0.248 NA
ATOM     45  C   UNL     1       2.509  -2.333   8.837  1.00  0.00     0.031 C 
ATOM     46  C   UNL     1       1.250  -5.153   4.872  1.00  0.00     0.029 A 
ATOM     47  N   UNL     1       2.769  -5.989   6.286  1.00  0.00    -0.354 N 
ATOM     48  C   UNL     1       4.090  -3.735   9.717  1.00  0.00     0.074 A 
ATOM     49  C   UNL     1       3.443  -2.441   9.770  1.00  0.00     0.031 C 
ATOM     50  C   UNL     1       1.625  -6.351   4.398  1.00  0.00     0.029 A 
ATOM     51  C   UNL     1       2.628  -6.926   5.290  1.00  0.00     0.049 A 
ATOM     52  H   UNL     1       3.386  -6.098   7.045  1.00  0.00     0.167 HD
ATOM     53  C   UNL     1       4.995  -4.176  10.625  1.00  0.00     0.037 A 
ATOM     54  C   UNL     1       3.235  -8.115   5.114  1.00  0.00     0.037 A 
ATOM     55  C   UNL     1       5.617  -5.474  10.580  1.00  0.00     0.049 A 
ATOM     56  C   UNL     1       4.218  -8.598   6.142  1.00  0.00     0.074 A 
ATOM     57  C   UNL     1       6.499  -6.039  11.486  1.00  0.00     0.029 A 
ATOM     58  N   UNL     1       5.426  -6.411   9.574  1.00  0.00    -0.354 N 
ATOM     59  N   UNL     1       4.639  -7.990   7.226  1.00  0.00    -0.248 NA
ATOM     60  C   UNL     1       4.800  -9.929   5.931  1.00  0.00     0.031 C 
ATOM     61  C   UNL     1       6.879  -7.297  11.001  1.00  0.00     0.029 A 
ATOM     62  C   UNL     1       6.200  -7.535   9.817  1.00  0.00     0.049 A 
ATOM     63  H   UNL     1       4.829  -6.294   8.801  1.00  0.00     0.167 HD
ATOM     64  C   UNL     1       5.529  -8.868   7.832  1.00  0.00     0.074 A 
ATOM     65  C   UNL     1       5.570 -10.057   7.004  1.00  0.00     0.031 C 
ATOM     66  C   UNL     1       6.248  -8.704   8.972  1.00  0.00     0.037 A 
BRANCH  53  67
ATOM     67  C   UNL     1       5.372  -3.229  11.733  1.00  0.00     0.058 A 
ATOM     68  C   UNL     1       4.466  -2.881  12.750  1.00  0.00     0.135 A 
ATOM     69  C   UNL     1       6.649  -2.649  11.771  1.00  0.00     0.135 A 
ATOM     70  F   UNL     1       3.227  -3.398  12.757  1.00  0.00    -0.206 F 
ATOM     71  C   UNL     1       4.795  -1.951  13.731  1.00  0.00     0.059 A 
ATOM     72  C   UNL     1       7.011  -1.739  12.760  1.00  0.00     0.059 A 
ATOM     73  F   UNL     1       7.556  -2.950  10.828  1.00  0.00    -0.206 F 
ATOM     74  C   UNL     1       6.067  -1.377  13.720  1.00  0.00     0.060 A 
BRANCH  74  75
ATOM     75  S   UNL     1       6.467  -0.137  14.971  1.00  0.00     0.124 S 
ATOM     76  O   UNL     1       5.748   1.027  14.464  1.00  0.00    -0.237 OA
ATOM     77  O   UNL     1       5.927  -0.733  16.189  1.00  0.00    -0.237 OA
ATOM     78  O   UNL     1       7.923  -0.052  14.911  1.00  0.00    -0.744 OA
ENDBRANCH  74  75
ENDBRANCH  53  67
BRANCH  54  79
ATOM     79  C   UNL     1       2.893  -8.931   3.921  1.00  0.00     0.058 A 
ATOM     80  C   UNL     1       2.084 -10.070   4.030  1.00  0.00     0.135 A 
ATOM     81  C   UNL     1       3.305  -8.539   2.638  1.00  0.00     0.135 A 
ATOM     82  F   UNL     1       1.672 -10.487   5.237  1.00  0.00    -0.206 F 
ATOM     83  C   UNL     1       1.686 -10.789   2.908  1.00  0.00     0.059 A 
ATOM     84  C   UNL     1       2.903  -9.228   1.499  1.00  0.00     0.059 A 
ATOM     85  F   UNL     1       4.067  -7.444   2.482  1.00  0.00    -0.206 F 
ATOM     86  C   UNL     1       2.091 -10.353   1.645  1.00  0.00     0.060 A 
BRANCH  86  87
ATOM     87  S   UNL     1       1.483 -11.231   0.188  1.00  0.00     0.124 S 
ATOM     88  O   UNL     1       2.275 -12.454   0.231  1.00  0.00    -0.237 OA
ATOM     89  O   UNL     1       0.062 -11.377   0.490  1.00  0.00    -0.237 OA
ATOM     90  O   UNL     1       1.792 -10.315  -0.907  1.00  0.00    -0.744 OA
ENDBRANCH  86  87
ENDBRANCH  54  79
BRANCH  66  91
ATOM     91  C   UNL     1       7.148  -9.836   9.384  1.00  0.00     0.058 A 
ATOM     92  C   UNL     1       8.339 -10.114   8.695  1.00  0.00     0.135 A 
ATOM     93  C   UNL     1       6.836 -10.629  10.500  1.00  0.00     0.135 A 
ATOM     94  F   UNL     1       8.681  -9.388   7.618  1.00  0.00    -0.206 F 
ATOM     95  C   UNL     1       9.175 -11.156   9.080  1.00  0.00     0.059 A 
ATOM     96  C   UNL     1       7.670 -11.661  10.918  1.00  0.00     0.059 A 
ATOM     97  F   UNL     1       5.714 -10.399  11.200  1.00  0.00    -0.206 F 
ATOM     98  C   UNL     1       8.831 -11.926  10.193  1.00  0.00     0.060 A 
BRANCH  98  99
ATOM     99  S   UNL     1       9.934 -13.265  10.695  1.00  0.00     0.124 S 
ATOM    100  O   UNL     1       9.643 -14.277   9.685  1.00  0.00    -0.237 OA
ATOM    101  O   UNL     1      11.249 -12.639  10.605  1.00  0.00    -0.237 OA
ATOM    102  O   UNL     1       9.488 -13.581  12.049  1.00  0.00    -0.744 OA
ENDBRANCH  98  99
ENDBRANCH  66  91
ENDBRANCH  40  41
ENDBRANCH  32  35
ENDBRANCH  30  31
ENDBRANCH  29  30
ENDBRANCH  28  29
ENDBRANCH  27  28
ENDBRANCH   1  27
TORSDOF 21
