REMARK SMILES O=CN[C@@H](CCS[C@@H]1CCO[C@]2(CCOC2)C1)C(=O)NCCCCCCNC(=O)c1ccc(-c2c3nc(c(-c4c(F)cc(S(=O)(=O)[O-])cc4F)c4ccc([nH]4)c(-c4c(F)cc(S(=O)(=O)[O-])cc4F)c4nc(c(-c5c(F)cc(S(=O)(=O)[O-])cc5F)c5ccc2[nH]5)C=C4)C=C3)cc1
REMARK SMILES IDX 23 1 22 2 21 3 20 4 18 5 19 6 4 8 3 9 1 10 2 11 5 13 6 14
REMARK SMILES IDX 7 15 8 16 9 17 17 18 10 19 12 20 11 21 13 22 16 23 14 24
REMARK SMILES IDX 15 25 24 26 25 27 26 28 27 29 28 30 29 32 30 33 31 34 95 35
REMARK SMILES IDX 32 36 94 37 33 38 34 39 35 40 88 41 36 42 93 43 87 44 89 45
REMARK SMILES IDX 37 46 92 47 86 48 85 49 38 51 72 52 51 53 71 54 52 55 55 56
REMARK SMILES IDX 70 57 90 58 53 59 54 60 69 62 91 63 56 64 39 65 40 66 49 67
REMARK SMILES IDX 41 68 42 69 48 70 50 71 43 72 44 73 45 74 46 75 47 76 73 77
REMARK SMILES IDX 74 78 83 79 75 80 76 81 82 82 84 83 77 84 78 85 79 86 80 87
REMARK SMILES IDX 81 88 57 89 58 90 67 91 59 92 60 93 66 94 68 95 61 96 62 97
REMARK SMILES IDX 63 98 64 99 65 100
REMARK H PARENT 20 7 3 12 27 31 89 50 55 61
REMARK Flexibility Score: inf
ROOT
ATOM      1  C   UNL     1       2.060   1.048  -5.728  1.00  0.00     0.002 C 
ENDROOT
BRANCH   1   2
ATOM      2  C   UNL     1       1.241   0.239  -4.713  1.00  0.00     0.021 C 
BRANCH   2   3
ATOM      3  C   UNL     1       1.995  -0.519  -3.625  1.00  0.00     0.116 C 
BRANCH   3   4
ATOM      4  N   UNL     1       2.744   0.354  -2.740  1.00  0.00    -0.354 N 
ATOM      5  C   UNL     1       3.423   0.037  -1.603  1.00  0.00     0.242 C 
ATOM      6  O   UNL     1       3.558   0.920  -0.749  1.00  0.00    -0.273 OA
ATOM      7  H   UNL     1       2.765   1.304  -2.997  1.00  0.00     0.163 HD
BRANCH   5   8
ATOM      8  C   UNL     1       3.884  -1.383  -1.287  1.00  0.00     0.171 C 
BRANCH   8   9
ATOM      9  N   UNL     1       2.649  -2.115  -1.016  1.00  0.00    -0.347 N 
ATOM     10  O   UNL     1       0.665  -2.093   0.113  1.00  0.00    -0.279 OA
ATOM     11  C   UNL     1       1.835  -1.751   0.031  1.00  0.00     0.337 C 
ATOM     12  H   UNL     1       2.397  -2.876  -1.588  1.00  0.00     0.164 HD
ENDBRANCH   8   9
BRANCH   8  13
ATOM     13  C   UNL     1       4.894  -2.082  -2.215  1.00  0.00     0.046 C 
BRANCH  13  14
ATOM     14  C   UNL     1       5.295  -1.562  -3.613  1.00  0.00     0.072 C 
BRANCH  14  15
ATOM     15  S   UNL     1       6.521  -0.217  -3.840  1.00  0.00    -0.158 SA
BRANCH  15  16
ATOM     16  C   UNL     1       5.582   1.372  -4.029  1.00  0.00     0.052 C 
ATOM     17  C   UNL     1       6.145   2.270  -5.145  1.00  0.00     0.043 C 
ATOM     18  C   UNL     1       5.553   2.209  -2.754  1.00  0.00     0.052 C 
ATOM     19  C   UNL     1       7.385   3.059  -4.722  1.00  0.00     0.162 C 
ATOM     20  C   UNL     1       6.860   2.912  -2.386  1.00  0.00     0.095 C 
ATOM     21  O   UNL     1       7.204   3.762  -3.487  1.00  0.00    -0.372 OA
ATOM     22  C   UNL     1       8.036   2.034  -1.965  1.00  0.00     0.066 C 
ATOM     23  C   UNL     1       6.622   3.740  -1.097  1.00  0.00     0.195 C 
ATOM     24  C   UNL     1       7.899   1.934  -0.471  1.00  0.00     0.163 C 
ATOM     25  O   UNL     1       7.509   3.245  -0.071  1.00  0.00    -0.378 OA
ENDBRANCH  15  16
ENDBRANCH  14  15
ENDBRANCH  13  14
ENDBRANCH   8  13
ENDBRANCH   5   8
ENDBRANCH   3   4
ENDBRANCH   2   3
ENDBRANCH   1   2
BRANCH   1  26
ATOM     26  C   UNL     1       3.114   0.317  -6.566  1.00  0.00     0.002 C 
BRANCH  26  27
ATOM     27  C   UNL     1       2.663  -0.900  -7.363  1.00  0.00     0.021 C 
BRANCH  27  28
ATOM     28  C   UNL     1       1.477  -0.682  -8.286  1.00  0.00     0.116 C 
BRANCH  28  29
ATOM     29  N   UNL     1       1.718   0.274  -9.354  1.00  0.00    -0.352 N 
ATOM     30  C   UNL     1       1.185   0.266 -10.625  1.00  0.00     0.251 C 
ATOM     31  H   UNL     1       2.333   1.014  -9.145  1.00  0.00     0.163 HD
ATOM     32  O   UNL     1       1.539   1.100 -11.454  1.00  0.00    -0.269 OA
BRANCH  30  33
ATOM     33  C   UNL     1       0.218  -0.794 -10.993  1.00  0.00     0.039 A 
ATOM     34  C   UNL     1       0.422  -1.526 -12.166  1.00  0.00     0.014 A 
ATOM     35  C   UNL     1      -0.844  -1.113 -10.143  1.00  0.00     0.014 A 
ATOM     36  C   UNL     1      -0.390  -2.631 -12.441  1.00  0.00     0.010 A 
ATOM     37  C   UNL     1      -1.593  -2.262 -10.374  1.00  0.00     0.010 A 
ATOM     38  C   UNL     1      -1.375  -3.034 -11.524  1.00  0.00    -0.014 A 
BRANCH  38  39
ATOM     39  C   UNL     1      -2.194  -4.255 -11.745  1.00  0.00     0.031 A 
ATOM     40  C   UNL     1      -3.688  -4.139 -11.891  1.00  0.00     0.074 A 
ATOM     41  C   UNL     1      -1.607  -5.469 -11.732  1.00  0.00     0.049 A 
ATOM     42  N   UNL     1      -4.584  -5.086 -11.995  1.00  0.00    -0.248 NA
ATOM     43  C   UNL     1      -4.251  -2.779 -11.884  1.00  0.00     0.031 C 
ATOM     44  C   UNL     1      -0.176  -5.718 -11.541  1.00  0.00     0.029 A 
ATOM     45  N   UNL     1      -2.144  -6.726 -11.867  1.00  0.00    -0.354 N 
ATOM     46  C   UNL     1      -5.813  -4.440 -12.048  1.00  0.00     0.074 A 
ATOM     47  C   UNL     1      -5.553  -3.024 -11.905  1.00  0.00     0.031 C 
ATOM     48  C   UNL     1       0.052  -7.041 -11.593  1.00  0.00     0.029 A 
ATOM     49  C   UNL     1      -1.216  -7.737 -11.783  1.00  0.00     0.049 A 
ATOM     50  H   UNL     1      -3.105  -6.888 -12.011  1.00  0.00     0.167 HD
ATOM     51  C   UNL     1      -7.045  -4.974 -12.226  1.00  0.00     0.037 A 
ATOM     52  C   UNL     1      -1.370  -9.075 -11.846  1.00  0.00     0.037 A 
ATOM     53  C   UNL     1      -7.294  -6.380 -12.403  1.00  0.00     0.049 A 
ATOM     54  C   UNL     1      -2.747  -9.645 -12.059  1.00  0.00     0.074 A 
ATOM     55  C   UNL     1      -8.497  -7.016 -12.654  1.00  0.00     0.029 A 
ATOM     56  N   UNL     1      -6.323  -7.369 -12.348  1.00  0.00    -0.354 N 
ATOM     57  N   UNL     1      -3.891  -9.013 -12.173  1.00  0.00    -0.248 NA
ATOM     58  C   UNL     1      -2.854 -11.107 -12.161  1.00  0.00     0.031 C 
ATOM     59  C   UNL     1      -8.260  -8.393 -12.711  1.00  0.00     0.029 A 
ATOM     60  C   UNL     1      -6.902  -8.612 -12.544  1.00  0.00     0.049 A 
ATOM     61  H   UNL     1      -5.364  -7.211 -12.193  1.00  0.00     0.167 HD
ATOM     62  C   UNL     1      -4.849  -9.998 -12.388  1.00  0.00     0.074 A 
ATOM     63  C   UNL     1      -4.149 -11.266 -12.398  1.00  0.00     0.031 C 
ATOM     64  C   UNL     1      -6.188  -9.864 -12.562  1.00  0.00     0.037 A 
BRANCH  51  65
ATOM     65  C   UNL     1      -8.216  -4.030 -12.250  1.00  0.00     0.058 A 
ATOM     66  C   UNL     1      -8.421  -3.136 -13.314  1.00  0.00     0.135 A 
ATOM     67  C   UNL     1      -9.161  -4.036 -11.211  1.00  0.00     0.135 A 
ATOM     68  F   UNL     1      -7.540  -3.075 -14.325  1.00  0.00    -0.206 F 
ATOM     69  C   UNL     1      -9.500  -2.260 -13.331  1.00  0.00     0.059 A 
ATOM     70  C   UNL     1     -10.265  -3.189 -11.222  1.00  0.00     0.059 A 
ATOM     71  F   UNL     1      -9.014  -4.869 -10.169  1.00  0.00    -0.206 F 
ATOM     72  C   UNL     1     -10.417  -2.293 -12.280  1.00  0.00     0.060 A 
BRANCH  72  73
ATOM     73  S   UNL     1     -11.814  -1.150 -12.319  1.00  0.00     0.124 S 
ATOM     74  O   UNL     1     -11.161   0.117 -12.002  1.00  0.00    -0.237 OA
ATOM     75  O   UNL     1     -12.293  -1.290 -13.690  1.00  0.00    -0.237 OA
ATOM     76  O   UNL     1     -12.708  -1.670 -11.289  1.00  0.00    -0.744 OA
ENDBRANCH  72  73
ENDBRANCH  51  65
BRANCH  52  77
ATOM     77  C   UNL     1      -0.184  -9.967 -11.733  1.00  0.00     0.058 A 
ATOM     78  C   UNL     1       0.295 -10.675 -12.845  1.00  0.00     0.135 A 
ATOM     79  C   UNL     1       0.500 -10.121 -10.517  1.00  0.00     0.135 A 
ATOM     80  F   UNL     1      -0.329 -10.566 -14.028  1.00  0.00    -0.206 F 
ATOM     81  C   UNL     1       1.399 -11.516 -12.755  1.00  0.00     0.059 A 
ATOM     82  C   UNL     1       1.622 -10.937 -10.407  1.00  0.00     0.059 A 
ATOM     83  F   UNL     1       0.093  -9.452  -9.427  1.00  0.00    -0.206 F 
ATOM     84  C   UNL     1       2.058 -11.638 -11.531  1.00  0.00     0.060 A 
BRANCH  84  85
ATOM     85  S   UNL     1       3.523 -12.692 -11.435  1.00  0.00     0.124 S 
ATOM     86  O   UNL     1       2.930 -14.023 -11.484  1.00  0.00    -0.237 OA
ATOM     87  O   UNL     1       4.273 -12.282 -12.619  1.00  0.00    -0.237 OA
ATOM     88  O   UNL     1       4.124 -12.313 -10.160  1.00  0.00    -0.744 OA
ENDBRANCH  84  85
ENDBRANCH  52  77
BRANCH  64  89
ATOM     89  C   UNL     1      -6.982 -11.114 -12.817  1.00  0.00     0.058 A 
ATOM     90  C   UNL     1      -7.249 -12.041 -11.798  1.00  0.00     0.135 A 
ATOM     91  C   UNL     1      -7.534 -11.356 -14.086  1.00  0.00     0.135 A 
ATOM     92  F   UNL     1      -6.740 -11.860 -10.569  1.00  0.00    -0.206 F 
ATOM     93  C   UNL     1      -8.018 -13.176 -12.033  1.00  0.00     0.059 A 
ATOM     94  C   UNL     1      -8.329 -12.470 -14.336  1.00  0.00     0.059 A 
ATOM     95  F   UNL     1      -7.318 -10.495 -15.093  1.00  0.00    -0.206 F 
ATOM     96  C   UNL     1      -8.556 -13.380 -13.305  1.00  0.00     0.060 A 
BRANCH  96  97
ATOM     97  S   UNL     1      -9.585 -14.837 -13.586  1.00  0.00     0.124 S 
ATOM     98  O   UNL     1      -8.585 -15.899 -13.626  1.00  0.00    -0.237 OA
ATOM     99  O   UNL     1     -10.460 -14.833 -12.418  1.00  0.00    -0.237 OA
ATOM    100  O   UNL     1     -10.244 -14.548 -14.856  1.00  0.00    -0.744 OA
ENDBRANCH  96  97
ENDBRANCH  64  89
ENDBRANCH  38  39
ENDBRANCH  30  33
ENDBRANCH  28  29
ENDBRANCH  27  28
ENDBRANCH  26  27
ENDBRANCH   1  26
TORSDOF 21
