REMARK SMILES CC1(C)S[C@H](c2ccccc2O)[NH2+][C@H]1C(=O)NCCCCCCNC(=O)c1ccc(-c2c3nc(c(-c4c(F)cc(S(=O)(=O)[O-])cc4F)c4ccc([nH]4)c(-c4c(F)cc(S(=O)(=O)[O-])cc4F)c4nc(c(-c5c(F)cc(S(=O)(=O)[O-])cc5F)c5ccc2[nH]5)C=C4)C=C3)cc1
REMARK SMILES IDX 21 1 20 2 19 3 18 4 17 5 15 6 16 7 14 9 1 10 2 11 3 12 4 13
REMARK SMILES IDX 5 14 13 15 6 18 7 19 11 20 8 21 10 22 9 23 12 24 22 26 23 27
REMARK SMILES IDX 24 28 25 29 26 31 27 32 28 33 92 34 29 35 91 36 30 37 31 38
REMARK SMILES IDX 32 39 85 40 33 41 90 42 84 43 86 44 34 45 89 46 83 47 82 48
REMARK SMILES IDX 35 50 69 51 48 52 68 53 49 54 52 55 67 56 87 57 50 58 51 59
REMARK SMILES IDX 66 61 88 62 53 63 36 64 37 65 46 66 38 67 39 68 45 69 47 70
REMARK SMILES IDX 40 71 41 72 42 73 43 74 44 75 70 76 71 77 80 78 72 79 73 80
REMARK SMILES IDX 79 81 81 82 74 83 75 84 76 85 77 86 78 87 54 88 55 89 64 90
REMARK SMILES IDX 56 91 57 92 63 93 65 94 58 95 59 96 60 97 61 98 62 99
REMARK H PARENT 17 8 13 16 13 17 12 25 24 30 86 49 52 60
REMARK Flexibility Score: inf
ROOT
ATOM      1  C   UNL     1       0.904   4.353   4.835  1.00  0.00     0.002 C 
ENDROOT
BRANCH   1   2
ATOM      2  C   UNL     1       1.946   3.786   3.868  1.00  0.00     0.002 C 
BRANCH   2   3
ATOM      3  C   UNL     1       1.583   2.443   3.233  1.00  0.00     0.021 C 
BRANCH   3   4
ATOM      4  C   UNL     1       0.338   2.474   2.348  1.00  0.00     0.116 C 
BRANCH   4   5
ATOM      5  N   UNL     1       0.639   3.018   1.038  1.00  0.00    -0.351 N 
ATOM      6  C   UNL     1       0.563   2.515  -0.222  1.00  0.00     0.279 C 
ATOM      7  O   UNL     1       1.020   3.240  -1.117  1.00  0.00    -0.268 OA
ATOM      8  H   UNL     1       0.967   3.946   1.069  1.00  0.00     0.163 HD
BRANCH   6   9
ATOM      9  C   UNL     1      -0.003   1.127  -0.589  1.00  0.00     0.289 C 
ATOM     10  C   UNL     1       1.713  -0.187   0.901  1.00  0.00     0.030 C 
ATOM     11  C   UNL     1       0.963  -0.059  -0.421  1.00  0.00     0.077 C 
ATOM     12  C   UNL     1       1.966  -0.125  -1.579  1.00  0.00     0.030 C 
ATOM     13  S   UNL     1      -0.158  -1.491  -0.530  1.00  0.00    -0.081 SA
ATOM     14  C   UNL     1      -1.700  -0.531  -0.306  1.00  0.00     0.278 C 
ATOM     15  N   UNL     1      -1.332   0.862   0.019  1.00  0.00    -0.320 N 
ATOM     16  H   UNL     1      -1.282   0.981   1.031  1.00  0.00     0.348 HD
ATOM     17  H   UNL     1      -2.029   1.511  -0.344  1.00  0.00     0.348 HD
BRANCH  14  18
ATOM     18  C   UNL     1      -2.628  -0.696  -1.498  1.00  0.00     0.062 A 
ATOM     19  C   UNL     1      -2.848   0.322  -2.443  1.00  0.00     0.015 A 
ATOM     20  C   UNL     1      -3.284  -1.923  -1.707  1.00  0.00     0.125 A 
ATOM     21  C   UNL     1      -3.649   0.104  -3.567  1.00  0.00     0.001 A 
ATOM     22  C   UNL     1      -4.080  -2.149  -2.831  1.00  0.00     0.047 A 
ATOM     23  C   UNL     1      -4.255  -1.134  -3.767  1.00  0.00     0.004 A 
BRANCH  20  24
ATOM     24  O   UNL     1      -3.139  -2.916  -0.777  1.00  0.00    -0.507 OA
ATOM     25  H   UNL     1      -2.607  -2.774  -0.019  1.00  0.00     0.293 HD
ENDBRANCH  20  24
ENDBRANCH  14  18
ENDBRANCH   6   9
ENDBRANCH   4   5
ENDBRANCH   3   4
ENDBRANCH   2   3
ENDBRANCH   1   2
BRANCH   1  26
ATOM     26  C   UNL     1       0.416   3.391   5.923  1.00  0.00     0.021 C 
BRANCH  26  27
ATOM     27  C   UNL     1       1.513   2.728   6.753  1.00  0.00     0.116 C 
BRANCH  27  28
ATOM     28  N   UNL     1       2.359   3.697   7.423  1.00  0.00    -0.352 N 
ATOM     29  C   UNL     1       2.736   3.761   8.740  1.00  0.00     0.251 C 
ATOM     30  H   UNL     1       2.715   4.413   6.849  1.00  0.00     0.163 HD
ATOM     31  O   UNL     1       3.318   4.760   9.154  1.00  0.00    -0.269 OA
BRANCH  29  32
ATOM     32  C   UNL     1       2.432   2.644   9.662  1.00  0.00     0.039 A 
ATOM     33  C   UNL     1       1.974   2.948  10.947  1.00  0.00     0.014 A 
ATOM     34  C   UNL     1       2.642   1.312   9.290  1.00  0.00     0.014 A 
ATOM     35  C   UNL     1       1.706   1.918  11.850  1.00  0.00     0.010 A 
ATOM     36  C   UNL     1       2.312   0.282  10.171  1.00  0.00     0.010 A 
ATOM     37  C   UNL     1       1.863   0.576  11.467  1.00  0.00    -0.014 A 
BRANCH  37  38
ATOM     38  C   UNL     1       1.605  -0.519  12.435  1.00  0.00     0.031 A 
ATOM     39  C   UNL     1       2.741  -1.376  12.927  1.00  0.00     0.074 A 
ATOM     40  C   UNL     1       0.348  -0.754  12.858  1.00  0.00     0.049 A 
ATOM     41  N   UNL     1       2.719  -2.369  13.778  1.00  0.00    -0.248 NA
ATOM     42  C   UNL     1       4.075  -1.096  12.370  1.00  0.00     0.031 C 
ATOM     43  C   UNL     1      -0.844  -0.028  12.413  1.00  0.00     0.029 A 
ATOM     44  N   UNL     1      -0.138  -1.667  13.759  1.00  0.00    -0.354 N 
ATOM     45  C   UNL     1       4.026  -2.838  13.851  1.00  0.00     0.074 A 
ATOM     46  C   UNL     1       4.806  -2.056  12.916  1.00  0.00     0.031 C 
ATOM     47  C   UNL     1      -1.918  -0.506  13.062  1.00  0.00     0.029 A 
ATOM     48  C   UNL     1      -1.496  -1.583  13.953  1.00  0.00     0.049 A 
ATOM     49  H   UNL     1       0.433  -2.322  14.223  1.00  0.00     0.167 HD
ATOM     50  C   UNL     1       4.536  -3.811  14.643  1.00  0.00     0.037 A 
ATOM     51  C   UNL     1      -2.307  -2.288  14.765  1.00  0.00     0.037 A 
ATOM     52  C   UNL     1       3.762  -4.564  15.595  1.00  0.00     0.049 A 
ATOM     53  C   UNL     1      -1.711  -3.340  15.662  1.00  0.00     0.074 A 
ATOM     54  C   UNL     1       4.194  -5.529  16.487  1.00  0.00     0.029 A 
ATOM     55  N   UNL     1       2.394  -4.431  15.782  1.00  0.00    -0.354 N 
ATOM     56  N   UNL     1      -0.461  -3.725  15.764  1.00  0.00    -0.248 NA
ATOM     57  C   UNL     1      -2.634  -4.042  16.564  1.00  0.00     0.031 C 
ATOM     58  C   UNL     1       3.081  -6.003  17.192  1.00  0.00     0.029 A 
ATOM     59  C   UNL     1       1.963  -5.305  16.766  1.00  0.00     0.049 A 
ATOM     60  H   UNL     1       1.815  -3.807  15.288  1.00  0.00     0.167 HD
ATOM     61  C   UNL     1      -0.444  -4.700  16.755  1.00  0.00     0.074 A 
ATOM     62  C   UNL     1      -1.806  -4.831  17.233  1.00  0.00     0.031 C 
ATOM     63  C   UNL     1       0.602  -5.423  17.226  1.00  0.00     0.037 A 
BRANCH  50  64
ATOM     64  C   UNL     1       6.006  -4.108  14.517  1.00  0.00     0.058 A 
ATOM     65  C   UNL     1       6.980  -3.208  14.979  1.00  0.00     0.135 A 
ATOM     66  C   UNL     1       6.447  -5.311  13.945  1.00  0.00     0.135 A 
ATOM     67  F   UNL     1       6.614  -2.034  15.520  1.00  0.00    -0.206 F 
ATOM     68  C   UNL     1       8.339  -3.474  14.849  1.00  0.00     0.059 A 
ATOM     69  C   UNL     1       7.802  -5.611  13.828  1.00  0.00     0.059 A 
ATOM     70  F   UNL     1       5.560  -6.207  13.486  1.00  0.00    -0.206 F 
ATOM     71  C   UNL     1       8.740  -4.678  14.268  1.00  0.00     0.060 A 
BRANCH  71  72
ATOM     72  S   UNL     1      10.507  -5.009  14.100  1.00  0.00     0.124 S 
ATOM     73  O   UNL     1      10.860  -4.141  12.980  1.00  0.00    -0.237 OA
ATOM     74  O   UNL     1      11.028  -4.604  15.402  1.00  0.00    -0.237 OA
ATOM     75  O   UNL     1      10.559  -6.441  13.825  1.00  0.00    -0.744 OA
ENDBRANCH  71  72
ENDBRANCH  50  64
BRANCH  51  76
ATOM     76  C   UNL     1      -3.763  -1.994  14.797  1.00  0.00     0.058 A 
ATOM     77  C   UNL     1      -4.344  -1.345  15.896  1.00  0.00     0.135 A 
ATOM     78  C   UNL     1      -4.599  -2.341  13.725  1.00  0.00     0.135 A 
ATOM     79  F   UNL     1      -3.585  -0.997  16.947  1.00  0.00    -0.206 F 
ATOM     80  C   UNL     1      -5.705  -1.064  15.941  1.00  0.00     0.059 A 
ATOM     81  C   UNL     1      -5.960  -2.052  13.736  1.00  0.00     0.059 A 
ATOM     82  F   UNL     1      -4.087  -2.948  12.642  1.00  0.00    -0.206 F 
ATOM     83  C   UNL     1      -6.506  -1.421  14.854  1.00  0.00     0.060 A 
BRANCH  83  84
ATOM     84  S   UNL     1      -8.263  -1.008  14.898  1.00  0.00     0.124 S 
ATOM     85  O   UNL     1      -8.779  -2.016  15.816  1.00  0.00    -0.237 OA
ATOM     86  O   UNL     1      -8.245   0.363  15.398  1.00  0.00    -0.237 OA
ATOM     87  O   UNL     1      -8.674  -1.151  13.504  1.00  0.00    -0.744 OA
ENDBRANCH  83  84
ENDBRANCH  51  76
BRANCH  63  88
ATOM     88  C   UNL     1       0.313  -6.404  18.327  1.00  0.00     0.058 A 
ATOM     89  C   UNL     1      -0.374  -7.604  18.081  1.00  0.00     0.135 A 
ATOM     90  C   UNL     1       0.743  -6.151  19.639  1.00  0.00     0.135 A 
ATOM     91  F   UNL     1      -0.810  -7.890  16.844  1.00  0.00    -0.206 F 
ATOM     92  C   UNL     1      -0.656  -8.502  19.104  1.00  0.00     0.059 A 
ATOM     93  C   UNL     1       0.494  -7.047  20.674  1.00  0.00     0.059 A 
ATOM     94  F   UNL     1       1.415  -5.024  19.925  1.00  0.00    -0.206 F 
ATOM     95  C   UNL     1      -0.223  -8.211  20.399  1.00  0.00     0.060 A 
BRANCH  95  96
ATOM     96  S   UNL     1      -0.590  -9.384  21.722  1.00  0.00     0.124 S 
ATOM     97  O   UNL     1      -1.996  -9.094  21.987  1.00  0.00    -0.237 OA
ATOM     98  O   UNL     1      -0.318 -10.670  21.088  1.00  0.00    -0.237 OA
ATOM     99  O   UNL     1       0.342  -9.004  22.779  1.00  0.00    -0.744 OA
ENDBRANCH  95  96
ENDBRANCH  63  88
ENDBRANCH  37  38
ENDBRANCH  29  32
ENDBRANCH  27  28
ENDBRANCH  26  27
ENDBRANCH   1  26
TORSDOF 18
