REMARK SMILES C[C@H]1[C@@H]([NH2+]C[C@H]2CC[C@@H](C(=O)NCCCCCCNC(=O)c3ccc(-c4c5nc(c(-c6c(F)cc(S(=O)(=O)[O-])cc6F)c6ccc([nH]6)c(-c6c(F)cc(S(=O)(=O)[O-])cc6F)c6nc(c(-c7c(F)cc(S(=O)(=O)[O-])cc7F)c7ccc4[nH]7)C=C6)C=C5)cc3)CC2)CCC[C@@H]1C
REMARK SMILES IDX 15 1 14 2 13 3 12 4 10 5 11 6 9 8 6 9 7 10 89 11 8 12 88 13
REMARK SMILES IDX 5 14 4 15 3 18 1 19 2 20 93 21 90 22 92 23 94 24 91 25 16 26
REMARK SMILES IDX 17 27 18 28 19 29 20 30 21 32 22 33 23 34 87 35 24 36 86 37
REMARK SMILES IDX 25 38 26 39 27 40 80 41 28 42 85 43 79 44 81 45 29 46 84 47
REMARK SMILES IDX 78 48 77 49 30 51 64 52 43 53 63 54 44 55 47 56 62 57 82 58
REMARK SMILES IDX 45 59 46 60 61 62 83 63 48 64 31 65 32 66 41 67 33 68 34 69
REMARK SMILES IDX 40 70 42 71 35 72 36 73 37 74 38 75 39 76 65 77 66 78 75 79
REMARK SMILES IDX 67 80 68 81 74 82 76 83 69 84 70 85 71 86 72 87 73 88 49 89
REMARK SMILES IDX 50 90 59 91 51 92 52 93 58 94 60 95 53 96 54 97 55 98 56 99
REMARK SMILES IDX 57 100
REMARK H PARENT 12 7 4 16 4 17 19 31 81 50 47 61
REMARK Flexibility Score: inf
ROOT
ATOM      1  C   UNL     1       2.175  -6.327   1.607  1.00  0.00     0.002 C 
ENDROOT
BRANCH   1   2
ATOM      2  C   UNL     1       0.971  -5.452   1.260  1.00  0.00     0.021 C 
BRANCH   2   3
ATOM      3  C   UNL     1       0.096  -5.991   0.135  1.00  0.00     0.116 C 
BRANCH   3   4
ATOM      4  N   UNL     1      -0.820  -7.019   0.590  1.00  0.00    -0.356 N 
ATOM      5  C   UNL     1      -2.180  -7.072   0.541  1.00  0.00     0.223 C 
ATOM      6  O   UNL     1      -2.726  -8.087   0.985  1.00  0.00    -0.275 OA
ATOM      7  H   UNL     1      -0.390  -7.803   1.001  1.00  0.00     0.163 HD
BRANCH   5   8
ATOM      8  C   UNL     1      -3.028  -5.930  -0.023  1.00  0.00     0.078 C 
ATOM      9  C   UNL     1      -3.416  -3.215  -1.233  1.00  0.00     0.044 C 
ATOM     10  C   UNL     1      -3.573  -4.506  -2.048  1.00  0.00     0.010 C 
ATOM     11  C   UNL     1      -3.693  -3.470   0.258  1.00  0.00     0.010 C 
ATOM     12  C   UNL     1      -2.772  -5.683  -1.514  1.00  0.00     0.014 C 
ATOM     13  C   UNL     1      -2.970  -4.679   0.859  1.00  0.00     0.014 C 
BRANCH   9  14
ATOM     14  C   UNL     1      -2.123  -2.408  -1.542  1.00  0.00     0.264 C 
BRANCH  14  15
ATOM     15  N   UNL     1      -0.935  -2.781  -0.787  1.00  0.00    -0.343 N 
ATOM     16  H   UNL     1      -1.187  -2.747   0.201  1.00  0.00     0.346 HD
ATOM     17  H   UNL     1      -0.685  -3.695  -1.165  1.00  0.00     0.346 HD
BRANCH  15  18
ATOM     18  C   UNL     1       0.301  -1.984  -0.946  1.00  0.00     0.185 C 
ATOM     19  C   UNL     1       0.646  -1.623   1.590  1.00  0.00     0.014 C 
ATOM     20  C   UNL     1       0.554  -0.962   0.208  1.00  0.00     0.047 C 
ATOM     21  C   UNL     1      -0.455   0.204   0.118  1.00  0.00    -0.006 C 
ATOM     22  C   UNL     1       0.518  -1.269  -2.291  1.00  0.00     0.065 C 
ATOM     23  C   UNL     1      -0.262   0.936  -1.225  1.00  0.00     0.004 C 
ATOM     24  C   UNL     1      -0.331   1.207   1.268  1.00  0.00     0.008 C 
ATOM     25  C   UNL     1      -0.268   0.031  -2.459  1.00  0.00     0.006 C 
ENDBRANCH  15  18
ENDBRANCH  14  15
ENDBRANCH   9  14
ENDBRANCH   5   8
ENDBRANCH   3   4
ENDBRANCH   2   3
ENDBRANCH   1   2
BRANCH   1  26
ATOM     26  C   UNL     1       3.199  -6.504   0.479  1.00  0.00     0.002 C 
BRANCH  26  27
ATOM     27  C   UNL     1       3.754  -5.213  -0.135  1.00  0.00     0.021 C 
BRANCH  27  28
ATOM     28  C   UNL     1       4.413  -4.247   0.848  1.00  0.00     0.116 C 
BRANCH  28  29
ATOM     29  N   UNL     1       5.543  -4.849   1.537  1.00  0.00    -0.352 N 
ATOM     30  C   UNL     1       6.858  -4.462   1.590  1.00  0.00     0.251 C 
ATOM     31  H   UNL     1       5.330  -5.664   2.046  1.00  0.00     0.163 HD
ATOM     32  O   UNL     1       7.692  -5.225   2.070  1.00  0.00    -0.269 OA
BRANCH  30  33
ATOM     33  C   UNL     1       7.283  -3.144   1.065  1.00  0.00     0.039 A 
ATOM     34  C   UNL     1       8.464  -3.068   0.320  1.00  0.00     0.014 A 
ATOM     35  C   UNL     1       6.558  -1.981   1.340  1.00  0.00     0.014 A 
ATOM     36  C   UNL     1       8.887  -1.840  -0.195  1.00  0.00     0.010 A 
ATOM     37  C   UNL     1       6.949  -0.766   0.777  1.00  0.00     0.010 A 
ATOM     38  C   UNL     1       8.117  -0.682   0.004  1.00  0.00    -0.014 A 
BRANCH  38  39
ATOM     39  C   UNL     1       8.515   0.616  -0.602  1.00  0.00     0.031 A 
ATOM     40  C   UNL     1       8.911   1.777   0.269  1.00  0.00     0.074 A 
ATOM     41  C   UNL     1       8.461   0.766  -1.940  1.00  0.00     0.049 A 
ATOM     42  N   UNL     1       9.228   2.999  -0.078  1.00  0.00    -0.248 NA
ATOM     43  C   UNL     1       8.933   1.542   1.721  1.00  0.00     0.031 C 
ATOM     44  C   UNL     1       8.049  -0.269  -2.891  1.00  0.00     0.029 A 
ATOM     45  N   UNL     1       8.741   1.851  -2.734  1.00  0.00    -0.354 N 
ATOM     46  C   UNL     1       9.473   3.681   1.108  1.00  0.00     0.074 A 
ATOM     47  C   UNL     1       9.226   2.748   2.187  1.00  0.00     0.031 C 
ATOM     48  C   UNL     1       8.119   0.224  -4.137  1.00  0.00     0.029 A 
ATOM     49  C   UNL     1       8.547   1.619  -4.075  1.00  0.00     0.049 A 
ATOM     50  H   UNL     1       9.053   2.713  -2.377  1.00  0.00     0.167 HD
ATOM     51  C   UNL     1       9.885   4.960   1.282  1.00  0.00     0.037 A 
ATOM     52  C   UNL     1       8.689   2.437  -5.136  1.00  0.00     0.037 A 
ATOM     53  C   UNL     1      10.154   5.877   0.204  1.00  0.00     0.049 A 
ATOM     54  C   UNL     1       9.155   3.850  -4.919  1.00  0.00     0.074 A 
ATOM     55  C   UNL     1      10.633   7.175   0.278  1.00  0.00     0.029 A 
ATOM     56  N   UNL     1       9.969   5.597  -1.142  1.00  0.00    -0.354 N 
ATOM     57  N   UNL     1       9.439   4.459  -3.793  1.00  0.00    -0.248 NA
ATOM     58  C   UNL     1       9.325   4.686  -6.116  1.00  0.00     0.031 C 
ATOM     59  C   UNL     1      10.699   7.692  -1.021  1.00  0.00     0.029 A 
ATOM     60  C   UNL     1      10.304   6.702  -1.907  1.00  0.00     0.049 A 
ATOM     61  H   UNL     1       9.646   4.739  -1.500  1.00  0.00     0.167 HD
ATOM     62  C   UNL     1       9.845   5.741  -4.147  1.00  0.00     0.074 A 
ATOM     63  C   UNL     1       9.779   5.816  -5.592  1.00  0.00     0.031 C 
ATOM     64  C   UNL     1      10.237   6.763  -3.346  1.00  0.00     0.037 A 
BRANCH  51  65
ATOM     65  C   UNL     1      10.072   5.446   2.693  1.00  0.00     0.058 A 
ATOM     66  C   UNL     1      11.137   4.997   3.491  1.00  0.00     0.135 A 
ATOM     67  C   UNL     1       9.200   6.399   3.243  1.00  0.00     0.135 A 
ATOM     68  F   UNL     1      11.993   4.077   3.020  1.00  0.00    -0.206 F 
ATOM     69  C   UNL     1      11.311   5.450   4.795  1.00  0.00     0.059 A 
ATOM     70  C   UNL     1       9.370   6.887   4.536  1.00  0.00     0.059 A 
ATOM     71  F   UNL     1       8.166   6.864   2.524  1.00  0.00    -0.206 F 
ATOM     72  C   UNL     1      10.420   6.394   5.310  1.00  0.00     0.060 A 
BRANCH  72  73
ATOM     73  S   UNL     1      10.658   6.971   7.004  1.00  0.00     0.124 S 
ATOM     74  O   UNL     1      10.191   5.820   7.770  1.00  0.00    -0.237 OA
ATOM     75  O   UNL     1      12.094   7.224   7.051  1.00  0.00    -0.237 OA
ATOM     76  O   UNL     1       9.813   8.159   7.079  1.00  0.00    -0.744 OA
ENDBRANCH  72  73
ENDBRANCH  51  65
BRANCH  52  77
ATOM     77  C   UNL     1       8.407   1.928  -6.504  1.00  0.00     0.058 A 
ATOM     78  C   UNL     1       9.449   1.688  -7.412  1.00  0.00     0.135 A 
ATOM     79  C   UNL     1       7.097   1.651  -6.923  1.00  0.00     0.135 A 
ATOM     80  F   UNL     1      10.718   1.943  -7.060  1.00  0.00    -0.206 F 
ATOM     81  C   UNL     1       9.202   1.203  -8.693  1.00  0.00     0.059 A 
ATOM     82  C   UNL     1       6.826   1.144  -8.190  1.00  0.00     0.059 A 
ATOM     83  F   UNL     1       6.067   1.848  -6.084  1.00  0.00    -0.206 F 
ATOM     84  C   UNL     1       7.886   0.931  -9.071  1.00  0.00     0.060 A 
BRANCH  84  85
ATOM     85  S   UNL     1       7.579   0.249 -10.715  1.00  0.00     0.124 S 
ATOM     86  O   UNL     1       7.768   1.423 -11.559  1.00  0.00    -0.237 OA
ATOM     87  O   UNL     1       8.606  -0.783 -10.816  1.00  0.00    -0.237 OA
ATOM     88  O   UNL     1       6.210  -0.248 -10.620  1.00  0.00    -0.744 OA
ENDBRANCH  84  85
ENDBRANCH  52  77
BRANCH  64  89
ATOM     89  C   UNL     1      10.654   8.043  -4.014  1.00  0.00     0.058 A 
ATOM     90  C   UNL     1       9.715   8.915  -4.587  1.00  0.00     0.135 A 
ATOM     91  C   UNL     1      12.005   8.426  -4.039  1.00  0.00     0.135 A 
ATOM     92  F   UNL     1       8.412   8.592  -4.596  1.00  0.00    -0.206 F 
ATOM     93  C   UNL     1      10.102  10.111  -5.181  1.00  0.00     0.059 A 
ATOM     94  C   UNL     1      12.412   9.630  -4.605  1.00  0.00     0.059 A 
ATOM     95  F   UNL     1      12.942   7.633  -3.496  1.00  0.00    -0.206 F 
ATOM     96  C   UNL     1      11.454  10.461  -5.184  1.00  0.00     0.060 A 
BRANCH  96  97
ATOM     97  S   UNL     1      11.942  12.032  -5.928  1.00  0.00     0.124 S 
ATOM     98  O   UNL     1      11.844  11.726  -7.351  1.00  0.00    -0.237 OA
ATOM     99  O   UNL     1      10.936  12.952  -5.407  1.00  0.00    -0.237 OA
ATOM    100  O   UNL     1      13.295  12.241  -5.422  1.00  0.00    -0.744 OA
ENDBRANCH  96  97
ENDBRANCH  64  89
ENDBRANCH  38  39
ENDBRANCH  30  33
ENDBRANCH  28  29
ENDBRANCH  27  28
ENDBRANCH  26  27
ENDBRANCH   1  26
TORSDOF 19
