REMARK SMILES Cc1cnc(NC(=O)NC[C@H]2CC[C@H](C(=O)NCCCCCCNC(=O)c3ccc(-c4c5nc(c(-c6c(F)cc(S(=O)(=O)[O-])cc6F)c6ccc([nH]6)c(-c6c(F)cc(S(=O)(=O)[O-])cc6F)c6nc(c(-c7c(F)cc(S(=O)(=O)[O-])cc7F)c7ccc4[nH]7)C=C6)C=C5)cc3)O2)s1
REMARK SMILES IDX 20 1 19 2 18 3 17 4 15 5 16 6 14 8 11 9 12 10 93 11 13 12
REMARK SMILES IDX 10 13 9 14 6 15 7 16 8 18 5 20 1 21 2 22 3 23 94 24 4 25
REMARK SMILES IDX 21 26 22 27 23 28 24 29 25 30 26 32 27 33 28 34 92 35 29 36
REMARK SMILES IDX 91 37 30 38 31 39 32 40 85 41 33 42 90 43 84 44 86 45 34 46
REMARK SMILES IDX 89 47 83 48 82 49 35 51 69 52 48 53 68 54 49 55 52 56 67 57
REMARK SMILES IDX 87 58 50 59 51 60 66 62 88 63 53 64 36 65 37 66 46 67 38 68
REMARK SMILES IDX 39 69 45 70 47 71 40 72 41 73 42 74 43 75 44 76 70 77 71 78
REMARK SMILES IDX 80 79 72 80 73 81 79 82 81 83 74 84 75 85 76 86 77 87 78 88
REMARK SMILES IDX 54 89 55 90 64 91 56 92 57 93 63 94 65 95 58 96 59 97 60 98
REMARK SMILES IDX 61 99 62 100
REMARK H PARENT 17 7 6 17 9 19 24 31 86 50 52 61
REMARK Flexibility Score: inf
ROOT
ATOM      1  C   UNL     1      -4.634   4.838  -1.776  1.00  0.00     0.002 C 
ENDROOT
BRANCH   1   2
ATOM      2  C   UNL     1      -3.121   4.607  -1.811  1.00  0.00     0.021 C 
BRANCH   2   3
ATOM      3  C   UNL     1      -2.736   3.135  -1.951  1.00  0.00     0.116 C 
BRANCH   3   4
ATOM      4  N   UNL     1      -2.644   2.727  -3.334  1.00  0.00    -0.354 N 
ATOM      5  C   UNL     1      -1.562   2.349  -4.072  1.00  0.00     0.249 C 
ATOM      6  O   UNL     1      -1.772   2.020  -5.245  1.00  0.00    -0.272 OA
ATOM      7  H   UNL     1      -3.500   2.722  -3.821  1.00  0.00     0.163 HD
BRANCH   5   8
ATOM      8  C   UNL     1      -0.116   2.399  -3.517  1.00  0.00     0.207 C 
ATOM      9  C   UNL     1       0.689   2.737  -1.340  1.00  0.00     0.138 C 
ATOM     10  C   UNL     1       0.639   4.094  -2.008  1.00  0.00     0.037 C 
ATOM     11  O   UNL     1       0.126   1.781  -2.252  1.00  0.00    -0.363 OA
ATOM     12  C   UNL     1       0.424   3.817  -3.469  1.00  0.00     0.045 C 
BRANCH   9  13
ATOM     13  C   UNL     1       2.021   2.254  -0.748  1.00  0.00     0.149 C 
BRANCH  13  14
ATOM     14  N   UNL     1       3.058   1.812  -1.666  1.00  0.00    -0.335 N 
ATOM     15  N   UNL     1       4.442   3.566  -2.527  1.00  0.00    -0.284 N 
ATOM     16  C   UNL     1       4.088   2.293  -2.358  1.00  0.00     0.321 C 
ATOM     17  H   UNL     1       5.106   3.671  -3.246  1.00  0.00     0.174 HD
ATOM     18  O   UNL     1       4.717   1.453  -3.017  1.00  0.00    -0.248 OA
ATOM     19  H   UNL     1       2.970   0.845  -1.827  1.00  0.00     0.165 HD
BRANCH  15  20
ATOM     20  C   UNL     1       4.119   4.754  -1.956  1.00  0.00     0.190 A 
ATOM     21  C   UNL     1       2.356   7.206   0.394  1.00  0.00     0.058 C 
ATOM     22  C   UNL     1       3.194   6.498  -0.605  1.00  0.00     0.023 A 
ATOM     23  C   UNL     1       3.526   6.864  -1.894  1.00  0.00     0.128 A 
ATOM     24  S   UNL     1       3.873   4.953  -0.287  1.00  0.00    -0.102 S 
ATOM     25  N   UNL     1       4.113   5.868  -2.651  1.00  0.00    -0.228 NA
ENDBRANCH  15  20
ENDBRANCH  13  14
ENDBRANCH   9  13
ENDBRANCH   5   8
ENDBRANCH   3   4
ENDBRANCH   2   3
ENDBRANCH   1   2
BRANCH   1  26
ATOM     26  C   UNL     1      -5.358   4.171  -0.599  1.00  0.00     0.002 C 
BRANCH  26  27
ATOM     27  C   UNL     1      -4.844   4.558   0.792  1.00  0.00     0.021 C 
BRANCH  27  28
ATOM     28  C   UNL     1      -4.960   6.044   1.121  1.00  0.00     0.116 C 
BRANCH  28  29
ATOM     29  N   UNL     1      -6.339   6.497   1.065  1.00  0.00    -0.352 N 
ATOM     30  C   UNL     1      -7.107   7.090   2.033  1.00  0.00     0.251 C 
ATOM     31  H   UNL     1      -6.791   6.355   0.202  1.00  0.00     0.163 HD
ATOM     32  O   UNL     1      -8.323   7.158   1.882  1.00  0.00    -0.269 OA
BRANCH  30  33
ATOM     33  C   UNL     1      -6.478   7.652   3.248  1.00  0.00     0.039 A 
ATOM     34  C   UNL     1      -7.131   7.503   4.474  1.00  0.00     0.014 A 
ATOM     35  C   UNL     1      -5.286   8.379   3.172  1.00  0.00     0.014 A 
ATOM     36  C   UNL     1      -6.577   8.063   5.627  1.00  0.00     0.010 A 
ATOM     37  C   UNL     1      -4.699   8.878   4.332  1.00  0.00     0.010 A 
ATOM     38  C   UNL     1      -5.350   8.745   5.567  1.00  0.00    -0.014 A 
BRANCH  38  39
ATOM     39  C   UNL     1      -4.764   9.366   6.782  1.00  0.00     0.031 A 
ATOM     40  C   UNL     1      -4.629  10.863   6.872  1.00  0.00     0.074 A 
ATOM     41  C   UNL     1      -4.328   8.582   7.787  1.00  0.00     0.049 A 
ATOM     42  N   UNL     1      -4.108  11.590   7.826  1.00  0.00    -0.248 NA
ATOM     43  C   UNL     1      -5.120  11.645   5.725  1.00  0.00     0.031 C 
ATOM     44  C   UNL     1      -4.358   7.118   7.794  1.00  0.00     0.029 A 
ATOM     45  N   UNL     1      -3.768   8.907   8.996  1.00  0.00    -0.354 N 
ATOM     46  C   UNL     1      -4.207  12.909   7.396  1.00  0.00     0.074 A 
ATOM     47  C   UNL     1      -4.776  12.877   6.067  1.00  0.00     0.031 C 
ATOM     48  C   UNL     1      -3.854   6.673   8.957  1.00  0.00     0.029 A 
ATOM     49  C   UNL     1      -3.445   7.815   9.767  1.00  0.00     0.049 A 
ATOM     50  H   UNL     1      -3.612   9.835   9.286  1.00  0.00     0.167 HD
ATOM     51  C   UNL     1      -3.886  14.045   8.061  1.00  0.00     0.037 A 
ATOM     52  C   UNL     1      -2.882   7.745  10.988  1.00  0.00     0.037 A 
ATOM     53  C   UNL     1      -3.340  14.072   9.393  1.00  0.00     0.049 A 
ATOM     54  C   UNL     1      -2.557   9.022  11.716  1.00  0.00     0.074 A 
ATOM     55  C   UNL     1      -2.992  15.168  10.162  1.00  0.00     0.029 A 
ATOM     56  N   UNL     1      -3.076  12.946  10.160  1.00  0.00    -0.354 N 
ATOM     57  N   UNL     1      -2.691  10.262  11.307  1.00  0.00    -0.248 NA
ATOM     58  C   UNL     1      -2.027   8.892  13.080  1.00  0.00     0.031 C 
ATOM     59  C   UNL     1      -2.495  14.705  11.386  1.00  0.00     0.029 A 
ATOM     60  C   UNL     1      -2.574  13.321  11.395  1.00  0.00     0.049 A 
ATOM     61  H   UNL     1      -3.224  12.017   9.869  1.00  0.00     0.167 HD
ATOM     62  C   UNL     1      -2.290  11.059  12.374  1.00  0.00     0.074 A 
ATOM     63  C   UNL     1      -1.925  10.161  13.450  1.00  0.00     0.031 C 
ATOM     64  C   UNL     1      -2.229  12.411  12.458  1.00  0.00     0.037 A 
BRANCH  51  65
ATOM     65  C   UNL     1      -4.141  15.353   7.362  1.00  0.00     0.058 A 
ATOM     66  C   UNL     1      -5.447  15.821   7.141  1.00  0.00     0.135 A 
ATOM     67  C   UNL     1      -3.076  16.161   6.933  1.00  0.00     0.135 A 
ATOM     68  F   UNL     1      -6.502  15.080   7.513  1.00  0.00    -0.206 F 
ATOM     69  C   UNL     1      -5.688  17.028   6.494  1.00  0.00     0.059 A 
ATOM     70  C   UNL     1      -3.294  17.387   6.309  1.00  0.00     0.059 A 
ATOM     71  F   UNL     1      -1.807  15.763   7.117  1.00  0.00    -0.206 F 
ATOM     72  C   UNL     1      -4.605  17.805   6.081  1.00  0.00     0.060 A 
BRANCH  72  73
ATOM     73  S   UNL     1      -4.936  19.371   5.247  1.00  0.00     0.124 S 
ATOM     74  O   UNL     1      -5.385  18.913   3.936  1.00  0.00    -0.237 OA
ATOM     75  O   UNL     1      -5.963  19.966   6.096  1.00  0.00    -0.237 OA
ATOM     76  O   UNL     1      -3.642  20.046   5.267  1.00  0.00    -0.744 OA
ENDBRANCH  72  73
ENDBRANCH  51  65
BRANCH  52  77
ATOM     77  C   UNL     1      -2.614   6.422  11.612  1.00  0.00     0.058 A 
ATOM     78  C   UNL     1      -3.356   5.976  12.715  1.00  0.00     0.135 A 
ATOM     79  C   UNL     1      -1.605   5.581  11.119  1.00  0.00     0.135 A 
ATOM     80  F   UNL     1      -4.331   6.745  13.223  1.00  0.00    -0.206 F 
ATOM     81  C   UNL     1      -3.087   4.757  13.330  1.00  0.00     0.059 A 
ATOM     82  C   UNL     1      -1.335   4.346  11.699  1.00  0.00     0.059 A 
ATOM     83  F   UNL     1      -0.882   5.951  10.050  1.00  0.00    -0.206 F 
ATOM     84  C   UNL     1      -2.071   3.950  12.816  1.00  0.00     0.060 A 
BRANCH  84  85
ATOM     85  S   UNL     1      -1.743   2.358  13.602  1.00  0.00     0.124 S 
ATOM     86  O   UNL     1      -1.034   2.769  14.809  1.00  0.00    -0.237 OA
ATOM     87  O   UNL     1      -3.088   1.829  13.800  1.00  0.00    -0.237 OA
ATOM     88  O   UNL     1      -0.941   1.654  12.606  1.00  0.00    -0.744 OA
ENDBRANCH  84  85
ENDBRANCH  52  77
BRANCH  64  89
ATOM     89  C   UNL     1      -1.798  12.997  13.773  1.00  0.00     0.058 A 
ATOM     90  C   UNL     1      -0.469  12.923  14.217  1.00  0.00     0.135 A 
ATOM     91  C   UNL     1      -2.730  13.655  14.593  1.00  0.00     0.135 A 
ATOM     92  F   UNL     1       0.459  12.303  13.471  1.00  0.00    -0.206 F 
ATOM     93  C   UNL     1      -0.086  13.444  15.449  1.00  0.00     0.059 A 
ATOM     94  C   UNL     1      -2.363  14.207  15.816  1.00  0.00     0.059 A 
ATOM     95  F   UNL     1      -4.011  13.765  14.209  1.00  0.00    -0.206 F 
ATOM     96  C   UNL     1      -1.042  14.079  16.244  1.00  0.00     0.060 A 
BRANCH  96  97
ATOM     97  S   UNL     1      -0.536  14.749  17.842  1.00  0.00     0.124 S 
ATOM     98  O   UNL     1      -0.445  13.538  18.651  1.00  0.00    -0.237 OA
ATOM     99  O   UNL     1       0.734  15.396  17.523  1.00  0.00    -0.237 OA
ATOM    100  O   UNL     1      -1.625  15.657  18.188  1.00  0.00    -0.744 OA
ENDBRANCH  96  97
ENDBRANCH  64  89
ENDBRANCH  38  39
ENDBRANCH  30  33
ENDBRANCH  28  29
ENDBRANCH  27  28
ENDBRANCH  26  27
ENDBRANCH   1  26
TORSDOF 19
