REMARK SMILES CN(C)C(=O)c1ccc(NC[C@@H]2CC[C@@H](C(=O)NCCCCCCNC(=O)c3ccc(-c4c5nc(c(-c6c(F)cc(S(=O)(=O)[O-])cc6F)c6ccc([nH]6)c(-c6c(F)cc(S(=O)(=O)[O-])cc6F)c6nc(c(-c7c(F)cc(S(=O)(=O)[O-])cc7F)c7ccc4[nH]7)C=C6)C=C5)cc3)O2)nn1
REMARK SMILES IDX 21 1 20 2 19 3 18 4 16 5 17 6 15 8 12 9 13 10 94 11 14 12
REMARK SMILES IDX 11 13 10 14 9 16 6 17 7 18 96 19 8 20 95 21 4 22 1 23 2 24
REMARK SMILES IDX 3 25 5 26 22 27 23 28 24 29 25 30 26 31 27 33 28 34 29 35
REMARK SMILES IDX 93 36 30 37 92 38 31 39 32 40 33 41 86 42 34 43 91 44 85 45
REMARK SMILES IDX 87 46 35 47 90 48 84 49 83 50 36 52 70 53 49 54 69 55 50 56
REMARK SMILES IDX 53 57 68 58 88 59 51 60 52 61 67 63 89 64 54 65 37 66 38 67
REMARK SMILES IDX 47 68 39 69 40 70 46 71 48 72 41 73 42 74 43 75 44 76 45 77
REMARK SMILES IDX 71 78 72 79 81 80 73 81 74 82 80 83 82 84 75 85 76 86 77 87
REMARK SMILES IDX 78 88 79 89 55 90 56 91 65 92 57 93 58 94 64 95 66 96 59 97
REMARK SMILES IDX 60 98 61 99 62 100 63 101
REMARK H PARENT 18 7 10 15 25 32 87 51 53 62
REMARK Flexibility Score: inf
ROOT
ATOM      1  C   UNL     1       4.003  -6.263  -6.214  1.00  0.00     0.002 C 
ENDROOT
BRANCH   1   2
ATOM      2  C   UNL     1       2.607  -5.625  -6.185  1.00  0.00     0.021 C 
BRANCH   2   3
ATOM      3  C   UNL     1       2.496  -4.334  -6.997  1.00  0.00     0.116 C 
BRANCH   3   4
ATOM      4  N   UNL     1       2.598  -4.622  -8.418  1.00  0.00    -0.354 N 
ATOM      5  C   UNL     1       1.705  -4.322  -9.409  1.00  0.00     0.249 C 
ATOM      6  O   UNL     1       1.935  -4.732 -10.549  1.00  0.00    -0.272 OA
ATOM      7  H   UNL     1       3.415  -5.092  -8.703  1.00  0.00     0.163 HD
BRANCH   5   8
ATOM      8  C   UNL     1       0.464  -3.497  -9.049  1.00  0.00     0.207 C 
ATOM      9  C   UNL     1       0.141  -1.258  -9.614  1.00  0.00     0.138 C 
ATOM     10  C   UNL     1      -1.117  -2.018  -9.997  1.00  0.00     0.037 C 
ATOM     11  O   UNL     1       0.867  -2.147  -8.751  1.00  0.00    -0.363 OA
ATOM     12  C   UNL     1      -0.572  -3.415 -10.162  1.00  0.00     0.045 C 
BRANCH   9  13
ATOM     13  C   UNL     1      -0.091   0.112  -8.967  1.00  0.00     0.146 C 
BRANCH  13  14
ATOM     14  N   UNL     1      -1.032   0.049  -7.854  1.00  0.00    -0.366 N 
ATOM     15  H   UNL     1      -1.995  -0.057  -8.029  1.00  0.00     0.162 HD
BRANCH  14  16
ATOM     16  C   UNL     1      -0.569   0.139  -6.549  1.00  0.00     0.148 A 
ATOM     17  C   UNL     1       0.295   0.350  -3.962  1.00  0.00     0.151 A 
ATOM     18  C   UNL     1      -1.063   0.235  -4.193  1.00  0.00     0.040 A 
ATOM     19  N   UNL     1       1.191   0.345  -4.969  1.00  0.00    -0.143 NA
ATOM     20  C   UNL     1      -1.493   0.105  -5.510  1.00  0.00     0.051 A 
ATOM     21  N   UNL     1       0.747   0.227  -6.267  1.00  0.00    -0.132 NA
BRANCH  17  22
ATOM     22  C   UNL     1       0.831   0.556  -2.598  1.00  0.00     0.273 C 
ATOM     23  C   UNL     1       0.952  -0.033  -0.248  1.00  0.00     0.146 C 
ATOM     24  N   UNL     1       0.467  -0.332  -1.580  1.00  0.00    -0.343 N 
ATOM     25  C   UNL     1      -0.177  -1.617  -1.778  1.00  0.00     0.146 C 
ATOM     26  O   UNL     1       1.561   1.525  -2.408  1.00  0.00    -0.267 OA
ENDBRANCH  17  22
ENDBRANCH  14  16
ENDBRANCH  13  14
ENDBRANCH   9  13
ENDBRANCH   5   8
ENDBRANCH   3   4
ENDBRANCH   2   3
ENDBRANCH   1   2
BRANCH   1  27
ATOM     27  C   UNL     1       5.127  -5.383  -5.656  1.00  0.00     0.002 C 
BRANCH  27  28
ATOM     28  C   UNL     1       4.905  -4.878  -4.229  1.00  0.00     0.021 C 
BRANCH  28  29
ATOM     29  C   UNL     1       4.695  -5.976  -3.190  1.00  0.00     0.116 C 
BRANCH  29  30
ATOM     30  N   UNL     1       5.860  -6.840  -3.060  1.00  0.00    -0.352 N 
ATOM     31  C   UNL     1       6.612  -7.119  -1.946  1.00  0.00     0.251 C 
ATOM     32  H   UNL     1       6.149  -7.286  -3.888  1.00  0.00     0.163 HD
ATOM     33  O   UNL     1       7.678  -7.721  -2.053  1.00  0.00    -0.269 OA
BRANCH  31  34
ATOM     34  C   UNL     1       6.143  -6.669  -0.619  1.00  0.00     0.039 A 
ATOM     35  C   UNL     1       7.026  -5.979   0.214  1.00  0.00     0.014 A 
ATOM     36  C   UNL     1       4.826  -6.904  -0.213  1.00  0.00     0.014 A 
ATOM     37  C   UNL     1       6.561  -5.445   1.419  1.00  0.00     0.010 A 
ATOM     38  C   UNL     1       4.349  -6.318   0.957  1.00  0.00     0.010 A 
ATOM     39  C   UNL     1       5.207  -5.566   1.775  1.00  0.00    -0.014 A 
BRANCH  39  40
ATOM     40  C   UNL     1       4.659  -4.872   2.969  1.00  0.00     0.031 A 
ATOM     41  C   UNL     1       4.091  -5.662   4.114  1.00  0.00     0.074 A 
ATOM     42  C   UNL     1       4.611  -3.524   2.987  1.00  0.00     0.049 A 
ATOM     43  N   UNL     1       3.466  -5.235   5.180  1.00  0.00    -0.248 NA
ATOM     44  C   UNL     1       4.223  -7.126   4.041  1.00  0.00     0.031 C 
ATOM     45  C   UNL     1       5.103  -2.646   1.921  1.00  0.00     0.029 A 
ATOM     46  N   UNL     1       4.116  -2.653   3.926  1.00  0.00    -0.354 N 
ATOM     47  C   UNL     1       3.124  -6.372   5.902  1.00  0.00     0.074 A 
ATOM     48  C   UNL     1       3.571  -7.511   5.130  1.00  0.00     0.031 C 
ATOM     49  C   UNL     1       4.907  -1.366   2.277  1.00  0.00     0.029 A 
ATOM     50  C   UNL     1       4.227  -1.329   3.568  1.00  0.00     0.049 A 
ATOM     51  H   UNL     1       3.719  -2.949   4.777  1.00  0.00     0.167 HD
ATOM     52  C   UNL     1       2.509  -6.455   7.107  1.00  0.00     0.037 A 
ATOM     53  C   UNL     1       3.799  -0.212   4.189  1.00  0.00     0.037 A 
ATOM     54  C   UNL     1       2.081  -5.312   7.874  1.00  0.00     0.049 A 
ATOM     55  C   UNL     1       3.046  -0.337   5.482  1.00  0.00     0.074 A 
ATOM     56  C   UNL     1       1.506  -5.289   9.133  1.00  0.00     0.029 A 
ATOM     57  N   UNL     1       2.171  -3.993   7.453  1.00  0.00    -0.354 N 
ATOM     58  N   UNL     1       2.764  -1.419   6.168  1.00  0.00    -0.248 NA
ATOM     59  C   UNL     1       2.528   0.905   6.072  1.00  0.00     0.031 C 
ATOM     60  C   UNL     1       1.196  -3.963   9.448  1.00  0.00     0.029 A 
ATOM     61  C   UNL     1       1.625  -3.152   8.409  1.00  0.00     0.049 A 
ATOM     62  H   UNL     1       2.565  -3.698   6.600  1.00  0.00     0.167 HD
ATOM     63  C   UNL     1       2.052  -0.986   7.280  1.00  0.00     0.074 A 
ATOM     64  C   UNL     1       1.954   0.456   7.180  1.00  0.00     0.031 C 
ATOM     65  C   UNL     1       1.529  -1.718   8.294  1.00  0.00     0.037 A 
BRANCH  52  66
ATOM     66  C   UNL     1       2.256  -7.825   7.674  1.00  0.00     0.058 A 
ATOM     67  C   UNL     1       3.302  -8.633   8.147  1.00  0.00     0.135 A 
ATOM     68  C   UNL     1       0.945  -8.316   7.794  1.00  0.00     0.135 A 
ATOM     69  F   UNL     1       4.575  -8.219   8.045  1.00  0.00    -0.206 F 
ATOM     70  C   UNL     1       3.061  -9.889   8.695  1.00  0.00     0.059 A 
ATOM     71  C   UNL     1       0.678  -9.557   8.365  1.00  0.00     0.059 A 
ATOM     72  F   UNL     1      -0.093  -7.585   7.358  1.00  0.00    -0.206 F 
ATOM     73  C   UNL     1       1.745 -10.342   8.800  1.00  0.00     0.060 A 
BRANCH  73  74
ATOM     74  S   UNL     1       1.450 -11.971   9.521  1.00  0.00     0.124 S 
ATOM     75  O   UNL     1       1.940 -12.850   8.464  1.00  0.00    -0.237 OA
ATOM     76  O   UNL     1       2.260 -11.926  10.734  1.00  0.00    -0.237 OA
ATOM     77  O   UNL     1       0.006 -11.993   9.735  1.00  0.00    -0.744 OA
ENDBRANCH  73  74
ENDBRANCH  52  66
BRANCH  53  78
ATOM     78  C   UNL     1       4.003   1.120   3.559  1.00  0.00     0.058 A 
ATOM     79  C   UNL     1       4.885   2.069   4.088  1.00  0.00     0.135 A 
ATOM     80  C   UNL     1       3.294   1.466   2.401  1.00  0.00     0.135 A 
ATOM     81  F   UNL     1       5.561   1.800   5.215  1.00  0.00    -0.206 F 
ATOM     82  C   UNL     1       5.056   3.313   3.487  1.00  0.00     0.059 A 
ATOM     83  C   UNL     1       3.473   2.684   1.756  1.00  0.00     0.059 A 
ATOM     84  F   UNL     1       2.414   0.594   1.895  1.00  0.00    -0.206 F 
ATOM     85  C   UNL     1       4.351   3.608   2.317  1.00  0.00     0.060 A 
BRANCH  85  86
ATOM     86  S   UNL     1       4.613   5.216   1.535  1.00  0.00     0.124 S 
ATOM     87  O   UNL     1       3.924   6.106   2.463  1.00  0.00    -0.237 OA
ATOM     88  O   UNL     1       6.069   5.314   1.522  1.00  0.00    -0.237 OA
ATOM     89  O   UNL     1       3.988   5.063   0.226  1.00  0.00    -0.744 OA
ENDBRANCH  85  86
ENDBRANCH  53  78
BRANCH  65  90
ATOM     90  C   UNL     1       0.820  -0.974   9.390  1.00  0.00     0.058 A 
ATOM     91  C   UNL     1      -0.456  -0.423   9.198  1.00  0.00     0.135 A 
ATOM     92  C   UNL     1       1.399  -0.865  10.665  1.00  0.00     0.135 A 
ATOM     93  F   UNL     1      -1.046  -0.488   7.994  1.00  0.00    -0.206 F 
ATOM     94  C   UNL     1      -1.131   0.219  10.231  1.00  0.00     0.059 A 
ATOM     95  C   UNL     1       0.731  -0.252  11.719  1.00  0.00     0.059 A 
ATOM     96  F   UNL     1       2.617  -1.379  10.900  1.00  0.00    -0.206 F 
ATOM     97  C   UNL     1      -0.532   0.292  11.491  1.00  0.00     0.060 A 
BRANCH  97  98
ATOM     98  S   UNL     1      -1.447   1.075  12.836  1.00  0.00     0.124 S 
ATOM     99  O   UNL     1      -1.385   2.482  12.456  1.00  0.00    -0.237 OA
ATOM    100  O   UNL     1      -2.759   0.445  12.727  1.00  0.00    -0.237 OA
ATOM    101  O   UNL     1      -0.681   0.711  14.025  1.00  0.00    -0.744 OA
ENDBRANCH  97  98
ENDBRANCH  65  90
ENDBRANCH  39  40
ENDBRANCH  31  34
ENDBRANCH  29  30
ENDBRANCH  28  29
ENDBRANCH  27  28
ENDBRANCH   1  27
TORSDOF 20
