REMARK SMILES CCc1cc(N2CCC[C@H](C(=O)NCCCCCCNC(=O)c3ccc(-c4c5nc(c(-c6c(F)cc(S(=O)(=O)[O-])cc6F)c6ccc([nH]6)c(-c6c(F)cc(S(=O)(=O)[O-])cc6F)c6nc(c(-c7c(F)cc(S(=O)(=O)[O-])cc7F)c7ccc4[nH]7)C=C6)C=C5)cc3)C2)nc(-c2ccc(Cl)cc2)n1
REMARK SMILES IDX 17 1 16 2 15 3 14 4 13 5 11 6 12 7 10 9 6 10 7 11 89 12 8 13
REMARK SMILES IDX 9 14 5 15 3 16 4 17 99 18 91 19 90 20 2 21 1 22 92 23 93 24
REMARK SMILES IDX 98 25 94 26 97 27 95 28 96 29 18 30 19 31 20 32 21 33 22 35
REMARK SMILES IDX 23 36 24 37 88 38 25 39 87 40 26 41 27 42 28 43 81 44 29 45
REMARK SMILES IDX 86 46 80 47 82 48 30 49 85 50 79 51 78 52 31 54 65 55 44 56
REMARK SMILES IDX 64 57 45 58 48 59 63 60 83 61 46 62 47 63 62 65 84 66 49 67
REMARK SMILES IDX 32 68 33 69 42 70 34 71 35 72 41 73 43 74 36 75 37 76 38 77
REMARK SMILES IDX 39 78 40 79 66 80 67 81 76 82 68 83 69 84 75 85 77 86 70 87
REMARK SMILES IDX 71 88 72 89 73 90 74 91 50 92 51 93 60 94 52 95 53 96 59 97
REMARK SMILES IDX 61 98 54 99 55 100 56 101 57 102 58 103
REMARK H PARENT 13 8 20 34 82 53 48 64
REMARK Flexibility Score: inf
ROOT
ATOM      1  C   UNL     1       1.519   5.226  -7.183  1.00  0.00     0.002 C 
ENDROOT
BRANCH   1   2
ATOM      2  C   UNL     1       1.544   6.748  -6.990  1.00  0.00     0.002 C 
BRANCH   2   3
ATOM      3  C   UNL     1       0.914   7.254  -5.692  1.00  0.00     0.021 C 
BRANCH   3   4
ATOM      4  C   UNL     1       1.575   6.704  -4.432  1.00  0.00     0.116 C 
BRANCH   4   5
ATOM      5  N   UNL     1       2.510   7.636  -3.842  1.00  0.00    -0.356 N 
ATOM      6  C   UNL     1       2.622   8.085  -2.568  1.00  0.00     0.224 C 
ATOM      7  O   UNL     1       3.632   8.752  -2.307  1.00  0.00    -0.275 OA
ATOM      8  H   UNL     1       3.173   8.006  -4.468  1.00  0.00     0.163 HD
BRANCH   6   9
ATOM      9  C   UNL     1       1.595   7.827  -1.462  1.00  0.00     0.098 C 
ATOM     10  N   UNL     1       0.469   5.640  -1.629  1.00  0.00    -0.356 N 
ATOM     11  C   UNL     1      -0.880   6.175  -1.550  1.00  0.00     0.118 C 
ATOM     12  C   UNL     1       1.549   6.378  -0.993  1.00  0.00     0.131 C 
ATOM     13  C   UNL     1      -0.912   7.592  -2.132  1.00  0.00     0.022 C 
ATOM     14  C   UNL     1       0.225   8.494  -1.648  1.00  0.00     0.017 C 
BRANCH  10  15
ATOM     15  C   UNL     1       0.664   4.275  -1.727  1.00  0.00     0.132 A 
ATOM     16  C   UNL     1       0.582   2.080  -0.865  1.00  0.00     0.046 A 
ATOM     17  C   UNL     1       0.277   3.419  -0.714  1.00  0.00     0.070 A 
ATOM     18  N   UNL     1       1.169   1.609  -1.979  1.00  0.00    -0.233 NA
ATOM     19  C   UNL     1       1.506   2.508  -2.916  1.00  0.00     0.161 A 
ATOM     20  N   UNL     1       1.311   3.833  -2.819  1.00  0.00    -0.211 NA
BRANCH  16  21
ATOM     21  C   UNL     1       0.263   1.109   0.245  1.00  0.00     0.053 C 
ATOM     22  C   UNL     1       0.892  -0.269   0.070  1.00  0.00     0.011 C 
ENDBRANCH  16  21
BRANCH  19  23
ATOM     23  C   UNL     1       2.153   1.990  -4.125  1.00  0.00     0.019 A 
ATOM     24  C   UNL     1       1.587   0.915  -4.836  1.00  0.00     0.013 A 
ATOM     25  C   UNL     1       3.368   2.522  -4.592  1.00  0.00     0.013 A 
ATOM     26  C   UNL     1       2.212   0.385  -5.969  1.00  0.00     0.021 A 
ATOM     27  C   UNL     1       4.006   1.983  -5.716  1.00  0.00     0.021 A 
ATOM     28  C   UNL     1       3.425   0.916  -6.398  1.00  0.00     0.041 A 
ATOM     29  Cl  UNL     1       4.217   0.246  -7.770  1.00  0.00    -0.084 Cl
ENDBRANCH  19  23
ENDBRANCH  10  15
ENDBRANCH   6   9
ENDBRANCH   4   5
ENDBRANCH   3   4
ENDBRANCH   2   3
ENDBRANCH   1   2
BRANCH   1  30
ATOM     30  C   UNL     1       0.147   4.556  -7.053  1.00  0.00     0.021 C 
BRANCH  30  31
ATOM     31  C   UNL     1      -0.933   5.105  -7.983  1.00  0.00     0.116 C 
BRANCH  31  32
ATOM     32  N   UNL     1      -0.529   5.062  -9.380  1.00  0.00    -0.352 N 
ATOM     33  C   UNL     1      -1.142   4.477 -10.455  1.00  0.00     0.251 C 
ATOM     34  H   UNL     1       0.315   5.525  -9.583  1.00  0.00     0.163 HD
ATOM     35  O   UNL     1      -0.537   4.381 -11.524  1.00  0.00    -0.269 OA
BRANCH  33  36
ATOM     36  C   UNL     1      -2.519   3.955 -10.340  1.00  0.00     0.039 A 
ATOM     37  C   UNL     1      -2.820   2.714 -10.908  1.00  0.00     0.014 A 
ATOM     38  C   UNL     1      -3.521   4.700  -9.710  1.00  0.00     0.014 A 
ATOM     39  C   UNL     1      -4.113   2.197 -10.801  1.00  0.00     0.010 A 
ATOM     40  C   UNL     1      -4.794   4.157  -9.551  1.00  0.00     0.010 A 
ATOM     41  C   UNL     1      -5.104   2.903 -10.099  1.00  0.00    -0.014 A 
BRANCH  41  42
ATOM     42  C   UNL     1      -6.473   2.349  -9.937  1.00  0.00     0.031 A 
ATOM     43  C   UNL     1      -7.645   3.042 -10.578  1.00  0.00     0.074 A 
ATOM     44  C   UNL     1      -6.662   1.253  -9.177  1.00  0.00     0.049 A 
ATOM     45  N   UNL     1      -8.920   2.767 -10.482  1.00  0.00    -0.248 NA
ATOM     46  C   UNL     1      -7.346   4.212 -11.421  1.00  0.00     0.031 C 
ATOM     47  C   UNL     1      -5.608   0.512  -8.479  1.00  0.00     0.029 A 
ATOM     48  N   UNL     1      -7.811   0.574  -8.854  1.00  0.00    -0.354 N 
ATOM     49  C   UNL     1      -9.574   3.723 -11.251  1.00  0.00     0.074 A 
ATOM     50  C   UNL     1      -8.561   4.622 -11.758  1.00  0.00     0.031 C 
ATOM     51  C   UNL     1      -6.156  -0.525  -7.826  1.00  0.00     0.029 A 
ATOM     52  C   UNL     1      -7.601  -0.504  -8.026  1.00  0.00     0.049 A 
ATOM     53  H   UNL     1      -8.701   0.834  -9.185  1.00  0.00     0.167 HD
ATOM     54  C   UNL     1     -10.895   3.825 -11.531  1.00  0.00     0.037 A 
ATOM     55  C   UNL     1      -8.478  -1.370  -7.481  1.00  0.00     0.037 A 
ATOM     56  C   UNL     1     -11.898   2.917 -11.038  1.00  0.00     0.049 A 
ATOM     57  C   UNL     1      -9.945  -1.216  -7.788  1.00  0.00     0.074 A 
ATOM     58  C   UNL     1     -13.262   2.928 -11.273  1.00  0.00     0.029 A 
ATOM     59  N   UNL     1     -11.643   1.827 -10.219  1.00  0.00    -0.354 N 
ATOM     60  N   UNL     1     -10.540  -0.321  -8.540  1.00  0.00    -0.248 NA
ATOM     61  C   UNL     1     -10.858  -2.193  -7.178  1.00  0.00     0.031 C 
ATOM     62  C   UNL     1     -13.836   1.861 -10.574  1.00  0.00     0.029 A 
ATOM     63  C   UNL     1     -12.824   1.161  -9.937  1.00  0.00     0.049 A 
ATOM     64  H   UNL     1     -10.754   1.565  -9.887  1.00  0.00     0.167 HD
ATOM     65  C   UNL     1     -11.892  -0.648  -8.520  1.00  0.00     0.074 A 
ATOM     66  C   UNL     1     -12.024  -1.829  -7.692  1.00  0.00     0.031 C 
ATOM     67  C   UNL     1     -12.931  -0.027  -9.130  1.00  0.00     0.037 A 
BRANCH  54  68
ATOM     68  C   UNL     1     -11.334   4.944 -12.436  1.00  0.00     0.058 A 
ATOM     69  C   UNL     1     -11.049   4.921 -13.811  1.00  0.00     0.135 A 
ATOM     70  C   UNL     1     -12.094   6.016 -11.942  1.00  0.00     0.135 A 
ATOM     71  F   UNL     1     -10.310   3.928 -14.332  1.00  0.00    -0.206 F 
ATOM     72  C   UNL     1     -11.487   5.930 -14.661  1.00  0.00     0.059 A 
ATOM     73  C   UNL     1     -12.565   7.023 -12.780  1.00  0.00     0.059 A 
ATOM     74  F   UNL     1     -12.393   6.088 -10.636  1.00  0.00    -0.206 F 
ATOM     75  C   UNL     1     -12.249   6.975 -14.137  1.00  0.00     0.060 A 
BRANCH  75  76
ATOM     76  S   UNL     1     -12.834   8.260 -15.262  1.00  0.00     0.124 S 
ATOM     77  O   UNL     1     -11.599   8.985 -15.544  1.00  0.00    -0.237 OA
ATOM     78  O   UNL     1     -13.378   7.481 -16.370  1.00  0.00    -0.237 OA
ATOM     79  O   UNL     1     -13.819   8.986 -14.467  1.00  0.00    -0.744 OA
ENDBRANCH  75  76
ENDBRANCH  54  68
BRANCH  55  80
ATOM     80  C   UNL     1      -8.006  -2.465  -6.592  1.00  0.00     0.058 A 
ATOM     81  C   UNL     1      -8.090  -3.807  -6.993  1.00  0.00     0.135 A 
ATOM     82  C   UNL     1      -7.497  -2.197  -5.312  1.00  0.00     0.135 A 
ATOM     83  F   UNL     1      -8.572  -4.114  -8.207  1.00  0.00    -0.206 F 
ATOM     84  C   UNL     1      -7.729  -4.847  -6.143  1.00  0.00     0.059 A 
ATOM     85  C   UNL     1      -7.103  -3.219  -4.454  1.00  0.00     0.059 A 
ATOM     86  F   UNL     1      -7.376  -0.930  -4.887  1.00  0.00    -0.206 F 
ATOM     87  C   UNL     1      -7.245  -4.542  -4.870  1.00  0.00     0.060 A 
BRANCH  87  88
ATOM     88  S   UNL     1      -6.785  -5.896  -3.767  1.00  0.00     0.124 S 
ATOM     89  O   UNL     1      -8.092  -6.375  -3.333  1.00  0.00    -0.237 OA
ATOM     90  O   UNL     1      -6.042  -6.782  -4.656  1.00  0.00    -0.237 OA
ATOM     91  O   UNL     1      -5.983  -5.232  -2.742  1.00  0.00    -0.744 OA
ENDBRANCH  87  88
ENDBRANCH  55  80
BRANCH  67  92
ATOM     92  C   UNL     1     -14.294  -0.641  -8.968  1.00  0.00     0.058 A 
ATOM     93  C   UNL     1     -15.004  -0.550  -7.761  1.00  0.00     0.135 A 
ATOM     94  C   UNL     1     -14.914  -1.286 -10.050  1.00  0.00     0.135 A 
ATOM     95  F   UNL     1     -14.452   0.050  -6.695  1.00  0.00    -0.206 F 
ATOM     96  C   UNL     1     -16.275  -1.100  -7.625  1.00  0.00     0.059 A 
ATOM     97  C   UNL     1     -16.194  -1.819  -9.945  1.00  0.00     0.059 A 
ATOM     98  F   UNL     1     -14.280  -1.389 -11.229  1.00  0.00    -0.206 F 
ATOM     99  C   UNL     1     -16.862  -1.731  -8.724  1.00  0.00     0.060 A 
BRANCH  99 100
ATOM    100  S   UNL     1     -18.526  -2.409  -8.545  1.00  0.00     0.124 S 
ATOM    101  O   UNL     1     -18.270  -3.613  -7.762  1.00  0.00    -0.237 OA
ATOM    102  O   UNL     1     -19.227  -1.336  -7.847  1.00  0.00    -0.237 OA
ATOM    103  O   UNL     1     -18.951  -2.633  -9.924  1.00  0.00    -0.744 OA
ENDBRANCH  99 100
ENDBRANCH  67  92
ENDBRANCH  41  42
ENDBRANCH  33  36
ENDBRANCH  31  32
ENDBRANCH  30  31
ENDBRANCH   1  30
TORSDOF 19
