REMARK SMILES C[C@@H]1CCCN(C(=O)CSc2nnc3c4ccccc4n(CC(=O)NCCCCCCNC(=O)c4ccc(-c5c6nc(c(-c7c(F)cc(S(=O)(=O)[O-])cc7F)c7ccc([nH]7)c(-c7c(F)cc(S(=O)(=O)[O-])cc7F)c7nc(c(-c8c(F)cc(S(=O)(=O)[O-])cc8F)c8ccc5[nH]8)C=C7)C=C6)cc4)c3n2)C1
REMARK SMILES IDX 27 1 26 2 25 3 23 4 24 5 22 7 21 8 11 9 12 10 102 11 13 12
REMARK SMILES IDX 101 13 14 14 15 15 20 16 16 17 19 18 17 19 18 20 10 21 9 22
REMARK SMILES IDX 7 23 8 24 6 25 1 26 2 27 3 28 103 29 4 30 5 31 28 32 29 33
REMARK SMILES IDX 30 34 31 35 32 36 33 37 34 39 35 40 36 41 100 42 37 43 99 44
REMARK SMILES IDX 38 45 39 46 40 47 93 48 41 49 98 50 92 51 94 52 42 53 97 54
REMARK SMILES IDX 91 55 90 56 43 58 77 59 56 60 76 61 57 62 60 63 75 64 95 65
REMARK SMILES IDX 58 66 59 67 74 69 96 70 61 71 44 72 45 73 54 74 46 75 47 76
REMARK SMILES IDX 53 77 55 78 48 79 49 80 50 81 51 82 52 83 78 84 79 85 88 86
REMARK SMILES IDX 80 87 81 88 87 89 89 90 82 91 83 92 84 93 85 94 86 95 62 96
REMARK SMILES IDX 63 97 72 98 64 99 65 100 71 101 73 102 66 103 67 104 68 105
REMARK SMILES IDX 69 106 70 107
REMARK H PARENT 25 6 32 38 94 57 60 68
REMARK Flexibility Score: inf
ROOT
ATOM      1  C   UNL     1       6.854   4.254   4.601  1.00  0.00     0.021 C 
ENDROOT
BRANCH   1   2
ATOM      2  C   UNL     1       5.921   3.093   4.948  1.00  0.00     0.116 C 
BRANCH   2   3
ATOM      3  N   UNL     1       5.236   3.329   6.206  1.00  0.00    -0.355 N 
ATOM      4  C   UNL     1       3.937   3.678   6.431  1.00  0.00     0.240 C 
ATOM      5  O   UNL     1       3.580   3.885   7.595  1.00  0.00    -0.273 OA
ATOM      6  H   UNL     1       5.788   3.221   7.014  1.00  0.00     0.163 HD
BRANCH   4   7
ATOM      7  C   UNL     1       2.941   3.758   5.292  1.00  0.00     0.224 C 
BRANCH   7   8
ATOM      8  N   UNL     1       3.186   4.855   4.367  1.00  0.00    -0.314 N 
ATOM      9  C   UNL     1       3.866   3.693   1.090  1.00  0.00     0.211 A 
ATOM     10  N   UNL     1       4.124   4.884   0.488  1.00  0.00    -0.122 NA
ATOM     11  N   UNL     1       3.474   3.514   2.368  1.00  0.00    -0.201 NA
ATOM     12  N   UNL     1       4.012   6.031   1.165  1.00  0.00    -0.144 NA
ATOM     13  C   UNL     1       3.419   4.685   3.026  1.00  0.00     0.165 A 
ATOM     14  C   UNL     1       3.685   5.925   2.478  1.00  0.00     0.138 A 
ATOM     15  C   UNL     1       3.591   6.889   3.515  1.00  0.00     0.030 A 
ATOM     16  C   UNL     1       3.259   6.199   4.691  1.00  0.00     0.053 A 
ATOM     17  C   UNL     1       3.788   8.284   3.575  1.00  0.00     0.013 A 
ATOM     18  C   UNL     1       3.095   6.865   5.917  1.00  0.00     0.027 A 
ATOM     19  C   UNL     1       3.646   8.949   4.796  1.00  0.00     0.001 A 
ATOM     20  C   UNL     1       3.301   8.247   5.947  1.00  0.00     0.002 A 
BRANCH   9  21
ATOM     21  S   UNL     1       4.369   2.212   0.249  1.00  0.00    -0.074 SA
BRANCH  21  22
ATOM     22  C   UNL     1       3.219   2.231  -1.147  1.00  0.00     0.178 C 
BRANCH  22  23
ATOM     23  C   UNL     1       1.764   2.292  -0.713  1.00  0.00     0.233 C 
ATOM     24  O   UNL     1       1.144   3.351  -0.852  1.00  0.00    -0.274 OA
BRANCH  23  25
ATOM     25  N   UNL     1       1.149   1.146  -0.218  1.00  0.00    -0.342 N 
ATOM     26  C   UNL     1      -2.505   0.075   0.108  1.00  0.00     0.009 C 
ATOM     27  C   UNL     1      -1.045   0.003  -0.330  1.00  0.00     0.005 C 
ATOM     28  C   UNL     1      -0.386  -1.287   0.169  1.00  0.00     0.007 C 
ATOM     29  C   UNL     1      -0.261   1.224   0.168  1.00  0.00     0.122 C 
ATOM     30  C   UNL     1       1.078  -1.337  -0.261  1.00  0.00     0.022 C 
ATOM     31  C   UNL     1       1.840  -0.088   0.173  1.00  0.00     0.119 C 
ENDBRANCH  23  25
ENDBRANCH  22  23
ENDBRANCH  21  22
ENDBRANCH   9  21
ENDBRANCH   7   8
ENDBRANCH   4   7
ENDBRANCH   2   3
ENDBRANCH   1   2
BRANCH   1  32
ATOM     32  C   UNL     1       8.134   4.293   5.446  1.00  0.00     0.002 C 
BRANCH  32  33
ATOM     33  C   UNL     1       9.052   3.075   5.295  1.00  0.00     0.002 C 
BRANCH  33  34
ATOM     34  C   UNL     1       9.505   2.764   3.865  1.00  0.00     0.021 C 
BRANCH  34  35
ATOM     35  C   UNL     1      10.274   3.896   3.180  1.00  0.00     0.116 C 
BRANCH  35  36
ATOM     36  N   UNL     1      11.478   4.295   3.880  1.00  0.00    -0.352 N 
ATOM     37  C   UNL     1      12.772   3.849   3.907  1.00  0.00     0.251 C 
ATOM     38  H   UNL     1      11.332   5.067   4.474  1.00  0.00     0.163 HD
ATOM     39  O   UNL     1      13.568   4.546   4.543  1.00  0.00    -0.269 OA
BRANCH  37  40
ATOM     40  C   UNL     1      13.263   2.584   3.289  1.00  0.00     0.039 A 
ATOM     41  C   UNL     1      12.511   1.728   2.487  1.00  0.00     0.014 A 
ATOM     42  C   UNL     1      14.589   2.216   3.595  1.00  0.00     0.014 A 
ATOM     43  C   UNL     1      13.030   0.500   2.087  1.00  0.00     0.010 A 
ATOM     44  C   UNL     1      15.123   0.998   3.177  1.00  0.00     0.010 A 
ATOM     45  C   UNL     1      14.325   0.120   2.455  1.00  0.00    -0.014 A 
BRANCH  45  46
ATOM     46  C   UNL     1      14.818  -1.155   1.938  1.00  0.00     0.031 A 
ATOM     47  C   UNL     1      14.835  -1.248   0.452  1.00  0.00     0.074 A 
ATOM     48  C   UNL     1      15.290  -2.170   2.690  1.00  0.00     0.049 A 
ATOM     49  N   UNL     1      14.090  -1.980  -0.311  1.00  0.00    -0.248 NA
ATOM     50  C   UNL     1      15.694  -0.305  -0.278  1.00  0.00     0.031 C 
ATOM     51  C   UNL     1      15.613  -2.170   4.117  1.00  0.00     0.029 A 
ATOM     52  N   UNL     1      15.650  -3.426   2.292  1.00  0.00    -0.354 N 
ATOM     53  C   UNL     1      14.528  -1.747  -1.613  1.00  0.00     0.074 A 
ATOM     54  C   UNL     1      15.392  -0.599  -1.543  1.00  0.00     0.031 C 
ATOM     55  C   UNL     1      16.301  -3.296   4.420  1.00  0.00     0.029 A 
ATOM     56  C   UNL     1      16.341  -4.158   3.251  1.00  0.00     0.049 A 
ATOM     57  H   UNL     1      15.437  -3.784   1.400  1.00  0.00     0.167 HD
ATOM     58  C   UNL     1      14.312  -2.651  -2.610  1.00  0.00     0.037 A 
ATOM     59  C   UNL     1      16.931  -5.369   3.079  1.00  0.00     0.037 A 
ATOM     60  C   UNL     1      13.244  -3.557  -2.264  1.00  0.00     0.049 A 
ATOM     61  C   UNL     1      16.273  -6.017   1.917  1.00  0.00     0.074 A 
ATOM     62  C   UNL     1      11.902  -3.420  -1.965  1.00  0.00     0.029 A 
ATOM     63  N   UNL     1      13.588  -4.822  -1.856  1.00  0.00    -0.354 N 
ATOM     64  N   UNL     1      15.033  -6.421   1.906  1.00  0.00    -0.248 NA
ATOM     65  C   UNL     1      16.893  -5.875   0.610  1.00  0.00     0.031 C 
ATOM     66  C   UNL     1      11.635  -4.416  -0.980  1.00  0.00     0.029 A 
ATOM     67  C   UNL     1      12.814  -5.133  -0.769  1.00  0.00     0.049 A 
ATOM     68  H   UNL     1      14.268  -5.402  -2.270  1.00  0.00     0.167 HD
ATOM     69  C   UNL     1      14.592  -6.179   0.615  1.00  0.00     0.074 A 
ATOM     70  C   UNL     1      15.807  -5.953  -0.162  1.00  0.00     0.031 C 
ATOM     71  C   UNL     1      13.278  -5.920   0.354  1.00  0.00     0.037 A 
BRANCH  58  72
ATOM     72  C   UNL     1      15.304  -2.959  -3.717  1.00  0.00     0.058 A 
ATOM     73  C   UNL     1      14.962  -3.913  -4.702  1.00  0.00     0.135 A 
ATOM     74  C   UNL     1      16.669  -2.592  -3.687  1.00  0.00     0.135 A 
ATOM     75  F   UNL     1      13.694  -4.330  -4.842  1.00  0.00    -0.206 F 
ATOM     76  C   UNL     1      15.916  -4.536  -5.509  1.00  0.00     0.059 A 
ATOM     77  C   UNL     1      17.627  -3.163  -4.519  1.00  0.00     0.059 A 
ATOM     78  F   UNL     1      17.167  -1.733  -2.792  1.00  0.00    -0.206 F 
ATOM     79  C   UNL     1      17.252  -4.169  -5.391  1.00  0.00     0.060 A 
BRANCH  79  80
ATOM     80  S   UNL     1      18.502  -5.063  -6.328  1.00  0.00     0.124 S 
ATOM     81  O   UNL     1      18.450  -6.377  -5.699  1.00  0.00    -0.237 OA
ATOM     82  O   UNL     1      17.976  -4.981  -7.686  1.00  0.00    -0.237 OA
ATOM     83  O   UNL     1      19.718  -4.292  -6.084  1.00  0.00    -0.744 OA
ENDBRANCH  79  80
ENDBRANCH  58  72
BRANCH  59  84
ATOM     84  C   UNL     1      18.217  -5.870   3.639  1.00  0.00     0.058 A 
ATOM     85  C   UNL     1      18.598  -7.218   3.485  1.00  0.00     0.135 A 
ATOM     86  C   UNL     1      19.230  -4.986   4.058  1.00  0.00     0.135 A 
ATOM     87  F   UNL     1      17.703  -8.131   3.079  1.00  0.00    -0.206 F 
ATOM     88  C   UNL     1      19.918  -7.647   3.666  1.00  0.00     0.059 A 
ATOM     89  C   UNL     1      20.549  -5.393   4.255  1.00  0.00     0.059 A 
ATOM     90  F   UNL     1      18.990  -3.674   4.196  1.00  0.00    -0.206 F 
ATOM     91  C   UNL     1      20.893  -6.720   4.025  1.00  0.00     0.060 A 
BRANCH  91  92
ATOM     92  S   UNL     1      22.628  -7.229   4.070  1.00  0.00     0.124 S 
ATOM     93  O   UNL     1      22.646  -8.145   5.206  1.00  0.00    -0.237 OA
ATOM     94  O   UNL     1      22.803  -7.839   2.756  1.00  0.00    -0.237 OA
ATOM     95  O   UNL     1      23.346  -5.973   4.271  1.00  0.00    -0.744 OA
ENDBRANCH  91  92
ENDBRANCH  59  84
BRANCH  71  96
ATOM     96  C   UNL     1      12.257  -6.255   1.410  1.00  0.00     0.058 A 
ATOM     97  C   UNL     1      12.181  -5.640   2.672  1.00  0.00     0.135 A 
ATOM     98  C   UNL     1      11.212  -7.125   1.057  1.00  0.00     0.135 A 
ATOM     99  F   UNL     1      13.086  -4.727   3.051  1.00  0.00    -0.206 F 
ATOM    100  C   UNL     1      11.124  -5.895   3.549  1.00  0.00     0.059 A 
ATOM    101  C   UNL     1      10.133  -7.368   1.903  1.00  0.00     0.059 A 
ATOM    102  F   UNL     1      11.199  -7.704  -0.155  1.00  0.00    -0.206 F 
ATOM    103  C   UNL     1      10.098  -6.752   3.152  1.00  0.00     0.060 A 
BRANCH 103 104
ATOM    104  S   UNL     1       8.672  -6.987   4.235  1.00  0.00     0.124 S 
ATOM    105  O   UNL     1       9.246  -7.754   5.339  1.00  0.00    -0.237 OA
ATOM    106  O   UNL     1       8.291  -5.611   4.556  1.00  0.00    -0.237 OA
ATOM    107  O   UNL     1       7.720  -7.707   3.403  1.00  0.00    -0.744 OA
ENDBRANCH 103 104
ENDBRANCH  71  96
ENDBRANCH  45  46
ENDBRANCH  37  40
ENDBRANCH  35  36
ENDBRANCH  34  35
ENDBRANCH  33  34
ENDBRANCH  32  33
ENDBRANCH   1  32
TORSDOF 21
