REMARK SMILES CCCCCCNC(=O)Oc1cccc(-c2ccc([C@@H](C)C(=O)NCCCCCCNC(=O)c3ccc(-c4c5nc(c(-c6c(F)cc(S(=O)(=O)[O-])cc6F)c6ccc([nH]6)c(-c6c(F)cc(S(=O)(=O)[O-])cc6F)c6nc(c(-c7c(F)cc(S(=O)(=O)[O-])cc7F)c7ccc4[nH]7)C=C6)C=C5)cc3)cc2Cl)c1
REMARK SMILES IDX 22 1 23 2 24 3 20 5 21 6 19 7 16 8 17 9 101 10 18 11 100 12
REMARK SMILES IDX 102 13 15 14 11 15 12 16 103 17 13 18 14 19 10 20 8 21 7 22
REMARK SMILES IDX 9 24 6 25 5 26 4 27 3 28 2 29 1 30 25 31 26 32 27 33 28 34
REMARK SMILES IDX 29 35 30 36 31 37 32 38 33 40 34 41 35 42 99 43 36 44 98 45
REMARK SMILES IDX 37 46 38 47 39 48 92 49 40 50 97 51 91 52 93 53 41 54 96 55
REMARK SMILES IDX 90 56 89 57 42 59 76 60 55 61 75 62 56 63 59 64 74 65 94 66
REMARK SMILES IDX 57 67 58 68 73 70 95 71 60 72 43 73 44 74 53 75 45 76 46 77
REMARK SMILES IDX 52 78 54 79 47 80 48 81 49 82 50 83 51 84 77 85 78 86 87 87
REMARK SMILES IDX 79 88 80 89 86 90 88 91 81 92 82 93 83 94 84 95 85 96 61 97
REMARK SMILES IDX 62 98 71 99 63 100 64 101 70 102 72 103 65 104 66 105 67 106
REMARK SMILES IDX 68 107 69 108
REMARK H PARENT 24 4 7 23 31 39 93 58 59 69
REMARK Flexibility Score: inf
ROOT
ATOM      1  C   UNL     1      -3.467  12.554   6.902  1.00  0.00     0.227 C 
ATOM      2  O   UNL     1      -2.487  12.970   6.269  1.00  0.00    -0.274 OA
ATOM      3  N   UNL     1      -3.329  12.490   8.254  1.00  0.00    -0.356 N 
ATOM      4  H   UNL     1      -2.479  12.857   8.589  1.00  0.00     0.163 HD
ENDROOT
BRANCH   1   5
ATOM      5  C   UNL     1      -4.750  12.164   6.152  1.00  0.00     0.105 C 
ATOM      6  C   UNL     1      -5.980  12.979   6.550  1.00  0.00     0.023 C 
BRANCH   5   7
ATOM      7  C   UNL     1      -4.962  10.663   6.035  1.00  0.00    -0.034 A 
ATOM      8  C   UNL     1      -5.154   7.807   5.821  1.00  0.00     0.000 A 
ATOM      9  C   UNL     1      -5.658   8.512   6.930  1.00  0.00     0.010 A 
ATOM     10  C   UNL     1      -4.607   8.585   4.781  1.00  0.00     0.049 A 
ATOM     11  C   UNL     1      -5.606   9.907   7.013  1.00  0.00     0.005 A 
ATOM     12  C   UNL     1      -4.482   9.980   4.907  1.00  0.00     0.025 A 
ATOM     13  Cl  UNL     1      -4.114   7.915   3.259  1.00  0.00    -0.084 Cl
BRANCH   8  14
ATOM     14  C   UNL     1      -5.223   6.325   5.834  1.00  0.00    -0.013 A 
ATOM     15  C   UNL     1      -4.222   4.135   5.484  1.00  0.00     0.133 A 
ATOM     16  C   UNL     1      -5.369   3.497   5.944  1.00  0.00     0.047 A 
ATOM     17  C   UNL     1      -4.135   5.528   5.441  1.00  0.00     0.056 A 
ATOM     18  C   UNL     1      -6.447   4.264   6.367  1.00  0.00     0.004 A 
ATOM     19  C   UNL     1      -6.379   5.660   6.296  1.00  0.00     0.009 A 
BRANCH  15  20
ATOM     20  O   UNL     1      -3.231   3.310   4.925  1.00  0.00    -0.410 OA
BRANCH  20  21
ATOM     21  C   UNL     1      -1.889   3.543   5.183  1.00  0.00     0.412 C 
ATOM     22  N   UNL     1      -1.063   2.773   4.409  1.00  0.00    -0.321 N 
ATOM     23  H   UNL     1      -0.097   2.852   4.578  1.00  0.00     0.167 HD
ATOM     24  O   UNL     1      -1.435   4.332   6.002  1.00  0.00    -0.224 OA
BRANCH  22  25
ATOM     25  C   UNL     1      -1.470   1.852   3.367  1.00  0.00     0.119 C 
BRANCH  25  26
ATOM     26  C   UNL     1      -0.881   2.235   2.009  1.00  0.00     0.021 C 
BRANCH  26  27
ATOM     27  C   UNL     1       0.648   2.153   1.927  1.00  0.00     0.002 C 
BRANCH  27  28
ATOM     28  C   UNL     1       1.251   0.779   2.241  1.00  0.00    -0.000 C 
BRANCH  28  29
ATOM     29  C   UNL     1       0.762  -0.368   1.354  1.00  0.00    -0.003 C 
ATOM     30  C   UNL     1       1.124  -0.190  -0.112  1.00  0.00     0.004 C 
ENDBRANCH  28  29
ENDBRANCH  27  28
ENDBRANCH  26  27
ENDBRANCH  25  26
ENDBRANCH  22  25
ENDBRANCH  20  21
ENDBRANCH  15  20
ENDBRANCH   8  14
ENDBRANCH   5   7
ENDBRANCH   1   5
BRANCH   3  31
ATOM     31  C   UNL     1      -4.204  11.980   9.288  1.00  0.00     0.116 C 
BRANCH  31  32
ATOM     32  C   UNL     1      -3.762  10.596   9.769  1.00  0.00     0.021 C 
BRANCH  32  33
ATOM     33  C   UNL     1      -2.761  10.636  10.928  1.00  0.00     0.002 C 
BRANCH  33  34
ATOM     34  C   UNL     1      -3.293  11.270  12.220  1.00  0.00     0.002 C 
BRANCH  34  35
ATOM     35  C   UNL     1      -4.585  10.657  12.770  1.00  0.00     0.021 C 
BRANCH  35  36
ATOM     36  C   UNL     1      -4.485   9.175  13.123  1.00  0.00     0.116 C 
BRANCH  36  37
ATOM     37  N   UNL     1      -3.506   8.940  14.174  1.00  0.00    -0.352 N 
ATOM     38  C   UNL     1      -3.680   8.407  15.427  1.00  0.00     0.251 C 
ATOM     39  H   UNL     1      -2.583   9.201  13.954  1.00  0.00     0.163 HD
ATOM     40  O   UNL     1      -2.793   8.521  16.267  1.00  0.00    -0.269 OA
BRANCH  38  41
ATOM     41  C   UNL     1      -4.936   7.703  15.764  1.00  0.00     0.039 A 
ATOM     42  C   UNL     1      -5.531   7.933  17.007  1.00  0.00     0.014 A 
ATOM     43  C   UNL     1      -5.507   6.793  14.869  1.00  0.00     0.014 A 
ATOM     44  C   UNL     1      -6.727   7.288  17.332  1.00  0.00     0.010 A 
ATOM     45  C   UNL     1      -6.734   6.205  15.166  1.00  0.00     0.010 A 
ATOM     46  C   UNL     1      -7.352   6.440  16.403  1.00  0.00    -0.014 A 
BRANCH  46  47
ATOM     47  C   UNL     1      -8.649   5.783  16.710  1.00  0.00     0.031 A 
ATOM     48  C   UNL     1      -8.733   4.283  16.801  1.00  0.00     0.074 A 
ATOM     49  C   UNL     1      -9.760   6.534  16.842  1.00  0.00     0.049 A 
ATOM     50  N   UNL     1      -9.783   3.525  16.986  1.00  0.00    -0.248 NA
ATOM     51  C   UNL     1      -7.476   3.536  16.636  1.00  0.00     0.031 C 
ATOM     52  C   UNL     1      -9.813   7.993  16.726  1.00  0.00     0.029 A 
ATOM     53  N   UNL     1     -11.062   6.174  17.088  1.00  0.00    -0.354 N 
ATOM     54  C   UNL     1      -9.318   2.216  16.943  1.00  0.00     0.074 A 
ATOM     55  C   UNL     1      -7.900   2.280  16.664  1.00  0.00     0.031 C 
ATOM     56  C   UNL     1     -11.077   8.404  16.919  1.00  0.00     0.029 A 
ATOM     57  C   UNL     1     -11.930   7.240  17.134  1.00  0.00     0.049 A 
ATOM     58  H   UNL     1     -11.347   5.241  17.219  1.00  0.00     0.167 HD
ATOM     59  C   UNL     1     -10.006   1.065  17.139  1.00  0.00     0.037 A 
ATOM     60  C   UNL     1     -13.264   7.274  17.318  1.00  0.00     0.037 A 
ATOM     61  C   UNL     1     -11.413   1.011  17.444  1.00  0.00     0.049 A 
ATOM     62  C   UNL     1     -14.006   5.984  17.543  1.00  0.00     0.074 A 
ATOM     63  C   UNL     1     -12.191  -0.099  17.723  1.00  0.00     0.029 A 
ATOM     64  N   UNL     1     -12.253   2.114  17.510  1.00  0.00    -0.354 N 
ATOM     65  N   UNL     1     -13.539   4.758  17.562  1.00  0.00    -0.248 NA
ATOM     66  C   UNL     1     -15.453   6.081  17.778  1.00  0.00     0.031 C 
ATOM     67  C   UNL     1     -13.509   0.327  17.912  1.00  0.00     0.029 A 
ATOM     68  C   UNL     1     -13.544   1.708  17.804  1.00  0.00     0.049 A 
ATOM     69  H   UNL     1     -11.972   3.047  17.369  1.00  0.00     0.167 HD
ATOM     70  C   UNL     1     -14.629   3.940  17.839  1.00  0.00     0.074 A 
ATOM     71  C   UNL     1     -15.776   4.812  17.990  1.00  0.00     0.031 C 
ATOM     72  C   UNL     1     -14.675   2.590  17.959  1.00  0.00     0.037 A 
BRANCH  59  73
ATOM     73  C   UNL     1      -9.248  -0.230  17.034  1.00  0.00     0.058 A 
ATOM     74  C   UNL     1      -8.300  -0.612  17.997  1.00  0.00     0.135 A 
ATOM     75  C   UNL     1      -9.499  -1.120  15.976  1.00  0.00     0.135 A 
ATOM     76  F   UNL     1      -8.011   0.206  19.021  1.00  0.00    -0.206 F 
ATOM     77  C   UNL     1      -7.607  -1.814  17.900  1.00  0.00     0.059 A 
ATOM     78  C   UNL     1      -8.838  -2.341  15.875  1.00  0.00     0.059 A 
ATOM     79  F   UNL     1     -10.395  -0.807  15.027  1.00  0.00    -0.206 F 
ATOM     80  C   UNL     1      -7.883  -2.672  16.834  1.00  0.00     0.060 A 
BRANCH  80  81
ATOM     81  S   UNL     1      -6.979  -4.232  16.727  1.00  0.00     0.124 S 
ATOM     82  O   UNL     1      -5.656  -3.773  16.316  1.00  0.00    -0.237 OA
ATOM     83  O   UNL     1      -7.077  -4.744  18.090  1.00  0.00    -0.237 OA
ATOM     84  O   UNL     1      -7.721  -4.987  15.722  1.00  0.00    -0.744 OA
ENDBRANCH  80  81
ENDBRANCH  59  73
BRANCH  60  85
ATOM     85  C   UNL     1     -13.979   8.578  17.320  1.00  0.00     0.058 A 
ATOM     86  C   UNL     1     -14.511   9.109  18.505  1.00  0.00     0.135 A 
ATOM     87  C   UNL     1     -14.128   9.329  16.143  1.00  0.00     0.135 A 
ATOM     88  F   UNL     1     -14.398   8.426  19.654  1.00  0.00    -0.206 F 
ATOM     89  C   UNL     1     -15.179  10.329  18.522  1.00  0.00     0.059 A 
ATOM     90  C   UNL     1     -14.770  10.563  16.140  1.00  0.00     0.059 A 
ATOM     91  F   UNL     1     -13.621   8.874  14.987  1.00  0.00    -0.206 F 
ATOM     92  C   UNL     1     -15.301  11.050  17.333  1.00  0.00     0.060 A 
BRANCH  92  93
ATOM     93  S   UNL     1     -16.125  12.657  17.375  1.00  0.00     0.124 S 
ATOM     94  O   UNL     1     -17.522  12.266  17.531  1.00  0.00    -0.237 OA
ATOM     95  O   UNL     1     -15.505  13.289  18.535  1.00  0.00    -0.237 OA
ATOM     96  O   UNL     1     -15.774  13.247  16.087  1.00  0.00    -0.744 OA
ENDBRANCH  92  93
ENDBRANCH  60  85
BRANCH  72  97
ATOM     97  C   UNL     1     -16.000   1.971  18.305  1.00  0.00     0.058 A 
ATOM     98  C   UNL     1     -17.046   1.892  17.372  1.00  0.00     0.135 A 
ATOM     99  C   UNL     1     -16.206   1.399  19.572  1.00  0.00     0.135 A 
ATOM    100  F   UNL     1     -16.903   2.429  16.150  1.00  0.00    -0.206 F 
ATOM    101  C   UNL     1     -18.258   1.288  17.690  1.00  0.00     0.059 A 
ATOM    102  C   UNL     1     -17.400   0.765  19.901  1.00  0.00     0.059 A 
ATOM    103  F   UNL     1     -15.235   1.438  20.497  1.00  0.00    -0.206 F 
ATOM    104  C   UNL     1     -18.425   0.726  18.957  1.00  0.00     0.060 A 
BRANCH 104 105
ATOM    105  S   UNL     1     -19.990  -0.086  19.345  1.00  0.00     0.124 S 
ATOM    106  O   UNL     1     -20.880   1.058  19.514  1.00  0.00    -0.237 OA
ATOM    107  O   UNL     1     -20.223  -0.900  18.155  1.00  0.00    -0.237 OA
ATOM    108  O   UNL     1     -19.692  -0.836  20.561  1.00  0.00    -0.744 OA
ENDBRANCH 104 105
ENDBRANCH  72  97
ENDBRANCH  46  47
ENDBRANCH  38  41
ENDBRANCH  36  37
ENDBRANCH  35  36
ENDBRANCH  34  35
ENDBRANCH  33  34
ENDBRANCH  32  33
ENDBRANCH  31  32
ENDBRANCH   3  31
TORSDOF 25
