REMARK SMILES N#CCOc1ccc2[nH]cc([C@H](C(=O)NCCCCCCNC(=O)c3ccc(-c4c5nc(c(-c6c(F)cc(S(=O)(=O)[O-])cc6F)c6ccc([nH]6)c(-c6c(F)cc(S(=O)(=O)[O-])cc6F)c6nc(c(-c7c(F)cc(S(=O)(=O)[O-])cc7F)c7ccc4[nH]7)C=C6)C=C5)cc3)[NH+]3CC[NH+]([C@@H]4CCS(=O)(=O)C4)CC3)c2c1
REMARK SMILES IDX 18 1 17 2 16 3 15 4 13 5 14 6 12 8 11 9 5 10 6 11 105 12
REMARK SMILES IDX 7 13 104 14 8 15 9 16 10 17 4 19 3 20 2 21 1 22 91 23 92 24
REMARK SMILES IDX 103 25 93 27 102 28 94 29 95 31 96 32 101 33 97 34 98 35
REMARK SMILES IDX 99 36 100 37 19 38 20 39 21 40 22 41 23 42 24 44 25 45 26 46
REMARK SMILES IDX 90 47 27 48 89 49 28 50 29 51 30 52 83 53 31 54 88 55 82 56
REMARK SMILES IDX 84 57 32 58 87 59 81 60 80 61 33 63 67 64 46 65 66 66 47 67
REMARK SMILES IDX 50 68 65 69 85 70 48 71 49 72 64 74 86 75 51 76 34 77 35 78
REMARK SMILES IDX 44 79 36 80 37 81 43 82 45 83 38 84 39 85 40 86 41 87 42 88
REMARK SMILES IDX 68 89 69 90 78 91 70 92 71 93 77 94 79 95 72 96 73 97 74 98
REMARK SMILES IDX 75 99 76 100 52 101 53 102 62 103 54 104 55 105 61 106
REMARK SMILES IDX 63 107 56 108 57 109 58 110 59 111 60 112
REMARK H PARENT 15 7 9 18 91 26 94 30 22 43 84 62 50 73
REMARK Flexibility Score: inf
ROOT
ATOM      1  C   UNL     1       4.408  -3.620   1.614  1.00  0.00     0.002 C 
ENDROOT
BRANCH   1   2
ATOM      2  C   UNL     1       5.816  -3.318   1.072  1.00  0.00     0.021 C 
BRANCH   2   3
ATOM      3  C   UNL     1       6.341  -4.319   0.045  1.00  0.00     0.116 C 
BRANCH   3   4
ATOM      4  N   UNL     1       5.360  -4.532  -0.991  1.00  0.00    -0.351 N 
ATOM      5  C   UNL     1       5.497  -5.112  -2.208  1.00  0.00     0.283 C 
ATOM      6  O   UNL     1       4.423  -5.461  -2.707  1.00  0.00    -0.268 OA
ATOM      7  H   UNL     1       4.455  -4.206  -0.783  1.00  0.00     0.163 HD
BRANCH   5   8
ATOM      8  C   UNL     1       6.895  -5.330  -2.854  1.00  0.00     0.308 C 
BRANCH   8   9
ATOM      9  C   UNL     1       7.661  -6.459  -2.212  1.00  0.00     0.045 A 
ATOM     10  C   UNL     1       5.411  -8.507  -0.025  1.00  0.00     0.121 A 
ATOM     11  C   UNL     1       6.464  -9.071   0.706  1.00  0.00     0.048 A 
ATOM     12  C   UNL     1       5.736  -7.860  -1.197  1.00  0.00     0.057 A 
ATOM     13  C   UNL     1       7.813  -8.984   0.310  1.00  0.00     0.030 A 
ATOM     14  C   UNL     1       7.069  -7.505  -1.449  1.00  0.00     0.013 A 
ATOM     15  C   UNL     1       8.087  -8.124  -0.741  1.00  0.00     0.046 A 
ATOM     16  N   UNL     1       9.274  -7.685  -1.271  1.00  0.00    -0.361 N 
ATOM     17  C   UNL     1       9.032  -6.633  -2.120  1.00  0.00     0.094 A 
ATOM     18  H   UNL     1      10.161  -8.065  -1.074  1.00  0.00     0.166 HD
BRANCH  10  19
ATOM     19  O   UNL     1       4.053  -8.448   0.198  1.00  0.00    -0.479 OA
BRANCH  19  20
ATOM     20  C   UNL     1       3.488  -8.649   1.502  1.00  0.00     0.349 C 
BRANCH  20  21
ATOM     21  C   UNL     1       4.128  -9.916   2.047  1.00  0.00     0.104 C 
ATOM     22  N   UNL     1       4.658 -10.967   2.499  1.00  0.00    -0.195 NA
ENDBRANCH  20  21
ENDBRANCH  19  20
ENDBRANCH  10  19
ENDBRANCH   8   9
BRANCH   8  23
ATOM     23  N   UNL     1       6.856  -5.496  -4.320  1.00  0.00    -0.312 N 
ATOM     24  C   UNL     1       6.385  -6.789  -4.840  1.00  0.00     0.325 C 
ATOM     25  C   UNL     1       6.232  -4.343  -4.979  1.00  0.00     0.325 C 
ATOM     26  H   UNL     1       7.842  -5.523  -4.582  1.00  0.00     0.349 HD
ATOM     27  C   UNL     1       4.925  -6.895  -5.334  1.00  0.00     0.324 C 
ATOM     28  C   UNL     1       4.759  -4.483  -5.412  1.00  0.00     0.324 C 
ATOM     29  N   UNL     1       4.412  -5.736  -6.077  1.00  0.00    -0.322 N 
ATOM     30  H   UNL     1       3.393  -5.754  -6.021  1.00  0.00     0.348 HD
BRANCH  29  31
ATOM     31  C   UNL     1       4.492  -5.820  -7.532  1.00  0.00     0.200 C 
ATOM     32  C   UNL     1       5.868  -5.873  -8.215  1.00  0.00     0.082 C 
ATOM     33  C   UNL     1       3.675  -4.731  -8.244  1.00  0.00     0.201 C 
ATOM     34  C   UNL     1       6.316  -4.476  -8.604  1.00  0.00     0.143 C 
ATOM     35  S   UNL     1       4.837  -3.525  -8.855  1.00  0.00     0.156 S 
ATOM     36  O   UNL     1       4.874  -2.380  -7.971  1.00  0.00    -0.229 OA
ATOM     37  O   UNL     1       4.629  -3.370 -10.282  1.00  0.00    -0.229 OA
ENDBRANCH  29  31
ENDBRANCH   8  23
ENDBRANCH   5   8
ENDBRANCH   3   4
ENDBRANCH   2   3
ENDBRANCH   1   2
BRANCH   1  38
ATOM     38  C   UNL     1       4.199  -5.044   2.133  1.00  0.00     0.002 C 
BRANCH  38  39
ATOM     39  C   UNL     1       5.145  -5.470   3.255  1.00  0.00     0.021 C 
BRANCH  39  40
ATOM     40  C   UNL     1       5.219  -4.490   4.415  1.00  0.00     0.116 C 
BRANCH  40  41
ATOM     41  N   UNL     1       3.922  -4.258   5.029  1.00  0.00    -0.352 N 
ATOM     42  C   UNL     1       3.631  -4.083   6.359  1.00  0.00     0.251 C 
ATOM     43  H   UNL     1       3.156  -4.221   4.413  1.00  0.00     0.163 HD
ATOM     44  O   UNL     1       2.465  -4.044   6.735  1.00  0.00    -0.269 OA
BRANCH  42  45
ATOM     45  C   UNL     1       4.742  -3.983   7.327  1.00  0.00     0.039 A 
ATOM     46  C   UNL     1       4.690  -4.754   8.488  1.00  0.00     0.014 A 
ATOM     47  C   UNL     1       5.849  -3.169   7.064  1.00  0.00     0.014 A 
ATOM     48  C   UNL     1       5.778  -4.750   9.360  1.00  0.00     0.010 A 
ATOM     49  C   UNL     1       6.966  -3.234   7.890  1.00  0.00     0.010 A 
ATOM     50  C   UNL     1       6.940  -4.022   9.049  1.00  0.00    -0.014 A 
BRANCH  50  51
ATOM     51  C   UNL     1       8.136  -4.100   9.924  1.00  0.00     0.031 A 
ATOM     52  C   UNL     1       8.643  -2.875  10.634  1.00  0.00     0.074 A 
ATOM     53  C   UNL     1       8.782  -5.276  10.048  1.00  0.00     0.049 A 
ATOM     54  N   UNL     1       9.659  -2.760  11.451  1.00  0.00    -0.248 NA
ATOM     55  C   UNL     1       7.936  -1.611  10.377  1.00  0.00     0.031 C 
ATOM     56  C   UNL     1       8.422  -6.515   9.353  1.00  0.00     0.029 A 
ATOM     57  N   UNL     1       9.874  -5.625  10.801  1.00  0.00    -0.354 N 
ATOM     58  C   UNL     1       9.714  -1.416  11.802  1.00  0.00     0.074 A 
ATOM     59  C   UNL     1       8.669  -0.744  11.060  1.00  0.00     0.031 C 
ATOM     60  C   UNL     1       9.251  -7.495   9.743  1.00  0.00     0.029 A 
ATOM     61  C   UNL     1      10.224  -6.950  10.683  1.00  0.00     0.049 A 
ATOM     62  H   UNL     1      10.360  -4.988  11.373  1.00  0.00     0.167 HD
ATOM     63  C   UNL     1      10.542  -0.804  12.681  1.00  0.00     0.037 A 
ATOM     64  C   UNL     1      11.218  -7.647  11.266  1.00  0.00     0.037 A 
ATOM     65  C   UNL     1      11.571  -1.487  13.424  1.00  0.00     0.049 A 
ATOM     66  C   UNL     1      12.122  -6.945  12.242  1.00  0.00     0.074 A 
ATOM     67  C   UNL     1      12.423  -0.973  14.385  1.00  0.00     0.029 A 
ATOM     68  N   UNL     1      11.895  -2.829  13.282  1.00  0.00    -0.354 N 
ATOM     69  N   UNL     1      12.106  -5.690  12.626  1.00  0.00    -0.248 NA
ATOM     70  C   UNL     1      13.172  -7.755  12.872  1.00  0.00     0.031 C 
ATOM     71  C   UNL     1      13.300  -1.988  14.782  1.00  0.00     0.029 A 
ATOM     72  C   UNL     1      12.955  -3.153  14.115  1.00  0.00     0.049 A 
ATOM     73  H   UNL     1      11.439  -3.459  12.678  1.00  0.00     0.167 HD
ATOM     74  C   UNL     1      13.132  -5.565  13.556  1.00  0.00     0.074 A 
ATOM     75  C   UNL     1      13.728  -6.878  13.696  1.00  0.00     0.031 C 
ATOM     76  C   UNL     1      13.546  -4.463  14.232  1.00  0.00     0.037 A 
BRANCH  63  77
ATOM     77  C   UNL     1      10.371   0.677  12.890  1.00  0.00     0.058 A 
ATOM     78  C   UNL     1       9.237   1.209  13.527  1.00  0.00     0.135 A 
ATOM     79  C   UNL     1      11.370   1.576  12.482  1.00  0.00     0.135 A 
ATOM     80  F   UNL     1       8.242   0.400  13.924  1.00  0.00    -0.206 F 
ATOM     81  C   UNL     1       9.088   2.578  13.727  1.00  0.00     0.059 A 
ATOM     82  C   UNL     1      11.256   2.946  12.700  1.00  0.00     0.059 A 
ATOM     83  F   UNL     1      12.474   1.125  11.866  1.00  0.00    -0.206 F 
ATOM     84  C   UNL     1      10.104   3.439  13.311  1.00  0.00     0.060 A 
BRANCH  84  85
ATOM     85  S   UNL     1       9.899   5.211  13.588  1.00  0.00     0.124 S 
ATOM     86  O   UNL     1       8.857   5.537  12.618  1.00  0.00    -0.237 OA
ATOM     87  O   UNL     1       9.497   5.262  14.990  1.00  0.00    -0.237 OA
ATOM     88  O   UNL     1      11.220   5.757  13.296  1.00  0.00    -0.744 OA
ENDBRANCH  84  85
ENDBRANCH  63  77
BRANCH  64  89
ATOM     89  C   UNL     1      11.394  -9.091  10.956  1.00  0.00     0.058 A 
ATOM     90  C   UNL     1      11.135 -10.077  11.920  1.00  0.00     0.135 A 
ATOM     91  C   UNL     1      11.810  -9.515   9.684  1.00  0.00     0.135 A 
ATOM     92  F   UNL     1      10.740  -9.723  13.152  1.00  0.00    -0.206 F 
ATOM     93  C   UNL     1      11.302 -11.430  11.642  1.00  0.00     0.059 A 
ATOM     94  C   UNL     1      11.955 -10.863   9.373  1.00  0.00     0.059 A 
ATOM     95  F   UNL     1      12.053  -8.613   8.720  1.00  0.00    -0.206 F 
ATOM     96  C   UNL     1      11.710 -11.813  10.363  1.00  0.00     0.060 A 
BRANCH  96  97
ATOM     97  S   UNL     1      11.880 -13.574   9.999  1.00  0.00     0.124 S 
ATOM     98  O   UNL     1      13.080 -13.915  10.753  1.00  0.00    -0.237 OA
ATOM     99  O   UNL     1      10.626 -14.114  10.514  1.00  0.00    -0.237 OA
ATOM    100  O   UNL     1      12.017 -13.603   8.546  1.00  0.00    -0.744 OA
ENDBRANCH  96  97
ENDBRANCH  64  89
BRANCH  76 101
ATOM    101  C   UNL     1      14.690  -4.640  15.194  1.00  0.00     0.058 A 
ATOM    102  C   UNL     1      15.996  -4.902  14.750  1.00  0.00     0.135 A 
ATOM    103  C   UNL     1      14.480  -4.533  16.579  1.00  0.00     0.135 A 
ATOM    104  F   UNL     1      16.253  -5.019  13.437  1.00  0.00    -0.206 F 
ATOM    105  C   UNL     1      17.044  -5.097  15.644  1.00  0.00     0.059 A 
ATOM    106  C   UNL     1      15.520  -4.688  17.490  1.00  0.00     0.059 A 
ATOM    107  F   UNL     1      13.255  -4.269  17.060  1.00  0.00    -0.206 F 
ATOM    108  C   UNL     1      16.794  -4.991  17.013  1.00  0.00     0.060 A 
BRANCH 108 109
ATOM    109  S   UNL     1      18.162  -5.248  18.163  1.00  0.00     0.124 S 
ATOM    110  O   UNL     1      18.350  -6.692  18.077  1.00  0.00    -0.237 OA
ATOM    111  O   UNL     1      19.222  -4.435  17.573  1.00  0.00    -0.237 OA
ATOM    112  O   UNL     1      17.636  -4.757  19.433  1.00  0.00    -0.744 OA
ENDBRANCH 108 109
ENDBRANCH  76 101
ENDBRANCH  50  51
ENDBRANCH  42  45
ENDBRANCH  40  41
ENDBRANCH  39  40
ENDBRANCH  38  39
ENDBRANCH   1  38
TORSDOF 22
