REMARK SMILES O=C(NCCCCCCNC(=O)[C@H]1[C@H]2CC[C@H](CC2)[C@@H]1C(=O)Nc1sc2c(c1C(=O)N1CCCCC1)CCCC2)c1ccc(-c2c3nc(c(-c4c(F)cc(S(=O)(=O)[O-])cc4F)c4ccc([nH]4)c(-c4c(F)cc(S(=O)(=O)[O-])cc4F)c4nc(c(-c5c(F)cc(S(=O)(=O)[O-])cc5F)c5ccc2[nH]5)C=C4)C=C3)cc1
REMARK SMILES IDX 6 1 5 2 4 3 3 4 1 5 2 6 41 8 42 9 106 10 43 11 105 12 44 13
REMARK SMILES IDX 45 14 46 15 99 16 47 17 104 18 98 19 100 20 48 21 103 22
REMARK SMILES IDX 97 23 96 24 49 26 83 27 62 28 82 29 63 30 66 31 81 32 101 33
REMARK SMILES IDX 64 34 65 35 80 37 102 38 67 39 50 40 51 41 60 42 52 43 53 44
REMARK SMILES IDX 59 45 61 46 54 47 55 48 56 49 57 50 58 51 84 52 85 53 94 54
REMARK SMILES IDX 86 55 87 56 93 57 95 58 88 59 89 60 90 61 91 62 92 63 68 64
REMARK SMILES IDX 69 65 78 66 70 67 71 68 77 69 79 70 72 71 73 72 74 73 75 74
REMARK SMILES IDX 76 75 7 76 8 77 9 78 10 79 11 80 12 82 13 83 14 84 20 85
REMARK SMILES IDX 15 86 19 87 17 88 16 89 18 90 21 91 22 92 23 93 24 95 25 96
REMARK SMILES IDX 28 97 26 98 27 99 40 100 37 101 39 102 38 103 29 104 30 105
REMARK SMILES IDX 31 106 32 107 36 108 33 109 35 110 34 111
REMARK H PARENT 3 7 100 25 66 36 10 81 23 94
REMARK Flexibility Score: inf
ROOT
ATOM      1  C   UNL     1       4.258   0.102   3.898  1.00  0.00     0.002 C 
ENDROOT
BRANCH   1   2
ATOM      2  C   UNL     1       4.697   0.770   2.595  1.00  0.00     0.021 C 
BRANCH   2   3
ATOM      3  C   UNL     1       4.466  -0.075   1.349  1.00  0.00     0.116 C 
BRANCH   3   4
ATOM      4  N   UNL     1       3.050  -0.304   1.103  1.00  0.00    -0.352 N 
ATOM      5  O   UNL     1       1.086  -0.076   0.019  1.00  0.00    -0.269 OA
ATOM      6  C   UNL     1       2.312  -0.007  -0.015  1.00  0.00     0.251 C 
ATOM      7  H   UNL     1       2.555  -0.729   1.840  1.00  0.00     0.163 HD
BRANCH   6   8
ATOM      8  C   UNL     1       3.003   0.410  -1.253  1.00  0.00     0.039 A 
ATOM      9  C   UNL     1       4.131  -0.282  -1.702  1.00  0.00     0.014 A 
ATOM     10  C   UNL     1       2.511   1.500  -1.975  1.00  0.00     0.014 A 
ATOM     11  C   UNL     1       4.837   0.187  -2.804  1.00  0.00     0.010 A 
ATOM     12  C   UNL     1       3.175   1.920  -3.130  1.00  0.00     0.010 A 
ATOM     13  C   UNL     1       4.354   1.279  -3.542  1.00  0.00    -0.014 A 
BRANCH  13  14
ATOM     14  C   UNL     1       5.048   1.685  -4.789  1.00  0.00     0.031 A 
ATOM     15  C   UNL     1       5.697   3.033  -4.916  1.00  0.00     0.074 A 
ATOM     16  C   UNL     1       5.069   0.820  -5.822  1.00  0.00     0.049 A 
ATOM     17  N   UNL     1       6.308   3.558  -5.947  1.00  0.00    -0.248 NA
ATOM     18  C   UNL     1       5.645   3.911  -3.737  1.00  0.00     0.031 C 
ATOM     19  C   UNL     1       4.451  -0.509  -5.817  1.00  0.00     0.029 A 
ATOM     20  N   UNL     1       5.620   0.924  -7.073  1.00  0.00    -0.354 N 
ATOM     21  C   UNL     1       6.695   4.833  -5.554  1.00  0.00     0.074 A 
ATOM     22  C   UNL     1       6.227   5.011  -4.195  1.00  0.00     0.031 C 
ATOM     23  C   UNL     1       4.668  -1.100  -6.999  1.00  0.00     0.029 A 
ATOM     24  C   UNL     1       5.384  -0.172  -7.867  1.00  0.00     0.049 A 
ATOM     25  H   UNL     1       6.134   1.708  -7.373  1.00  0.00     0.167 HD
ATOM     26  C   UNL     1       7.379   5.764  -6.263  1.00  0.00     0.037 A 
ATOM     27  C   UNL     1       5.677  -0.398  -9.161  1.00  0.00     0.037 A 
ATOM     28  C   UNL     1       7.840   5.568  -7.615  1.00  0.00     0.049 A 
ATOM     29  C   UNL     1       6.418   0.654  -9.933  1.00  0.00     0.074 A 
ATOM     30  C   UNL     1       8.586   6.427  -8.403  1.00  0.00     0.029 A 
ATOM     31  N   UNL     1       7.584   4.442  -8.386  1.00  0.00    -0.354 N 
ATOM     32  N   UNL     1       6.827   1.833  -9.529  1.00  0.00    -0.248 NA
ATOM     33  C   UNL     1       6.741   0.349 -11.332  1.00  0.00     0.031 C 
ATOM     34  C   UNL     1       8.733   5.845  -9.667  1.00  0.00     0.029 A 
ATOM     35  C   UNL     1       8.130   4.597  -9.651  1.00  0.00     0.049 A 
ATOM     36  H   UNL     1       7.088   3.649  -8.080  1.00  0.00     0.167 HD
ATOM     37  C   UNL     1       7.468   2.407 -10.619  1.00  0.00     0.074 A 
ATOM     38  C   UNL     1       7.404   1.438 -11.696  1.00  0.00     0.031 C 
ATOM     39  C   UNL     1       8.056   3.625 -10.716  1.00  0.00     0.037 A 
BRANCH  26  40
ATOM     40  C   UNL     1       7.642   7.091  -5.601  1.00  0.00     0.058 A 
ATOM     41  C   UNL     1       8.539   7.223  -4.529  1.00  0.00     0.135 A 
ATOM     42  C   UNL     1       6.997   8.253  -6.057  1.00  0.00     0.135 A 
ATOM     43  F   UNL     1       9.178   6.147  -4.044  1.00  0.00    -0.206 F 
ATOM     44  C   UNL     1       8.754   8.449  -3.905  1.00  0.00     0.059 A 
ATOM     45  C   UNL     1       7.218   9.495  -5.467  1.00  0.00     0.059 A 
ATOM     46  F   UNL     1       6.134   8.189  -7.083  1.00  0.00    -0.206 F 
ATOM     47  C   UNL     1       8.082   9.579  -4.377  1.00  0.00     0.060 A 
BRANCH  47  48
ATOM     48  S   UNL     1       8.345  11.155  -3.536  1.00  0.00     0.124 S 
ATOM     49  O   UNL     1       7.602  10.949  -2.296  1.00  0.00    -0.237 OA
ATOM     50  O   UNL     1       9.798  11.200  -3.402  1.00  0.00    -0.237 OA
ATOM     51  O   UNL     1       7.772  12.132  -4.456  1.00  0.00    -0.744 OA
ENDBRANCH  47  48
ENDBRANCH  26  40
BRANCH  27  52
ATOM     52  C   UNL     1       5.240  -1.671  -9.789  1.00  0.00     0.058 A 
ATOM     53  C   UNL     1       6.161  -2.678 -10.107  1.00  0.00     0.135 A 
ATOM     54  C   UNL     1       3.878  -1.934 -10.008  1.00  0.00     0.135 A 
ATOM     55  F   UNL     1       7.473  -2.472  -9.919  1.00  0.00    -0.206 F 
ATOM     56  C   UNL     1       5.747  -3.904 -10.618  1.00  0.00     0.059 A 
ATOM     57  C   UNL     1       3.438  -3.161 -10.492  1.00  0.00     0.059 A 
ATOM     58  F   UNL     1       2.956  -1.008  -9.700  1.00  0.00    -0.206 F 
ATOM     59  C   UNL     1       4.382  -4.140 -10.797  1.00  0.00     0.060 A 
BRANCH  59  60
ATOM     60  S   UNL     1       3.852  -5.765 -11.379  1.00  0.00     0.124 S 
ATOM     61  O   UNL     1       4.247  -5.717 -12.782  1.00  0.00    -0.237 OA
ATOM     62  O   UNL     1       4.627  -6.663 -10.528  1.00  0.00    -0.237 OA
ATOM     63  O   UNL     1       2.414  -5.760 -11.127  1.00  0.00    -0.744 OA
ENDBRANCH  59  60
ENDBRANCH  27  52
BRANCH  39  64
ATOM     64  C   UNL     1       8.704   3.977 -12.026  1.00  0.00     0.058 A 
ATOM     65  C   UNL     1       7.944   4.304 -13.160  1.00  0.00     0.135 A 
ATOM     66  C   UNL     1      10.102   4.054 -12.128  1.00  0.00     0.135 A 
ATOM     67  F   UNL     1       6.604   4.235 -13.119  1.00  0.00    -0.206 F 
ATOM     68  C   UNL     1       8.550   4.687 -14.353  1.00  0.00     0.059 A 
ATOM     69  C   UNL     1      10.728   4.459 -13.303  1.00  0.00     0.059 A 
ATOM     70  F   UNL     1      10.875   3.756 -11.071  1.00  0.00    -0.206 F 
ATOM     71  C   UNL     1       9.942   4.768 -14.412  1.00  0.00     0.060 A 
BRANCH  71  72
ATOM     72  S   UNL     1      10.713   5.322 -15.948  1.00  0.00     0.124 S 
ATOM     73  O   UNL     1      10.528   4.157 -16.807  1.00  0.00    -0.237 OA
ATOM     74  O   UNL     1       9.916   6.496 -16.292  1.00  0.00    -0.237 OA
ATOM     75  O   UNL     1      12.091   5.600 -15.557  1.00  0.00    -0.744 OA
ENDBRANCH  71  72
ENDBRANCH  39  64
ENDBRANCH  13  14
ENDBRANCH   6   8
ENDBRANCH   3   4
ENDBRANCH   2   3
ENDBRANCH   1   2
BRANCH   1  76
ATOM     76  C   UNL     1       4.920  -1.252   4.181  1.00  0.00     0.002 C 
BRANCH  76  77
ATOM     77  C   UNL     1       6.455  -1.239   4.154  1.00  0.00     0.021 C 
BRANCH  77  78
ATOM     78  C   UNL     1       7.080  -0.251   5.139  1.00  0.00     0.116 C 
BRANCH  78  79
ATOM     79  N   UNL     1       6.807  -0.666   6.504  1.00  0.00    -0.356 N 
ATOM     80  C   UNL     1       7.641  -1.246   7.411  1.00  0.00     0.224 C 
ATOM     81  H   UNL     1       5.888  -0.505   6.819  1.00  0.00     0.163 HD
ATOM     82  O   UNL     1       7.140  -1.815   8.382  1.00  0.00    -0.275 OA
BRANCH  80  83
ATOM     83  C   UNL     1       9.143  -1.050   7.268  1.00  0.00     0.094 C 
ATOM     84  C   UNL     1       9.561   0.229   8.048  1.00  0.00     0.002 C 
ATOM     85  C   UNL     1       9.958  -2.301   7.741  1.00  0.00     0.094 C 
ATOM     86  C   UNL     1       9.387   0.030   9.563  1.00  0.00     0.005 C 
ATOM     87  C   UNL     1      11.054   0.479   7.775  1.00  0.00     0.005 C 
ATOM     88  C   UNL     1      10.951  -1.805   8.833  1.00  0.00     0.002 C 
ATOM     89  C   UNL     1      10.134  -1.228  10.006  1.00  0.00     0.005 C 
ATOM     90  C   UNL     1      11.875  -0.713   8.269  1.00  0.00     0.005 C 
BRANCH  85  91
ATOM     91  C   UNL     1      10.585  -2.988   6.497  1.00  0.00     0.229 C 
ATOM     92  O   UNL     1      10.142  -2.762   5.364  1.00  0.00    -0.274 OA
ATOM     93  N   UNL     1      11.657  -3.830   6.571  1.00  0.00    -0.317 N 
ATOM     94  H   UNL     1      12.114  -4.005   5.717  1.00  0.00     0.170 HD
BRANCH  93  95
ATOM     95  C   UNL     1      12.192  -4.470   7.665  1.00  0.00     0.108 A 
ATOM     96  S   UNL     1      11.127  -5.221   8.754  1.00  0.00    -0.122 S 
ATOM     97  C   UNL     1      13.538  -4.669   7.965  1.00  0.00     0.078 A 
ATOM     98  C   UNL     1      12.378  -5.419   9.875  1.00  0.00     0.011 A 
ATOM     99  C   UNL     1      13.630  -5.213   9.316  1.00  0.00    -0.019 A 
ATOM    100  C   UNL     1      12.094  -5.786  11.297  1.00  0.00     0.047 C 
ATOM    101  C   UNL     1      14.861  -5.439  10.142  1.00  0.00     0.037 C 
ATOM    102  C   UNL     1      13.331  -5.528  12.166  1.00  0.00     0.006 C 
ATOM    103  C   UNL     1      14.583  -6.094  11.501  1.00  0.00     0.005 C 
BRANCH  97 104
ATOM    104  C   UNL     1      14.589  -4.161   7.051  1.00  0.00     0.257 C 
ATOM    105  O   UNL     1      14.303  -3.653   5.965  1.00  0.00    -0.269 OA
ATOM    106  N   UNL     1      15.906  -4.139   7.508  1.00  0.00    -0.339 N 
ATOM    107  C   UNL     1      16.661  -2.918   7.259  1.00  0.00     0.120 C 
ATOM    108  C   UNL     1      16.716  -5.348   7.429  1.00  0.00     0.120 C 
ATOM    109  C   UNL     1      17.750  -2.764   8.312  1.00  0.00     0.022 C 
ATOM    110  C   UNL     1      17.880  -5.296   8.424  1.00  0.00     0.022 C 
ATOM    111  C   UNL     1      18.668  -3.987   8.340  1.00  0.00     0.004 C 
ENDBRANCH  97 104
ENDBRANCH  93  95
ENDBRANCH  85  91
ENDBRANCH  80  83
ENDBRANCH  78  79
ENDBRANCH  77  78
ENDBRANCH  76  77
ENDBRANCH   1  76
TORSDOF 19
