REMARK SMILES Cc1cc2c(cc1C)/C(=C/C(=O)NCCCCCCNC(=O)c1ccc(-c3c4nc(c(-c5c(F)cc(S(=O)(=O)[O-])cc5F)c5ccc([nH]5)c(-c5c(F)cc(S(=O)(=O)[O-])cc5F)c5nc(c(-c6c(F)cc(S(=O)(=O)[O-])cc6F)c6ccc3[nH]6)C=C5)C=C4)cc1)CO2
REMARK SMILES IDX 18 1 17 2 16 3 15 4 14 5 13 6 11 7 12 8 10 10 1 11 2 12 3 13
REMARK SMILES IDX 7 14 4 15 6 16 8 17 5 18 90 19 9 20 89 21 19 22 20 23 21 24
REMARK SMILES IDX 22 26 23 27 24 28 88 29 25 30 87 31 26 32 27 33 28 34 81 35
REMARK SMILES IDX 29 36 86 37 80 38 82 39 30 40 85 41 79 42 78 43 31 45 65 46
REMARK SMILES IDX 44 47 64 48 45 49 48 50 63 51 83 52 46 53 47 54 62 56 84 57
REMARK SMILES IDX 49 58 32 59 33 60 42 61 34 62 35 63 41 64 43 65 36 66 37 67
REMARK SMILES IDX 38 68 39 69 40 70 66 71 67 72 76 73 68 74 69 75 75 76 77 77
REMARK SMILES IDX 70 78 71 79 72 80 73 81 74 82 50 83 51 84 60 85 52 86 53 87
REMARK SMILES IDX 59 88 61 89 54 90 55 91 56 92 57 93 58 94
REMARK H PARENT 13 9 20 25 82 44 48 55
REMARK Flexibility Score: inf
ROOT
ATOM      1  C   UNL     1       0.532   9.237  -5.958  1.00  0.00     0.021 C 
ENDROOT
BRANCH   1   2
ATOM      2  C   UNL     1       0.684   8.497  -7.289  1.00  0.00     0.002 C 
BRANCH   2   3
ATOM      3  C   UNL     1       1.733   7.379  -7.311  1.00  0.00     0.002 C 
BRANCH   3   4
ATOM      4  C   UNL     1       1.651   6.375  -6.159  1.00  0.00     0.021 C 
BRANCH   4   5
ATOM      5  C   UNL     1       0.282   5.731  -5.979  1.00  0.00     0.116 C 
BRANCH   5   6
ATOM      6  N   UNL     1       0.001   4.739  -7.001  1.00  0.00    -0.353 N 
ATOM      7  C   UNL     1      -0.532   3.498  -6.807  1.00  0.00     0.244 C 
ATOM      8  O   UNL     1      -0.804   2.750  -7.737  1.00  0.00    -0.270 OA
ATOM      9  H   UNL     1       0.216   4.988  -7.929  1.00  0.00     0.163 HD
BRANCH   7  10
ATOM     10  C   UNL     1      -0.718   3.103  -5.401  1.00  0.00     0.079 C 
ATOM     11  C   UNL     1       1.236  -0.064   0.208  1.00  0.00     0.045 C 
ATOM     12  C   UNL     1       0.943   0.722  -1.040  1.00  0.00    -0.044 A 
ATOM     13  C   UNL     1       1.404   0.196  -2.259  1.00  0.00     0.050 A 
ATOM     14  C   UNL     1       0.302   1.990  -1.022  1.00  0.00    -0.047 A 
ATOM     15  C   UNL     1       1.165   0.906  -3.413  1.00  0.00     0.127 A 
ATOM     16  C   UNL     1      -0.057   2.609  -2.238  1.00  0.00     0.016 A 
ATOM     17  C   UNL     1       0.162   2.803   0.240  1.00  0.00     0.044 C 
ATOM     18  C   UNL     1       0.359   2.031  -3.423  1.00  0.00     0.024 A 
ATOM     19  O   UNL     1       1.734   0.605  -4.630  1.00  0.00    -0.488 OA
ATOM     20  C   UNL     1       0.284   2.452  -4.801  1.00  0.00     0.006 C 
ATOM     21  C   UNL     1       1.496   1.810  -5.407  1.00  0.00     0.266 C 
ENDBRANCH   7  10
ENDBRANCH   5   6
ENDBRANCH   4   5
ENDBRANCH   3   4
ENDBRANCH   2   3
ENDBRANCH   1   2
BRANCH   1  22
ATOM     22  C   UNL     1       1.803   9.898  -5.440  1.00  0.00     0.116 C 
BRANCH  22  23
ATOM     23  N   UNL     1       2.254  10.983  -6.296  1.00  0.00    -0.352 N 
ATOM     24  C   UNL     1       2.618  12.261  -5.946  1.00  0.00     0.251 C 
ATOM     25  H   UNL     1       2.307  10.773  -7.256  1.00  0.00     0.163 HD
ATOM     26  O   UNL     1       2.823  13.104  -6.815  1.00  0.00    -0.269 OA
BRANCH  24  27
ATOM     27  C   UNL     1       2.728  12.622  -4.515  1.00  0.00     0.039 A 
ATOM     28  C   UNL     1       3.394  11.781  -3.621  1.00  0.00     0.014 A 
ATOM     29  C   UNL     1       2.133  13.802  -4.059  1.00  0.00     0.014 A 
ATOM     30  C   UNL     1       3.332  12.040  -2.256  1.00  0.00     0.010 A 
ATOM     31  C   UNL     1       2.142  14.101  -2.693  1.00  0.00     0.010 A 
ATOM     32  C   UNL     1       2.702  13.200  -1.775  1.00  0.00    -0.014 A 
BRANCH  32  33
ATOM     33  C   UNL     1       2.644  13.440  -0.309  1.00  0.00     0.031 A 
ATOM     34  C   UNL     1       1.327  13.439   0.421  1.00  0.00     0.074 A 
ATOM     35  C   UNL     1       3.795  13.592   0.376  1.00  0.00     0.049 A 
ATOM     36  N   UNL     1       1.096  13.586   1.702  1.00  0.00    -0.248 NA
ATOM     37  C   UNL     1       0.111  13.251  -0.386  1.00  0.00     0.031 C 
ATOM     38  C   UNL     1       5.133  13.604  -0.221  1.00  0.00     0.029 A 
ATOM     39  N   UNL     1       4.031  13.732   1.720  1.00  0.00    -0.354 N 
ATOM     40  C   UNL     1      -0.284  13.522   1.852  1.00  0.00     0.074 A 
ATOM     41  C   UNL     1      -0.844  13.352   0.529  1.00  0.00     0.031 C 
ATOM     42  C   UNL     1       6.049  13.680   0.755  1.00  0.00     0.029 A 
ATOM     43  C   UNL     1       5.367  13.783   2.041  1.00  0.00     0.049 A 
ATOM     44  H   UNL     1       3.313  13.789   2.391  1.00  0.00     0.167 HD
ATOM     45  C   UNL     1      -1.016  13.582   2.991  1.00  0.00     0.037 A 
ATOM     46  C   UNL     1       5.978  13.905   3.235  1.00  0.00     0.037 A 
ATOM     47  C   UNL     1      -0.453  13.729   4.308  1.00  0.00     0.049 A 
ATOM     48  C   UNL     1       5.142  14.008   4.478  1.00  0.00     0.074 A 
ATOM     49  C   UNL     1      -1.113  13.783   5.524  1.00  0.00     0.029 A 
ATOM     50  N   UNL     1       0.902  13.841   4.585  1.00  0.00    -0.354 N 
ATOM     51  N   UNL     1       3.838  13.944   4.599  1.00  0.00    -0.248 NA
ATOM     52  C   UNL     1       5.857  14.215   5.745  1.00  0.00     0.031 C 
ATOM     53  C   UNL     1      -0.160  13.964   6.532  1.00  0.00     0.029 A 
ATOM     54  C   UNL     1       1.097  13.983   5.949  1.00  0.00     0.049 A 
ATOM     55  H   UNL     1       1.619  13.823   3.910  1.00  0.00     0.167 HD
ATOM     56  C   UNL     1       3.575  14.098   5.954  1.00  0.00     0.074 A 
ATOM     57  C   UNL     1       4.857  14.238   6.616  1.00  0.00     0.031 C 
ATOM     58  C   UNL     1       2.379  14.127   6.591  1.00  0.00     0.037 A 
BRANCH  45  59
ATOM     59  C   UNL     1      -2.513  13.493   2.869  1.00  0.00     0.058 A 
ATOM     60  C   UNL     1      -3.154  12.278   2.580  1.00  0.00     0.135 A 
ATOM     61  C   UNL     1      -3.318  14.620   3.099  1.00  0.00     0.135 A 
ATOM     62  F   UNL     1      -2.432  11.173   2.337  1.00  0.00    -0.206 F 
ATOM     63  C   UNL     1      -4.540  12.188   2.507  1.00  0.00     0.059 A 
ATOM     64  C   UNL     1      -4.707  14.549   3.051  1.00  0.00     0.059 A 
ATOM     65  F   UNL     1      -2.755  15.807   3.378  1.00  0.00    -0.206 F 
ATOM     66  C   UNL     1      -5.309  13.329   2.744  1.00  0.00     0.060 A 
BRANCH  66  67
ATOM     67  S   UNL     1      -7.107  13.189   2.653  1.00  0.00     0.124 S 
ATOM     68  O   UNL     1      -7.312  13.034   1.216  1.00  0.00    -0.237 OA
ATOM     69  O   UNL     1      -7.368  12.002   3.461  1.00  0.00    -0.237 OA
ATOM     70  O   UNL     1      -7.576  14.448   3.221  1.00  0.00    -0.744 OA
ENDBRANCH  66  67
ENDBRANCH  45  59
BRANCH  46  71
ATOM     71  C   UNL     1       7.462  13.931   3.301  1.00  0.00     0.058 A 
ATOM     72  C   UNL     1       8.178  12.846   3.825  1.00  0.00     0.135 A 
ATOM     73  C   UNL     1       8.193  15.019   2.799  1.00  0.00     0.135 A 
ATOM     74  F   UNL     1       7.523  11.787   4.323  1.00  0.00    -0.206 F 
ATOM     75  C   UNL     1       9.569  12.837   3.849  1.00  0.00     0.059 A 
ATOM     76  C   UNL     1       9.584  15.023   2.790  1.00  0.00     0.059 A 
ATOM     77  F   UNL     1       7.552  16.075   2.274  1.00  0.00    -0.206 F 
ATOM     78  C   UNL     1      10.263  13.928   3.322  1.00  0.00     0.060 A 
BRANCH  78  79
ATOM     79  S   UNL     1      12.068  13.873   3.290  1.00  0.00     0.124 S 
ATOM     80  O   UNL     1      12.392  14.077   4.697  1.00  0.00    -0.237 OA
ATOM     81  O   UNL     1      12.324  12.536   2.763  1.00  0.00    -0.237 OA
ATOM     82  O   UNL     1      12.421  14.970   2.394  1.00  0.00    -0.744 OA
ENDBRANCH  78  79
ENDBRANCH  46  71
BRANCH  58  83
ATOM     83  C   UNL     1       2.393  14.316   8.081  1.00  0.00     0.058 A 
ATOM     84  C   UNL     1       2.643  15.573   8.652  1.00  0.00     0.135 A 
ATOM     85  C   UNL     1       2.082  13.251   8.940  1.00  0.00     0.135 A 
ATOM     86  F   UNL     1       2.954  16.620   7.873  1.00  0.00    -0.206 F 
ATOM     87  C   UNL     1       2.591  15.766  10.029  1.00  0.00     0.059 A 
ATOM     88  C   UNL     1       2.002  13.426  10.318  1.00  0.00     0.059 A 
ATOM     89  F   UNL     1       1.828  12.031   8.440  1.00  0.00    -0.206 F 
ATOM     90  C   UNL     1       2.264  14.687  10.853  1.00  0.00     0.060 A 
BRANCH  90  91
ATOM     91  S   UNL     1       2.146  14.966  12.633  1.00  0.00     0.124 S 
ATOM     92  O   UNL     1       3.551  15.109  13.002  1.00  0.00    -0.237 OA
ATOM     93  O   UNL     1       1.345  16.184  12.705  1.00  0.00    -0.237 OA
ATOM     94  O   UNL     1       1.488  13.759  13.123  1.00  0.00    -0.744 OA
ENDBRANCH  90  91
ENDBRANCH  58  83
ENDBRANCH  32  33
ENDBRANCH  24  27
ENDBRANCH  22  23
ENDBRANCH   1  22
TORSDOF 16
