REMARK SMILES COC(=O)[C@H]1CCN(S(=O)(=O)N2CCC[C@H](C(=O)NCCCCCCNC(=O)c3ccc(-c4c5nc(c(-c6c(F)cc(S(=O)(=O)[O-])cc6F)c6ccc([nH]6)c(-c6c(F)cc(S(=O)(=O)[O-])cc6F)c6nc(c(-c7c(F)cc(S(=O)(=O)[O-])cc7F)c7ccc4[nH]7)C=C6)C=C5)cc3)C2)C1
REMARK SMILES IDX 22 1 21 2 20 3 19 4 17 5 18 6 16 8 12 9 13 10 95 11 14 12
REMARK SMILES IDX 15 13 9 14 10 15 11 16 8 17 5 18 6 19 96 20 7 21 3 22 4 23
REMARK SMILES IDX 2 24 1 25 23 26 24 27 25 28 26 29 27 30 28 32 29 33 30 34
REMARK SMILES IDX 94 35 31 36 93 37 32 38 33 39 34 40 87 41 35 42 92 43 86 44
REMARK SMILES IDX 88 45 36 46 91 47 85 48 84 49 37 51 71 52 50 53 70 54 51 55
REMARK SMILES IDX 54 56 69 57 89 58 52 59 53 60 68 62 90 63 55 64 38 65 39 66
REMARK SMILES IDX 48 67 40 68 41 69 47 70 49 71 42 72 43 73 44 74 45 75 46 76
REMARK SMILES IDX 72 77 73 78 82 79 74 80 75 81 81 82 83 83 76 84 77 85 78 86
REMARK SMILES IDX 79 87 80 88 56 89 57 90 66 91 58 92 59 93 65 94 67 95 60 96
REMARK SMILES IDX 61 97 62 98 63 99 64 100
REMARK H PARENT 19 7 26 31 88 50 54 61
REMARK Flexibility Score: inf
ROOT
ATOM      1  C   UNL     1      -4.290 -11.717   2.739  1.00  0.00     0.002 C 
ENDROOT
BRANCH   1   2
ATOM      2  C   UNL     1      -3.353 -11.094   1.705  1.00  0.00     0.021 C 
BRANCH   2   3
ATOM      3  C   UNL     1      -2.282 -10.198   2.318  1.00  0.00     0.116 C 
BRANCH   3   4
ATOM      4  N   UNL     1      -1.085 -10.939   2.639  1.00  0.00    -0.356 N 
ATOM      5  C   UNL     1       0.171 -10.881   2.139  1.00  0.00     0.224 C 
ATOM      6  O   UNL     1       0.999 -11.647   2.651  1.00  0.00    -0.275 OA
ATOM      7  H   UNL     1      -1.204 -11.608   3.352  1.00  0.00     0.163 HD
BRANCH   5   8
ATOM      8  C   UNL     1       0.621  -9.952   1.010  1.00  0.00     0.094 C 
ATOM      9  N   UNL     1      -0.626  -7.803   0.990  1.00  0.00    -0.188 NA
ATOM     10  C   UNL     1      -1.060  -7.940  -0.410  1.00  0.00     0.103 C 
ATOM     11  C   UNL     1       0.627  -8.474   1.360  1.00  0.00     0.117 C 
ATOM     12  C   UNL     1      -1.114  -9.412  -0.828  1.00  0.00     0.018 C 
ATOM     13  C   UNL     1       0.090 -10.241  -0.393  1.00  0.00     0.016 C 
BRANCH   9  14
ATOM     14  S   UNL     1      -1.134  -6.464   1.865  1.00  0.00     0.282 S 
ATOM     15  O   UNL     1      -0.520  -6.505   3.168  1.00  0.00    -0.195 OA
ATOM     16  O   UNL     1      -2.570  -6.380   1.715  1.00  0.00    -0.195 OA
BRANCH  14  17
ATOM     17  N   UNL     1      -0.455  -5.175   1.002  1.00  0.00    -0.188 NA
ATOM     18  C   UNL     1       0.362  -3.082   1.949  1.00  0.00     0.116 C 
ATOM     19  C   UNL     1       1.445  -4.144   1.984  1.00  0.00     0.033 C 
ATOM     20  C   UNL     1      -0.905  -3.829   1.526  1.00  0.00     0.118 C 
ATOM     21  C   UNL     1       1.016  -5.097   0.898  1.00  0.00     0.104 C 
BRANCH  18  22
ATOM     22  C   UNL     1       0.248  -2.435   3.306  1.00  0.00     0.310 C 
ATOM     23  O   UNL     1      -0.585  -2.701   4.157  1.00  0.00    -0.252 OA
BRANCH  22  24
ATOM     24  O   UNL     1       1.273  -1.546   3.467  1.00  0.00    -0.469 OA
ATOM     25  C   UNL     1       1.288  -0.914   4.747  1.00  0.00     0.282 C 
ENDBRANCH  22  24
ENDBRANCH  18  22
ENDBRANCH  14  17
ENDBRANCH   9  14
ENDBRANCH   5   8
ENDBRANCH   3   4
ENDBRANCH   2   3
ENDBRANCH   1   2
BRANCH   1  26
ATOM     26  C   UNL     1      -5.082 -10.703   3.576  1.00  0.00     0.002 C 
BRANCH  26  27
ATOM     27  C   UNL     1      -5.877  -9.669   2.771  1.00  0.00     0.021 C 
BRANCH  27  28
ATOM     28  C   UNL     1      -6.868 -10.266   1.775  1.00  0.00     0.116 C 
BRANCH  28  29
ATOM     29  N   UNL     1      -7.805 -11.171   2.426  1.00  0.00    -0.352 N 
ATOM     30  C   UNL     1      -9.164 -11.065   2.573  1.00  0.00     0.251 C 
ATOM     31  H   UNL     1      -7.403 -11.979   2.819  1.00  0.00     0.163 HD
ATOM     32  O   UNL     1      -9.755 -11.787   3.370  1.00  0.00    -0.269 OA
BRANCH  30  33
ATOM     33  C   UNL     1      -9.910 -10.073   1.773  1.00  0.00     0.039 A 
ATOM     34  C   UNL     1     -10.852  -9.261   2.407  1.00  0.00     0.014 A 
ATOM     35  C   UNL     1      -9.672  -9.944   0.402  1.00  0.00     0.014 A 
ATOM     36  C   UNL     1     -11.499  -8.262   1.679  1.00  0.00     0.010 A 
ATOM     37  C   UNL     1     -10.269  -8.906  -0.307  1.00  0.00     0.010 A 
ATOM     38  C   UNL     1     -11.176  -8.045   0.328  1.00  0.00    -0.014 A 
BRANCH  38  39
ATOM     39  C   UNL     1     -11.720  -6.878  -0.412  1.00  0.00     0.031 A 
ATOM     40  C   UNL     1     -12.606  -7.077  -1.610  1.00  0.00     0.074 A 
ATOM     41  C   UNL     1     -11.336  -5.638  -0.046  1.00  0.00     0.049 A 
ATOM     42  N   UNL     1     -13.097  -6.181  -2.426  1.00  0.00    -0.248 NA
ATOM     43  C   UNL     1     -12.971  -8.462  -1.950  1.00  0.00     0.031 C 
ATOM     44  C   UNL     1     -10.434  -5.328   1.067  1.00  0.00     0.029 A 
ATOM     45  N   UNL     1     -11.633  -4.408  -0.580  1.00  0.00    -0.354 N 
ATOM     46  C   UNL     1     -13.814  -6.890  -3.383  1.00  0.00     0.074 A 
ATOM     47  C   UNL     1     -13.668  -8.294  -3.066  1.00  0.00     0.031 C 
ATOM     48  C   UNL     1     -10.257  -4.000   1.136  1.00  0.00     0.029 A 
ATOM     49  C   UNL     1     -10.988  -3.365   0.045  1.00  0.00     0.049 A 
ATOM     50  H   UNL     1     -12.248  -4.284  -1.338  1.00  0.00     0.167 HD
ATOM     51  C   UNL     1     -14.535  -6.407  -4.422  1.00  0.00     0.037 A 
ATOM     52  C   UNL     1     -10.960  -2.049  -0.245  1.00  0.00     0.037 A 
ATOM     53  C   UNL     1     -14.691  -5.003  -4.710  1.00  0.00     0.049 A 
ATOM     54  C   UNL     1     -11.760  -1.545  -1.417  1.00  0.00     0.074 A 
ATOM     55  C   UNL     1     -15.478  -4.412  -5.683  1.00  0.00     0.029 A 
ATOM     56  N   UNL     1     -14.039  -3.976  -4.045  1.00  0.00    -0.354 N 
ATOM     57  N   UNL     1     -12.521  -2.220  -2.245  1.00  0.00    -0.248 NA
ATOM     58  C   UNL     1     -11.698  -0.104  -1.698  1.00  0.00     0.031 C 
ATOM     59  C   UNL     1     -15.248  -3.034  -5.653  1.00  0.00     0.029 A 
ATOM     60  C   UNL     1     -14.367  -2.759  -4.620  1.00  0.00     0.049 A 
ATOM     61  H   UNL     1     -13.433  -4.094  -3.278  1.00  0.00     0.167 HD
ATOM     62  C   UNL     1     -13.036  -1.285  -3.136  1.00  0.00     0.074 A 
ATOM     63  C   UNL     1     -12.526   0.006  -2.728  1.00  0.00     0.031 C 
ATOM     64  C   UNL     1     -13.850  -1.480  -4.203  1.00  0.00     0.037 A 
BRANCH  51  65
ATOM     65  C   UNL     1     -15.214  -7.386  -5.340  1.00  0.00     0.058 A 
ATOM     66  C   UNL     1     -16.344  -8.115  -4.939  1.00  0.00     0.135 A 
ATOM     67  C   UNL     1     -14.790  -7.515  -6.673  1.00  0.00     0.135 A 
ATOM     68  F   UNL     1     -16.784  -8.041  -3.673  1.00  0.00    -0.206 F 
ATOM     69  C   UNL     1     -17.029  -8.940  -5.827  1.00  0.00     0.059 A 
ATOM     70  C   UNL     1     -15.476  -8.312  -7.585  1.00  0.00     0.059 A 
ATOM     71  F   UNL     1     -13.713  -6.842  -7.108  1.00  0.00    -0.206 F 
ATOM     72  C   UNL     1     -16.593  -9.023  -7.151  1.00  0.00     0.060 A 
BRANCH  72  73
ATOM     73  S   UNL     1     -17.528 -10.053  -8.302  1.00  0.00     0.124 S 
ATOM     74  O   UNL     1     -17.222 -11.393  -7.810  1.00  0.00    -0.237 OA
ATOM     75  O   UNL     1     -18.897  -9.595  -8.085  1.00  0.00    -0.237 OA
ATOM     76  O   UNL     1     -16.957  -9.718  -9.603  1.00  0.00    -0.744 OA
ENDBRANCH  72  73
ENDBRANCH  51  65
BRANCH  52  77
ATOM     77  C   UNL     1     -10.120  -1.120   0.560  1.00  0.00     0.058 A 
ATOM     78  C   UNL     1     -10.697  -0.117   1.353  1.00  0.00     0.135 A 
ATOM     79  C   UNL     1      -8.719  -1.203   0.535  1.00  0.00     0.135 A 
ATOM     80  F   UNL     1     -12.032   0.010   1.408  1.00  0.00    -0.206 F 
ATOM     81  C   UNL     1      -9.917   0.792   2.062  1.00  0.00     0.059 A 
ATOM     82  C   UNL     1      -7.918  -0.329   1.262  1.00  0.00     0.059 A 
ATOM     83  F   UNL     1      -8.113  -2.153  -0.196  1.00  0.00    -0.206 F 
ATOM     84  C   UNL     1      -8.527   0.679   2.008  1.00  0.00     0.060 A 
BRANCH  84  85
ATOM     85  S   UNL     1      -7.523   1.863   2.930  1.00  0.00     0.124 S 
ATOM     86  O   UNL     1      -7.718   3.081   2.152  1.00  0.00    -0.237 OA
ATOM     87  O   UNL     1      -8.153   1.838   4.247  1.00  0.00    -0.237 OA
ATOM     88  O   UNL     1      -6.183   1.286   2.872  1.00  0.00    -0.744 OA
ENDBRANCH  84  85
ENDBRANCH  52  77
BRANCH  64  89
ATOM     89  C   UNL     1     -14.246  -0.270  -5.005  1.00  0.00     0.058 A 
ATOM     90  C   UNL     1     -13.329   0.388  -5.838  1.00  0.00     0.135 A 
ATOM     91  C   UNL     1     -15.573   0.191  -4.997  1.00  0.00     0.135 A 
ATOM     92  F   UNL     1     -12.046  -0.006  -5.876  1.00  0.00    -0.206 F 
ATOM     93  C   UNL     1     -13.709   1.469  -6.626  1.00  0.00     0.059 A 
ATOM     94  C   UNL     1     -15.982   1.250  -5.800  1.00  0.00     0.059 A 
ATOM     95  F   UNL     1     -16.492  -0.407  -4.223  1.00  0.00    -0.206 F 
ATOM     96  C   UNL     1     -15.041   1.887  -6.607  1.00  0.00     0.060 A 
BRANCH  96  97
ATOM     97  S   UNL     1     -15.529   3.254  -7.680  1.00  0.00     0.124 S 
ATOM     98  O   UNL     1     -14.880   4.387  -7.029  1.00  0.00    -0.237 OA
ATOM     99  O   UNL     1     -14.966   2.855  -8.966  1.00  0.00    -0.237 OA
ATOM    100  O   UNL     1     -16.987   3.240  -7.608  1.00  0.00    -0.744 OA
ENDBRANCH  96  97
ENDBRANCH  64  89
ENDBRANCH  38  39
ENDBRANCH  30  33
ENDBRANCH  28  29
ENDBRANCH  27  28
ENDBRANCH  26  27
ENDBRANCH   1  26
TORSDOF 20
