REMARK SMILES NS(=O)(=O)c1ccc(-n2nc(NC(=O)NCCCC(=O)NCCCCCCNC(=O)c3ccc(-c4c5nc(c(-c6c(F)cc(S(=O)(=O)[O-])cc6F)c6ccc([nH]6)c(-c6c(F)cc(S(=O)(=O)[O-])cc6F)c6nc(c(-c7c(F)cc(S(=O)(=O)[O-])cc7F)c7ccc4[nH]7)C=C6)C=C5)cc3)cc2-c2ccccc2)cc1
REMARK SMILES IDX 22 1 21 2 19 3 20 4 18 6 17 7 16 8 15 9 12 10 13 11 14 13
REMARK SMILES IDX 11 15 9 16 10 17 98 18 97 19 8 20 5 21 6 22 106 23 7 24
REMARK SMILES IDX 105 25 2 26 3 27 4 28 1 29 99 32 100 33 104 34 101 35 103 36
REMARK SMILES IDX 102 37 23 38 24 39 25 40 26 41 27 42 28 43 29 44 30 46 31 47
REMARK SMILES IDX 32 48 96 49 33 50 95 51 34 52 35 53 36 54 89 55 37 56 94 57
REMARK SMILES IDX 88 58 90 59 38 60 93 61 87 62 86 63 39 65 73 66 52 67 72 68
REMARK SMILES IDX 53 69 56 70 71 71 91 72 54 73 55 74 70 76 92 77 57 78 40 79
REMARK SMILES IDX 41 80 50 81 42 82 43 83 49 84 51 85 44 86 45 87 46 88 47 89
REMARK SMILES IDX 48 90 74 91 75 92 84 93 76 94 77 95 83 96 85 97 78 98 79 99
REMARK SMILES IDX 80 100 81 101 82 102 58 103 59 104 68 105 60 106 61 107
REMARK SMILES IDX 67 108 69 109 62 110 63 111 64 112 65 113 66 114
REMARK H PARENT 21 5 12 12 15 14 1 30 1 31 28 45 90 64 56 75
REMARK Flexibility Score: inf
ROOT
ATOM      1  C   UNL     1       3.609   5.697  -3.667  1.00  0.00     0.116 C 
ENDROOT
BRANCH   1   2
ATOM      2  N   UNL     1       3.884   4.710  -2.636  1.00  0.00    -0.356 N 
ATOM      3  C   UNL     1       4.826   3.727  -2.598  1.00  0.00     0.220 C 
ATOM      4  O   UNL     1       4.769   2.894  -1.691  1.00  0.00    -0.275 OA
ATOM      5  H   UNL     1       3.300   4.760  -1.845  1.00  0.00     0.163 HD
BRANCH   3   6
ATOM      6  C   UNL     1       5.949   3.692  -3.620  1.00  0.00     0.102 C 
BRANCH   6   7
ATOM      7  C   UNL     1       5.747   2.678  -4.746  1.00  0.00     0.031 C 
BRANCH   7   8
ATOM      8  C   UNL     1       4.677   3.048  -5.767  1.00  0.00     0.118 C 
BRANCH   8   9
ATOM      9  N   UNL     1       4.939   4.263  -6.522  1.00  0.00    -0.338 N 
ATOM     10  N   UNL     1       3.371   4.149  -8.318  1.00  0.00    -0.291 N 
ATOM     11  C   UNL     1       4.366   4.764  -7.642  1.00  0.00     0.320 C 
ATOM     12  H   UNL     1       3.289   4.414  -9.262  1.00  0.00     0.173 HD
ATOM     13  O   UNL     1       4.878   5.782  -8.121  1.00  0.00    -0.248 OA
ATOM     14  H   UNL     1       5.661   4.821  -6.153  1.00  0.00     0.165 HD
BRANCH  10  15
ATOM     15  C   UNL     1       2.455   3.214  -7.901  1.00  0.00     0.157 A 
ATOM     16  N   UNL     1       1.478   1.884  -6.589  1.00  0.00    -0.231 N 
ATOM     17  N   UNL     1       1.973   3.135  -6.661  1.00  0.00    -0.149 NA
ATOM     18  C   UNL     1       1.262   1.349  -7.848  1.00  0.00     0.076 A 
ATOM     19  C   UNL     1       1.866   2.228  -8.727  1.00  0.00     0.078 A 
BRANCH  16  20
ATOM     20  C   UNL     1       1.362   1.230  -5.335  1.00  0.00     0.065 A 
ATOM     21  C   UNL     1       0.923  -0.157  -2.970  1.00  0.00     0.082 A 
ATOM     22  C   UNL     1       1.604  -0.786  -4.012  1.00  0.00     0.024 A 
ATOM     23  C   UNL     1       0.505   1.175  -3.083  1.00  0.00     0.024 A 
ATOM     24  C   UNL     1       1.829  -0.086  -5.192  1.00  0.00     0.030 A 
ATOM     25  C   UNL     1       0.736   1.879  -4.267  1.00  0.00     0.030 A 
BRANCH  21  26
ATOM     26  S   UNL     1       0.567  -1.073  -1.506  1.00  0.00     0.238 S 
ATOM     27  O   UNL     1       1.335  -2.286  -1.482  1.00  0.00    -0.207 OA
ATOM     28  O   UNL     1      -0.867  -1.046  -1.279  1.00  0.00    -0.207 OA
BRANCH  26  29
ATOM     29  N   UNL     1       1.234  -0.109  -0.303  1.00  0.00    -0.225 NA
ATOM     30  H   UNL     1       1.085  -0.548   0.606  1.00  0.00     0.137 HD
ATOM     31  H   UNL     1       0.787   0.808  -0.315  1.00  0.00     0.137 HD
ENDBRANCH  26  29
ENDBRANCH  21  26
ENDBRANCH  16  20
BRANCH  18  32
ATOM     32  C   UNL     1       0.595   0.064  -8.015  1.00  0.00     0.000 A 
ATOM     33  C   UNL     1      -0.685  -0.115  -7.468  1.00  0.00     0.010 A 
ATOM     34  C   UNL     1       1.313  -1.045  -8.466  1.00  0.00     0.010 A 
ATOM     35  C   UNL     1      -1.217  -1.393  -7.313  1.00  0.00     0.001 A 
ATOM     36  C   UNL     1       0.788  -2.326  -8.284  1.00  0.00     0.001 A 
ATOM     37  C   UNL     1      -0.471  -2.500  -7.707  1.00  0.00     0.000 A 
ENDBRANCH  18  32
ENDBRANCH  10  15
ENDBRANCH   8   9
ENDBRANCH   7   8
ENDBRANCH   6   7
ENDBRANCH   3   6
ENDBRANCH   1   2
BRANCH   1  38
ATOM     38  C   UNL     1       2.257   5.426  -4.322  1.00  0.00     0.021 C 
BRANCH  38  39
ATOM     39  C   UNL     1       1.051   6.011  -3.587  1.00  0.00     0.002 C 
BRANCH  39  40
ATOM     40  C   UNL     1       1.008   7.542  -3.526  1.00  0.00     0.002 C 
BRANCH  40  41
ATOM     41  C   UNL     1       1.111   8.273  -4.872  1.00  0.00     0.021 C 
BRANCH  41  42
ATOM     42  C   UNL     1      -0.062   8.011  -5.809  1.00  0.00     0.116 C 
BRANCH  42  43
ATOM     43  N   UNL     1      -1.311   8.552  -5.279  1.00  0.00    -0.352 N 
ATOM     44  C   UNL     1      -2.575   8.489  -5.824  1.00  0.00     0.251 C 
ATOM     45  H   UNL     1      -1.240   9.024  -4.418  1.00  0.00     0.163 HD
ATOM     46  O   UNL     1      -3.437   9.286  -5.469  1.00  0.00    -0.269 OA
BRANCH  44  47
ATOM     47  C   UNL     1      -2.873   7.462  -6.839  1.00  0.00     0.039 A 
ATOM     48  C   UNL     1      -3.675   7.769  -7.940  1.00  0.00     0.014 A 
ATOM     49  C   UNL     1      -2.345   6.180  -6.685  1.00  0.00     0.014 A 
ATOM     50  C   UNL     1      -3.872   6.799  -8.920  1.00  0.00     0.010 A 
ATOM     51  C   UNL     1      -2.440   5.262  -7.709  1.00  0.00     0.010 A 
ATOM     52  C   UNL     1      -3.230   5.551  -8.815  1.00  0.00    -0.014 A 
BRANCH  52  53
ATOM     53  C   UNL     1      -3.310   4.600  -9.921  1.00  0.00     0.031 A 
ATOM     54  C   UNL     1      -2.938   5.161 -11.251  1.00  0.00     0.074 A 
ATOM     55  C   UNL     1      -3.541   3.276  -9.794  1.00  0.00     0.049 A 
ATOM     56  N   UNL     1      -3.723   5.445 -12.236  1.00  0.00    -0.248 NA
ATOM     57  C   UNL     1      -1.544   5.581 -11.460  1.00  0.00     0.031 C 
ATOM     58  C   UNL     1      -3.618   2.457  -8.579  1.00  0.00     0.029 A 
ATOM     59  N   UNL     1      -3.706   2.354 -10.784  1.00  0.00    -0.354 N 
ATOM     60  C   UNL     1      -2.903   5.885 -13.273  1.00  0.00     0.074 A 
ATOM     61  C   UNL     1      -1.606   6.105 -12.686  1.00  0.00     0.031 C 
ATOM     62  C   UNL     1      -3.614   1.145  -8.914  1.00  0.00     0.029 A 
ATOM     63  C   UNL     1      -3.716   1.033 -10.357  1.00  0.00     0.049 A 
ATOM     64  H   UNL     1      -3.810   2.606 -11.730  1.00  0.00     0.167 HD
ATOM     65  C   UNL     1      -3.312   5.834 -14.572  1.00  0.00     0.037 A 
ATOM     66  C   UNL     1      -3.825  -0.078 -11.129  1.00  0.00     0.037 A 
ATOM     67  C   UNL     1      -4.738   5.638 -14.662  1.00  0.00     0.049 A 
ATOM     68  C   UNL     1      -4.398   0.333 -12.427  1.00  0.00     0.074 A 
ATOM     69  C   UNL     1      -5.847   6.343 -14.232  1.00  0.00     0.029 A 
ATOM     70  N   UNL     1      -5.195   4.373 -14.941  1.00  0.00    -0.354 N 
ATOM     71  N   UNL     1      -5.626   0.739 -12.576  1.00  0.00    -0.248 NA
ATOM     72  C   UNL     1      -3.476   0.713 -13.485  1.00  0.00     0.031 C 
ATOM     73  C   UNL     1      -6.773   5.348 -13.799  1.00  0.00     0.029 A 
ATOM     74  C   UNL     1      -6.202   4.100 -14.050  1.00  0.00     0.049 A 
ATOM     75  H   UNL     1      -4.861   3.774 -15.647  1.00  0.00     0.167 HD
ATOM     76  C   UNL     1      -5.541   1.774 -13.492  1.00  0.00     0.074 A 
ATOM     77  C   UNL     1      -4.211   1.652 -14.085  1.00  0.00     0.031 C 
ATOM     78  C   UNL     1      -6.448   2.792 -13.488  1.00  0.00     0.037 A 
BRANCH  65  79
ATOM     79  C   UNL     1      -2.398   5.618 -15.758  1.00  0.00     0.058 A 
ATOM     80  C   UNL     1      -2.918   5.734 -17.065  1.00  0.00     0.135 A 
ATOM     81  C   UNL     1      -1.114   5.037 -15.668  1.00  0.00     0.135 A 
ATOM     82  F   UNL     1      -4.133   6.265 -17.275  1.00  0.00    -0.206 F 
ATOM     83  C   UNL     1      -2.248   5.240 -18.186  1.00  0.00     0.059 A 
ATOM     84  C   UNL     1      -0.404   4.589 -16.777  1.00  0.00     0.059 A 
ATOM     85  F   UNL     1      -0.524   4.785 -14.493  1.00  0.00    -0.206 F 
ATOM     86  C   UNL     1      -0.996   4.654 -18.028  1.00  0.00     0.060 A 
BRANCH  86  87
ATOM     87  S   UNL     1      -0.174   3.920 -19.453  1.00  0.00     0.124 S 
ATOM     88  O   UNL     1      -1.022   2.763 -19.712  1.00  0.00    -0.237 OA
ATOM     89  O   UNL     1      -0.245   4.999 -20.432  1.00  0.00    -0.237 OA
ATOM     90  O   UNL     1       1.164   3.624 -18.951  1.00  0.00    -0.744 OA
ENDBRANCH  86  87
ENDBRANCH  65  79
BRANCH  66  91
ATOM     91  C   UNL     1      -2.993  -1.295 -11.030  1.00  0.00     0.058 A 
ATOM     92  C   UNL     1      -3.476  -2.575 -11.338  1.00  0.00     0.135 A 
ATOM     93  C   UNL     1      -1.598  -1.151 -10.935  1.00  0.00     0.135 A 
ATOM     94  F   UNL     1      -4.788  -2.765 -11.544  1.00  0.00    -0.206 F 
ATOM     95  C   UNL     1      -2.619  -3.672 -11.490  1.00  0.00     0.059 A 
ATOM     96  C   UNL     1      -0.727  -2.219 -11.120  1.00  0.00     0.059 A 
ATOM     97  F   UNL     1      -1.055   0.062 -10.742  1.00  0.00    -0.206 F 
ATOM     98  C   UNL     1      -1.241  -3.484 -11.374  1.00  0.00     0.060 A 
BRANCH  98  99
ATOM     99  S   UNL     1      -0.118  -4.894 -11.515  1.00  0.00     0.124 S 
ATOM    100  O   UNL     1      -0.797  -5.915 -10.724  1.00  0.00    -0.237 OA
ATOM    101  O   UNL     1      -0.088  -5.114 -12.955  1.00  0.00    -0.237 OA
ATOM    102  O   UNL     1       1.127  -4.399 -10.930  1.00  0.00    -0.744 OA
ENDBRANCH  98  99
ENDBRANCH  66  91
BRANCH  78 103
ATOM    103  C   UNL     1      -7.698   2.620 -12.664  1.00  0.00     0.058 A 
ATOM    104  C   UNL     1      -7.725   2.516 -11.260  1.00  0.00     0.135 A 
ATOM    105  C   UNL     1      -8.932   2.692 -13.323  1.00  0.00     0.135 A 
ATOM    106  F   UNL     1      -6.592   2.532 -10.545  1.00  0.00    -0.206 F 
ATOM    107  C   UNL     1      -8.927   2.453 -10.551  1.00  0.00     0.059 A 
ATOM    108  C   UNL     1     -10.141   2.661 -12.635  1.00  0.00     0.059 A 
ATOM    109  F   UNL     1      -8.973   2.844 -14.658  1.00  0.00    -0.206 F 
ATOM    110  C   UNL     1     -10.132   2.529 -11.249  1.00  0.00     0.060 A 
BRANCH 110 111
ATOM    111  S   UNL     1     -11.687   2.527 -10.329  1.00  0.00     0.124 S 
ATOM    112  O   UNL     1     -11.771   1.145  -9.870  1.00  0.00    -0.237 OA
ATOM    113  O   UNL     1     -11.445   3.526  -9.293  1.00  0.00    -0.237 OA
ATOM    114  O   UNL     1     -12.677   2.912 -11.333  1.00  0.00    -0.744 OA
ENDBRANCH 110 111
ENDBRANCH  78 103
ENDBRANCH  52  53
ENDBRANCH  44  47
ENDBRANCH  42  43
ENDBRANCH  41  42
ENDBRANCH  40  41
ENDBRANCH  39  40
ENDBRANCH  38  39
ENDBRANCH   1  38
TORSDOF 24
