REMARK SMILES CSc1ccc(/C=C2\C(C)=C(CC(=O)NCCCCCCNC(=O)c3ccc(-c4c5nc(c(-c6c(F)cc(S(=O)(=O)[O-])cc6F)c6ccc([nH]6)c(-c6c(F)cc(S(=O)(=O)[O-])cc6F)c6nc(c(-c7c(F)cc(S(=O)(=O)[O-])cc7F)c7ccc4[nH]7)C=C6)C=C5)cc3)c3cc(F)ccc32)cc1
REMARK SMILES IDX 18 1 17 2 16 3 15 4 13 5 14 6 12 8 11 9 7 10 8 11 9 12 97 13
REMARK SMILES IDX 10 14 91 15 96 16 92 17 95 18 93 19 94 20 6 21 3 22 4 23
REMARK SMILES IDX 99 24 5 25 98 26 2 27 1 28 19 29 20 30 21 31 22 32 23 33
REMARK SMILES IDX 24 35 25 36 26 37 90 38 27 39 89 40 28 41 29 42 30 43 83 44
REMARK SMILES IDX 31 45 88 46 82 47 84 48 32 49 87 50 81 51 80 52 33 54 67 55
REMARK SMILES IDX 46 56 66 57 47 58 50 59 65 60 85 61 48 62 49 63 64 65 86 66
REMARK SMILES IDX 51 67 34 68 35 69 44 70 36 71 37 72 43 73 45 74 38 75 39 76
REMARK SMILES IDX 40 77 41 78 42 79 68 80 69 81 78 82 70 83 71 84 77 85 79 86
REMARK SMILES IDX 72 87 73 88 74 89 75 90 76 91 52 92 53 93 62 94 54 95 55 96
REMARK SMILES IDX 61 97 63 98 56 99 57 100 58 101 59 102 60 103
REMARK H PARENT 15 7 22 34 84 53 50 64
REMARK Flexibility Score: inf
ROOT
ATOM      1  C   UNL     1       1.394  -9.645   5.600  1.00  0.00     0.002 C 
ENDROOT
BRANCH   1   2
ATOM      2  C   UNL     1       1.282  -8.943   4.247  1.00  0.00     0.021 C 
BRANCH   2   3
ATOM      3  C   UNL     1       1.978  -9.660   3.092  1.00  0.00     0.116 C 
BRANCH   3   4
ATOM      4  N   UNL     1       1.294 -10.890   2.751  1.00  0.00    -0.356 N 
ATOM      5  C   UNL     1       0.334 -11.069   1.799  1.00  0.00     0.224 C 
ATOM      6  O   UNL     1      -0.241 -12.156   1.721  1.00  0.00    -0.275 OA
ATOM      7  H   UNL     1       1.552 -11.688   3.266  1.00  0.00     0.163 HD
BRANCH   5   8
ATOM      8  C   UNL     1       0.011  -9.925   0.857  1.00  0.00     0.136 C 
BRANCH   8   9
ATOM      9  C   UNL     1      -0.894  -8.920   1.544  1.00  0.00    -0.027 C 
ATOM     10  C   UNL     1      -0.389  -6.080  -0.379  1.00  0.00     0.017 C 
ATOM     11  C   UNL     1      -1.001  -7.021   0.358  1.00  0.00    -0.014 C 
ATOM     12  C   UNL     1      -0.564  -7.601   1.648  1.00  0.00    -0.039 C 
ATOM     13  C   UNL     1      -2.280  -7.710   0.080  1.00  0.00    -0.010 A 
ATOM     14  C   UNL     1      -1.191  -6.792   2.802  1.00  0.00     0.045 C 
ATOM     15  C   UNL     1      -2.235  -8.845   0.919  1.00  0.00    -0.011 A 
ATOM     16  C   UNL     1      -3.492  -7.183  -0.329  1.00  0.00     0.012 A 
ATOM     17  C   UNL     1      -3.378  -9.464   1.391  1.00  0.00     0.048 A 
ATOM     18  C   UNL     1      -4.657  -7.789   0.162  1.00  0.00     0.040 A 
ATOM     19  C   UNL     1      -4.590  -8.903   1.017  1.00  0.00     0.123 A 
ATOM     20  F   UNL     1      -5.718  -9.364   1.575  1.00  0.00    -0.207 F 
BRANCH  10  21
ATOM     21  C   UNL     1       0.697  -5.141   0.012  1.00  0.00    -0.025 A 
ATOM     22  C   UNL     1       1.770  -2.641   0.752  1.00  0.00     0.007 A 
ATOM     23  C   UNL     1       1.474  -3.591   1.721  1.00  0.00     0.015 A 
ATOM     24  C   UNL     1       1.750  -3.034  -0.587  1.00  0.00     0.015 A 
ATOM     25  C   UNL     1       0.991  -4.845   1.346  1.00  0.00     0.009 A 
ATOM     26  C   UNL     1       1.205  -4.271  -0.958  1.00  0.00     0.009 A 
BRANCH  22  27
ATOM     27  S   UNL     1       2.070  -0.973   1.302  1.00  0.00    -0.130 SA
ATOM     28  C   UNL     1       1.480  -0.007  -0.116  1.00  0.00     0.091 C 
ENDBRANCH  22  27
ENDBRANCH  10  21
ENDBRANCH   8   9
ENDBRANCH   5   8
ENDBRANCH   3   4
ENDBRANCH   2   3
ENDBRANCH   1   2
BRANCH   1  29
ATOM     29  C   UNL     1       2.820  -9.997   6.022  1.00  0.00     0.002 C 
BRANCH  29  30
ATOM     30  C   UNL     1       3.821  -8.844   5.924  1.00  0.00     0.021 C 
BRANCH  30  31
ATOM     31  C   UNL     1       3.439  -7.611   6.731  1.00  0.00     0.116 C 
BRANCH  31  32
ATOM     32  N   UNL     1       3.416  -7.898   8.156  1.00  0.00    -0.352 N 
ATOM     33  C   UNL     1       4.170  -7.332   9.145  1.00  0.00     0.251 C 
ATOM     34  H   UNL     1       2.775  -8.588   8.445  1.00  0.00     0.163 HD
ATOM     35  O   UNL     1       4.230  -7.865  10.261  1.00  0.00    -0.269 OA
BRANCH  33  36
ATOM     36  C   UNL     1       4.915  -6.090   8.873  1.00  0.00     0.039 A 
ATOM     37  C   UNL     1       6.244  -5.981   9.289  1.00  0.00     0.014 A 
ATOM     38  C   UNL     1       4.292  -5.030   8.204  1.00  0.00     0.014 A 
ATOM     39  C   UNL     1       6.962  -4.819   9.000  1.00  0.00     0.010 A 
ATOM     40  C   UNL     1       5.030  -3.906   7.854  1.00  0.00     0.010 A 
ATOM     41  C   UNL     1       6.366  -3.782   8.265  1.00  0.00    -0.014 A 
BRANCH  41  42
ATOM     42  C   UNL     1       7.106  -2.537   7.946  1.00  0.00     0.031 A 
ATOM     43  C   UNL     1       6.647  -1.228   8.530  1.00  0.00     0.074 A 
ATOM     44  C   UNL     1       8.143  -2.573   7.089  1.00  0.00     0.049 A 
ATOM     45  N   UNL     1       7.100  -0.021   8.314  1.00  0.00    -0.248 NA
ATOM     46  C   UNL     1       5.508  -1.285   9.461  1.00  0.00     0.031 C 
ATOM     47  C   UNL     1       8.658  -3.777   6.433  1.00  0.00     0.029 A 
ATOM     48  N   UNL     1       8.947  -1.568   6.615  1.00  0.00    -0.354 N 
ATOM     49  C   UNL     1       6.293   0.825   9.066  1.00  0.00     0.074 A 
ATOM     50  C   UNL     1       5.288  -0.001   9.698  1.00  0.00     0.031 C 
ATOM     51  C   UNL     1       9.705  -3.443   5.662  1.00  0.00     0.029 A 
ATOM     52  C   UNL     1       9.913  -2.000   5.739  1.00  0.00     0.049 A 
ATOM     53  H   UNL     1       8.842  -0.625   6.879  1.00  0.00     0.167 HD
ATOM     54  C   UNL     1       6.395   2.165   9.234  1.00  0.00     0.037 A 
ATOM     55  C   UNL     1      10.857  -1.309   5.071  1.00  0.00     0.037 A 
ATOM     56  C   UNL     1       7.412   2.975   8.618  1.00  0.00     0.049 A 
ATOM     57  C   UNL     1      10.947   0.180   5.264  1.00  0.00     0.074 A 
ATOM     58  C   UNL     1       7.632   4.335   8.754  1.00  0.00     0.029 A 
ATOM     59  N   UNL     1       8.381   2.498   7.746  1.00  0.00    -0.354 N 
ATOM     60  N   UNL     1      10.205   0.961   6.013  1.00  0.00    -0.248 NA
ATOM     61  C   UNL     1      12.005   0.882   4.525  1.00  0.00     0.031 C 
ATOM     62  C   UNL     1       8.713   4.685   7.936  1.00  0.00     0.029 A 
ATOM     63  C   UNL     1       9.194   3.538   7.326  1.00  0.00     0.049 A 
ATOM     64  H   UNL     1       8.477   1.559   7.467  1.00  0.00     0.167 HD
ATOM     65  C   UNL     1      10.725   2.241   5.861  1.00  0.00     0.074 A 
ATOM     66  C   UNL     1      11.847   2.129   4.951  1.00  0.00     0.031 C 
ATOM     67  C   UNL     1      10.314   3.403   6.426  1.00  0.00     0.037 A 
BRANCH  54  68
ATOM     68  C   UNL     1       5.376   2.827  10.122  1.00  0.00     0.058 A 
ATOM     69  C   UNL     1       5.358   2.612  11.510  1.00  0.00     0.135 A 
ATOM     70  C   UNL     1       4.401   3.679   9.581  1.00  0.00     0.135 A 
ATOM     71  F   UNL     1       6.258   1.794  12.079  1.00  0.00    -0.206 F 
ATOM     72  C   UNL     1       4.381   3.178  12.322  1.00  0.00     0.059 A 
ATOM     73  C   UNL     1       3.432   4.281  10.379  1.00  0.00     0.059 A 
ATOM     74  F   UNL     1       4.372   3.924   8.261  1.00  0.00    -0.206 F 
ATOM     75  C   UNL     1       3.417   4.006  11.746  1.00  0.00     0.060 A 
BRANCH  75  76
ATOM     76  S   UNL     1       2.138   4.710  12.807  1.00  0.00     0.124 S 
ATOM     77  O   UNL     1       1.278   3.552  13.032  1.00  0.00    -0.237 OA
ATOM     78  O   UNL     1       2.903   5.164  13.964  1.00  0.00    -0.237 OA
ATOM     79  O   UNL     1       1.561   5.770  11.986  1.00  0.00    -0.744 OA
ENDBRANCH  75  76
ENDBRANCH  54  68
BRANCH  55  80
ATOM     80  C   UNL     1      11.816  -2.029   4.192  1.00  0.00     0.058 A 
ATOM     81  C   UNL     1      13.155  -2.190   4.576  1.00  0.00     0.135 A 
ATOM     82  C   UNL     1      11.411  -2.597   2.975  1.00  0.00     0.135 A 
ATOM     83  F   UNL     1      13.590  -1.659   5.729  1.00  0.00    -0.206 F 
ATOM     84  C   UNL     1      14.063  -2.882   3.782  1.00  0.00     0.059 A 
ATOM     85  C   UNL     1      12.295  -3.313   2.173  1.00  0.00     0.059 A 
ATOM     86  F   UNL     1      10.136  -2.485   2.571  1.00  0.00    -0.206 F 
ATOM     87  C   UNL     1      13.621  -3.445   2.583  1.00  0.00     0.060 A 
BRANCH  87  88
ATOM     88  S   UNL     1      14.793  -4.396   1.591  1.00  0.00     0.124 S 
ATOM     89  O   UNL     1      15.631  -3.340   1.034  1.00  0.00    -0.237 OA
ATOM     90  O   UNL     1      15.422  -5.249   2.594  1.00  0.00    -0.237 OA
ATOM     91  O   UNL     1      13.936  -5.092   0.635  1.00  0.00    -0.744 OA
ENDBRANCH  87  88
ENDBRANCH  55  80
BRANCH  67  92
ATOM     92  C   UNL     1      11.104   4.642   6.113  1.00  0.00     0.058 A 
ATOM     93  C   UNL     1      11.013   5.281   4.867  1.00  0.00     0.135 A 
ATOM     94  C   UNL     1      11.918   5.230   7.095  1.00  0.00     0.135 A 
ATOM     95  F   UNL     1      10.255   4.755   3.891  1.00  0.00    -0.206 F 
ATOM     96  C   UNL     1      11.716   6.451   4.599  1.00  0.00     0.059 A 
ATOM     97  C   UNL     1      12.609   6.413   6.857  1.00  0.00     0.059 A 
ATOM     98  F   UNL     1      12.031   4.663   8.307  1.00  0.00    -0.206 F 
ATOM     99  C   UNL     1      12.510   7.011   5.602  1.00  0.00     0.060 A 
BRANCH  99 100
ATOM    100  S   UNL     1      13.383   8.553   5.256  1.00  0.00     0.124 S 
ATOM    101  O   UNL     1      14.472   8.089   4.404  1.00  0.00    -0.237 OA
ATOM    102  O   UNL     1      12.356   9.353   4.595  1.00  0.00    -0.237 OA
ATOM    103  O   UNL     1      13.778   9.024   6.581  1.00  0.00    -0.744 OA
ENDBRANCH  99 100
ENDBRANCH  67  92
ENDBRANCH  41  42
ENDBRANCH  33  36
ENDBRANCH  31  32
ENDBRANCH  30  31
ENDBRANCH  29  30
ENDBRANCH   1  29
TORSDOF 19
