REMARK SMILES CCCCCCCNC(=O)Oc1cccc(-c2ccc([C@@H](C)C(=O)NCCCCCCNC(=O)c3ccc(-c4c5nc(c(-c6c(F)cc(S(=O)(=O)[O-])cc6F)c6ccc([nH]6)c(-c6c(F)cc(S(=O)(=O)[O-])cc6F)c6nc(c(-c7c(F)cc(S(=O)(=O)[O-])cc7F)c7ccc4[nH]7)C=C6)C=C5)cc3)cc2F)c1
REMARK SMILES IDX 23 1 24 2 25 3 21 5 22 6 20 7 17 8 18 9 102 10 19 11 101 12
REMARK SMILES IDX 103 13 16 14 12 15 13 16 104 17 14 18 15 19 11 20 9 21 8 22
REMARK SMILES IDX 10 24 7 25 6 26 5 27 4 28 3 29 2 30 1 31 26 32 27 33 28 34
REMARK SMILES IDX 29 35 30 36 31 37 32 38 33 39 34 41 35 42 36 43 100 44 37 45
REMARK SMILES IDX 99 46 38 47 39 48 40 49 93 50 41 51 98 52 92 53 94 54 42 55
REMARK SMILES IDX 97 56 91 57 90 58 43 60 77 61 56 62 76 63 57 64 60 65 75 66
REMARK SMILES IDX 95 67 58 68 59 69 74 71 96 72 61 73 44 74 45 75 54 76 46 77
REMARK SMILES IDX 47 78 53 79 55 80 48 81 49 82 50 83 51 84 52 85 78 86 79 87
REMARK SMILES IDX 88 88 80 89 81 90 87 91 89 92 82 93 83 94 84 95 85 96 86 97
REMARK SMILES IDX 62 98 63 99 72 100 64 101 65 102 71 103 73 104 66 105 67 106
REMARK SMILES IDX 68 107 69 108 70 109
REMARK H PARENT 25 4 8 23 32 40 94 59 60 70
REMARK Flexibility Score: inf
ROOT
ATOM      1  C   UNL     1     -10.314   7.195  -7.967  1.00  0.00     0.227 C 
ATOM      2  O   UNL     1     -10.625   5.998  -8.012  1.00  0.00    -0.274 OA
ATOM      3  N   UNL     1      -9.802   7.730  -9.108  1.00  0.00    -0.356 N 
ATOM      4  H   UNL     1      -9.801   7.117  -9.877  1.00  0.00     0.163 HD
ENDROOT
BRANCH   1   5
ATOM      5  C   UNL     1     -10.538   7.995  -6.674  1.00  0.00     0.105 C 
ATOM      6  C   UNL     1     -11.510   9.165  -6.829  1.00  0.00     0.023 C 
BRANCH   5   7
ATOM      7  C   UNL     1      -9.259   8.294  -5.909  1.00  0.00    -0.033 A 
ATOM      8  C   UNL     1      -6.778   8.707  -4.539  1.00  0.00     0.018 A 
ATOM      9  C   UNL     1      -7.259   9.621  -5.489  1.00  0.00     0.012 A 
ATOM     10  C   UNL     1      -7.595   7.599  -4.269  1.00  0.00     0.131 A 
ATOM     11  C   UNL     1      -8.489   9.439  -6.129  1.00  0.00     0.005 A 
ATOM     12  C   UNL     1      -8.797   7.381  -4.950  1.00  0.00     0.044 A 
ATOM     13  F   UNL     1      -7.246   6.704  -3.330  1.00  0.00    -0.206 F 
BRANCH   8  14
ATOM     14  C   UNL     1      -5.468   8.925  -3.889  1.00  0.00    -0.012 A 
ATOM     15  C   UNL     1      -3.355   8.093  -3.026  1.00  0.00     0.133 A 
ATOM     16  C   UNL     1      -2.929   9.380  -2.717  1.00  0.00     0.047 A 
ATOM     17  C   UNL     1      -4.606   7.856  -3.598  1.00  0.00     0.056 A 
ATOM     18  C   UNL     1      -3.766  10.452  -2.995  1.00  0.00     0.004 A 
ATOM     19  C   UNL     1      -5.022  10.224  -3.565  1.00  0.00     0.009 A 
BRANCH  15  20
ATOM     20  O   UNL     1      -2.527   7.040  -2.615  1.00  0.00    -0.410 OA
BRANCH  20  21
ATOM     21  C   UNL     1      -2.167   6.078  -3.543  1.00  0.00     0.412 C 
ATOM     22  N   UNL     1      -1.417   5.075  -2.993  1.00  0.00    -0.321 N 
ATOM     23  H   UNL     1      -1.100   4.372  -3.604  1.00  0.00     0.167 HD
ATOM     24  O   UNL     1      -2.452   6.073  -4.734  1.00  0.00    -0.224 OA
BRANCH  22  25
ATOM     25  C   UNL     1      -1.045   4.948  -1.599  1.00  0.00     0.119 C 
BRANCH  25  26
ATOM     26  C   UNL     1      -1.550   3.637  -0.997  1.00  0.00     0.021 C 
BRANCH  26  27
ATOM     27  C   UNL     1      -0.961   2.375  -1.637  1.00  0.00     0.002 C 
BRANCH  27  28
ATOM     28  C   UNL     1       0.567   2.273  -1.584  1.00  0.00     0.000 C 
BRANCH  28  29
ATOM     29  C   UNL     1       1.168   2.254  -0.175  1.00  0.00    -0.000 C 
BRANCH  29  30
ATOM     30  C   UNL     1       0.712   1.089   0.709  1.00  0.00    -0.003 C 
ATOM     31  C   UNL     1       1.073  -0.274   0.139  1.00  0.00     0.004 C 
ENDBRANCH  29  30
ENDBRANCH  28  29
ENDBRANCH  27  28
ENDBRANCH  26  27
ENDBRANCH  25  26
ENDBRANCH  22  25
ENDBRANCH  20  21
ENDBRANCH  15  20
ENDBRANCH   8  14
ENDBRANCH   5   7
ENDBRANCH   1   5
BRANCH   3  32
ATOM     32  C   UNL     1      -9.258   9.041  -9.393  1.00  0.00     0.116 C 
BRANCH  32  33
ATOM     33  C   UNL     1      -7.728   9.022  -9.424  1.00  0.00     0.021 C 
BRANCH  33  34
ATOM     34  C   UNL     1      -7.146   8.696 -10.803  1.00  0.00     0.002 C 
BRANCH  34  35
ATOM     35  C   UNL     1      -7.502   9.700 -11.906  1.00  0.00     0.002 C 
BRANCH  35  36
ATOM     36  C   UNL     1      -7.148  11.159 -11.600  1.00  0.00     0.021 C 
BRANCH  36  37
ATOM     37  C   UNL     1      -5.663  11.411 -11.359  1.00  0.00     0.116 C 
BRANCH  37  38
ATOM     38  N   UNL     1      -4.871  11.074 -12.530  1.00  0.00    -0.352 N 
ATOM     39  C   UNL     1      -4.055  11.869 -13.293  1.00  0.00     0.251 C 
ATOM     40  H   UNL     1      -4.928  10.134 -12.818  1.00  0.00     0.163 HD
ATOM     41  O   UNL     1      -3.690  11.478 -14.399  1.00  0.00    -0.269 OA
BRANCH  39  42
ATOM     42  C   UNL     1      -3.613  13.187 -12.788  1.00  0.00     0.039 A 
ATOM     43  C   UNL     1      -3.515  14.256 -13.682  1.00  0.00     0.014 A 
ATOM     44  C   UNL     1      -3.234  13.354 -11.452  1.00  0.00     0.014 A 
ATOM     45  C   UNL     1      -3.057  15.496 -13.232  1.00  0.00     0.010 A 
ATOM     46  C   UNL     1      -2.854  14.610 -10.988  1.00  0.00     0.010 A 
ATOM     47  C   UNL     1      -2.732  15.686 -11.879  1.00  0.00    -0.014 A 
BRANCH  47  48
ATOM     48  C   UNL     1      -2.205  16.986 -11.393  1.00  0.00     0.031 A 
ATOM     49  C   UNL     1      -0.801  17.070 -10.851  1.00  0.00     0.074 A 
ATOM     50  C   UNL     1      -2.994  18.078 -11.405  1.00  0.00     0.049 A 
ATOM     51  N   UNL     1      -0.170  18.097 -10.344  1.00  0.00    -0.248 NA
ATOM     52  C   UNL     1      -0.012  15.826 -10.853  1.00  0.00     0.031 C 
ATOM     53  C   UNL     1      -4.383  18.112 -11.866  1.00  0.00     0.029 A 
ATOM     54  N   UNL     1      -2.742  19.369 -11.017  1.00  0.00    -0.354 N 
ATOM     55  C   UNL     1       1.079  17.622  -9.957  1.00  0.00     0.074 A 
ATOM     56  C   UNL     1       1.093  16.202 -10.229  1.00  0.00     0.031 C 
ATOM     57  C   UNL     1      -4.851  19.366 -11.759  1.00  0.00     0.029 A 
ATOM     58  C   UNL     1      -3.810  20.217 -11.192  1.00  0.00     0.049 A 
ATOM     59  H   UNL     1      -1.877  19.662 -10.648  1.00  0.00     0.167 HD
ATOM     60  C   UNL     1       2.129  18.311  -9.450  1.00  0.00     0.037 A 
ATOM     61  C   UNL     1      -3.934  21.532 -10.925  1.00  0.00     0.037 A 
ATOM     62  C   UNL     1       2.115  19.730  -9.210  1.00  0.00     0.049 A 
ATOM     63  C   UNL     1      -2.752  22.279 -10.367  1.00  0.00     0.074 A 
ATOM     64  C   UNL     1       3.140  20.535  -8.742  1.00  0.00     0.029 A 
ATOM     65  N   UNL     1       1.022  20.559  -9.423  1.00  0.00    -0.354 N 
ATOM     66  N   UNL     1      -1.560  21.825 -10.057  1.00  0.00    -0.248 NA
ATOM     67  C   UNL     1      -2.925  23.719 -10.134  1.00  0.00     0.031 C 
ATOM     68  C   UNL     1       2.653  21.841  -8.631  1.00  0.00     0.029 A 
ATOM     69  C   UNL     1       1.343  21.862  -9.083  1.00  0.00     0.049 A 
ATOM     70  H   UNL     1       0.148  20.263  -9.765  1.00  0.00     0.167 HD
ATOM     71  C   UNL     1      -0.831  22.929  -9.630  1.00  0.00     0.074 A 
ATOM     72  C   UNL     1      -1.714  24.073  -9.727  1.00  0.00     0.031 C 
ATOM     73  C   UNL     1       0.455  22.992  -9.201  1.00  0.00     0.037 A 
BRANCH  60  74
ATOM     74  C   UNL     1       3.380  17.538  -9.125  1.00  0.00     0.058 A 
ATOM     75  C   UNL     1       4.184  16.979 -10.132  1.00  0.00     0.135 A 
ATOM     76  C   UNL     1       3.794  17.375  -7.794  1.00  0.00     0.135 A 
ATOM     77  F   UNL     1       3.829  17.090 -11.422  1.00  0.00    -0.206 F 
ATOM     78  C   UNL     1       5.334  16.257  -9.829  1.00  0.00     0.059 A 
ATOM     79  C   UNL     1       4.958  16.683  -7.469  1.00  0.00     0.059 A 
ATOM     80  F   UNL     1       3.065  17.887  -6.790  1.00  0.00    -0.206 F 
ATOM     81  C   UNL     1       5.713  16.113  -8.494  1.00  0.00     0.060 A 
BRANCH  81  82
ATOM     82  S   UNL     1       7.208  15.174  -8.118  1.00  0.00     0.124 S 
ATOM     83  O   UNL     1       6.769  13.808  -8.387  1.00  0.00    -0.237 OA
ATOM     84  O   UNL     1       8.171  15.729  -9.064  1.00  0.00    -0.237 OA
ATOM     85  O   UNL     1       7.462  15.486  -6.715  1.00  0.00    -0.744 OA
ENDBRANCH  81  82
ENDBRANCH  60  74
BRANCH  61  86
ATOM     86  C   UNL     1      -5.213  22.233 -11.216  1.00  0.00     0.058 A 
ATOM     87  C   UNL     1      -5.305  23.167 -12.258  1.00  0.00     0.135 A 
ATOM     88  C   UNL     1      -6.372  21.975 -10.467  1.00  0.00     0.135 A 
ATOM     89  F   UNL     1      -4.224  23.451 -13.001  1.00  0.00    -0.206 F 
ATOM     90  C   UNL     1      -6.492  23.837 -12.536  1.00  0.00     0.059 A 
ATOM     91  C   UNL     1      -7.578  22.613 -10.742  1.00  0.00     0.059 A 
ATOM     92  F   UNL     1      -6.344  21.076  -9.471  1.00  0.00    -0.206 F 
ATOM     93  C   UNL     1      -7.625  23.551 -11.772  1.00  0.00     0.060 A 
BRANCH  93  94
ATOM     94  S   UNL     1      -9.171  24.395 -12.168  1.00  0.00     0.124 S 
ATOM     95  O   UNL     1      -8.902  25.744 -11.684  1.00  0.00    -0.237 OA
ATOM     96  O   UNL     1      -9.243  24.239 -13.618  1.00  0.00    -0.237 OA
ATOM     97  O   UNL     1     -10.168  23.640 -11.414  1.00  0.00    -0.744 OA
ENDBRANCH  93  94
ENDBRANCH  61  86
BRANCH  73  98
ATOM     98  C   UNL     1       1.004  24.349  -8.855  1.00  0.00     0.058 A 
ATOM     99  C   UNL     1       0.605  25.041  -7.702  1.00  0.00     0.135 A 
ATOM    100  C   UNL     1       1.983  24.942  -9.670  1.00  0.00     0.135 A 
ATOM    101  F   UNL     1      -0.330  24.521  -6.891  1.00  0.00    -0.206 F 
ATOM    102  C   UNL     1       1.134  26.288  -7.383  1.00  0.00     0.059 A 
ATOM    103  C   UNL     1       2.548  26.173  -9.355  1.00  0.00     0.059 A 
ATOM    104  F   UNL     1       2.410  24.317 -10.778  1.00  0.00    -0.206 F 
ATOM    105  C   UNL     1       2.106  26.846  -8.217  1.00  0.00     0.060 A 
BRANCH 105 106
ATOM    106  S   UNL     1       2.804  28.452  -7.779  1.00  0.00     0.124 S 
ATOM    107  O   UNL     1       1.705  29.351  -8.116  1.00  0.00    -0.237 OA
ATOM    108  O   UNL     1       3.081  28.295  -6.355  1.00  0.00    -0.237 OA
ATOM    109  O   UNL     1       3.983  28.555  -8.633  1.00  0.00    -0.744 OA
ENDBRANCH 105 106
ENDBRANCH  73  98
ENDBRANCH  47  48
ENDBRANCH  39  42
ENDBRANCH  37  38
ENDBRANCH  36  37
ENDBRANCH  35  36
ENDBRANCH  34  35
ENDBRANCH  33  34
ENDBRANCH  32  33
ENDBRANCH   3  32
TORSDOF 26
