REMARK SMILES N#CCCn1cc(C(=O)NCCCCCCNC(=O)c2ccc(-c3c4nc(c(-c5c(F)cc(S(=O)(=O)[O-])cc5F)c5ccc([nH]5)c(-c5c(F)cc(S(=O)(=O)[O-])cc5F)c5nc(c(-c6c(F)cc(S(=O)(=O)[O-])cc6F)c6ccc3[nH]6)C=C5)C=C4)cc2)c(-c2cccc([N+](=O)[O-])c2)n1
REMARK SMILES IDX 13 1 12 2 11 3 10 4 8 5 9 6 7 8 5 9 6 10 96 11 86 12 4 13
REMARK SMILES IDX 3 14 2 15 1 16 87 17 88 18 95 19 89 20 91 21 90 22 92 23
REMARK SMILES IDX 93 24 94 25 14 26 15 27 16 28 17 29 18 30 19 32 20 33 21 34
REMARK SMILES IDX 85 35 22 36 84 37 23 38 24 39 25 40 78 41 26 42 83 43 77 44
REMARK SMILES IDX 79 45 27 46 82 47 76 48 75 49 28 51 62 52 41 53 61 54 42 55
REMARK SMILES IDX 45 56 60 57 80 58 43 59 44 60 59 62 81 63 46 64 29 65 30 66
REMARK SMILES IDX 39 67 31 68 32 69 38 70 40 71 33 72 34 73 35 74 36 75 37 76
REMARK SMILES IDX 63 77 64 78 73 79 65 80 66 81 72 82 74 83 67 84 68 85 69 86
REMARK SMILES IDX 70 87 71 88 47 89 48 90 57 91 49 92 50 93 56 94 58 95 51 96
REMARK SMILES IDX 52 97 53 98 54 99 55 100
REMARK H PARENT 10 7 17 31 79 50 45 61
REMARK Flexibility Score: inf
ROOT
ATOM      1  C   UNL     1       6.746  -6.615   0.884  1.00  0.00     0.002 C 
ENDROOT
BRANCH   1   2
ATOM      2  C   UNL     1       6.399  -5.121   0.949  1.00  0.00     0.021 C 
BRANCH   2   3
ATOM      3  C   UNL     1       4.896  -4.862   0.867  1.00  0.00     0.116 C 
BRANCH   3   4
ATOM      4  N   UNL     1       4.268  -5.190   2.123  1.00  0.00    -0.352 N 
ATOM      5  C   UNL     1       3.785  -4.420   3.143  1.00  0.00     0.255 C 
ATOM      6  O   UNL     1       3.280  -5.045   4.077  1.00  0.00    -0.269 OA
ATOM      7  H   UNL     1       4.166  -6.157   2.275  1.00  0.00     0.163 HD
BRANCH   5   8
ATOM      8  C   UNL     1       3.795  -2.963   3.081  1.00  0.00     0.085 A 
ATOM      9  N   UNL     1       3.956  -0.873   2.413  1.00  0.00    -0.270 N 
ATOM     10  C   UNL     1       4.514  -2.108   2.269  1.00  0.00     0.123 A 
ATOM     11  N   UNL     1       3.104  -0.800   3.451  1.00  0.00    -0.172 NA
ATOM     12  C   UNL     1       3.053  -2.061   3.923  1.00  0.00     0.105 A 
BRANCH   9  13
ATOM     13  C   UNL     1       4.211   0.267   1.538  1.00  0.00     0.159 C 
BRANCH  13  14
ATOM     14  C   UNL     1       3.743   0.038   0.084  1.00  0.00     0.144 C 
BRANCH  14  15
ATOM     15  C   UNL     1       2.223   0.038   0.084  1.00  0.00     0.064 C 
ATOM     16  N   UNL     1       0.962   0.038   0.084  1.00  0.00    -0.198 NA
ENDBRANCH  14  15
ENDBRANCH  13  14
ENDBRANCH   9  13
BRANCH  12  17
ATOM     17  C   UNL     1       2.311  -2.420   5.136  1.00  0.00     0.010 A 
ATOM     18  C   UNL     1       2.982  -3.096   6.173  1.00  0.00     0.011 A 
ATOM     19  C   UNL     1       0.934  -2.204   5.241  1.00  0.00     0.096 A 
ATOM     20  C   UNL     1       2.288  -3.620   7.265  1.00  0.00     0.008 A 
ATOM     21  C   UNL     1       0.242  -2.728   6.346  1.00  0.00     0.270 A 
ATOM     22  C   UNL     1       0.911  -3.448   7.350  1.00  0.00     0.085 A 
BRANCH  21  23
ATOM     23  N   UNL     1      -1.213  -2.562   6.443  1.00  0.00     0.062 N 
ATOM     24  O   UNL     1      -1.791  -3.078   7.413  1.00  0.00    -0.258 OA
ATOM     25  O   UNL     1      -1.787  -1.921   5.552  1.00  0.00    -0.258 OA
ENDBRANCH  21  23
ENDBRANCH  12  17
ENDBRANCH   5   8
ENDBRANCH   3   4
ENDBRANCH   2   3
ENDBRANCH   1   2
BRANCH   1  26
ATOM     26  C   UNL     1       6.156  -7.367  -0.320  1.00  0.00     0.002 C 
BRANCH  26  27
ATOM     27  C   UNL     1       6.378  -6.705  -1.688  1.00  0.00     0.021 C 
BRANCH  27  28
ATOM     28  C   UNL     1       7.836  -6.700  -2.116  1.00  0.00     0.116 C 
BRANCH  28  29
ATOM     29  N   UNL     1       8.310  -8.048  -2.415  1.00  0.00    -0.352 N 
ATOM     30  C   UNL     1       9.575  -8.425  -2.802  1.00  0.00     0.251 C 
ATOM     31  H   UNL     1       7.648  -8.771  -2.330  1.00  0.00     0.163 HD
ATOM     32  O   UNL     1       9.761  -9.486  -3.398  1.00  0.00    -0.269 OA
BRANCH  30  33
ATOM     33  C   UNL     1      10.700  -7.537  -2.477  1.00  0.00     0.039 A 
ATOM     34  C   UNL     1      11.690  -7.247  -3.417  1.00  0.00     0.014 A 
ATOM     35  C   UNL     1      10.718  -6.955  -1.209  1.00  0.00     0.014 A 
ATOM     36  C   UNL     1      12.658  -6.301  -3.094  1.00  0.00     0.010 A 
ATOM     37  C   UNL     1      11.588  -5.928  -0.944  1.00  0.00     0.010 A 
ATOM     38  C   UNL     1      12.587  -5.623  -1.863  1.00  0.00    -0.014 A 
BRANCH  38  39
ATOM     39  C   UNL     1      13.427  -4.450  -1.613  1.00  0.00     0.031 A 
ATOM     40  C   UNL     1      13.295  -3.424  -2.686  1.00  0.00     0.074 A 
ATOM     41  C   UNL     1      14.053  -4.216  -0.435  1.00  0.00     0.049 A 
ATOM     42  N   UNL     1      14.162  -3.117  -3.593  1.00  0.00    -0.248 NA
ATOM     43  C   UNL     1      11.972  -2.810  -2.918  1.00  0.00     0.031 C 
ATOM     44  C   UNL     1      13.959  -5.024   0.790  1.00  0.00     0.029 A 
ATOM     45  N   UNL     1      14.814  -3.156  -0.026  1.00  0.00    -0.354 N 
ATOM     46  C   UNL     1      13.609  -2.038  -4.280  1.00  0.00     0.074 A 
ATOM     47  C   UNL     1      12.199  -2.077  -4.013  1.00  0.00     0.031 C 
ATOM     48  C   UNL     1      14.407  -4.311   1.848  1.00  0.00     0.029 A 
ATOM     49  C   UNL     1      14.996  -3.080   1.359  1.00  0.00     0.049 A 
ATOM     50  H   UNL     1      15.201  -2.503  -0.653  1.00  0.00     0.167 HD
ATOM     51  C   UNL     1      14.407  -1.006  -4.675  1.00  0.00     0.037 A 
ATOM     52  C   UNL     1      15.602  -2.086   2.061  1.00  0.00     0.037 A 
ATOM     53  C   UNL     1      15.793  -1.387  -4.577  1.00  0.00     0.049 A 
ATOM     54  C   UNL     1      16.486  -1.368   1.116  1.00  0.00     0.074 A 
ATOM     55  C   UNL     1      16.671  -2.191  -5.269  1.00  0.00     0.029 A 
ATOM     56  N   UNL     1      16.312  -1.194  -3.325  1.00  0.00    -0.354 N 
ATOM     57  N   UNL     1      17.527  -1.922   0.554  1.00  0.00    -0.248 NA
ATOM     58  C   UNL     1      16.008  -0.145   0.483  1.00  0.00     0.031 C 
ATOM     59  C   UNL     1      17.681  -2.574  -4.337  1.00  0.00     0.029 A 
ATOM     60  C   UNL     1      17.434  -1.946  -3.119  1.00  0.00     0.049 A 
ATOM     61  H   UNL     1      15.924  -0.587  -2.654  1.00  0.00     0.167 HD
ATOM     62  C   UNL     1      17.556  -1.378  -0.714  1.00  0.00     0.074 A 
ATOM     63  C   UNL     1      16.721  -0.185  -0.645  1.00  0.00     0.031 C 
ATOM     64  C   UNL     1      17.957  -2.124  -1.783  1.00  0.00     0.037 A 
BRANCH  51  65
ATOM     65  C   UNL     1      14.022   0.464  -4.617  1.00  0.00     0.058 A 
ATOM     66  C   UNL     1      14.913   1.426  -5.144  1.00  0.00     0.135 A 
ATOM     67  C   UNL     1      12.989   0.985  -3.807  1.00  0.00     0.135 A 
ATOM     68  F   UNL     1      15.947   1.049  -5.913  1.00  0.00    -0.206 F 
ATOM     69  C   UNL     1      14.814   2.788  -4.846  1.00  0.00     0.059 A 
ATOM     70  C   UNL     1      12.843   2.341  -3.537  1.00  0.00     0.059 A 
ATOM     71  F   UNL     1      12.121   0.204  -3.155  1.00  0.00    -0.206 F 
ATOM     72  C   UNL     1      13.776   3.235  -4.034  1.00  0.00     0.060 A 
BRANCH  72  73
ATOM     73  S   UNL     1      13.661   4.980  -3.604  1.00  0.00     0.124 S 
ATOM     74  O   UNL     1      14.829   5.150  -2.749  1.00  0.00    -0.237 OA
ATOM     75  O   UNL     1      13.726   5.616  -4.916  1.00  0.00    -0.237 OA
ATOM     76  O   UNL     1      12.367   5.073  -2.934  1.00  0.00    -0.744 OA
ENDBRANCH  72  73
ENDBRANCH  51  65
BRANCH  52  77
ATOM     77  C   UNL     1      15.301  -1.556   3.419  1.00  0.00     0.058 A 
ATOM     78  C   UNL     1      16.225  -0.764   4.128  1.00  0.00     0.135 A 
ATOM     79  C   UNL     1      13.984  -1.564   3.916  1.00  0.00     0.135 A 
ATOM     80  F   UNL     1      17.499  -0.684   3.717  1.00  0.00    -0.206 F 
ATOM     81  C   UNL     1      15.853   0.018   5.231  1.00  0.00     0.059 A 
ATOM     82  C   UNL     1      13.589  -0.795   5.013  1.00  0.00     0.059 A 
ATOM     83  F   UNL     1      13.018  -2.249   3.284  1.00  0.00    -0.206 F 
ATOM     84  C   UNL     1      14.524   0.013   5.652  1.00  0.00     0.060 A 
BRANCH  84  85
ATOM     85  S   UNL     1      13.997   1.151   6.960  1.00  0.00     0.124 S 
ATOM     86  O   UNL     1      14.659   0.591   8.133  1.00  0.00    -0.237 OA
ATOM     87  O   UNL     1      14.514   2.430   6.486  1.00  0.00    -0.237 OA
ATOM     88  O   UNL     1      12.541   1.028   6.948  1.00  0.00    -0.744 OA
ENDBRANCH  84  85
ENDBRANCH  52  77
BRANCH  64  89
ATOM     89  C   UNL     1      18.912  -3.251  -1.540  1.00  0.00     0.058 A 
ATOM     90  C   UNL     1      18.619  -4.444  -0.862  1.00  0.00     0.135 A 
ATOM     91  C   UNL     1      20.185  -3.129  -2.118  1.00  0.00     0.135 A 
ATOM     92  F   UNL     1      17.401  -4.664  -0.345  1.00  0.00    -0.206 F 
ATOM     93  C   UNL     1      19.568  -5.464  -0.743  1.00  0.00     0.059 A 
ATOM     94  C   UNL     1      21.132  -4.139  -2.038  1.00  0.00     0.059 A 
ATOM     95  F   UNL     1      20.505  -2.024  -2.813  1.00  0.00    -0.206 F 
ATOM     96  C   UNL     1      20.822  -5.301  -1.338  1.00  0.00     0.060 A 
BRANCH  96  97
ATOM     97  S   UNL     1      22.035  -6.633  -1.237  1.00  0.00     0.124 S 
ATOM     98  O   UNL     1      22.388  -6.620   0.179  1.00  0.00    -0.237 OA
ATOM     99  O   UNL     1      21.271  -7.791  -1.691  1.00  0.00    -0.237 OA
ATOM    100  O   UNL     1      23.094  -6.201  -2.147  1.00  0.00    -0.744 OA
ENDBRANCH  96  97
ENDBRANCH  64  89
ENDBRANCH  38  39
ENDBRANCH  30  33
ENDBRANCH  28  29
ENDBRANCH  27  28
ENDBRANCH  26  27
ENDBRANCH   1  26
TORSDOF 21
