REMARK SMILES Cc1cc(C)c(C(=O)NCCCCCCNC(=O)c2ccc(-c3c4nc(c(-c5c(F)cc(S(=O)(=O)[O-])cc5F)c5ccc([nH]5)c(-c5c(F)cc(S(=O)(=O)[O-])cc5F)c5nc(c(-c6c(F)cc(S(=O)(=O)[O-])cc6F)c6ccc3[nH]6)C=C5)C=C4)cc2)c(N[C@@H](CO)C(C)C)n1
REMARK SMILES IDX 12 1 11 2 10 3 9 4 7 5 8 6 6 8 1 9 2 10 3 11 93 12 4 13
REMARK SMILES IDX 85 14 5 15 86 16 87 18 88 19 89 20 90 22 91 23 92 24 13 25
REMARK SMILES IDX 14 26 15 27 16 28 17 29 18 31 19 32 20 33 84 34 21 35 83 36
REMARK SMILES IDX 22 37 23 38 24 39 77 40 25 41 82 42 76 43 78 44 26 45 81 46
REMARK SMILES IDX 75 47 74 48 27 50 61 51 40 52 60 53 41 54 44 55 59 56 79 57
REMARK SMILES IDX 42 58 43 59 58 61 80 62 45 63 28 64 29 65 38 66 30 67 31 68
REMARK SMILES IDX 37 69 39 70 32 71 33 72 34 73 35 74 36 75 62 76 63 77 72 78
REMARK SMILES IDX 64 79 65 80 71 81 73 82 66 83 67 84 68 85 69 86 70 87 46 88
REMARK SMILES IDX 47 89 56 90 48 91 49 92 55 93 57 94 50 95 51 96 52 97 53 98
REMARK SMILES IDX 54 99
REMARK H PARENT 9 7 86 17 89 21 16 30 78 49 44 60
REMARK Flexibility Score: inf
ROOT
ATOM      1  C   UNL     1       6.376  -0.619   1.331  1.00  0.00     0.002 C 
ENDROOT
BRANCH   1   2
ATOM      2  C   UNL     1       5.027  -0.113   1.858  1.00  0.00     0.021 C 
BRANCH   2   3
ATOM      3  C   UNL     1       3.875  -0.033   0.858  1.00  0.00     0.116 C 
BRANCH   3   4
ATOM      4  N   UNL     1       3.498  -1.289   0.243  1.00  0.00    -0.352 N 
ATOM      5  C   UNL     1       2.304  -1.703  -0.314  1.00  0.00     0.255 C 
ATOM      6  O   UNL     1       2.281  -2.836  -0.807  1.00  0.00    -0.269 OA
ATOM      7  H   UNL     1       4.215  -1.963   0.218  1.00  0.00     0.163 HD
BRANCH   5   8
ATOM      8  C   UNL     1       1.039  -0.899  -0.277  1.00  0.00     0.085 A 
ATOM      9  C   UNL     1      -2.729   1.068   0.115  1.00  0.00     0.067 C 
ATOM     10  C   UNL     1      -1.401   0.398  -0.060  1.00  0.00     0.040 A 
ATOM     11  C   UNL     1      -0.282   1.129  -0.409  1.00  0.00     0.028 A 
ATOM     12  N   UNL     1      -1.354  -0.935   0.106  1.00  0.00    -0.236 NA
ATOM     13  C   UNL     1       0.947   0.474  -0.590  1.00  0.00    -0.033 A 
ATOM     14  C   UNL     1      -0.171  -1.588  -0.012  1.00  0.00     0.139 A 
ATOM     15  C   UNL     1       2.045   1.308  -1.183  1.00  0.00     0.045 C 
BRANCH  14  16
ATOM     16  N   UNL     1      -0.225  -2.967   0.136  1.00  0.00    -0.364 N 
ATOM     17  H   UNL     1       0.609  -3.466   0.298  1.00  0.00     0.162 HD
BRANCH  16  18
ATOM     18  C   UNL     1      -1.494  -3.699   0.059  1.00  0.00     0.108 C 
BRANCH  18  19
ATOM     19  C   UNL     1      -1.544  -4.468  -1.284  1.00  0.00     0.181 C 
BRANCH  19  20
ATOM     20  O   UNL     1      -0.550  -5.490  -1.360  1.00  0.00    -0.394 OA
ATOM     21  H   UNL     1       0.331  -5.090  -1.296  1.00  0.00     0.210 HD
ENDBRANCH  19  20
ENDBRANCH  18  19
BRANCH  18  22
ATOM     22  C   UNL     1      -1.633  -4.616   1.302  1.00  0.00     0.007 C 
ATOM     23  C   UNL     1      -1.542  -3.798   2.598  1.00  0.00     0.009 C 
ATOM     24  C   UNL     1      -2.964  -5.378   1.299  1.00  0.00     0.009 C 
ENDBRANCH  18  22
ENDBRANCH  16  18
ENDBRANCH  14  16
ENDBRANCH   5   8
ENDBRANCH   3   4
ENDBRANCH   2   3
ENDBRANCH   1   2
BRANCH   1  25
ATOM     25  C   UNL     1       6.909  -0.019   0.026  1.00  0.00     0.002 C 
BRANCH  25  26
ATOM     26  C   UNL     1       7.006   1.504  -0.064  1.00  0.00     0.021 C 
BRANCH  26  27
ATOM     27  C   UNL     1       7.736   2.212   1.072  1.00  0.00     0.116 C 
BRANCH  27  28
ATOM     28  N   UNL     1       9.116   1.787   1.230  1.00  0.00    -0.352 N 
ATOM     29  C   UNL     1      10.254   2.545   1.376  1.00  0.00     0.251 C 
ATOM     30  H   UNL     1       9.257   0.812   1.233  1.00  0.00     0.163 HD
ATOM     31  O   UNL     1      11.352   1.995   1.401  1.00  0.00    -0.269 OA
BRANCH  29  32
ATOM     32  C   UNL     1      10.165   4.021   1.467  1.00  0.00     0.039 A 
ATOM     33  C   UNL     1      11.048   4.796   0.708  1.00  0.00     0.014 A 
ATOM     34  C   UNL     1       9.221   4.645   2.287  1.00  0.00     0.014 A 
ATOM     35  C   UNL     1      10.935   6.189   0.715  1.00  0.00     0.010 A 
ATOM     36  C   UNL     1       9.064   6.030   2.238  1.00  0.00     0.010 A 
ATOM     37  C   UNL     1       9.916   6.817   1.449  1.00  0.00    -0.014 A 
BRANCH  37  38
ATOM     38  C   UNL     1       9.718   8.291   1.393  1.00  0.00     0.031 A 
ATOM     39  C   UNL     1       9.882   9.127   2.633  1.00  0.00     0.074 A 
ATOM     40  C   UNL     1       9.321   8.867   0.240  1.00  0.00     0.049 A 
ATOM     41  N   UNL     1       9.677  10.409   2.799  1.00  0.00    -0.248 NA
ATOM     42  C   UNL     1      10.309   8.426   3.854  1.00  0.00     0.031 C 
ATOM     43  C   UNL     1       9.082   8.160  -1.021  1.00  0.00     0.029 A 
ATOM     44  N   UNL     1       9.037  10.177  -0.059  1.00  0.00    -0.354 N 
ATOM     45  C   UNL     1       9.933  10.665   4.141  1.00  0.00     0.074 A 
ATOM     46  C   UNL     1      10.259   9.396   4.756  1.00  0.00     0.031 C 
ATOM     47  C   UNL     1       8.706   9.045  -1.958  1.00  0.00     0.029 A 
ATOM     48  C   UNL     1       8.639  10.375  -1.361  1.00  0.00     0.049 A 
ATOM     49  H   UNL     1       9.111  10.907   0.598  1.00  0.00     0.167 HD
ATOM     50  C   UNL     1       9.920  11.851   4.796  1.00  0.00     0.037 A 
ATOM     51  C   UNL     1       8.254  11.497  -2.000  1.00  0.00     0.037 A 
ATOM     52  C   UNL     1       9.619  13.113   4.173  1.00  0.00     0.049 A 
ATOM     53  C   UNL     1       8.247  12.803  -1.252  1.00  0.00     0.074 A 
ATOM     54  C   UNL     1       9.634  14.377   4.738  1.00  0.00     0.029 A 
ATOM     55  N   UNL     1       9.247  13.274   2.846  1.00  0.00    -0.354 N 
ATOM     56  N   UNL     1       8.551  13.035   0.003  1.00  0.00    -0.248 NA
ATOM     57  C   UNL     1       7.851  14.001  -2.006  1.00  0.00     0.031 C 
ATOM     58  C   UNL     1       9.227  15.296   3.765  1.00  0.00     0.029 A 
ATOM     59  C   UNL     1       9.011  14.613   2.579  1.00  0.00     0.049 A 
ATOM     60  H   UNL     1       9.163  12.545   2.190  1.00  0.00     0.167 HD
ATOM     61  C   UNL     1       8.416  14.408   0.180  1.00  0.00     0.074 A 
ATOM     62  C   UNL     1       8.008  14.955  -1.097  1.00  0.00     0.031 C 
ATOM     63  C   UNL     1       8.618  15.147   1.298  1.00  0.00     0.037 A 
BRANCH  50  64
ATOM     64  C   UNL     1      10.244  11.840   6.266  1.00  0.00     0.058 A 
ATOM     65  C   UNL     1      11.541  11.570   6.734  1.00  0.00     0.135 A 
ATOM     66  C   UNL     1       9.256  12.139   7.218  1.00  0.00     0.135 A 
ATOM     67  F   UNL     1      12.522  11.266   5.869  1.00  0.00    -0.206 F 
ATOM     68  C   UNL     1      11.838  11.563   8.093  1.00  0.00     0.059 A 
ATOM     69  C   UNL     1       9.537  12.167   8.581  1.00  0.00     0.059 A 
ATOM     70  F   UNL     1       8.000  12.407   6.828  1.00  0.00    -0.206 F 
ATOM     71  C   UNL     1      10.828  11.861   9.009  1.00  0.00     0.060 A 
BRANCH  71  72
ATOM     72  S   UNL     1      11.230  11.845  10.769  1.00  0.00     0.124 S 
ATOM     73  O   UNL     1      11.359  10.414  11.024  1.00  0.00    -0.237 OA
ATOM     74  O   UNL     1      12.472  12.611  10.812  1.00  0.00    -0.237 OA
ATOM     75  O   UNL     1      10.077  12.492  11.387  1.00  0.00    -0.744 OA
ENDBRANCH  71  72
ENDBRANCH  50  64
BRANCH  51  76
ATOM     76  C   UNL     1       7.866  11.437  -3.435  1.00  0.00     0.058 A 
ATOM     77  C   UNL     1       8.684  11.997  -4.428  1.00  0.00     0.135 A 
ATOM     78  C   UNL     1       6.681  10.805  -3.845  1.00  0.00     0.135 A 
ATOM     79  F   UNL     1       9.823  12.618  -4.087  1.00  0.00    -0.206 F 
ATOM     80  C   UNL     1       8.336  11.947  -5.774  1.00  0.00     0.059 A 
ATOM     81  C   UNL     1       6.325  10.719  -5.187  1.00  0.00     0.059 A 
ATOM     82  F   UNL     1       5.872  10.239  -2.936  1.00  0.00    -0.206 F 
ATOM     83  C   UNL     1       7.154  11.302  -6.144  1.00  0.00     0.060 A 
BRANCH  83  84
ATOM     84  S   UNL     1       6.737  11.196  -7.898  1.00  0.00     0.124 S 
ATOM     85  O   UNL     1       6.338  12.568  -8.188  1.00  0.00    -0.237 OA
ATOM     86  O   UNL     1       8.000  10.759  -8.487  1.00  0.00    -0.237 OA
ATOM     87  O   UNL     1       5.665  10.205  -7.928  1.00  0.00    -0.744 OA
ENDBRANCH  83  84
ENDBRANCH  51  76
BRANCH  63  88
ATOM     88  C   UNL     1       8.445  16.637   1.190  1.00  0.00     0.058 A 
ATOM     89  C   UNL     1       7.178  17.230   1.082  1.00  0.00     0.135 A 
ATOM     90  C   UNL     1       9.563  17.485   1.266  1.00  0.00     0.135 A 
ATOM     91  F   UNL     1       6.079  16.465   0.999  1.00  0.00    -0.206 F 
ATOM     92  C   UNL     1       7.026  18.612   1.038  1.00  0.00     0.059 A 
ATOM     93  C   UNL     1       9.431  18.870   1.251  1.00  0.00     0.059 A 
ATOM     94  F   UNL     1      10.797  16.969   1.379  1.00  0.00    -0.206 F 
ATOM     95  C   UNL     1       8.159  19.424   1.128  1.00  0.00     0.060 A 
BRANCH  95  96
ATOM     96  S   UNL     1       7.942  21.217   1.119  1.00  0.00     0.124 S 
ATOM     97  O   UNL     1       7.617  21.467  -0.281  1.00  0.00    -0.237 OA
ATOM     98  O   UNL     1       6.848  21.403   2.067  1.00  0.00    -0.237 OA
ATOM     99  O   UNL     1       9.239  21.718   1.562  1.00  0.00    -0.744 OA
ENDBRANCH  95  96
ENDBRANCH  63  88
ENDBRANCH  37  38
ENDBRANCH  29  32
ENDBRANCH  27  28
ENDBRANCH  26  27
ENDBRANCH  25  26
ENDBRANCH   1  25
TORSDOF 21
