REMARK SMILES CC(C)n1c2c(c3ccccc31)[C@@H](c1ccccc1)N(CC(=O)NCCCCCCNC(=O)c1ccc(-c3c4nc(c(-c5c(F)cc(S(=O)(=O)[O-])cc5F)c5ccc([nH]5)c(-c5c(F)cc(S(=O)(=O)[O-])cc5F)c5nc(c(-c6c(F)cc(S(=O)(=O)[O-])cc6F)c6ccc3[nH]6)C=C5)C=C4)cc1)C2=O
REMARK SMILES IDX 28 1 27 2 26 3 25 4 24 5 22 6 23 7 21 9 20 10 4 11 5 12
REMARK SMILES IDX 12 13 6 14 100 15 7 16 11 17 13 18 101 19 8 20 10 21 9 22
REMARK SMILES IDX 2 23 1 24 3 25 14 26 15 27 19 28 16 29 18 30 17 31 29 32
REMARK SMILES IDX 30 33 31 34 32 35 33 37 34 38 35 39 99 40 36 41 98 42 37 43
REMARK SMILES IDX 38 44 39 45 92 46 40 47 97 48 91 49 93 50 41 51 96 52 90 53
REMARK SMILES IDX 89 54 42 56 76 57 55 58 75 59 56 60 59 61 74 62 94 63 57 64
REMARK SMILES IDX 58 65 73 67 95 68 60 69 43 70 44 71 53 72 45 73 46 74 52 75
REMARK SMILES IDX 54 76 47 77 48 78 49 79 50 80 51 81 77 82 78 83 87 84 79 85
REMARK SMILES IDX 80 86 86 87 88 88 81 89 82 90 83 91 84 92 85 93 61 94 62 95
REMARK SMILES IDX 71 96 63 97 64 98 70 99 72 100 65 101 66 102 67 103 68 104
REMARK SMILES IDX 69 105
REMARK H PARENT 24 8 31 36 93 55 59 66
REMARK Flexibility Score: inf
ROOT
ATOM      1  C   UNL     1      -1.806  -3.295   5.917  1.00  0.00     0.002 C 
ENDROOT
BRANCH   1   2
ATOM      2  C   UNL     1      -2.748  -2.777   4.826  1.00  0.00     0.002 C 
BRANCH   2   3
ATOM      3  C   UNL     1      -2.434  -3.271   3.411  1.00  0.00     0.021 C 
BRANCH   3   4
ATOM      4  C   UNL     1      -2.558  -4.784   3.226  1.00  0.00     0.116 C 
BRANCH   4   5
ATOM      5  N   UNL     1      -3.945  -5.171   3.046  1.00  0.00    -0.355 N 
ATOM      6  C   UNL     1      -4.587  -5.523   1.893  1.00  0.00     0.239 C 
ATOM      7  O   UNL     1      -5.811  -5.672   1.917  1.00  0.00    -0.273 OA
ATOM      8  H   UNL     1      -4.495  -5.182   3.862  1.00  0.00     0.163 HD
BRANCH   6   9
ATOM      9  C   UNL     1      -3.804  -5.657   0.580  1.00  0.00     0.220 C 
BRANCH   9  10
ATOM     10  N   UNL     1      -3.434  -4.359   0.045  1.00  0.00    -0.317 N 
ATOM     11  N   UNL     1      -1.369  -1.432  -0.033  1.00  0.00    -0.334 N 
ATOM     12  C   UNL     1      -2.197  -2.518  -0.123  1.00  0.00     0.114 A 
ATOM     13  C   UNL     1      -2.192  -0.293   0.007  1.00  0.00     0.049 A 
ATOM     14  C   UNL     1      -3.504  -2.120  -0.144  1.00  0.00     0.018 A 
ATOM     15  C   UNL     1      -2.109  -3.943  -0.084  1.00  0.00     0.272 C 
ATOM     16  C   UNL     1      -3.540  -0.727  -0.043  1.00  0.00     0.006 A 
ATOM     17  C   UNL     1      -1.925   1.088   0.088  1.00  0.00     0.027 A 
ATOM     18  C   UNL     1      -4.428  -3.282  -0.188  1.00  0.00     0.150 C 
ATOM     19  O   UNL     1      -1.111  -4.644  -0.065  1.00  0.00    -0.267 OA
ATOM     20  C   UNL     1      -4.593   0.206   0.006  1.00  0.00     0.011 A 
ATOM     21  C   UNL     1      -2.990   1.999   0.115  1.00  0.00     0.002 A 
ATOM     22  C   UNL     1      -4.308   1.567   0.080  1.00  0.00     0.001 A 
BRANCH  11  23
ATOM     23  C   UNL     1       0.095  -1.551  -0.026  1.00  0.00     0.082 C 
ATOM     24  C   UNL     1       0.897  -0.254  -0.167  1.00  0.00     0.031 C 
ATOM     25  C   UNL     1       0.634  -2.283   1.212  1.00  0.00     0.031 C 
ENDBRANCH  11  23
BRANCH  18  26
ATOM     26  C   UNL     1      -5.060  -3.404  -1.568  1.00  0.00    -0.021 A 
ATOM     27  C   UNL     1      -6.042  -4.396  -1.758  1.00  0.00     0.006 A 
ATOM     28  C   UNL     1      -4.692  -2.640  -2.693  1.00  0.00     0.006 A 
ATOM     29  C   UNL     1      -6.598  -4.639  -3.017  1.00  0.00     0.000 A 
ATOM     30  C   UNL     1      -5.265  -2.867  -3.947  1.00  0.00     0.000 A 
ATOM     31  C   UNL     1      -6.208  -3.876  -4.112  1.00  0.00     0.000 A 
ENDBRANCH  18  26
ENDBRANCH   9  10
ENDBRANCH   6   9
ENDBRANCH   4   5
ENDBRANCH   3   4
ENDBRANCH   2   3
ENDBRANCH   1   2
BRANCH   1  32
ATOM     32  C   UNL     1      -0.311  -3.058   5.667  1.00  0.00     0.021 C 
BRANCH  32  33
ATOM     33  C   UNL     1       0.069  -1.597   5.427  1.00  0.00     0.116 C 
BRANCH  33  34
ATOM     34  N   UNL     1      -0.293  -0.712   6.514  1.00  0.00    -0.352 N 
ATOM     35  C   UNL     1       0.287  -0.352   7.699  1.00  0.00     0.251 C 
ATOM     36  H   UNL     1      -1.158  -0.266   6.366  1.00  0.00     0.163 HD
ATOM     37  O   UNL     1      -0.285   0.541   8.329  1.00  0.00    -0.269 OA
BRANCH  35  38
ATOM     38  C   UNL     1       1.492  -0.993   8.295  1.00  0.00     0.039 A 
ATOM     39  C   UNL     1       2.301  -1.945   7.674  1.00  0.00     0.014 A 
ATOM     40  C   UNL     1       1.786  -0.630   9.624  1.00  0.00     0.014 A 
ATOM     41  C   UNL     1       3.294  -2.601   8.394  1.00  0.00     0.010 A 
ATOM     42  C   UNL     1       2.795  -1.264  10.341  1.00  0.00     0.010 A 
ATOM     43  C   UNL     1       3.513  -2.291   9.739  1.00  0.00    -0.014 A 
BRANCH  43  44
ATOM     44  C   UNL     1       4.574  -3.012  10.438  1.00  0.00     0.031 A 
ATOM     45  C   UNL     1       5.931  -2.847   9.841  1.00  0.00     0.074 A 
ATOM     46  C   UNL     1       4.384  -3.705  11.579  1.00  0.00     0.049 A 
ATOM     47  N   UNL     1       6.679  -3.743   9.281  1.00  0.00    -0.248 NA
ATOM     48  C   UNL     1       6.463  -1.478   9.737  1.00  0.00     0.031 C 
ATOM     49  C   UNL     1       3.192  -3.747  12.431  1.00  0.00     0.029 A 
ATOM     50  N   UNL     1       5.273  -4.476  12.267  1.00  0.00    -0.354 N 
ATOM     51  C   UNL     1       7.865  -3.094   8.938  1.00  0.00     0.074 A 
ATOM     52  C   UNL     1       7.615  -1.685   9.100  1.00  0.00     0.031 C 
ATOM     53  C   UNL     1       3.506  -4.319  13.617  1.00  0.00     0.029 A 
ATOM     54  C   UNL     1       4.870  -4.816  13.555  1.00  0.00     0.049 A 
ATOM     55  H   UNL     1       6.132  -4.767  11.884  1.00  0.00     0.167 HD
ATOM     56  C   UNL     1       9.030  -3.774   8.745  1.00  0.00     0.037 A 
ATOM     57  C   UNL     1       5.627  -5.422  14.505  1.00  0.00     0.037 A 
ATOM     58  C   UNL     1       8.790  -5.172   8.501  1.00  0.00     0.049 A 
ATOM     59  C   UNL     1       6.735  -6.111  13.798  1.00  0.00     0.074 A 
ATOM     60  C   UNL     1       8.148  -5.899   7.519  1.00  0.00     0.029 A 
ATOM     61  N   UNL     1       8.969  -6.039   9.549  1.00  0.00    -0.354 N 
ATOM     62  N   UNL     1       6.577  -7.133  13.005  1.00  0.00    -0.248 NA
ATOM     63  C   UNL     1       7.998  -5.403  13.662  1.00  0.00     0.031 C 
ATOM     64  C   UNL     1       7.559  -7.006   8.199  1.00  0.00     0.029 A 
ATOM     65  C   UNL     1       7.913  -6.914   9.546  1.00  0.00     0.049 A 
ATOM     66  H   UNL     1       9.719  -6.034  10.187  1.00  0.00     0.167 HD
ATOM     67  C   UNL     1       7.513  -6.949  12.000  1.00  0.00     0.074 A 
ATOM     68  C   UNL     1       8.423  -5.928  12.512  1.00  0.00     0.031 C 
ATOM     69  C   UNL     1       7.306  -7.447  10.746  1.00  0.00     0.037 A 
BRANCH  56  70
ATOM     70  C   UNL     1      10.395  -3.244   9.130  1.00  0.00     0.058 A 
ATOM     71  C   UNL     1      11.552  -3.966   8.767  1.00  0.00     0.135 A 
ATOM     72  C   UNL     1      10.597  -2.217  10.079  1.00  0.00     0.135 A 
ATOM     73  F   UNL     1      11.482  -4.971   7.880  1.00  0.00    -0.206 F 
ATOM     74  C   UNL     1      12.797  -3.733   9.357  1.00  0.00     0.059 A 
ATOM     75  C   UNL     1      11.838  -1.933  10.640  1.00  0.00     0.059 A 
ATOM     76  F   UNL     1       9.585  -1.501  10.584  1.00  0.00    -0.206 F 
ATOM     77  C   UNL     1      12.924  -2.723  10.306  1.00  0.00     0.060 A 
BRANCH  77  78
ATOM     78  S   UNL     1      14.500  -2.492  11.149  1.00  0.00     0.124 S 
ATOM     79  O   UNL     1      14.596  -3.720  11.928  1.00  0.00    -0.237 OA
ATOM     80  O   UNL     1      15.426  -2.371  10.027  1.00  0.00    -0.237 OA
ATOM     81  O   UNL     1      14.293  -1.268  11.917  1.00  0.00    -0.744 OA
ENDBRANCH  77  78
ENDBRANCH  56  70
BRANCH  57  82
ATOM     82  C   UNL     1       5.702  -5.133  15.965  1.00  0.00     0.058 A 
ATOM     83  C   UNL     1       6.479  -5.948  16.812  1.00  0.00     0.135 A 
ATOM     84  C   UNL     1       5.311  -3.887  16.493  1.00  0.00     0.135 A 
ATOM     85  F   UNL     1       6.894  -7.154  16.395  1.00  0.00    -0.206 F 
ATOM     86  C   UNL     1       6.929  -5.513  18.062  1.00  0.00     0.059 A 
ATOM     87  C   UNL     1       5.739  -3.437  17.742  1.00  0.00     0.059 A 
ATOM     88  F   UNL     1       4.588  -3.023  15.766  1.00  0.00    -0.206 F 
ATOM     89  C   UNL     1       6.582  -4.238  18.503  1.00  0.00     0.060 A 
BRANCH  89  90
ATOM     90  S   UNL     1       7.350  -3.584  20.005  1.00  0.00     0.124 S 
ATOM     91  O   UNL     1       6.761  -4.427  21.039  1.00  0.00    -0.237 OA
ATOM     92  O   UNL     1       8.769  -3.797  19.740  1.00  0.00    -0.237 OA
ATOM     93  O   UNL     1       6.925  -2.186  20.022  1.00  0.00    -0.744 OA
ENDBRANCH  89  90
ENDBRANCH  57  82
BRANCH  69  94
ATOM     94  C   UNL     1       6.209  -8.465  10.565  1.00  0.00     0.058 A 
ATOM     95  C   UNL     1       4.838  -8.203  10.746  1.00  0.00     0.135 A 
ATOM     96  C   UNL     1       6.556  -9.726  10.056  1.00  0.00     0.135 A 
ATOM     97  F   UNL     1       4.413  -6.993  11.136  1.00  0.00    -0.206 F 
ATOM     98  C   UNL     1       3.862  -9.163  10.470  1.00  0.00     0.059 A 
ATOM     99  C   UNL     1       5.598 -10.687   9.744  1.00  0.00     0.059 A 
ATOM    100  F   UNL     1       7.843 -10.019   9.808  1.00  0.00    -0.206 F 
ATOM    101  C   UNL     1       4.252 -10.403   9.963  1.00  0.00     0.060 A 
BRANCH 101 102
ATOM    102  S   UNL     1       2.984 -11.613   9.527  1.00  0.00     0.124 S 
ATOM    103  O   UNL     1       2.460 -11.997  10.833  1.00  0.00    -0.237 OA
ATOM    104  O   UNL     1       2.081 -10.834   8.685  1.00  0.00    -0.237 OA
ATOM    105  O   UNL     1       3.732 -12.654   8.825  1.00  0.00    -0.744 OA
ENDBRANCH 101 102
ENDBRANCH  69  94
ENDBRANCH  43  44
ENDBRANCH  35  38
ENDBRANCH  33  34
ENDBRANCH  32  33
ENDBRANCH   1  32
TORSDOF 19
