REMARK SMILES CC(=O)N1CCCN(S(=O)(=O)c2ccc(C)c(C(=O)NCCCCCCNC(=O)c3ccc(-c4c5nc(c(-c6c(F)cc(S(=O)(=O)[O-])cc6F)c6ccc([nH]6)c(-c6c(F)cc(S(=O)(=O)[O-])cc6F)c6nc(c(-c7c(F)cc(S(=O)(=O)[O-])cc7F)c7ccc4[nH]7)C=C6)C=C5)cc3)c2)CC1
REMARK SMILES IDX 22 1 21 2 20 3 18 4 19 5 17 7 12 8 13 9 96 10 14 11 15 12
REMARK SMILES IDX 16 13 9 14 10 15 11 16 8 17 97 18 98 19 4 20 2 21 1 22 3 23
REMARK SMILES IDX 5 24 7 26 6 27 23 29 24 30 25 31 26 32 27 33 28 34 29 36
REMARK SMILES IDX 30 37 31 38 95 39 32 40 94 41 33 42 34 43 35 44 88 45 36 46
REMARK SMILES IDX 93 47 87 48 89 49 37 50 92 51 86 52 85 53 38 55 72 56 51 57
REMARK SMILES IDX 71 58 52 59 55 60 70 61 90 62 53 63 54 64 69 66 91 67 56 68
REMARK SMILES IDX 39 69 40 70 49 71 41 72 42 73 48 74 50 75 43 76 44 77 45 78
REMARK SMILES IDX 46 79 47 80 73 81 74 82 83 83 75 84 76 85 82 86 84 87 77 88
REMARK SMILES IDX 78 89 79 90 80 91 81 92 57 93 58 94 67 95 59 96 60 97 66 98
REMARK SMILES IDX 68 99 61 100 62 101 63 102 64 103 65 104
REMARK H PARENT 20 6 27 35 89 54 55 65
REMARK Flexibility Score: 90.00
ROOT
ATOM      1  C   UNL     1      -2.508  -7.606   9.532  1.00  0.00     0.021 C 
ENDROOT
BRANCH   1   2
ATOM      2  C   UNL     1      -2.212  -6.121   9.369  1.00  0.00     0.116 C 
BRANCH   2   3
ATOM      3  N   UNL     1      -0.931  -5.606   9.769  1.00  0.00    -0.352 N 
ATOM      4  C   UNL     1      -0.303  -4.434   9.389  1.00  0.00     0.251 C 
ATOM      5  O   UNL     1       0.692  -4.104  10.040  1.00  0.00    -0.269 OA
ATOM      6  H   UNL     1      -0.429  -6.168  10.403  1.00  0.00     0.163 HD
BRANCH   4   7
ATOM      7  C   UNL     1      -0.660  -3.602   8.173  1.00  0.00     0.044 A 
ATOM      8  C   UNL     1       0.368  -2.305   6.339  1.00  0.00     0.083 A 
ATOM      9  C   UNL     1      -0.853  -2.285   5.684  1.00  0.00     0.022 A 
ATOM     10  C   UNL     1       0.472  -3.002   7.551  1.00  0.00     0.035 A 
ATOM     11  C   UNL     1      -1.988  -2.759   6.319  1.00  0.00     0.005 A 
ATOM     12  C   UNL     1      -1.926  -3.347   7.598  1.00  0.00    -0.038 A 
ATOM     13  C   UNL     1      -3.275  -3.595   8.207  1.00  0.00     0.045 C 
BRANCH   8  14
ATOM     14  S   UNL     1       1.822  -1.645   5.546  1.00  0.00     0.243 S 
ATOM     15  O   UNL     1       1.928  -2.355   4.276  1.00  0.00    -0.207 OA
ATOM     16  O   UNL     1       2.906  -1.689   6.484  1.00  0.00    -0.207 OA
BRANCH  14  17
ATOM     17  N   UNL     1       1.549   0.009   5.209  1.00  0.00    -0.196 NA
BRANCH  17  18
ATOM     18  C   UNL     1       0.310   0.520   4.578  1.00  0.00     0.124 C 
BRANCH  18  19
ATOM     19  C   UNL     1       0.066   0.022   3.161  1.00  0.00     0.136 C 
BRANCH  19  20
ATOM     20  N   UNL     1       1.041   0.420   2.148  1.00  0.00    -0.342 N 
BRANCH  20  21
ATOM     21  C   UNL     1       0.492   0.902   0.961  1.00  0.00     0.219 C 
ATOM     22  C   UNL     1       1.155   0.482  -0.327  1.00  0.00     0.114 C 
ATOM     23  O   UNL     1      -0.549   1.560   0.937  1.00  0.00    -0.275 OA
ENDBRANCH  20  21
BRANCH  20  24
ATOM     24  C   UNL     1       2.388  -0.137   2.257  1.00  0.00     0.121 CG0
ATOM     25  G   UNL     1       3.285   0.404   3.376  1.00  0.00     0.000 G0
ENDBRANCH  20  24
ENDBRANCH  19  20
ENDBRANCH  18  19
ENDBRANCH  17  18
BRANCH  17  26
ATOM     26  C   UNL     1       2.726   0.782   4.744  1.00  0.00     0.104 C 
BRANCH  26  27
ATOM     27  C   UNL     1       3.285   0.404   3.376  1.00  0.00     0.038 CG0
ATOM     28  G   UNL     1       2.388  -0.137   2.257  1.00  0.00     0.000 G0
ENDBRANCH  26  27
ENDBRANCH  17  26
ENDBRANCH  14  17
ENDBRANCH   8  14
ENDBRANCH   4   7
ENDBRANCH   2   3
ENDBRANCH   1   2
BRANCH   1  29
ATOM     29  C   UNL     1      -2.755  -8.187  10.929  1.00  0.00     0.002 C 
BRANCH  29  30
ATOM     30  C   UNL     1      -3.592  -7.401  11.950  1.00  0.00     0.002 C 
BRANCH  30  31
ATOM     31  C   UNL     1      -4.901  -6.763  11.489  1.00  0.00     0.021 C 
BRANCH  31  32
ATOM     32  C   UNL     1      -5.980  -7.727  11.029  1.00  0.00     0.116 C 
BRANCH  32  33
ATOM     33  N   UNL     1      -6.917  -8.105  12.074  1.00  0.00    -0.352 N 
ATOM     34  C   UNL     1      -8.206  -8.568  11.852  1.00  0.00     0.251 C 
ATOM     35  H   UNL     1      -6.615  -8.027  13.008  1.00  0.00     0.163 HD
ATOM     36  O   UNL     1      -9.157  -8.334  12.586  1.00  0.00    -0.269 OA
BRANCH  34  37
ATOM     37  C   UNL     1      -8.348  -9.510  10.724  1.00  0.00     0.039 A 
ATOM     38  C   UNL     1      -8.430 -10.876  11.022  1.00  0.00     0.014 A 
ATOM     39  C   UNL     1      -8.084  -9.061   9.435  1.00  0.00     0.014 A 
ATOM     40  C   UNL     1      -8.068 -11.805  10.052  1.00  0.00     0.010 A 
ATOM     41  C   UNL     1      -7.617  -9.971   8.516  1.00  0.00     0.010 A 
ATOM     42  C   UNL     1      -7.578 -11.335   8.837  1.00  0.00    -0.014 A 
BRANCH  42  43
ATOM     43  C   UNL     1      -6.974 -12.173   7.814  1.00  0.00     0.031 A 
ATOM     44  C   UNL     1      -7.742 -12.454   6.582  1.00  0.00     0.074 A 
ATOM     45  C   UNL     1      -5.668 -12.497   7.926  1.00  0.00     0.049 A 
ATOM     46  N   UNL     1      -7.427 -13.345   5.710  1.00  0.00    -0.248 NA
ATOM     47  C   UNL     1      -8.970 -11.739   6.247  1.00  0.00     0.031 C 
ATOM     48  C   UNL     1      -4.776 -12.976   6.878  1.00  0.00     0.029 A 
ATOM     49  N   UNL     1      -4.924 -12.631   9.101  1.00  0.00    -0.354 N 
ATOM     50  C   UNL     1      -8.217 -13.147   4.597  1.00  0.00     0.074 A 
ATOM     51  C   UNL     1      -9.190 -12.161   5.000  1.00  0.00     0.031 C 
ATOM     52  C   UNL     1      -3.726 -13.592   7.447  1.00  0.00     0.029 A 
ATOM     53  C   UNL     1      -3.994 -13.665   8.874  1.00  0.00     0.049 A 
ATOM     54  H   UNL     1      -5.029 -12.106   9.928  1.00  0.00     0.167 HD
ATOM     55  C   UNL     1      -7.868 -13.753   3.426  1.00  0.00     0.037 A 
ATOM     56  C   UNL     1      -4.081 -14.832   9.583  1.00  0.00     0.037 A 
ATOM     57  C   UNL     1      -6.732 -14.648   3.639  1.00  0.00     0.049 A 
ATOM     58  C   UNL     1      -4.416 -16.031   8.719  1.00  0.00     0.074 A 
ATOM     59  C   UNL     1      -5.365 -14.475   3.487  1.00  0.00     0.029 A 
ATOM     60  N   UNL     1      -6.900 -15.784   4.424  1.00  0.00    -0.354 N 
ATOM     61  N   UNL     1      -4.929 -15.947   7.521  1.00  0.00    -0.248 NA
ATOM     62  C   UNL     1      -4.177 -17.416   9.118  1.00  0.00     0.031 C 
ATOM     63  C   UNL     1      -4.710 -15.453   4.278  1.00  0.00     0.029 A 
ATOM     64  C   UNL     1      -5.677 -16.240   4.880  1.00  0.00     0.049 A 
ATOM     65  H   UNL     1      -7.767 -16.203   4.627  1.00  0.00     0.167 HD
ATOM     66  C   UNL     1      -5.087 -17.201   6.991  1.00  0.00     0.074 A 
ATOM     67  C   UNL     1      -4.593 -18.088   8.029  1.00  0.00     0.031 C 
ATOM     68  C   UNL     1      -5.597 -17.412   5.740  1.00  0.00     0.037 A 
BRANCH  55  69
ATOM     69  C   UNL     1      -8.361 -13.312   2.063  1.00  0.00     0.058 A 
ATOM     70  C   UNL     1      -7.523 -13.415   0.930  1.00  0.00     0.135 A 
ATOM     71  C   UNL     1      -9.618 -12.728   1.809  1.00  0.00     0.135 A 
ATOM     72  F   UNL     1      -6.327 -14.016   0.994  1.00  0.00    -0.206 F 
ATOM     73  C   UNL     1      -7.861 -12.893  -0.320  1.00  0.00     0.059 A 
ATOM     74  C   UNL     1      -9.959 -12.149   0.580  1.00  0.00     0.059 A 
ATOM     75  F   UNL     1     -10.589 -12.738   2.732  1.00  0.00    -0.206 F 
ATOM     76  C   UNL     1      -9.069 -12.231  -0.480  1.00  0.00     0.060 A 
BRANCH  76  77
ATOM     77  S   UNL     1      -9.453 -11.503  -2.084  1.00  0.00     0.124 S 
ATOM     78  O   UNL     1      -8.297 -10.642  -2.316  1.00  0.00    -0.237 OA
ATOM     79  O   UNL     1      -9.549 -12.682  -2.938  1.00  0.00    -0.237 OA
ATOM     80  O   UNL     1     -10.710 -10.798  -1.845  1.00  0.00    -0.744 OA
ENDBRANCH  76  77
ENDBRANCH  55  69
BRANCH  56  81
ATOM     81  C   UNL     1      -4.491 -14.599  11.001  1.00  0.00     0.058 A 
ATOM     82  C   UNL     1      -3.597 -13.868  11.812  1.00  0.00     0.135 A 
ATOM     83  C   UNL     1      -5.838 -14.619  11.390  1.00  0.00     0.135 A 
ATOM     84  F   UNL     1      -2.289 -13.835  11.503  1.00  0.00    -0.206 F 
ATOM     85  C   UNL     1      -4.042 -13.036  12.836  1.00  0.00     0.059 A 
ATOM     86  C   UNL     1      -6.304 -13.804  12.428  1.00  0.00     0.059 A 
ATOM     87  F   UNL     1      -6.738 -15.306  10.672  1.00  0.00    -0.206 F 
ATOM     88  C   UNL     1      -5.410 -12.955  13.084  1.00  0.00     0.060 A 
BRANCH  88  89
ATOM     89  S   UNL     1      -6.003 -11.616  14.150  1.00  0.00     0.124 S 
ATOM     90  O   UNL     1      -5.266 -11.860  15.385  1.00  0.00    -0.237 OA
ATOM     91  O   UNL     1      -5.602 -10.422  13.403  1.00  0.00    -0.237 OA
ATOM     92  O   UNL     1      -7.440 -11.851  14.216  1.00  0.00    -0.744 OA
ENDBRANCH  88  89
ENDBRANCH  56  81
BRANCH  68  93
ATOM     93  C   UNL     1      -5.992 -18.747   5.156  1.00  0.00     0.058 A 
ATOM     94  C   UNL     1      -6.505 -19.811   5.915  1.00  0.00     0.135 A 
ATOM     95  C   UNL     1      -6.015 -18.929   3.750  1.00  0.00     0.135 A 
ATOM     96  F   UNL     1      -6.626 -19.721   7.247  1.00  0.00    -0.206 F 
ATOM     97  C   UNL     1      -6.959 -20.994   5.327  1.00  0.00     0.059 A 
ATOM     98  C   UNL     1      -6.518 -20.074   3.142  1.00  0.00     0.059 A 
ATOM     99  F   UNL     1      -5.561 -17.983   2.914  1.00  0.00    -0.206 F 
ATOM    100  C   UNL     1      -6.965 -21.115   3.940  1.00  0.00     0.060 A 
BRANCH 100 101
ATOM    101  S   UNL     1      -7.609 -22.611   3.172  1.00  0.00     0.124 S 
ATOM    102  O   UNL     1      -6.408 -23.436   3.094  1.00  0.00    -0.237 OA
ATOM    103  O   UNL     1      -8.619 -23.057   4.128  1.00  0.00    -0.237 OA
ATOM    104  O   UNL     1      -8.133 -22.132   1.897  1.00  0.00    -0.744 OA
ENDBRANCH 100 101
ENDBRANCH  68  93
ENDBRANCH  42  43
ENDBRANCH  34  37
ENDBRANCH  32  33
ENDBRANCH  31  32
ENDBRANCH  30  31
ENDBRANCH  29  30
ENDBRANCH   1  29
TORSDOF 19
