REMARK SMILES C=C[C@@H]1[C@@H](O)C[C@@H]2[C@@]3(CC[C@@]4(C)[C@@H]([C@H](C)CCC=C(C)C)CC[C@@]24C)C[C@@]13CCC(=O)NCCCCCCNC(=O)c1ccc(-c2c3nc(c(-c4c(F)cc(S(=O)(=O)[O-])cc4F)c4ccc([nH]4)c(-c4c(F)cc(S(=O)(=O)[O-])cc4F)c4nc(c(-c5c(F)cc(S(=O)(=O)[O-])cc5F)c5ccc2[nH]5)C=C4)C=C3)cc1
REMARK SMILES IDX 34 1 33 2 32 3 30 4 31 5 29 7 28 8 27 9 3 10 4 11 6 12 8 13
REMARK SMILES IDX 26 14 7 15 9 16 24 17 10 18 11 19 23 20 25 21 12 22 13 23
REMARK SMILES IDX 22 24 2 25 1 26 5 27 14 29 15 30 16 31 17 32 18 33 19 34
REMARK SMILES IDX 20 35 21 36 35 37 36 38 37 39 38 40 39 41 40 42 41 44 42 45
REMARK SMILES IDX 43 46 107 47 44 48 106 49 45 50 46 51 47 52 100 53 48 54
REMARK SMILES IDX 105 55 99 56 101 57 49 58 104 59 98 60 97 61 50 63 84 64
REMARK SMILES IDX 63 65 83 66 64 67 67 68 82 69 102 70 65 71 66 72 81 74
REMARK SMILES IDX 103 75 68 76 51 77 52 78 61 79 53 80 54 81 60 82 62 83 55 84
REMARK SMILES IDX 56 85 57 86 58 87 59 88 85 89 86 90 95 91 87 92 88 93 94 94
REMARK SMILES IDX 96 95 89 96 90 97 91 98 92 99 93 100 69 101 70 102 79 103
REMARK SMILES IDX 71 104 72 105 78 106 80 107 73 108 74 109 75 110 76 111
REMARK SMILES IDX 77 112
REMARK H PARENT 32 6 5 28 39 43 101 62 67 73
REMARK Flexibility Score: inf
ROOT
ATOM      1  C   UNL     1      -4.299  -2.046   6.013  1.00  0.00     0.021 C 
ENDROOT
BRANCH   1   2
ATOM      2  C   UNL     1      -3.612  -3.693   4.895  1.00  0.00     0.116 C 
BRANCH   2   3
ATOM      3  N   UNL     1      -2.297  -4.045   4.173  1.00  0.00    -0.356 N 
ATOM      4  C   UNL     1      -1.620  -5.218   4.330  1.00  0.00     0.220 C 
ATOM      5  O   UNL     1      -1.376  -5.940   3.365  1.00  0.00    -0.275 OA
ATOM      6  H   UNL     1      -1.919  -3.377   3.557  1.00  0.00     0.163 HD
BRANCH   4   7
ATOM      7  C   UNL     1      -1.196  -5.551   5.720  1.00  0.00     0.100 C 
BRANCH   7   8
ATOM      8  C   UNL     1      -1.135  -4.322   6.622  1.00  0.00     0.018 C 
BRANCH   8   9
ATOM      9  C   UNL     1      -2.327  -3.322   6.528  1.00  0.00    -0.014 C 
ATOM     10  C   UNL     1      -3.973  -4.128   7.123  1.00  0.00     0.047 C 
ATOM     11  C   UNL     1      -5.518  -3.955   5.958  1.00  0.00     0.122 C 
ATOM     12  C   UNL     1      -5.530  -2.763   4.418  1.00  0.00     0.037 C 
ATOM     13  C   UNL     1      -2.339  -1.897   5.183  1.00  0.00    -0.019 C 
ATOM     14  C   UNL     1      -1.944  -1.923   6.793  1.00  0.00     0.016 C 
ATOM     15  C   UNL     1      -3.866  -1.840   3.926  1.00  0.00     0.005 C 
ATOM     16  C   UNL     1      -1.169  -1.306   4.436  1.00  0.00     0.008 C 
ATOM     17  C   UNL     1      -4.025  -0.663   2.902  1.00  0.00    -0.023 C 
ATOM     18  C   UNL     1      -1.478  -0.004   3.733  1.00  0.00     0.008 C 
ATOM     19  C   UNL     1      -2.601   0.045   2.651  1.00  0.00    -0.024 C 
ATOM     20  C   UNL     1      -4.405  -1.047   1.389  1.00  0.00     0.008 C 
ATOM     21  C   UNL     1      -5.430  -0.102   3.219  1.00  0.00     0.012 C 
ATOM     22  C   UNL     1      -2.809   1.582   2.373  1.00  0.00     0.012 C 
ATOM     23  C   UNL     1      -2.053  -0.585   1.264  1.00  0.00    -0.002 C 
ATOM     24  C   UNL     1      -3.327  -0.560   0.438  1.00  0.00     0.005 C 
BRANCH  10  25
ATOM     25  C   UNL     1      -3.782  -5.579   7.600  1.00  0.00    -0.028 C 
ATOM     26  C   UNL     1      -4.191  -6.704   6.992  1.00  0.00     0.004 C 
ENDBRANCH  10  25
BRANCH  11  27
ATOM     27  O   UNL     1      -6.680  -3.672   6.749  1.00  0.00    -0.392 OA
ATOM     28  H   UNL     1      -6.602  -2.785   7.133  1.00  0.00     0.210 HD
ENDBRANCH  11  27
BRANCH  23  29
ATOM     29  C   UNL     1      -1.281  -1.945   0.933  1.00  0.00    -0.010 C 
ATOM     30  C   UNL     1      -2.053  -3.261   0.754  1.00  0.00     0.008 C 
BRANCH  29  31
ATOM     31  C   UNL     1       0.197  -2.069   1.410  1.00  0.00     0.008 C 
BRANCH  31  32
ATOM     32  C   UNL     1       0.697  -3.283   2.221  1.00  0.00     0.027 C 
BRANCH  32  33
ATOM     33  C   UNL     1       0.906  -4.593   1.520  1.00  0.00    -0.028 C 
ATOM     34  C   UNL     1       1.582  -5.636   2.051  1.00  0.00    -0.080 C 
ATOM     35  C   UNL     1       1.622  -6.969   1.355  1.00  0.00     0.039 C 
ATOM     36  C   UNL     1       2.277  -5.625   3.389  1.00  0.00     0.039 C 
ENDBRANCH  32  33
ENDBRANCH  31  32
ENDBRANCH  29  31
ENDBRANCH  23  29
ENDBRANCH   8   9
ENDBRANCH   7   8
ENDBRANCH   4   7
ENDBRANCH   2   3
ENDBRANCH   1   2
BRANCH   1  37
ATOM     37  C   UNL     1      -4.209  -0.247   6.247  1.00  0.00     0.002 C 
BRANCH  37  38
ATOM     38  C   UNL     1      -4.149   1.180   5.588  1.00  0.00     0.002 C 
BRANCH  38  39
ATOM     39  C   UNL     1      -5.084   2.232   4.932  1.00  0.00     0.021 C 
BRANCH  39  40
ATOM     40  C   UNL     1      -6.353   2.720   5.587  1.00  0.00     0.116 C 
BRANCH  40  41
ATOM     41  N   UNL     1      -6.708   4.043   5.020  1.00  0.00    -0.352 N 
ATOM     42  C   UNL     1      -7.843   4.788   5.202  1.00  0.00     0.251 C 
ATOM     43  H   UNL     1      -6.032   4.444   4.428  1.00  0.00     0.163 HD
ATOM     44  O   UNL     1      -8.041   5.824   4.555  1.00  0.00    -0.269 OA
BRANCH  42  45
ATOM     45  C   UNL     1      -8.836   4.309   6.166  1.00  0.00     0.039 A 
ATOM     46  C   UNL     1     -10.184   4.230   5.814  1.00  0.00     0.014 A 
ATOM     47  C   UNL     1      -8.391   3.872   7.412  1.00  0.00     0.014 A 
ATOM     48  C   UNL     1     -11.081   3.659   6.713  1.00  0.00     0.010 A 
ATOM     49  C   UNL     1      -9.249   3.181   8.240  1.00  0.00     0.010 A 
ATOM     50  C   UNL     1     -10.611   3.122   7.922  1.00  0.00    -0.014 A 
BRANCH  50  51
ATOM     51  C   UNL     1     -11.535   2.632   8.962  1.00  0.00     0.031 A 
ATOM     52  C   UNL     1     -11.589   3.380  10.268  1.00  0.00     0.074 A 
ATOM     53  C   UNL     1     -12.249   1.512   8.756  1.00  0.00     0.049 A 
ATOM     54  N   UNL     1     -12.243   3.090  11.359  1.00  0.00    -0.248 NA
ATOM     55  C   UNL     1     -10.748   4.589  10.382  1.00  0.00     0.031 C 
ATOM     56  C   UNL     1     -12.201   0.681   7.550  1.00  0.00     0.029 A 
ATOM     57  N   UNL     1     -13.151   0.874   9.563  1.00  0.00    -0.354 N 
ATOM     58  C   UNL     1     -11.866   4.055  12.286  1.00  0.00     0.074 A 
ATOM     59  C   UNL     1     -10.868   4.889  11.664  1.00  0.00     0.031 C 
ATOM     60  C   UNL     1     -13.063  -0.341   7.687  1.00  0.00     0.029 A 
ATOM     61  C   UNL     1     -13.701  -0.249   8.996  1.00  0.00     0.049 A 
ATOM     62  H   UNL     1     -13.384   1.191  10.466  1.00  0.00     0.167 HD
ATOM     63  C   UNL     1     -12.349   4.256  13.532  1.00  0.00     0.037 A 
ATOM     64  C   UNL     1     -14.623  -1.098   9.488  1.00  0.00     0.037 A 
ATOM     65  C   UNL     1     -13.405   3.466  14.096  1.00  0.00     0.049 A 
ATOM     66  C   UNL     1     -15.196  -0.813  10.852  1.00  0.00     0.074 A 
ATOM     67  C   UNL     1     -14.048   3.625  15.308  1.00  0.00     0.029 A 
ATOM     68  N   UNL     1     -13.986   2.372  13.468  1.00  0.00    -0.354 N 
ATOM     69  N   UNL     1     -14.889   0.151  11.690  1.00  0.00    -0.248 NA
ATOM     70  C   UNL     1     -16.246  -1.717  11.334  1.00  0.00     0.031 C 
ATOM     71  C   UNL     1     -14.998   2.606  15.428  1.00  0.00     0.029 A 
ATOM     72  C   UNL     1     -14.972   1.837  14.273  1.00  0.00     0.049 A 
ATOM     73  H   UNL     1     -13.732   2.030  12.581  1.00  0.00     0.167 HD
ATOM     74  C   UNL     1     -15.722  -0.018  12.789  1.00  0.00     0.074 A 
ATOM     75  C   UNL     1     -16.560  -1.166  12.499  1.00  0.00     0.031 C 
ATOM     76  C   UNL     1     -15.791   0.700  13.937  1.00  0.00     0.037 A 
BRANCH  63  77
ATOM     77  C   UNL     1     -11.765   5.382  14.338  1.00  0.00     0.058 A 
ATOM     78  C   UNL     1     -11.988   6.727  13.999  1.00  0.00     0.135 A 
ATOM     79  C   UNL     1     -10.984   5.114  15.473  1.00  0.00     0.135 A 
ATOM     80  F   UNL     1     -12.705   7.041  12.908  1.00  0.00    -0.206 F 
ATOM     81  C   UNL     1     -11.438   7.766  14.742  1.00  0.00     0.059 A 
ATOM     82  C   UNL     1     -10.448   6.138  16.249  1.00  0.00     0.059 A 
ATOM     83  F   UNL     1     -10.729   3.847  15.835  1.00  0.00    -0.206 F 
ATOM     84  C   UNL     1     -10.672   7.461  15.868  1.00  0.00     0.060 A 
BRANCH  84  85
ATOM     85  S   UNL     1      -9.986   8.820  16.838  1.00  0.00     0.124 S 
ATOM     86  O   UNL     1      -8.913   9.289  15.965  1.00  0.00    -0.237 OA
ATOM     87  O   UNL     1     -11.132   9.718  16.968  1.00  0.00    -0.237 OA
ATOM     88  O   UNL     1      -9.556   8.175  18.072  1.00  0.00    -0.744 OA
ENDBRANCH  84  85
ENDBRANCH  63  77
BRANCH  64  89
ATOM     89  C   UNL     1     -15.084  -2.258   8.681  1.00  0.00     0.058 A 
ATOM     90  C   UNL     1     -16.379  -2.298   8.143  1.00  0.00     0.135 A 
ATOM     91  C   UNL     1     -14.239  -3.350   8.426  1.00  0.00     0.135 A 
ATOM     92  F   UNL     1     -17.224  -1.278   8.356  1.00  0.00    -0.206 F 
ATOM     93  C   UNL     1     -16.831  -3.389   7.408  1.00  0.00     0.059 A 
ATOM     94  C   UNL     1     -14.660  -4.442   7.672  1.00  0.00     0.059 A 
ATOM     95  F   UNL     1     -12.983  -3.353   8.899  1.00  0.00    -0.206 F 
ATOM     96  C   UNL     1     -15.964  -4.459   7.180  1.00  0.00     0.060 A 
BRANCH  96  97
ATOM     97  S   UNL     1     -16.554  -5.861   6.206  1.00  0.00     0.124 S 
ATOM     98  O   UNL     1     -17.447  -6.521   7.152  1.00  0.00    -0.237 OA
ATOM     99  O   UNL     1     -17.199  -5.201   5.074  1.00  0.00    -0.237 OA
ATOM    100  O   UNL     1     -15.329  -6.585   5.883  1.00  0.00    -0.744 OA
ENDBRANCH  96  97
ENDBRANCH  64  89
BRANCH  76 101
ATOM    101  C   UNL     1     -16.816   0.278  14.948  1.00  0.00     0.058 A 
ATOM    102  C   UNL     1     -16.637  -0.871  15.732  1.00  0.00     0.135 A 
ATOM    103  C   UNL     1     -17.948   1.073  15.185  1.00  0.00     0.135 A 
ATOM    104  F   UNL     1     -15.570  -1.663  15.539  1.00  0.00    -0.206 F 
ATOM    105  C   UNL     1     -17.561  -1.231  16.705  1.00  0.00     0.059 A 
ATOM    106  C   UNL     1     -18.869   0.747  16.173  1.00  0.00     0.059 A 
ATOM    107  F   UNL     1     -18.152   2.191  14.470  1.00  0.00    -0.206 F 
ATOM    108  C   UNL     1     -18.672  -0.413  16.920  1.00  0.00     0.060 A 
BRANCH 108 109
ATOM    109  S   UNL     1     -19.841  -0.870  18.216  1.00  0.00     0.124 S 
ATOM    110  O   UNL     1     -20.551  -1.981  17.591  1.00  0.00    -0.237 OA
ATOM    111  O   UNL     1     -18.958  -1.223  19.323  1.00  0.00    -0.237 OA
ATOM    112  O   UNL     1     -20.624   0.346  18.410  1.00  0.00    -0.744 OA
ENDBRANCH 108 109
ENDBRANCH  76 101
ENDBRANCH  50  51
ENDBRANCH  42  45
ENDBRANCH  40  41
ENDBRANCH  39  40
ENDBRANCH  38  39
ENDBRANCH  37  38
ENDBRANCH   1  37
TORSDOF 24
