REMARK SMILES CC(C)(C[NH2+]C[C@](C)(O)CO)C(=O)NCCCCCCNC(=O)c1ccc(-c2c3nc(c(-c4c(F)cc(S(=O)(=O)[O-])cc4F)c4ccc([nH]4)c(-c4c(F)cc(S(=O)(=O)[O-])cc4F)c4nc(c(-c5c(F)cc(S(=O)(=O)[O-])cc5F)c5ccc2[nH]5)C=C4)C=C3)cc1
REMARK SMILES IDX 16 1 15 2 14 3 12 4 13 5 2 7 1 8 3 9 4 10 5 11 6 14 7 15
REMARK SMILES IDX 8 16 9 17 10 19 11 20 17 22 18 23 19 24 20 25 21 26 22 27
REMARK SMILES IDX 23 29 24 30 25 31 89 32 26 33 88 34 27 35 28 36 29 37 82 38
REMARK SMILES IDX 30 39 87 40 81 41 83 42 31 43 86 44 80 45 79 46 32 48 66 49
REMARK SMILES IDX 45 50 65 51 46 52 49 53 64 54 84 55 47 56 48 57 63 59 85 60
REMARK SMILES IDX 50 61 33 62 34 63 43 64 35 65 36 66 42 67 44 68 37 69 38 70
REMARK SMILES IDX 39 71 40 72 41 73 67 74 68 75 77 76 69 77 70 78 76 79 78 80
REMARK SMILES IDX 71 81 72 82 73 83 74 84 75 85 51 86 52 87 61 88 53 89 54 90
REMARK SMILES IDX 60 91 62 92 55 93 56 94 57 95 58 96 59 97
REMARK H PARENT 14 6 5 12 5 13 9 18 11 21 21 28 83 47 49 58
REMARK Flexibility Score: inf
ROOT
ATOM      1  C   UNL     1      -4.342   4.171   3.668  1.00  0.00     0.021 C 
ENDROOT
BRANCH   1   2
ATOM      2  C   UNL     1      -5.326   4.759   2.659  1.00  0.00     0.116 C 
BRANCH   2   3
ATOM      3  N   UNL     1      -4.637   5.465   1.598  1.00  0.00    -0.355 N 
ATOM      4  C   UNL     1      -4.511   5.227   0.267  1.00  0.00     0.231 C 
ATOM      5  O   UNL     1      -3.802   6.027  -0.355  1.00  0.00    -0.274 OA
ATOM      6  H   UNL     1      -4.169   6.276   1.902  1.00  0.00     0.163 HD
BRANCH   4   7
ATOM      7  C   UNL     1      -5.256   4.089  -0.460  1.00  0.00     0.092 C 
ATOM      8  C   UNL     1      -4.887   4.152  -1.965  1.00  0.00     0.027 C 
ATOM      9  C   UNL     1      -6.776   4.341  -0.378  1.00  0.00     0.027 C 
BRANCH   7  10
ATOM     10  C   UNL     1      -4.915   2.673   0.074  1.00  0.00     0.277 C 
BRANCH  10  11
ATOM     11  N   UNL     1      -3.490   2.346   0.044  1.00  0.00    -0.343 N 
ATOM     12  H   UNL     1      -2.979   3.101   0.502  1.00  0.00     0.346 HD
ATOM     13  H   UNL     1      -3.236   2.236  -0.938  1.00  0.00     0.346 HD
BRANCH  11  14
ATOM     14  C   UNL     1      -3.144   1.083   0.713  1.00  0.00     0.298 C 
BRANCH  14  15
ATOM     15  C   UNL     1      -3.524  -0.251   0.007  1.00  0.00     0.133 C 
ATOM     16  C   UNL     1      -3.044  -0.298  -1.449  1.00  0.00     0.051 C 
BRANCH  15  17
ATOM     17  O   UNL     1      -4.951  -0.452   0.034  1.00  0.00    -0.382 OA
ATOM     18  H   UNL     1      -5.168  -1.286  -0.410  1.00  0.00     0.211 HD
ENDBRANCH  15  17
BRANCH  15  19
ATOM     19  C   UNL     1      -2.923  -1.426   0.810  1.00  0.00     0.196 C 
BRANCH  19  20
ATOM     20  O   UNL     1      -3.383  -2.669   0.276  1.00  0.00    -0.393 OA
ATOM     21  H   UNL     1      -4.350  -2.709   0.335  1.00  0.00     0.210 HD
ENDBRANCH  19  20
ENDBRANCH  15  19
ENDBRANCH  14  15
ENDBRANCH  11  14
ENDBRANCH  10  11
ENDBRANCH   7  10
ENDBRANCH   4   7
ENDBRANCH   2   3
ENDBRANCH   1   2
BRANCH   1  22
ATOM     22  C   UNL     1      -3.609   5.220   4.513  1.00  0.00     0.002 C 
BRANCH  22  23
ATOM     23  C   UNL     1      -4.515   6.204   5.263  1.00  0.00     0.002 C 
BRANCH  23  24
ATOM     24  C   UNL     1      -5.597   5.559   6.134  1.00  0.00     0.021 C 
BRANCH  24  25
ATOM     25  C   UNL     1      -5.069   4.627   7.218  1.00  0.00     0.116 C 
BRANCH  25  26
ATOM     26  N   UNL     1      -4.245   5.330   8.186  1.00  0.00    -0.352 N 
ATOM     27  C   UNL     1      -4.325   5.325   9.553  1.00  0.00     0.251 C 
ATOM     28  H   UNL     1      -3.529   5.889   7.806  1.00  0.00     0.163 HD
ATOM     29  O   UNL     1      -3.673   6.144  10.206  1.00  0.00    -0.269 OA
BRANCH  27  30
ATOM     30  C   UNL     1      -5.198   4.353  10.245  1.00  0.00     0.039 A 
ATOM     31  C   UNL     1      -5.962   4.783  11.334  1.00  0.00     0.014 A 
ATOM     32  C   UNL     1      -5.242   3.014   9.845  1.00  0.00     0.014 A 
ATOM     33  C   UNL     1      -6.793   3.879  11.998  1.00  0.00     0.010 A 
ATOM     34  C   UNL     1      -6.126   2.133  10.460  1.00  0.00     0.010 A 
ATOM     35  C   UNL     1      -6.896   2.550  11.556  1.00  0.00    -0.014 A 
BRANCH  35  36
ATOM     36  C   UNL     1      -7.763   1.570  12.259  1.00  0.00     0.031 A 
ATOM     37  C   UNL     1      -7.143   0.383  12.949  1.00  0.00     0.074 A 
ATOM     38  C   UNL     1      -9.102   1.723  12.242  1.00  0.00     0.049 A 
ATOM     39  N   UNL     1      -7.726  -0.616  13.559  1.00  0.00    -0.248 NA
ATOM     40  C   UNL     1      -5.674   0.293  12.925  1.00  0.00     0.031 C 
ATOM     41  C   UNL     1      -9.822   2.810  11.576  1.00  0.00     0.029 A 
ATOM     42  N   UNL     1     -10.097   0.957  12.796  1.00  0.00    -0.354 N 
ATOM     43  C   UNL     1      -6.700  -1.454  13.980  1.00  0.00     0.074 A 
ATOM     44  C   UNL     1      -5.462  -0.879  13.503  1.00  0.00     0.031 C 
ATOM     45  C   UNL     1     -11.141   2.655  11.782  1.00  0.00     0.029 A 
ATOM     46  C   UNL     1     -11.363   1.442  12.562  1.00  0.00     0.049 A 
ATOM     47  H   UNL     1      -9.921   0.138  13.313  1.00  0.00     0.167 HD
ATOM     48  C   UNL     1      -6.778  -2.584  14.723  1.00  0.00     0.037 A 
ATOM     49  C   UNL     1     -12.565   0.959  12.933  1.00  0.00     0.037 A 
ATOM     50  C   UNL     1      -8.011  -3.136  15.221  1.00  0.00     0.049 A 
ATOM     51  C   UNL     1     -12.626  -0.300  13.757  1.00  0.00     0.074 A 
ATOM     52  C   UNL     1      -8.196  -4.256  16.011  1.00  0.00     0.029 A 
ATOM     53  N   UNL     1      -9.269  -2.601  14.984  1.00  0.00    -0.354 N 
ATOM     54  N   UNL     1     -11.641  -1.057  14.181  1.00  0.00    -0.248 NA
ATOM     55  C   UNL     1     -13.959  -0.766  14.162  1.00  0.00     0.031 C 
ATOM     56  C   UNL     1      -9.569  -4.420  16.223  1.00  0.00     0.029 A 
ATOM     57  C   UNL     1     -10.235  -3.373  15.606  1.00  0.00     0.049 A 
ATOM     58  H   UNL     1      -9.448  -1.792  14.451  1.00  0.00     0.167 HD
ATOM     59  C   UNL     1     -12.234  -2.064  14.936  1.00  0.00     0.074 A 
ATOM     60  C   UNL     1     -13.661  -1.816  14.914  1.00  0.00     0.031 C 
ATOM     61  C   UNL     1     -11.650  -3.097  15.592  1.00  0.00     0.037 A 
BRANCH  48  62
ATOM     62  C   UNL     1      -5.492  -3.292  15.054  1.00  0.00     0.058 A 
ATOM     63  C   UNL     1      -4.558  -2.741  15.948  1.00  0.00     0.135 A 
ATOM     64  C   UNL     1      -5.202  -4.550  14.502  1.00  0.00     0.135 A 
ATOM     65  F   UNL     1      -4.775  -1.533  16.492  1.00  0.00    -0.206 F 
ATOM     66  C   UNL     1      -3.372  -3.397  16.259  1.00  0.00     0.059 A 
ATOM     67  C   UNL     1      -4.035  -5.239  14.822  1.00  0.00     0.059 A 
ATOM     68  F   UNL     1      -6.058  -5.124  13.641  1.00  0.00    -0.206 F 
ATOM     69  C   UNL     1      -3.120  -4.647  15.692  1.00  0.00     0.060 A 
BRANCH  69  70
ATOM     70  S   UNL     1      -1.581  -5.490  16.115  1.00  0.00     0.124 S 
ATOM     71  O   UNL     1      -0.603  -4.698  15.375  1.00  0.00    -0.237 OA
ATOM     72  O   UNL     1      -1.538  -5.351  17.567  1.00  0.00    -0.237 OA
ATOM     73  O   UNL     1      -1.790  -6.848  15.623  1.00  0.00    -0.744 OA
ENDBRANCH  69  70
ENDBRANCH  48  62
BRANCH  49  74
ATOM     74  C   UNL     1     -13.810   1.681  12.557  1.00  0.00     0.058 A 
ATOM     75  C   UNL     1     -14.586   2.333  13.527  1.00  0.00     0.135 A 
ATOM     76  C   UNL     1     -14.255   1.728  11.226  1.00  0.00     0.135 A 
ATOM     77  F   UNL     1     -14.205   2.314  14.813  1.00  0.00    -0.206 F 
ATOM     78  C   UNL     1     -15.773   2.981  13.199  1.00  0.00     0.059 A 
ATOM     79  C   UNL     1     -15.424   2.392  10.869  1.00  0.00     0.059 A 
ATOM     80  F   UNL     1     -13.540   1.136  10.257  1.00  0.00    -0.206 F 
ATOM     81  C   UNL     1     -16.184   3.003  11.865  1.00  0.00     0.060 A 
BRANCH  81  82
ATOM     82  S   UNL     1     -17.713   3.869  11.445  1.00  0.00     0.124 S 
ATOM     83  O   UNL     1     -18.721   2.949  11.959  1.00  0.00    -0.237 OA
ATOM     84  O   UNL     1     -17.564   5.126  12.171  1.00  0.00    -0.237 OA
ATOM     85  O   UNL     1     -17.643   3.982   9.991  1.00  0.00    -0.744 OA
ENDBRANCH  81  82
ENDBRANCH  49  74
BRANCH  61  86
ATOM     86  C   UNL     1     -12.544  -4.005  16.390  1.00  0.00     0.058 A 
ATOM     87  C   UNL     1     -13.409  -4.924  15.776  1.00  0.00     0.135 A 
ATOM     88  C   UNL     1     -12.497  -3.986  17.794  1.00  0.00     0.135 A 
ATOM     89  F   UNL     1     -13.496  -4.980  14.437  1.00  0.00    -0.206 F 
ATOM     90  C   UNL     1     -14.216  -5.774  16.526  1.00  0.00     0.059 A 
ATOM     91  C   UNL     1     -13.273  -4.846  18.563  1.00  0.00     0.059 A 
ATOM     92  F   UNL     1     -11.678  -3.134  18.431  1.00  0.00    -0.206 F 
ATOM     93  C   UNL     1     -14.140  -5.728  17.919  1.00  0.00     0.060 A 
BRANCH  93  94
ATOM     94  S   UNL     1     -15.171  -6.856  18.881  1.00  0.00     0.124 S 
ATOM     95  O   UNL     1     -16.487  -6.242  18.740  1.00  0.00    -0.237 OA
ATOM     96  O   UNL     1     -14.985  -8.123  18.181  1.00  0.00    -0.237 OA
ATOM     97  O   UNL     1     -14.588  -6.793  20.218  1.00  0.00    -0.744 OA
ENDBRANCH  93  94
ENDBRANCH  61  86
ENDBRANCH  35  36
ENDBRANCH  27  30
ENDBRANCH  25  26
ENDBRANCH  24  25
ENDBRANCH  23  24
ENDBRANCH  22  23
ENDBRANCH   1  22
TORSDOF 23
