REMARK SMILES CCOC(=O)C1=NN(c2ccc(Cl)cc2F)[C@@H](C(=O)NCCCCCCNC(=O)c2ccc(-c3c4nc(c(-c5c(F)cc(S(=O)(=O)[O-])cc5F)c5ccc([nH]5)c(-c5c(F)cc(S(=O)(=O)[O-])cc5F)c5nc(c(-c6c(F)cc(S(=O)(=O)[O-])cc6F)c6ccc3[nH]6)C=C5)C=C4)cc2)C1
REMARK SMILES IDX 23 1 22 2 21 3 20 4 18 5 19 6 17 8 6 9 7 10 96 11 8 12 4 13
REMARK SMILES IDX 5 14 3 15 2 16 1 17 9 18 10 19 15 20 11 21 14 22 16 23 12 24
REMARK SMILES IDX 13 25 24 26 25 27 26 28 27 29 28 30 29 32 30 33 31 34 95 35
REMARK SMILES IDX 32 36 94 37 33 38 34 39 35 40 88 41 36 42 93 43 87 44 89 45
REMARK SMILES IDX 37 46 92 47 86 48 85 49 38 51 72 52 51 53 71 54 52 55 55 56
REMARK SMILES IDX 70 57 90 58 53 59 54 60 69 62 91 63 56 64 39 65 40 66 49 67
REMARK SMILES IDX 41 68 42 69 48 70 50 71 43 72 44 73 45 74 46 75 47 76 73 77
REMARK SMILES IDX 74 78 83 79 75 80 76 81 82 82 84 83 77 84 78 85 79 86 80 87
REMARK SMILES IDX 81 88 57 89 58 90 67 91 59 92 60 93 66 94 68 95 61 96 62 97
REMARK SMILES IDX 63 98 64 99 65 100
REMARK H PARENT 20 7 27 31 89 50 55 61
REMARK Flexibility Score: inf
ROOT
ATOM      1  C   UNL     1       0.365  -6.704  -3.961  1.00  0.00     0.002 C 
ENDROOT
BRANCH   1   2
ATOM      2  C   UNL     1       0.919  -5.356  -3.496  1.00  0.00     0.021 C 
BRANCH   2   3
ATOM      3  C   UNL     1       2.225  -4.908  -4.144  1.00  0.00     0.116 C 
BRANCH   3   4
ATOM      4  N   UNL     1       2.085  -4.592  -5.553  1.00  0.00    -0.354 N 
ATOM      5  C   UNL     1       2.654  -3.593  -6.292  1.00  0.00     0.245 C 
ATOM      6  O   UNL     1       2.438  -3.616  -7.510  1.00  0.00    -0.273 OA
ATOM      7  H   UNL     1       1.486  -5.191  -6.055  1.00  0.00     0.163 HD
BRANCH   5   8
ATOM      8  C   UNL     1       3.423  -2.413  -5.673  1.00  0.00     0.203 C 
ATOM      9  C   UNL     1       3.186  -1.369  -3.631  1.00  0.00     0.148 C 
ATOM     10  N   UNL     1       4.219  -2.139  -3.456  1.00  0.00    -0.169 NA
ATOM     11  C   UNL     1       2.482  -1.464  -4.944  1.00  0.00     0.103 C 
ATOM     12  N   UNL     1       4.388  -2.802  -4.641  1.00  0.00    -0.249 N 
BRANCH   9  13
ATOM     13  C   UNL     1       2.668  -0.407  -2.600  1.00  0.00     0.354 C 
ATOM     14  O   UNL     1       3.315   0.548  -2.205  1.00  0.00    -0.245 OA
BRANCH  13  15
ATOM     15  O   UNL     1       1.391  -0.730  -2.311  1.00  0.00    -0.461 OA
BRANCH  15  16
ATOM     16  C   UNL     1       0.699   0.201  -1.466  1.00  0.00     0.230 C 
ATOM     17  C   UNL     1       0.937  -0.122  -0.004  1.00  0.00     0.049 C 
ENDBRANCH  15  16
ENDBRANCH  13  15
ENDBRANCH   9  13
BRANCH  12  18
ATOM     18  C   UNL     1       5.454  -3.673  -4.840  1.00  0.00     0.096 A 
ATOM     19  C   UNL     1       5.866  -4.531  -3.806  1.00  0.00     0.032 A 
ATOM     20  C   UNL     1       6.143  -3.770  -6.061  1.00  0.00     0.149 A 
ATOM     21  C   UNL     1       6.874  -5.482  -4.007  1.00  0.00     0.023 A 
ATOM     22  C   UNL     1       7.173  -4.685  -6.263  1.00  0.00     0.062 A 
ATOM     23  F   UNL     1       5.840  -2.944  -7.074  1.00  0.00    -0.205 F 
ATOM     24  C   UNL     1       7.523  -5.553  -5.236  1.00  0.00     0.044 A 
ATOM     25  Cl  UNL     1       8.758  -6.721  -5.492  1.00  0.00    -0.084 Cl
ENDBRANCH  12  18
ENDBRANCH   5   8
ENDBRANCH   3   4
ENDBRANCH   2   3
ENDBRANCH   1   2
BRANCH   1  26
ATOM     26  C   UNL     1       1.314  -7.902  -3.863  1.00  0.00     0.002 C 
BRANCH  26  27
ATOM     27  C   UNL     1       2.008  -8.121  -2.516  1.00  0.00     0.021 C 
BRANCH  27  28
ATOM     28  C   UNL     1       1.103  -8.188  -1.289  1.00  0.00     0.116 C 
BRANCH  28  29
ATOM     29  N   UNL     1       0.128  -9.261  -1.354  1.00  0.00    -0.352 N 
ATOM     30  C   UNL     1      -0.231 -10.177  -0.395  1.00  0.00     0.251 C 
ATOM     31  H   UNL     1      -0.346  -9.345  -2.213  1.00  0.00     0.163 HD
ATOM     32  O   UNL     1      -1.011 -11.081  -0.685  1.00  0.00    -0.269 OA
BRANCH  30  33
ATOM     33  C   UNL     1       0.337 -10.104   0.972  1.00  0.00     0.039 A 
ATOM     34  C   UNL     1       0.774 -11.287   1.577  1.00  0.00     0.014 A 
ATOM     35  C   UNL     1       0.419  -8.895   1.670  1.00  0.00     0.014 A 
ATOM     36  C   UNL     1       1.347 -11.250   2.851  1.00  0.00     0.010 A 
ATOM     37  C   UNL     1       1.042  -8.851   2.918  1.00  0.00     0.010 A 
ATOM     38  C   UNL     1       1.512 -10.028   3.521  1.00  0.00    -0.014 A 
BRANCH  38  39
ATOM     39  C   UNL     1       2.175  -9.964   4.850  1.00  0.00     0.031 A 
ATOM     40  C   UNL     1       1.393  -9.558   6.070  1.00  0.00     0.074 A 
ATOM     41  C   UNL     1       3.495 -10.215   4.950  1.00  0.00     0.049 A 
ATOM     42  N   UNL     1       1.811  -9.376   7.296  1.00  0.00    -0.248 NA
ATOM     43  C   UNL     1      -0.043  -9.300   5.880  1.00  0.00     0.031 C 
ATOM     44  C   UNL     1       4.374 -10.576   3.836  1.00  0.00     0.029 A 
ATOM     45  N   UNL     1       4.332 -10.192   6.038  1.00  0.00    -0.354 N 
ATOM     46  C   UNL     1       0.698  -8.965   8.020  1.00  0.00     0.074 A 
ATOM     47  C   UNL     1      -0.406  -8.888   7.087  1.00  0.00     0.031 C 
ATOM     48  C   UNL     1       5.622 -10.754   4.300  1.00  0.00     0.029 A 
ATOM     49  C   UNL     1       5.639 -10.492   5.736  1.00  0.00     0.049 A 
ATOM     50  H   UNL     1       4.025  -9.980   6.949  1.00  0.00     0.167 HD
ATOM     51  C   UNL     1       0.600  -8.694   9.344  1.00  0.00     0.037 A 
ATOM     52  C   UNL     1       6.730 -10.545   6.525  1.00  0.00     0.037 A 
ATOM     53  C   UNL     1       1.691  -8.804  10.277  1.00  0.00     0.049 A 
ATOM     54  C   UNL     1       6.592 -10.263   7.996  1.00  0.00     0.074 A 
ATOM     55  C   UNL     1       1.676  -8.607  11.648  1.00  0.00     0.029 A 
ATOM     56  N   UNL     1       2.992  -9.145   9.938  1.00  0.00    -0.354 N 
ATOM     57  N   UNL     1       5.520  -9.926   8.671  1.00  0.00    -0.248 NA
ATOM     58  C   UNL     1       7.809 -10.374   8.812  1.00  0.00     0.031 C 
ATOM     59  C   UNL     1       2.974  -8.802  12.133  1.00  0.00     0.029 A 
ATOM     60  C   UNL     1       3.790  -9.153  11.069  1.00  0.00     0.049 A 
ATOM     61  H   UNL     1       3.302  -9.350   9.026  1.00  0.00     0.167 HD
ATOM     62  C   UNL     1       5.928  -9.806   9.995  1.00  0.00     0.074 A 
ATOM     63  C   UNL     1       7.343 -10.116  10.027  1.00  0.00     0.031 C 
ATOM     64  C   UNL     1       5.196  -9.471  11.086  1.00  0.00     0.037 A 
BRANCH  51  65
ATOM     65  C   UNL     1      -0.741  -8.256   9.864  1.00  0.00     0.058 A 
ATOM     66  C   UNL     1      -1.809  -9.158   9.992  1.00  0.00     0.135 A 
ATOM     67  C   UNL     1      -0.954  -6.926  10.260  1.00  0.00     0.135 A 
ATOM     68  F   UNL     1      -1.661 -10.438   9.613  1.00  0.00    -0.206 F 
ATOM     69  C   UNL     1      -3.052  -8.751  10.465  1.00  0.00     0.059 A 
ATOM     70  C   UNL     1      -2.183  -6.502  10.758  1.00  0.00     0.059 A 
ATOM     71  F   UNL     1       0.034  -6.023  10.159  1.00  0.00    -0.206 F 
ATOM     72  C   UNL     1      -3.231  -7.418  10.840  1.00  0.00     0.060 A 
BRANCH  72  73
ATOM     73  S   UNL     1      -4.851  -6.899  11.443  1.00  0.00     0.124 S 
ATOM     74  O   UNL     1      -5.606  -6.804  10.197  1.00  0.00    -0.237 OA
ATOM     75  O   UNL     1      -5.226  -7.997  12.328  1.00  0.00    -0.237 OA
ATOM     76  O   UNL     1      -4.574  -5.630  12.108  1.00  0.00    -0.744 OA
ENDBRANCH  72  73
ENDBRANCH  51  65
BRANCH  52  77
ATOM     77  C   UNL     1       8.047 -10.908   5.941  1.00  0.00     0.058 A 
ATOM     78  C   UNL     1       8.615 -12.168   6.178  1.00  0.00     0.135 A 
ATOM     79  C   UNL     1       8.752 -10.013   5.122  1.00  0.00     0.135 A 
ATOM     80  F   UNL     1       7.980 -13.053   6.960  1.00  0.00    -0.206 F 
ATOM     81  C   UNL     1       9.843 -12.527   5.632  1.00  0.00     0.059 A 
ATOM     82  C   UNL     1       9.972 -10.356   4.548  1.00  0.00     0.059 A 
ATOM     83  F   UNL     1       8.241  -8.802   4.853  1.00  0.00    -0.206 F 
ATOM     84  C   UNL     1      10.514 -11.614   4.817  1.00  0.00     0.060 A 
BRANCH  84  85
ATOM     85  S   UNL     1      12.080 -12.108   4.065  1.00  0.00     0.124 S 
ATOM     86  O   UNL     1      12.998 -11.978   5.189  1.00  0.00    -0.237 OA
ATOM     87  O   UNL     1      11.796 -13.471   3.626  1.00  0.00    -0.237 OA
ATOM     88  O   UNL     1      12.253 -11.136   2.989  1.00  0.00    -0.744 OA
ENDBRANCH  84  85
ENDBRANCH  52  77
BRANCH  64  89
ATOM     89  C   UNL     1       5.903  -9.449  12.410  1.00  0.00     0.058 A 
ATOM     90  C   UNL     1       6.763  -8.399  12.765  1.00  0.00     0.135 A 
ATOM     91  C   UNL     1       5.678 -10.464  13.353  1.00  0.00     0.135 A 
ATOM     92  F   UNL     1       7.016  -7.409  11.895  1.00  0.00    -0.206 F 
ATOM     93  C   UNL     1       7.392  -8.365  14.006  1.00  0.00     0.059 A 
ATOM     94  C   UNL     1       6.279 -10.440  14.607  1.00  0.00     0.059 A 
ATOM     95  F   UNL     1       4.857 -11.486  13.064  1.00  0.00    -0.206 F 
ATOM     96  C   UNL     1       7.143  -9.391  14.921  1.00  0.00     0.060 A 
BRANCH  96  97
ATOM     97  S   UNL     1       7.933  -9.319  16.543  1.00  0.00     0.124 S 
ATOM     98  O   UNL     1       9.287  -9.765  16.230  1.00  0.00    -0.237 OA
ATOM     99  O   UNL     1       7.796  -7.910  16.899  1.00  0.00    -0.237 OA
ATOM    100  O   UNL     1       7.137 -10.242  17.348  1.00  0.00    -0.744 OA
ENDBRANCH  96  97
ENDBRANCH  64  89
ENDBRANCH  38  39
ENDBRANCH  30  33
ENDBRANCH  28  29
ENDBRANCH  27  28
ENDBRANCH  26  27
ENDBRANCH   1  26
TORSDOF 20
