REMARK SMILES COc1ccc(-c2cc3c(N4CCC[C@@H](C(=O)NCCCCCCNC(=O)c5ccc(-c6c7nc(c(-c8c(F)cc(S(=O)(=O)[O-])cc8F)c8ccc([nH]8)c(-c8c(F)cc(S(=O)(=O)[O-])cc8F)c8nc(c(-c9c(F)cc(S(=O)(=O)[O-])cc9F)c9ccc6[nH]9)C=C8)C=C7)cc5)C4)nccn3n2)cc1OC
REMARK SMILES IDX 21 1 20 2 19 3 18 4 16 5 17 6 15 8 11 9 12 10 94 11 13 12
REMARK SMILES IDX 14 13 10 14 7 15 8 16 99 17 9 18 98 19 97 20 95 21 96 22
REMARK SMILES IDX 6 23 3 24 4 25 101 26 5 27 100 28 2 29 1 30 102 31 103 32
REMARK SMILES IDX 22 33 23 34 24 35 25 36 26 37 27 39 28 40 29 41 93 42 30 43
REMARK SMILES IDX 92 44 31 45 32 46 33 47 86 48 34 49 91 50 85 51 87 52 35 53
REMARK SMILES IDX 90 54 84 55 83 56 36 58 70 59 49 60 69 61 50 62 53 63 68 64
REMARK SMILES IDX 88 65 51 66 52 67 67 69 89 70 54 71 37 72 38 73 47 74 39 75
REMARK SMILES IDX 40 76 46 77 48 78 41 79 42 80 43 81 44 82 45 83 71 84 72 85
REMARK SMILES IDX 81 86 73 87 74 88 80 89 82 90 75 91 76 92 77 93 78 94 79 95
REMARK SMILES IDX 55 96 56 97 65 98 57 99 58 100 64 101 66 102 59 103 60 104
REMARK SMILES IDX 61 105 62 106 63 107
REMARK H PARENT 18 7 25 38 87 57 53 68
REMARK Flexibility Score: inf
ROOT
ATOM      1  C   UNL     1      -6.019   4.923   8.964  1.00  0.00     0.002 C 
ENDROOT
BRANCH   1   2
ATOM      2  C   UNL     1      -4.673   4.417   8.438  1.00  0.00     0.021 C 
BRANCH   2   3
ATOM      3  C   UNL     1      -3.773   5.510   7.864  1.00  0.00     0.116 C 
BRANCH   3   4
ATOM      4  N   UNL     1      -3.295   6.406   8.903  1.00  0.00    -0.356 N 
ATOM      5  C   UNL     1      -2.023   6.582   9.371  1.00  0.00     0.224 C 
ATOM      6  O   UNL     1      -1.831   7.402  10.267  1.00  0.00    -0.275 OA
ATOM      7  H   UNL     1      -3.985   6.964   9.331  1.00  0.00     0.163 HD
BRANCH   5   8
ATOM      8  C   UNL     1      -0.906   5.779   8.739  1.00  0.00     0.098 C 
ATOM      9  N   UNL     1       1.452   5.604   8.321  1.00  0.00    -0.354 N 
ATOM     10  C   UNL     1       1.536   4.181   8.642  1.00  0.00     0.118 C 
ATOM     11  C   UNL     1       0.467   6.370   9.079  1.00  0.00     0.131 C 
ATOM     12  C   UNL     1       0.172   3.517   8.469  1.00  0.00     0.022 C 
ATOM     13  C   UNL     1      -0.936   4.303   9.168  1.00  0.00     0.017 C 
BRANCH   9  14
ATOM     14  C   UNL     1       2.279   6.208   7.399  1.00  0.00     0.154 A 
ATOM     15  C   UNL     1       2.167   4.860   4.012  1.00  0.00     0.094 A 
ATOM     16  C   UNL     1       1.561   4.890   5.286  1.00  0.00     0.063 A 
ATOM     17  N   UNL     1       3.180   5.737   3.933  1.00  0.00    -0.168 NA
ATOM     18  C   UNL     1       2.317   5.769   6.020  1.00  0.00     0.109 A 
ATOM     19  N   UNL     1       3.232   6.319   5.157  1.00  0.00    -0.235 N 
ATOM     20  C   UNL     1       4.051   7.340   5.602  1.00  0.00     0.133 A 
ATOM     21  N   UNL     1       3.039   7.212   7.775  1.00  0.00    -0.235 NA
ATOM     22  C   UNL     1       3.922   7.761   6.868  1.00  0.00     0.133 A 
BRANCH  15  23
ATOM     23  C   UNL     1       1.825   3.956   2.922  1.00  0.00     0.006 A 
ATOM     24  C   UNL     1       1.209   2.097   0.911  1.00  0.00     0.160 A 
ATOM     25  C   UNL     1       0.214   2.942   1.424  1.00  0.00     0.051 A 
ATOM     26  C   UNL     1       2.519   2.180   1.399  1.00  0.00     0.161 A 
ATOM     27  C   UNL     1       0.517   3.860   2.436  1.00  0.00     0.014 A 
ATOM     28  C   UNL     1       2.815   3.119   2.395  1.00  0.00     0.060 A 
BRANCH  24  29
ATOM     29  O   UNL     1       0.901   1.312  -0.168  1.00  0.00    -0.493 OA
ATOM     30  C   UNL     1       0.122   0.168   0.192  1.00  0.00     0.278 C 
ENDBRANCH  24  29
BRANCH  26  31
ATOM     31  O   UNL     1       3.615   1.468   0.991  1.00  0.00    -0.493 OA
ATOM     32  C   UNL     1       3.383   0.164   0.479  1.00  0.00     0.278 C 
ENDBRANCH  26  31
ENDBRANCH  15  23
ENDBRANCH   9  14
ENDBRANCH   5   8
ENDBRANCH   3   4
ENDBRANCH   2   3
ENDBRANCH   1   2
BRANCH   1  33
ATOM     33  C   UNL     1      -6.846   5.761   7.978  1.00  0.00     0.002 C 
BRANCH  33  34
ATOM     34  C   UNL     1      -7.102   5.131   6.601  1.00  0.00     0.021 C 
BRANCH  34  35
ATOM     35  C   UNL     1      -7.979   3.891   6.654  1.00  0.00     0.116 C 
BRANCH  35  36
ATOM     36  N   UNL     1      -9.346   4.195   7.085  1.00  0.00    -0.352 N 
ATOM     37  C   UNL     1     -10.399   3.324   7.275  1.00  0.00     0.251 C 
ATOM     38  H   UNL     1      -9.538   5.144   7.262  1.00  0.00     0.163 HD
ATOM     39  O   UNL     1     -11.559   3.732   7.292  1.00  0.00    -0.269 OA
BRANCH  37  40
ATOM     40  C   UNL     1     -10.105   1.895   7.467  1.00  0.00     0.039 A 
ATOM     41  C   UNL     1     -10.895   0.885   6.904  1.00  0.00     0.014 A 
ATOM     42  C   UNL     1      -8.981   1.582   8.220  1.00  0.00     0.014 A 
ATOM     43  C   UNL     1     -10.498  -0.443   7.054  1.00  0.00     0.010 A 
ATOM     44  C   UNL     1      -8.487   0.310   8.192  1.00  0.00     0.010 A 
ATOM     45  C   UNL     1      -9.286  -0.718   7.697  1.00  0.00    -0.014 A 
BRANCH  45  46
ATOM     46  C   UNL     1      -8.761  -2.072   7.846  1.00  0.00     0.031 A 
ATOM     47  C   UNL     1      -8.384  -2.748   6.567  1.00  0.00     0.074 A 
ATOM     48  C   UNL     1      -8.337  -2.482   9.066  1.00  0.00     0.049 A 
ATOM     49  N   UNL     1      -8.776  -3.890   6.103  1.00  0.00    -0.248 NA
ATOM     50  C   UNL     1      -7.543  -1.992   5.617  1.00  0.00     0.031 C 
ATOM     51  C   UNL     1      -8.339  -1.710  10.322  1.00  0.00     0.029 A 
ATOM     52  N   UNL     1      -7.650  -3.598   9.420  1.00  0.00    -0.354 N 
ATOM     53  C   UNL     1      -8.063  -4.093   4.919  1.00  0.00     0.074 A 
ATOM     54  C   UNL     1      -7.491  -2.821   4.574  1.00  0.00     0.031 C 
ATOM     55  C   UNL     1      -7.460  -2.251  11.192  1.00  0.00     0.029 A 
ATOM     56  C   UNL     1      -6.980  -3.500  10.638  1.00  0.00     0.049 A 
ATOM     57  H   UNL     1      -7.627  -4.409   8.863  1.00  0.00     0.167 HD
ATOM     58  C   UNL     1      -7.792  -5.343   4.444  1.00  0.00     0.037 A 
ATOM     59  C   UNL     1      -6.051  -4.361  11.125  1.00  0.00     0.037 A 
ATOM     60  C   UNL     1      -8.628  -6.326   5.082  1.00  0.00     0.049 A 
ATOM     61  C   UNL     1      -6.181  -5.617  10.339  1.00  0.00     0.074 A 
ATOM     62  C   UNL     1      -9.989  -6.546   5.149  1.00  0.00     0.029 A 
ATOM     63  N   UNL     1      -8.076  -7.056   6.107  1.00  0.00    -0.354 N 
ATOM     64  N   UNL     1      -7.245  -6.375  10.349  1.00  0.00    -0.248 NA
ATOM     65  C   UNL     1      -5.321  -5.768   9.176  1.00  0.00     0.031 C 
ATOM     66  C   UNL     1     -10.223  -6.990   6.482  1.00  0.00     0.029 A 
ATOM     67  C   UNL     1      -8.988  -7.087   7.129  1.00  0.00     0.049 A 
ATOM     68  H   UNL     1      -7.187  -7.479   6.107  1.00  0.00     0.167 HD
ATOM     69  C   UNL     1      -7.405  -6.791   9.033  1.00  0.00     0.074 A 
ATOM     70  C   UNL     1      -6.148  -6.445   8.374  1.00  0.00     0.031 C 
ATOM     71  C   UNL     1      -8.636  -7.110   8.534  1.00  0.00     0.037 A 
BRANCH  58  72
ATOM     72  C   UNL     1      -6.542  -5.733   3.682  1.00  0.00     0.058 A 
ATOM     73  C   UNL     1      -6.442  -7.034   3.139  1.00  0.00     0.135 A 
ATOM     74  C   UNL     1      -5.336  -4.998   3.705  1.00  0.00     0.135 A 
ATOM     75  F   UNL     1      -7.521  -7.828   3.060  1.00  0.00    -0.206 F 
ATOM     76  C   UNL     1      -5.225  -7.588   2.734  1.00  0.00     0.059 A 
ATOM     77  C   UNL     1      -4.124  -5.511   3.255  1.00  0.00     0.059 A 
ATOM     78  F   UNL     1      -5.244  -3.782   4.256  1.00  0.00    -0.206 F 
ATOM     79  C   UNL     1      -4.067  -6.822   2.816  1.00  0.00     0.060 A 
BRANCH  79  80
ATOM     80  S   UNL     1      -2.476  -7.564   2.414  1.00  0.00     0.124 S 
ATOM     81  O   UNL     1      -2.303  -8.495   3.523  1.00  0.00    -0.237 OA
ATOM     82  O   UNL     1      -2.740  -8.160   1.109  1.00  0.00    -0.237 OA
ATOM     83  O   UNL     1      -1.568  -6.420   2.401  1.00  0.00    -0.744 OA
ENDBRANCH  79  80
ENDBRANCH  58  72
BRANCH  59  84
ATOM     84  C   UNL     1      -4.855  -4.031  11.945  1.00  0.00     0.058 A 
ATOM     85  C   UNL     1      -4.182  -5.006  12.701  1.00  0.00     0.135 A 
ATOM     86  C   UNL     1      -4.195  -2.791  11.806  1.00  0.00     0.135 A 
ATOM     87  F   UNL     1      -4.722  -6.224  12.858  1.00  0.00    -0.206 F 
ATOM     88  C   UNL     1      -2.921  -4.775  13.267  1.00  0.00     0.059 A 
ATOM     89  C   UNL     1      -2.943  -2.534  12.366  1.00  0.00     0.059 A 
ATOM     90  F   UNL     1      -4.714  -1.816  11.043  1.00  0.00    -0.206 F 
ATOM     91  C   UNL     1      -2.302  -3.538  13.082  1.00  0.00     0.060 A 
BRANCH  91  92
ATOM     92  S   UNL     1      -0.617  -3.278  13.689  1.00  0.00     0.124 S 
ATOM     93  O   UNL     1      -0.810  -3.297  15.134  1.00  0.00    -0.237 OA
ATOM     94  O   UNL     1       0.093  -4.421  13.124  1.00  0.00    -0.237 OA
ATOM     95  O   UNL     1      -0.250  -1.981  13.126  1.00  0.00    -0.744 OA
ENDBRANCH  91  92
ENDBRANCH  59  84
BRANCH  71  96
ATOM     96  C   UNL     1      -9.787  -7.282   9.494  1.00  0.00     0.058 A 
ATOM     97  C   UNL     1     -10.372  -6.235  10.230  1.00  0.00     0.135 A 
ATOM     98  C   UNL     1     -10.457  -8.513   9.494  1.00  0.00     0.135 A 
ATOM     99  F   UNL     1      -9.847  -5.003  10.211  1.00  0.00    -0.206 F 
ATOM    100  C   UNL     1     -11.562  -6.409  10.940  1.00  0.00     0.059 A 
ATOM    101  C   UNL     1     -11.659  -8.701  10.168  1.00  0.00     0.059 A 
ATOM    102  F   UNL     1      -9.981  -9.535   8.762  1.00  0.00    -0.206 F 
ATOM    103  C   UNL     1     -12.206  -7.645  10.892  1.00  0.00     0.060 A 
BRANCH 103 104
ATOM    104  S   UNL     1     -13.809  -7.837  11.704  1.00  0.00     0.124 S 
ATOM    105  O   UNL     1     -13.440  -7.831  13.116  1.00  0.00    -0.237 OA
ATOM    106  O   UNL     1     -14.545  -6.666  11.236  1.00  0.00    -0.237 OA
ATOM    107  O   UNL     1     -14.299  -9.115  11.193  1.00  0.00    -0.744 OA
ENDBRANCH 103 104
ENDBRANCH  71  96
ENDBRANCH  45  46
ENDBRANCH  37  40
ENDBRANCH  35  36
ENDBRANCH  34  35
ENDBRANCH  33  34
ENDBRANCH   1  33
TORSDOF 20
