REMARK SMILES CC(C)C[C@H](NC(=O)[C@](C)([NH3+])C(F)(F)F)C(=O)NCCCCCCNC(=O)c1ccc(-c2c3nc(c(-c4c(F)cc(S(=O)(=O)[O-])cc4F)c4ccc([nH]4)c(-c4c(F)cc(S(=O)(=O)[O-])cc4F)c4nc(c(-c5c(F)cc(S(=O)(=O)[O-])cc5F)c5ccc2[nH]5)C=C4)C=C3)cc1
REMARK SMILES IDX 21 1 20 2 19 3 18 4 16 5 17 6 5 8 4 9 2 10 1 11 3 12 6 13
REMARK SMILES IDX 7 14 8 16 9 17 10 18 11 19 12 23 13 24 14 25 15 26 22 27
REMARK SMILES IDX 23 28 24 29 25 30 26 31 27 33 28 34 29 35 93 36 30 37 92 38
REMARK SMILES IDX 31 39 32 40 33 41 86 42 34 43 91 44 85 45 87 46 35 47 90 48
REMARK SMILES IDX 84 49 83 50 36 52 70 53 49 54 69 55 50 56 53 57 68 58 88 59
REMARK SMILES IDX 51 60 52 61 67 63 89 64 54 65 37 66 38 67 47 68 39 69 40 70
REMARK SMILES IDX 46 71 48 72 41 73 42 74 43 75 44 76 45 77 71 78 72 79 81 80
REMARK SMILES IDX 73 81 74 82 80 83 82 84 75 85 76 86 77 87 78 88 79 89 55 90
REMARK SMILES IDX 56 91 65 92 57 93 58 94 64 95 66 96 59 97 60 98 61 99 62 100
REMARK SMILES IDX 63 101
REMARK H PARENT 18 7 6 15 11 20 11 21 11 22 25 32 87 51 53 62
REMARK Flexibility Score: inf
ROOT
ATOM      1  C   UNL     1      -3.087  -7.474   4.223  1.00  0.00     0.002 C 
ENDROOT
BRANCH   1   2
ATOM      2  C   UNL     1      -3.969  -6.576   5.101  1.00  0.00     0.021 C 
BRANCH   2   3
ATOM      3  C   UNL     1      -4.317  -5.250   4.442  1.00  0.00     0.116 C 
BRANCH   3   4
ATOM      4  N   UNL     1      -5.365  -5.355   3.438  1.00  0.00    -0.354 N 
ATOM      5  C   UNL     1      -6.133  -4.426   2.794  1.00  0.00     0.242 C 
ATOM      6  O   UNL     1      -6.717  -4.810   1.772  1.00  0.00    -0.273 OA
ATOM      7  H   UNL     1      -5.561  -6.281   3.168  1.00  0.00     0.163 HD
BRANCH   5   8
ATOM      8  C   UNL     1      -6.255  -2.938   3.226  1.00  0.00     0.171 C 
BRANCH   8   9
ATOM      9  C   UNL     1      -5.138  -1.957   2.765  1.00  0.00     0.038 C 
BRANCH   9  10
ATOM     10  C   UNL     1      -3.701  -2.486   2.631  1.00  0.00    -0.015 C 
ATOM     11  C   UNL     1      -3.471  -3.237   1.317  1.00  0.00     0.007 C 
ATOM     12  C   UNL     1      -2.633  -1.399   2.774  1.00  0.00     0.007 C 
ENDBRANCH   9  10
ENDBRANCH   8   9
BRANCH   8  13
ATOM     13  N   UNL     1      -6.524  -2.869   4.667  1.00  0.00    -0.339 N 
ATOM     14  C   UNL     1      -7.371  -2.183   5.464  1.00  0.00     0.291 C 
ATOM     15  H   UNL     1      -5.941  -3.473   5.181  1.00  0.00     0.164 HD
ATOM     16  O   UNL     1      -7.359  -2.581   6.639  1.00  0.00    -0.267 OA
BRANCH  14  17
ATOM     17  C   UNL     1      -8.408  -1.123   5.015  1.00  0.00     0.267 C 
ATOM     18  C   UNL     1      -8.884  -0.396   6.297  1.00  0.00     0.100 C 
BRANCH  17  19
ATOM     19  N   UNL     1      -9.608  -1.853   4.473  1.00  0.00    -0.337 N 
ATOM     20  H   UNL     1     -10.309  -1.177   4.169  1.00  0.00     0.345 HD
ATOM     21  H   UNL     1     -10.002  -2.448   5.202  1.00  0.00     0.345 HD
ATOM     22  H   UNL     1      -9.325  -2.430   3.680  1.00  0.00     0.345 HD
ENDBRANCH  17  19
BRANCH  17  23
ATOM     23  C   UNL     1      -7.786  -0.048   4.103  1.00  0.00     0.453 C 
ATOM     24  F   UNL     1      -8.594   1.036   3.988  1.00  0.00    -0.164 F 
ATOM     25  F   UNL     1      -6.601   0.397   4.577  1.00  0.00    -0.164 F 
ATOM     26  F   UNL     1      -7.583  -0.493   2.842  1.00  0.00    -0.164 F 
ENDBRANCH  17  23
ENDBRANCH  14  17
ENDBRANCH   8  13
ENDBRANCH   5   8
ENDBRANCH   3   4
ENDBRANCH   2   3
ENDBRANCH   1   2
BRANCH   1  27
ATOM     27  C   UNL     1      -1.774  -6.854   3.718  1.00  0.00     0.002 C 
BRANCH  27  28
ATOM     28  C   UNL     1      -0.875  -6.215   4.780  1.00  0.00     0.021 C 
BRANCH  28  29
ATOM     29  C   UNL     1      -0.546  -7.104   5.972  1.00  0.00     0.116 C 
BRANCH  29  30
ATOM     30  N   UNL     1       0.043  -8.373   5.582  1.00  0.00    -0.352 N 
ATOM     31  C   UNL     1       1.074  -9.066   6.168  1.00  0.00     0.251 C 
ATOM     32  H   UNL     1      -0.353  -8.796   4.786  1.00  0.00     0.163 HD
ATOM     33  O   UNL     1       1.520 -10.069   5.631  1.00  0.00    -0.269 OA
BRANCH  31  34
ATOM     34  C   UNL     1       1.659  -8.568   7.432  1.00  0.00     0.039 A 
ATOM     35  C   UNL     1       3.049  -8.507   7.547  1.00  0.00     0.014 A 
ATOM     36  C   UNL     1       0.845  -8.148   8.488  1.00  0.00     0.014 A 
ATOM     37  C   UNL     1       3.623  -7.971   8.701  1.00  0.00     0.010 A 
ATOM     38  C   UNL     1       1.416  -7.543   9.603  1.00  0.00     0.010 A 
ATOM     39  C   UNL     1       2.811  -7.454   9.724  1.00  0.00    -0.014 A 
BRANCH  39  40
ATOM     40  C   UNL     1       3.406  -6.820  10.928  1.00  0.00     0.031 A 
ATOM     41  C   UNL     1       3.189  -7.429  12.286  1.00  0.00     0.074 A 
ATOM     42  C   UNL     1       4.094  -5.668  10.801  1.00  0.00     0.049 A 
ATOM     43  N   UNL     1       3.588  -7.001  13.456  1.00  0.00    -0.248 NA
ATOM     44  C   UNL     1       2.396  -8.668  12.340  1.00  0.00     0.031 C 
ATOM     45  C   UNL     1       4.333  -4.960   9.541  1.00  0.00     0.029 A 
ATOM     46  N   UNL     1       4.716  -4.887  11.742  1.00  0.00    -0.354 N 
ATOM     47  C   UNL     1       3.088  -7.908  14.383  1.00  0.00     0.074 A 
ATOM     48  C   UNL     1       2.305  -8.876  13.645  1.00  0.00     0.031 C 
ATOM     49  C   UNL     1       5.077  -3.868   9.784  1.00  0.00     0.029 A 
ATOM     50  C   UNL     1       5.331  -3.774  11.218  1.00  0.00     0.049 A 
ATOM     51  H   UNL     1       4.721  -5.103  12.703  1.00  0.00     0.167 HD
ATOM     52  C   UNL     1       3.283  -7.946  15.723  1.00  0.00     0.037 A 
ATOM     53  C   UNL     1       6.019  -2.788  11.826  1.00  0.00     0.037 A 
ATOM     54  C   UNL     1       4.078  -6.987  16.445  1.00  0.00     0.049 A 
ATOM     55  C   UNL     1       6.204  -2.840  13.319  1.00  0.00     0.074 A 
ATOM     56  C   UNL     1       4.386  -6.966  17.794  1.00  0.00     0.029 A 
ATOM     57  N   UNL     1       4.685  -5.874  15.880  1.00  0.00    -0.354 N 
ATOM     58  N   UNL     1       5.783  -3.744  14.172  1.00  0.00    -0.248 NA
ATOM     59  C   UNL     1       6.962  -1.741  13.932  1.00  0.00     0.031 C 
ATOM     60  C   UNL     1       5.132  -5.812  18.053  1.00  0.00     0.029 A 
ATOM     61  C   UNL     1       5.342  -5.144  16.857  1.00  0.00     0.049 A 
ATOM     62  H   UNL     1       4.654  -5.638  14.924  1.00  0.00     0.167 HD
ATOM     63  C   UNL     1       6.253  -3.340  15.417  1.00  0.00     0.074 A 
ATOM     64  C   UNL     1       6.999  -2.116  15.203  1.00  0.00     0.031 C 
ATOM     65  C   UNL     1       6.086  -3.930  16.627  1.00  0.00     0.037 A 
BRANCH  52  66
ATOM     66  C   UNL     1       2.619  -9.057  16.492  1.00  0.00     0.058 A 
ATOM     67  C   UNL     1       3.014 -10.397  16.348  1.00  0.00     0.135 A 
ATOM     68  C   UNL     1       1.585  -8.777  17.401  1.00  0.00     0.135 A 
ATOM     69  F   UNL     1       3.988 -10.726  15.484  1.00  0.00    -0.206 F 
ATOM     70  C   UNL     1       2.382 -11.423  17.044  1.00  0.00     0.059 A 
ATOM     71  C   UNL     1       0.960  -9.784  18.133  1.00  0.00     0.059 A 
ATOM     72  F   UNL     1       1.166  -7.514  17.582  1.00  0.00    -0.206 F 
ATOM     73  C   UNL     1       1.353 -11.106  17.932  1.00  0.00     0.060 A 
BRANCH  73  74
ATOM     74  S   UNL     1       0.535 -12.450  18.817  1.00  0.00     0.124 S 
ATOM     75  O   UNL     1      -0.240 -13.072  17.748  1.00  0.00    -0.237 OA
ATOM     76  O   UNL     1       1.665 -13.228  19.316  1.00  0.00    -0.237 OA
ATOM     77  O   UNL     1      -0.247 -11.759  19.838  1.00  0.00    -0.744 OA
ENDBRANCH  73  74
ENDBRANCH  52  66
BRANCH  53  78
ATOM     78  C   UNL     1       6.608  -1.684  11.020  1.00  0.00     0.058 A 
ATOM     79  C   UNL     1       7.998  -1.568  10.868  1.00  0.00     0.135 A 
ATOM     80  C   UNL     1       5.800  -0.733  10.378  1.00  0.00     0.135 A 
ATOM     81  F   UNL     1       8.814  -2.449  11.467  1.00  0.00    -0.206 F 
ATOM     82  C   UNL     1       8.567  -0.539  10.124  1.00  0.00     0.059 A 
ATOM     83  C   UNL     1       6.344   0.288   9.606  1.00  0.00     0.059 A 
ATOM     84  F   UNL     1       4.463  -0.809  10.477  1.00  0.00    -0.206 F 
ATOM     85  C   UNL     1       7.731   0.383   9.494  1.00  0.00     0.060 A 
BRANCH  85  86
ATOM     86  S   UNL     1       8.480   1.686   8.493  1.00  0.00     0.124 S 
ATOM     87  O   UNL     1       9.067   2.542   9.517  1.00  0.00    -0.237 OA
ATOM     88  O   UNL     1       9.422   0.935   7.669  1.00  0.00    -0.237 OA
ATOM     89  O   UNL     1       7.342   2.252   7.773  1.00  0.00    -0.744 OA
ENDBRANCH  85  86
ENDBRANCH  53  78
BRANCH  65  90
ATOM     90  C   UNL     1       6.753  -3.284  17.811  1.00  0.00     0.058 A 
ATOM     91  C   UNL     1       6.295  -2.072  18.351  1.00  0.00     0.135 A 
ATOM     92  C   UNL     1       7.835  -3.917  18.446  1.00  0.00     0.135 A 
ATOM     93  F   UNL     1       5.269  -1.422  17.778  1.00  0.00    -0.206 F 
ATOM     94  C   UNL     1       6.902  -1.497  19.462  1.00  0.00     0.059 A 
ATOM     95  C   UNL     1       8.437  -3.376  19.577  1.00  0.00     0.059 A 
ATOM     96  F   UNL     1       8.307  -5.083  17.977  1.00  0.00    -0.206 F 
ATOM     97  C   UNL     1       7.971  -2.158  20.071  1.00  0.00     0.060 A 
BRANCH  97  98
ATOM     98  S   UNL     1       8.725  -1.418  21.535  1.00  0.00     0.124 S 
ATOM     99  O   UNL     1       9.452  -0.294  20.954  1.00  0.00    -0.237 OA
ATOM    100  O   UNL     1       7.561  -1.071  22.344  1.00  0.00    -0.237 OA
ATOM    101  O   UNL     1       9.555  -2.493  22.070  1.00  0.00    -0.744 OA
ENDBRANCH  97  98
ENDBRANCH  65  90
ENDBRANCH  39  40
ENDBRANCH  31  34
ENDBRANCH  29  30
ENDBRANCH  28  29
ENDBRANCH  27  28
ENDBRANCH   1  27
TORSDOF 22
