REMARK SMILES CN(C(=O)c1cccn1CC(=O)NCCCCCCNC(=O)c1ccc(-c2c3nc(c(-c4c(F)cc(S(=O)(=O)[O-])cc4F)c4ccc([nH]4)c(-c4c(F)cc(S(=O)(=O)[O-])cc4F)c4nc(c(-c5c(F)cc(S(=O)(=O)[O-])cc5F)c5ccc2[nH]5)C=C4)C=C3)cc1)C1CCC(C)(C)CC1
REMARK SMILES IDX 16 1 15 2 14 3 13 4 11 5 12 6 10 8 9 9 5 10 6 11 7 12 8 13
REMARK SMILES IDX 3 14 4 15 2 16 1 17 89 18 90 19 96 20 91 21 95 22 92 23
REMARK SMILES IDX 93 24 94 25 17 26 18 27 19 28 20 29 21 30 22 32 23 33 24 34
REMARK SMILES IDX 88 35 25 36 87 37 26 38 27 39 28 40 81 41 29 42 86 43 80 44
REMARK SMILES IDX 82 45 30 46 85 47 79 48 78 49 31 51 65 52 44 53 64 54 45 55
REMARK SMILES IDX 48 56 63 57 83 58 46 59 47 60 62 62 84 63 49 64 32 65 33 66
REMARK SMILES IDX 42 67 34 68 35 69 41 70 43 71 36 72 37 73 38 74 39 75 40 76
REMARK SMILES IDX 66 77 67 78 76 79 68 80 69 81 75 82 77 83 70 84 71 85 72 86
REMARK SMILES IDX 73 87 74 88 50 89 51 90 60 91 52 92 53 93 59 94 61 95 54 96
REMARK SMILES IDX 55 97 56 98 57 99 58 100
REMARK H PARENT 13 7 20 31 82 50 48 61
REMARK Flexibility Score: inf
ROOT
ATOM      1  C   UNL     1       3.854  -4.523   0.217  1.00  0.00     0.002 C 
ENDROOT
BRANCH   1   2
ATOM      2  C   UNL     1       2.612  -3.697  -0.132  1.00  0.00     0.021 C 
BRANCH   2   3
ATOM      3  C   UNL     1       2.316  -3.632  -1.630  1.00  0.00     0.116 C 
BRANCH   3   4
ATOM      4  N   UNL     1       1.768  -4.885  -2.110  1.00  0.00    -0.355 N 
ATOM      5  C   UNL     1       0.488  -5.164  -2.498  1.00  0.00     0.239 C 
ATOM      6  O   UNL     1       0.219  -6.326  -2.814  1.00  0.00    -0.273 OA
ATOM      7  H   UNL     1       2.403  -5.635  -2.163  1.00  0.00     0.163 HD
BRANCH   5   8
ATOM      8  C   UNL     1      -0.535  -4.053  -2.627  1.00  0.00     0.222 C 
BRANCH   8   9
ATOM      9  N   UNL     1      -0.949  -3.467  -1.358  1.00  0.00    -0.334 N 
ATOM     10  C   UNL     1      -0.889  -2.125  -1.000  1.00  0.00     0.107 A 
ATOM     11  C   UNL     1      -1.474  -2.037   0.258  1.00  0.00     0.033 A 
ATOM     12  C   UNL     1      -1.804  -3.338   0.696  1.00  0.00     0.020 A 
ATOM     13  C   UNL     1      -1.483  -4.200  -0.324  1.00  0.00     0.087 A 
BRANCH  10  14
ATOM     14  C   UNL     1      -0.337  -1.059  -1.835  1.00  0.00     0.270 C 
ATOM     15  O   UNL     1      -0.504  -1.070  -3.050  1.00  0.00    -0.267 OA
BRANCH  14  16
ATOM     16  N   UNL     1       0.449  -0.059  -1.219  1.00  0.00    -0.337 N 
ATOM     17  C   UNL     1       1.081  -0.289   0.080  1.00  0.00     0.147 C 
BRANCH  16  18
ATOM     18  C   UNL     1       0.912   1.091  -2.050  1.00  0.00     0.085 C 
ATOM     19  C   UNL     1      -0.226   1.835  -2.784  1.00  0.00     0.026 C 
ATOM     20  C   UNL     1       1.758   2.160  -1.316  1.00  0.00     0.026 C 
ATOM     21  C   UNL     1      -1.090   2.655  -1.831  1.00  0.00     0.008 C 
ATOM     22  C   UNL     1       0.942   3.045  -0.367  1.00  0.00     0.008 C 
ATOM     23  C   UNL     1      -0.289   3.700  -1.026  1.00  0.00    -0.035 C 
ATOM     24  C   UNL     1      -1.203   4.276   0.072  1.00  0.00     0.011 C 
ATOM     25  C   UNL     1       0.158   4.864  -1.933  1.00  0.00     0.011 C 
ENDBRANCH  16  18
ENDBRANCH  14  16
ENDBRANCH  10  14
ENDBRANCH   8   9
ENDBRANCH   5   8
ENDBRANCH   3   4
ENDBRANCH   2   3
ENDBRANCH   1   2
BRANCH   1  26
ATOM     26  C   UNL     1       5.155  -4.024  -0.425  1.00  0.00     0.002 C 
BRANCH  26  27
ATOM     27  C   UNL     1       5.482  -2.542  -0.178  1.00  0.00     0.021 C 
BRANCH  27  28
ATOM     28  C   UNL     1       5.776  -2.215   1.289  1.00  0.00     0.116 C 
BRANCH  28  29
ATOM     29  N   UNL     1       7.027  -2.831   1.694  1.00  0.00    -0.352 N 
ATOM     30  C   UNL     1       7.759  -2.709   2.843  1.00  0.00     0.251 C 
ATOM     31  H   UNL     1       7.416  -3.442   1.027  1.00  0.00     0.163 HD
ATOM     32  O   UNL     1       8.952  -3.010   2.799  1.00  0.00    -0.269 OA
BRANCH  30  33
ATOM     33  C   UNL     1       7.179  -2.232   4.118  1.00  0.00     0.039 A 
ATOM     34  C   UNL     1       8.032  -1.534   4.986  1.00  0.00     0.014 A 
ATOM     35  C   UNL     1       5.879  -2.550   4.528  1.00  0.00     0.014 A 
ATOM     36  C   UNL     1       7.574  -1.110   6.229  1.00  0.00     0.010 A 
ATOM     37  C   UNL     1       5.412  -2.120   5.771  1.00  0.00     0.010 A 
ATOM     38  C   UNL     1       6.253  -1.377   6.609  1.00  0.00    -0.014 A 
BRANCH  38  39
ATOM     39  C   UNL     1       5.705  -0.648   7.780  1.00  0.00     0.031 A 
ATOM     40  C   UNL     1       5.337   0.814   7.377  1.00  0.00     0.074 A 
ATOM     41  C   UNL     1       5.661  -1.331   8.970  1.00  0.00     0.049 A 
ATOM     42  N   UNL     1       5.336   1.917   8.066  1.00  0.00    -0.248 NA
ATOM     43  C   UNL     1       5.005   1.100   5.947  1.00  0.00     0.031 C 
ATOM     44  C   UNL     1       6.011  -2.762   9.144  1.00  0.00     0.029 A 
ATOM     45  N   UNL     1       5.321  -0.992  10.266  1.00  0.00    -0.354 N 
ATOM     46  C   UNL     1       4.802   2.945   7.241  1.00  0.00     0.074 A 
ATOM     47  C   UNL     1       4.745   2.409   5.919  1.00  0.00     0.031 C 
ATOM     48  C   UNL     1       5.956  -3.127  10.446  1.00  0.00     0.029 A 
ATOM     49  C   UNL     1       5.559  -1.994  11.256  1.00  0.00     0.049 A 
ATOM     50  H   UNL     1       4.938  -0.114  10.493  1.00  0.00     0.167 HD
ATOM     51  C   UNL     1       4.305   4.124   7.726  1.00  0.00     0.037 A 
ATOM     52  C   UNL     1       5.498  -1.888  12.626  1.00  0.00     0.037 A 
ATOM     53  C   UNL     1       4.464   4.152   9.137  1.00  0.00     0.049 A 
ATOM     54  C   UNL     1       4.990  -0.528  12.857  1.00  0.00     0.074 A 
ATOM     55  C   UNL     1       5.537   4.383   9.953  1.00  0.00     0.029 A 
ATOM     56  N   UNL     1       3.441   3.609   9.873  1.00  0.00    -0.354 N 
ATOM     57  N   UNL     1       3.767  -0.144  12.653  1.00  0.00    -0.248 NA
ATOM     58  C   UNL     1       5.955   0.516  13.223  1.00  0.00     0.031 C 
ATOM     59  C   UNL     1       5.293   3.542  11.057  1.00  0.00     0.029 A 
ATOM     60  C   UNL     1       4.009   2.991  10.957  1.00  0.00     0.049 A 
ATOM     61  H   UNL     1       2.481   3.655   9.662  1.00  0.00     0.167 HD
ATOM     62  C   UNL     1       3.898   1.218  12.552  1.00  0.00     0.074 A 
ATOM     63  C   UNL     1       5.141   1.565  13.205  1.00  0.00     0.031 C 
ATOM     64  C   UNL     1       3.285   1.890  11.547  1.00  0.00     0.037 A 
BRANCH  51  65
ATOM     65  C   UNL     1       3.426   5.212   7.146  1.00  0.00     0.058 A 
ATOM     66  C   UNL     1       3.325   6.428   7.875  1.00  0.00     0.135 A 
ATOM     67  C   UNL     1       2.421   4.986   6.196  1.00  0.00     0.135 A 
ATOM     68  F   UNL     1       4.290   6.799   8.734  1.00  0.00    -0.206 F 
ATOM     69  C   UNL     1       2.205   7.249   7.819  1.00  0.00     0.059 A 
ATOM     70  C   UNL     1       1.309   5.832   6.083  1.00  0.00     0.059 A 
ATOM     71  F   UNL     1       2.446   3.904   5.407  1.00  0.00    -0.206 F 
ATOM     72  C   UNL     1       1.177   6.917   6.950  1.00  0.00     0.060 A 
BRANCH  72  73
ATOM     73  S   UNL     1      -0.334   7.904   7.000  1.00  0.00     0.124 S 
ATOM     74  O   UNL     1      -0.955   7.432   8.233  1.00  0.00    -0.237 OA
ATOM     75  O   UNL     1       0.186   9.268   7.037  1.00  0.00    -0.237 OA
ATOM     76  O   UNL     1      -1.014   7.536   5.762  1.00  0.00    -0.744 OA
ENDBRANCH  72  73
ENDBRANCH  51  65
BRANCH  52  77
ATOM     77  C   UNL     1       5.939  -2.657  13.868  1.00  0.00     0.058 A 
ATOM     78  C   UNL     1       6.399  -3.979  13.917  1.00  0.00     0.135 A 
ATOM     79  C   UNL     1       6.032  -1.978  15.122  1.00  0.00     0.135 A 
ATOM     80  F   UNL     1       6.216  -4.808  12.881  1.00  0.00    -0.206 F 
ATOM     81  C   UNL     1       7.072  -4.507  15.043  1.00  0.00     0.059 A 
ATOM     82  C   UNL     1       6.741  -2.451  16.224  1.00  0.00     0.059 A 
ATOM     83  F   UNL     1       5.455  -0.786  15.326  1.00  0.00    -0.206 F 
ATOM     84  C   UNL     1       7.300  -3.709  16.164  1.00  0.00     0.060 A 
BRANCH  84  85
ATOM     85  S   UNL     1       8.429  -4.230  17.479  1.00  0.00     0.124 S 
ATOM     86  O   UNL     1       7.557  -5.021  18.339  1.00  0.00    -0.237 OA
ATOM     87  O   UNL     1       9.446  -4.975  16.744  1.00  0.00    -0.237 OA
ATOM     88  O   UNL     1       8.889  -2.963  18.044  1.00  0.00    -0.744 OA
ENDBRANCH  84  85
ENDBRANCH  52  77
BRANCH  64  89
ATOM     89  C   UNL     1       2.085   1.181  10.938  1.00  0.00     0.058 A 
ATOM     90  C   UNL     1       0.919   1.004  11.698  1.00  0.00     0.135 A 
ATOM     91  C   UNL     1       2.071   0.604   9.654  1.00  0.00     0.135 A 
ATOM     92  F   UNL     1       0.847   1.519  12.935  1.00  0.00    -0.206 F 
ATOM     93  C   UNL     1      -0.193   0.310  11.210  1.00  0.00     0.059 A 
ATOM     94  C   UNL     1       0.972  -0.088   9.136  1.00  0.00     0.059 A 
ATOM     95  F   UNL     1       3.137   0.698   8.860  1.00  0.00    -0.206 F 
ATOM     96  C   UNL     1      -0.162  -0.231   9.924  1.00  0.00     0.060 A 
BRANCH  96  97
ATOM     97  S   UNL     1      -1.619  -1.100   9.297  1.00  0.00     0.124 S 
ATOM     98  O   UNL     1      -1.771  -2.189  10.257  1.00  0.00    -0.237 OA
ATOM     99  O   UNL     1      -2.642  -0.061   9.353  1.00  0.00    -0.237 OA
ATOM    100  O   UNL     1      -1.225  -1.512   7.951  1.00  0.00    -0.744 OA
ENDBRANCH  96  97
ENDBRANCH  64  89
ENDBRANCH  38  39
ENDBRANCH  30  33
ENDBRANCH  28  29
ENDBRANCH  27  28
ENDBRANCH  26  27
ENDBRANCH   1  26
TORSDOF 20
