REMARK SMILES C[C@@H]1[C@H](C)CC[C@@H]1NC(=O)N1CCO[C@H](CC(=O)NCCCCCCNC(=O)c2ccc(-c3c4nc(c(-c5c(F)cc(S(=O)(=O)[O-])cc5F)c5ccc([nH]5)c(-c5c(F)cc(S(=O)(=O)[O-])cc5F)c5nc(c(-c6c(F)cc(S(=O)(=O)[O-])cc6F)c6ccc3[nH]6)C=C5)C=C4)cc2)C1
REMARK SMILES IDX 22 1 21 2 20 3 19 4 17 5 18 6 16 8 15 9 11 10 12 11 95 12
REMARK SMILES IDX 13 13 14 14 9 15 8 16 10 18 7 19 1 20 2 21 3 22 4 23 5 24
REMARK SMILES IDX 6 25 23 26 24 27 25 28 26 29 27 30 28 32 29 33 30 34 94 35
REMARK SMILES IDX 31 36 93 37 32 38 33 39 34 40 87 41 35 42 92 43 86 44 88 45
REMARK SMILES IDX 36 46 91 47 85 48 84 49 37 51 71 52 50 53 70 54 51 55 54 56
REMARK SMILES IDX 69 57 89 58 52 59 53 60 68 62 90 63 55 64 38 65 39 66 48 67
REMARK SMILES IDX 40 68 41 69 47 70 49 71 42 72 43 73 44 74 45 75 46 76 72 77
REMARK SMILES IDX 73 78 82 79 74 80 75 81 81 82 83 83 76 84 77 85 78 86 79 87
REMARK SMILES IDX 80 88 56 89 57 90 66 91 58 92 59 93 65 94 67 95 60 96 61 97
REMARK SMILES IDX 62 98 63 99 64 100
REMARK H PARENT 19 7 8 17 26 31 88 50 54 61
REMARK Flexibility Score: inf
ROOT
ATOM      1  C   UNL     1      -5.099  -0.049   0.179  1.00  0.00     0.002 C 
ENDROOT
BRANCH   1   2
ATOM      2  C   UNL     1      -4.080  -0.585  -0.827  1.00  0.00     0.021 C 
BRANCH   2   3
ATOM      3  C   UNL     1      -3.608  -2.005  -0.498  1.00  0.00     0.116 C 
BRANCH   3   4
ATOM      4  N   UNL     1      -3.924  -2.924  -1.576  1.00  0.00    -0.356 N 
ATOM      5  C   UNL     1      -3.125  -3.483  -2.526  1.00  0.00     0.222 C 
ATOM      6  O   UNL     1      -3.645  -4.194  -3.388  1.00  0.00    -0.275 OA
ATOM      7  H   UNL     1      -4.871  -3.186  -1.629  1.00  0.00     0.163 HD
BRANCH   5   8
ATOM      8  C   UNL     1      -1.633  -3.270  -2.493  1.00  0.00     0.133 C 
BRANCH   8   9
ATOM      9  C   UNL     1      -1.168  -2.365  -3.638  1.00  0.00     0.147 C 
ATOM     10  N   UNL     1       1.012  -1.786  -2.696  1.00  0.00    -0.320 N 
ATOM     11  C   UNL     1       0.650  -0.379  -2.623  1.00  0.00     0.150 C 
ATOM     12  C   UNL     1       0.365  -2.470  -3.810  1.00  0.00     0.154 C 
ATOM     13  C   UNL     1      -0.862  -0.244  -2.480  1.00  0.00     0.182 C 
ATOM     14  O   UNL     1      -1.584  -0.987  -3.476  1.00  0.00    -0.374 OA
BRANCH  10  15
ATOM     15  C   UNL     1       1.934  -2.418  -1.907  1.00  0.00     0.317 C 
ATOM     16  N   UNL     1       2.108  -1.967  -0.628  1.00  0.00    -0.335 N 
ATOM     17  H   UNL     1       3.027  -1.790  -0.323  1.00  0.00     0.165 HD
ATOM     18  O   UNL     1       2.579  -3.394  -2.285  1.00  0.00    -0.249 OA
BRANCH  16  19
ATOM     19  C   UNL     1       1.016  -1.731   0.313  1.00  0.00     0.087 C 
ATOM     20  C   UNL     1       1.763   0.726   0.701  1.00  0.00     0.010 C 
ATOM     21  C   UNL     1       1.210  -0.561   1.292  1.00  0.00     0.011 C 
ATOM     22  C   UNL     1       1.972  -1.142   2.504  1.00  0.00    -0.009 C 
ATOM     23  C   UNL     1       3.432  -0.726   2.637  1.00  0.00     0.008 C 
ATOM     24  C   UNL     1       1.835  -2.669   2.390  1.00  0.00     0.006 C 
ATOM     25  C   UNL     1       0.842  -2.924   1.261  1.00  0.00     0.025 C 
ENDBRANCH  16  19
ENDBRANCH  10  15
ENDBRANCH   8   9
ENDBRANCH   5   8
ENDBRANCH   3   4
ENDBRANCH   2   3
ENDBRANCH   1   2
BRANCH   1  26
ATOM     26  C   UNL     1      -4.558   0.135   1.601  1.00  0.00     0.002 C 
BRANCH  26  27
ATOM     27  C   UNL     1      -3.421   1.151   1.754  1.00  0.00     0.021 C 
BRANCH  27  28
ATOM     28  C   UNL     1      -3.718   2.557   1.233  1.00  0.00     0.116 C 
BRANCH  28  29
ATOM     29  N   UNL     1      -4.941   3.106   1.793  1.00  0.00    -0.352 N 
ATOM     30  C   UNL     1      -5.164   4.245   2.523  1.00  0.00     0.251 C 
ATOM     31  H   UNL     1      -5.747   2.568   1.619  1.00  0.00     0.163 HD
ATOM     32  O   UNL     1      -6.258   4.399   3.063  1.00  0.00    -0.269 OA
BRANCH  30  33
ATOM     33  C   UNL     1      -4.118   5.280   2.677  1.00  0.00     0.039 A 
ATOM     34  C   UNL     1      -4.006   5.934   3.909  1.00  0.00     0.014 A 
ATOM     35  C   UNL     1      -3.301   5.667   1.611  1.00  0.00     0.014 A 
ATOM     36  C   UNL     1      -3.054   6.942   4.082  1.00  0.00     0.010 A 
ATOM     37  C   UNL     1      -2.308   6.629   1.803  1.00  0.00     0.010 A 
ATOM     38  C   UNL     1      -2.183   7.285   3.037  1.00  0.00    -0.014 A 
BRANCH  38  39
ATOM     39  C   UNL     1      -1.149   8.335   3.222  1.00  0.00     0.031 A 
ATOM     40  C   UNL     1      -1.228   9.627   2.453  1.00  0.00     0.074 A 
ATOM     41  C   UNL     1      -0.115   8.110   4.056  1.00  0.00     0.049 A 
ATOM     42  N   UNL     1      -0.408  10.647   2.466  1.00  0.00    -0.248 NA
ATOM     43  C   UNL     1      -2.365   9.783   1.532  1.00  0.00     0.031 C 
ATOM     44  C   UNL     1       0.099   6.881   4.823  1.00  0.00     0.029 A 
ATOM     45  N   UNL     1       0.952   8.903   4.396  1.00  0.00    -0.354 N 
ATOM     46  C   UNL     1      -0.920  11.557   1.549  1.00  0.00     0.074 A 
ATOM     47  C   UNL     1      -2.095  10.948   0.963  1.00  0.00     0.031 C 
ATOM     48  C   UNL     1       1.211   7.014   5.563  1.00  0.00     0.029 A 
ATOM     49  C   UNL     1       1.804   8.322   5.303  1.00  0.00     0.049 A 
ATOM     50  H   UNL     1       1.093   9.804   4.024  1.00  0.00     0.167 HD
ATOM     51  C   UNL     1      -0.466  12.796   1.239  1.00  0.00     0.037 A 
ATOM     52  C   UNL     1       2.934   8.791   5.867  1.00  0.00     0.037 A 
ATOM     53  C   UNL     1       0.687  13.410   1.844  1.00  0.00     0.049 A 
ATOM     54  C   UNL     1       3.408  10.175   5.525  1.00  0.00     0.074 A 
ATOM     55  C   UNL     1       1.196  14.680   1.638  1.00  0.00     0.029 A 
ATOM     56  N   UNL     1       1.511  12.797   2.777  1.00  0.00    -0.354 N 
ATOM     57  N   UNL     1       2.880  11.045   4.697  1.00  0.00    -0.248 NA
ATOM     58  C   UNL     1       4.626  10.647   6.199  1.00  0.00     0.031 C 
ATOM     59  C   UNL     1       2.346  14.824   2.422  1.00  0.00     0.029 A 
ATOM     60  C   UNL     1       2.532  13.657   3.146  1.00  0.00     0.049 A 
ATOM     61  H   UNL     1       1.389  11.884   3.125  1.00  0.00     0.167 HD
ATOM     62  C   UNL     1       3.685  12.176   4.770  1.00  0.00     0.074 A 
ATOM     63  C   UNL     1       4.732  11.882   5.727  1.00  0.00     0.031 C 
ATOM     64  C   UNL     1       3.565  13.352   4.105  1.00  0.00     0.037 A 
BRANCH  51  65
ATOM     65  C   UNL     1      -1.226  13.570   0.196  1.00  0.00     0.058 A 
ATOM     66  C   UNL     1      -2.502  14.095   0.456  1.00  0.00     0.135 A 
ATOM     67  C   UNL     1      -0.670  13.798  -1.073  1.00  0.00     0.135 A 
ATOM     68  F   UNL     1      -3.086  13.895   1.648  1.00  0.00    -0.206 F 
ATOM     69  C   UNL     1      -3.218  14.784  -0.519  1.00  0.00     0.059 A 
ATOM     70  C   UNL     1      -1.357  14.508  -2.054  1.00  0.00     0.059 A 
ATOM     71  F   UNL     1       0.548  13.321  -1.373  1.00  0.00    -0.206 F 
ATOM     72  C   UNL     1      -2.639  14.978  -1.774  1.00  0.00     0.060 A 
BRANCH  72  73
ATOM     73  S   UNL     1      -3.587  15.854  -3.037  1.00  0.00     0.124 S 
ATOM     74  O   UNL     1      -4.531  14.822  -3.457  1.00  0.00    -0.237 OA
ATOM     75  O   UNL     1      -4.158  16.967  -2.288  1.00  0.00    -0.237 OA
ATOM     76  O   UNL     1      -2.576  16.220  -4.025  1.00  0.00    -0.744 OA
ENDBRANCH  72  73
ENDBRANCH  51  65
BRANCH  52  77
ATOM     77  C   UNL     1       3.667   7.951   6.850  1.00  0.00     0.058 A 
ATOM     78  C   UNL     1       3.623   8.248   8.220  1.00  0.00     0.135 A 
ATOM     79  C   UNL     1       4.388   6.817   6.447  1.00  0.00     0.135 A 
ATOM     80  F   UNL     1       2.949   9.325   8.651  1.00  0.00    -0.206 F 
ATOM     81  C   UNL     1       4.272   7.452   9.158  1.00  0.00     0.059 A 
ATOM     82  C   UNL     1       5.028   5.995   7.368  1.00  0.00     0.059 A 
ATOM     83  F   UNL     1       4.444   6.482   5.148  1.00  0.00    -0.206 F 
ATOM     84  C   UNL     1       4.968   6.324   8.722  1.00  0.00     0.060 A 
BRANCH  84  85
ATOM     85  S   UNL     1       5.744   5.254   9.953  1.00  0.00     0.124 S 
ATOM     86  O   UNL     1       6.919   6.035  10.322  1.00  0.00    -0.237 OA
ATOM     87  O   UNL     1       4.702   5.148  10.970  1.00  0.00    -0.237 OA
ATOM     88  O   UNL     1       6.008   4.026   9.209  1.00  0.00    -0.744 OA
ENDBRANCH  84  85
ENDBRANCH  52  77
BRANCH  64  89
ATOM     89  C   UNL     1       4.574  14.422   4.411  1.00  0.00     0.058 A 
ATOM     90  C   UNL     1       5.888  14.356   3.923  1.00  0.00     0.135 A 
ATOM     91  C   UNL     1       4.206  15.552   5.159  1.00  0.00     0.135 A 
ATOM     92  F   UNL     1       6.290  13.293   3.209  1.00  0.00    -0.206 F 
ATOM     93  C   UNL     1       6.810  15.364   4.183  1.00  0.00     0.059 A 
ATOM     94  C   UNL     1       5.105  16.583   5.412  1.00  0.00     0.059 A 
ATOM     95  F   UNL     1       2.958  15.668   5.640  1.00  0.00    -0.206 F 
ATOM     96  C   UNL     1       6.409  16.475   4.929  1.00  0.00     0.060 A 
BRANCH  96  97
ATOM     97  S   UNL     1       7.603  17.795   5.231  1.00  0.00     0.124 S 
ATOM     98  O   UNL     1       8.428  17.209   6.282  1.00  0.00    -0.237 OA
ATOM     99  O   UNL     1       8.245  17.943   3.929  1.00  0.00    -0.237 OA
ATOM    100  O   UNL     1       6.767  18.920   5.641  1.00  0.00    -0.744 OA
ENDBRANCH  96  97
ENDBRANCH  64  89
ENDBRANCH  38  39
ENDBRANCH  30  33
ENDBRANCH  28  29
ENDBRANCH  27  28
ENDBRANCH  26  27
ENDBRANCH   1  26
TORSDOF 19
