REMARK SMILES [NH3+]Cc1c(-c2ccccc2)c(C(=O)NCCCCCCNC(=O)c2ccc(-c3c4nc(c(-c5c(F)cc(S(=O)(=O)[O-])cc5F)c5ccc([nH]5)c(-c5c(F)cc(S(=O)(=O)[O-])cc5F)c5nc(c(-c6c(F)cc(S(=O)(=O)[O-])cc6F)c6ccc3[nH]6)C=C5)C=C4)cc2)c2ccccn12
REMARK SMILES IDX 18 1 17 2 16 3 15 4 14 5 12 6 13 7 11 9 3 10 4 11 95 12
REMARK SMILES IDX 90 13 94 14 91 15 93 16 92 17 2 18 1 19 5 23 6 24 10 25 7 26
REMARK SMILES IDX 9 27 8 28 19 29 20 30 21 31 22 32 23 34 24 35 25 36 89 37
REMARK SMILES IDX 26 38 88 39 27 40 28 41 29 42 82 43 30 44 87 45 81 46 83 47
REMARK SMILES IDX 31 48 86 49 80 50 79 51 32 53 66 54 45 55 65 56 46 57 49 58
REMARK SMILES IDX 64 59 84 60 47 61 48 62 63 64 85 65 50 66 33 67 34 68 43 69
REMARK SMILES IDX 35 70 36 71 42 72 44 73 37 74 38 75 39 76 40 77 41 78 67 79
REMARK SMILES IDX 68 80 77 81 69 82 70 83 76 84 78 85 71 86 72 87 73 88 74 89
REMARK SMILES IDX 75 90 51 91 52 92 61 93 53 94 54 95 60 96 62 97 55 98 56 99
REMARK SMILES IDX 57 100 58 101 59 102
REMARK H PARENT 14 8 1 20 1 21 1 22 21 33 83 52 49 63
REMARK Flexibility Score: inf
ROOT
ATOM      1  C   UNL     1       2.933   9.448   2.863  1.00  0.00     0.002 C 
ENDROOT
BRANCH   1   2
ATOM      2  C   UNL     1       2.637   8.641   4.130  1.00  0.00     0.002 C 
BRANCH   2   3
ATOM      3  C   UNL     1       1.577   7.541   4.028  1.00  0.00     0.021 C 
BRANCH   3   4
ATOM      4  C   UNL     1       1.722   6.548   2.881  1.00  0.00     0.116 C 
BRANCH   4   5
ATOM      5  N   UNL     1       2.926   5.753   2.900  1.00  0.00    -0.352 N 
ATOM      6  C   UNL     1       3.180   4.491   2.411  1.00  0.00     0.254 C 
ATOM      7  O   UNL     1       4.351   4.114   2.487  1.00  0.00    -0.269 OA
ATOM      8  H   UNL     1       3.696   6.186   3.336  1.00  0.00     0.163 HD
BRANCH   6   9
ATOM      9  C   UNL     1       2.119   3.605   1.906  1.00  0.00     0.073 A 
ATOM     10  C   UNL     1       0.958   1.653   1.488  1.00  0.00     0.086 A 
ATOM     11  C   UNL     1       2.132   2.164   2.030  1.00  0.00     0.022 A 
ATOM     12  N   UNL     1       0.206   2.733   1.060  1.00  0.00    -0.314 N 
ATOM     13  C   UNL     1       0.988   3.888   1.143  1.00  0.00     0.059 A 
ATOM     14  C   UNL     1      -1.112   2.747   0.581  1.00  0.00     0.092 A 
ATOM     15  C   UNL     1       0.464   5.045   0.482  1.00  0.00     0.027 A 
ATOM     16  C   UNL     1      -1.649   3.889   0.126  1.00  0.00     0.018 A 
ATOM     17  C   UNL     1      -0.807   5.062   0.040  1.00  0.00     0.004 A 
BRANCH  10  18
ATOM     18  C   UNL     1       0.484   0.244   1.354  1.00  0.00     0.315 C 
BRANCH  18  19
ATOM     19  N   UNL     1       0.734  -0.243   0.002  1.00  0.00    -0.353 N 
ATOM     20  H   UNL     1       0.406  -1.206  -0.078  1.00  0.00     0.344 HD
ATOM     21  H   UNL     1       1.734  -0.207  -0.194  1.00  0.00     0.344 HD
ATOM     22  H   UNL     1       0.235   0.342  -0.668  1.00  0.00     0.344 HD
ENDBRANCH  18  19
ENDBRANCH  10  18
BRANCH  11  23
ATOM     23  C   UNL     1       3.167   1.312   2.601  1.00  0.00    -0.016 A 
ATOM     24  C   UNL     1       3.433   1.337   3.974  1.00  0.00     0.009 A 
ATOM     25  C   UNL     1       3.936   0.489   1.768  1.00  0.00     0.009 A 
ATOM     26  C   UNL     1       4.459   0.549   4.504  1.00  0.00     0.001 A 
ATOM     27  C   UNL     1       4.952  -0.306   2.300  1.00  0.00     0.001 A 
ATOM     28  C   UNL     1       5.216  -0.272   3.668  1.00  0.00     0.000 A 
ENDBRANCH  11  23
ENDBRANCH   6   9
ENDBRANCH   4   5
ENDBRANCH   3   4
ENDBRANCH   2   3
ENDBRANCH   1   2
BRANCH   1  29
ATOM     29  C   UNL     1       1.736  10.069   2.141  1.00  0.00     0.021 C 
BRANCH  29  30
ATOM     30  C   UNL     1       0.798  10.912   2.998  1.00  0.00     0.116 C 
BRANCH  30  31
ATOM     31  N   UNL     1       1.469  12.022   3.651  1.00  0.00    -0.352 N 
ATOM     32  C   UNL     1       1.151  13.359   3.657  1.00  0.00     0.251 C 
ATOM     33  H   UNL     1       2.273  11.781   4.165  1.00  0.00     0.163 HD
ATOM     34  O   UNL     1       1.930  14.168   4.150  1.00  0.00    -0.269 OA
BRANCH  32  35
ATOM     35  C   UNL     1      -0.115  13.826   3.046  1.00  0.00     0.039 A 
ATOM     36  C   UNL     1      -0.088  14.958   2.227  1.00  0.00     0.014 A 
ATOM     37  C   UNL     1      -1.322  13.162   3.282  1.00  0.00     0.014 A 
ATOM     38  C   UNL     1      -1.258  15.384   1.593  1.00  0.00     0.010 A 
ATOM     39  C   UNL     1      -2.470  13.543   2.591  1.00  0.00     0.010 A 
ATOM     40  C   UNL     1      -2.452  14.657   1.739  1.00  0.00    -0.014 A 
BRANCH  40  41
ATOM     41  C   UNL     1      -3.683  15.042   0.999  1.00  0.00     0.031 A 
ATOM     42  C   UNL     1      -4.917  15.471   1.746  1.00  0.00     0.074 A 
ATOM     43  C   UNL     1      -3.707  14.945  -0.345  1.00  0.00     0.049 A 
ATOM     44  N   UNL     1      -6.098  15.783   1.279  1.00  0.00    -0.248 NA
ATOM     45  C   UNL     1      -4.817  15.532   3.213  1.00  0.00     0.031 C 
ATOM     46  C   UNL     1      -2.589  14.500  -1.181  1.00  0.00     0.029 A 
ATOM     47  N   UNL     1      -4.710  15.204  -1.247  1.00  0.00    -0.354 N 
ATOM     48  C   UNL     1      -6.883  16.068   2.390  1.00  0.00     0.074 A 
ATOM     49  C   UNL     1      -6.060  15.835   3.557  1.00  0.00     0.031 C 
ATOM     50  C   UNL     1      -2.959  14.541  -2.470  1.00  0.00     0.029 A 
ATOM     51  C   UNL     1      -4.352  14.971  -2.554  1.00  0.00     0.049 A 
ATOM     52  H   UNL     1      -5.602  15.526  -0.982  1.00  0.00     0.167 HD
ATOM     53  C   UNL     1      -8.165  16.505   2.433  1.00  0.00     0.037 A 
ATOM     54  C   UNL     1      -5.066  15.080  -3.692  1.00  0.00     0.037 A 
ATOM     55  C   UNL     1      -8.973  16.747   1.266  1.00  0.00     0.049 A 
ATOM     56  C   UNL     1      -6.494  15.546  -3.619  1.00  0.00     0.074 A 
ATOM     57  C   UNL     1     -10.264  17.241   1.200  1.00  0.00     0.029 A 
ATOM     58  N   UNL     1      -8.573  16.504  -0.041  1.00  0.00    -0.354 N 
ATOM     59  N   UNL     1      -7.201  15.874  -2.563  1.00  0.00    -0.248 NA
ATOM     60  C   UNL     1      -7.222  15.663  -4.889  1.00  0.00     0.031 C 
ATOM     61  C   UNL     1     -10.665  17.243  -0.140  1.00  0.00     0.029 A 
ATOM     62  C   UNL     1      -9.603  16.809  -0.917  1.00  0.00     0.049 A 
ATOM     63  H   UNL     1      -7.688  16.164  -0.307  1.00  0.00     0.167 HD
ATOM     64  C   UNL     1      -8.447  16.262  -3.044  1.00  0.00     0.074 A 
ATOM     65  C   UNL     1      -8.392  16.139  -4.486  1.00  0.00     0.031 C 
ATOM     66  C   UNL     1      -9.535  16.684  -2.353  1.00  0.00     0.037 A 
BRANCH  53  67
ATOM     67  C   UNL     1      -8.775  16.745   3.790  1.00  0.00     0.058 A 
ATOM     68  C   UNL     1      -8.341  17.790   4.622  1.00  0.00     0.135 A 
ATOM     69  C   UNL     1      -9.824  15.935   4.255  1.00  0.00     0.135 A 
ATOM     70  F   UNL     1      -7.333  18.589   4.236  1.00  0.00    -0.206 F 
ATOM     71  C   UNL     1      -8.896  17.999   5.881  1.00  0.00     0.059 A 
ATOM     72  C   UNL     1     -10.417  16.146   5.497  1.00  0.00     0.059 A 
ATOM     73  F   UNL     1     -10.282  14.923   3.502  1.00  0.00    -0.206 F 
ATOM     74  C   UNL     1      -9.933  17.169   6.310  1.00  0.00     0.060 A 
BRANCH  74  75
ATOM     75  S   UNL     1     -10.635  17.447   7.950  1.00  0.00     0.124 S 
ATOM     76  O   UNL     1      -9.554  16.978   8.812  1.00  0.00    -0.237 OA
ATOM     77  O   UNL     1     -10.864  18.888   7.951  1.00  0.00    -0.237 OA
ATOM     78  O   UNL     1     -11.839  16.622   7.950  1.00  0.00    -0.744 OA
ENDBRANCH  74  75
ENDBRANCH  53  67
BRANCH  54  79
ATOM     79  C   UNL     1      -4.429  14.760  -4.999  1.00  0.00     0.058 A 
ATOM     80  C   UNL     1      -4.144  15.770  -5.929  1.00  0.00     0.135 A 
ATOM     81  C   UNL     1      -4.071  13.445  -5.333  1.00  0.00     0.135 A 
ATOM     82  F   UNL     1      -4.475  17.043  -5.660  1.00  0.00    -0.206 F 
ATOM     83  C   UNL     1      -3.538  15.488  -7.149  1.00  0.00     0.059 A 
ATOM     84  C   UNL     1      -3.438  13.141  -6.534  1.00  0.00     0.059 A 
ATOM     85  F   UNL     1      -4.307  12.443  -4.471  1.00  0.00    -0.206 F 
ATOM     86  C   UNL     1      -3.182  14.170  -7.440  1.00  0.00     0.060 A 
BRANCH  86  87
ATOM     87  S   UNL     1      -2.341  13.825  -9.000  1.00  0.00     0.124 S 
ATOM     88  O   UNL     1      -3.418  14.016  -9.964  1.00  0.00    -0.237 OA
ATOM     89  O   UNL     1      -1.288  14.836  -9.008  1.00  0.00    -0.237 OA
ATOM     90  O   UNL     1      -1.878  12.450  -8.834  1.00  0.00    -0.744 OA
ENDBRANCH  86  87
ENDBRANCH  54  79
BRANCH  66  91
ATOM     91  C   UNL     1     -10.752  17.076  -3.147  1.00  0.00     0.058 A 
ATOM     92  C   UNL     1     -11.550  16.123  -3.800  1.00  0.00     0.135 A 
ATOM     93  C   UNL     1     -11.158  18.420  -3.207  1.00  0.00     0.135 A 
ATOM     94  F   UNL     1     -11.204  14.826  -3.782  1.00  0.00    -0.206 F 
ATOM     95  C   UNL     1     -12.693  16.491  -4.503  1.00  0.00     0.059 A 
ATOM     96  C   UNL     1     -12.314  18.806  -3.878  1.00  0.00     0.059 A 
ATOM     97  F   UNL     1     -10.437  19.372  -2.592  1.00  0.00    -0.206 F 
ATOM     98  C   UNL     1     -13.069  17.835  -4.532  1.00  0.00     0.060 A 
BRANCH  98  99
ATOM     99  S   UNL     1     -14.577  18.291  -5.414  1.00  0.00     0.124 S 
ATOM    100  O   UNL     1     -14.166  18.127  -6.805  1.00  0.00    -0.237 OA
ATOM    101  O   UNL     1     -15.537  17.311  -4.917  1.00  0.00    -0.237 OA
ATOM    102  O   UNL     1     -14.817  19.667  -4.990  1.00  0.00    -0.744 OA
ENDBRANCH  98  99
ENDBRANCH  66  91
ENDBRANCH  40  41
ENDBRANCH  32  35
ENDBRANCH  30  31
ENDBRANCH  29  30
ENDBRANCH   1  29
TORSDOF 19
