REMARK SMILES Cc1[nH]c2ccc(Br)cc2c(=O)c1CCC(=O)NCCCCCCNC(=O)c1ccc(-c2c3nc(c(-c4c(F)cc(S(=O)(=O)[O-])cc4F)c4ccc([nH]4)c(-c4c(F)cc(S(=O)(=O)[O-])cc4F)c4nc(c(-c5c(F)cc(S(=O)(=O)[O-])cc5F)c5ccc2[nH]5)C=C4)C=C3)cc1
REMARK SMILES IDX 22 1 21 2 20 3 19 4 18 5 16 6 17 7 15 9 14 10 13 11 1 12
REMARK SMILES IDX 2 13 3 14 4 15 11 17 5 18 10 19 12 20 6 21 9 22 7 23 8 24
REMARK SMILES IDX 23 25 24 26 25 27 26 28 27 30 28 31 29 32 93 33 30 34 92 35
REMARK SMILES IDX 31 36 32 37 33 38 86 39 34 40 91 41 85 42 87 43 35 44 90 45
REMARK SMILES IDX 84 46 83 47 36 49 70 50 49 51 69 52 50 53 53 54 68 55 88 56
REMARK SMILES IDX 51 57 52 58 67 60 89 61 54 62 37 63 38 64 47 65 39 66 40 67
REMARK SMILES IDX 46 68 48 69 41 70 42 71 43 72 44 73 45 74 71 75 72 76 81 77
REMARK SMILES IDX 73 78 74 79 80 80 82 81 75 82 76 83 77 84 78 85 79 86 55 87
REMARK SMILES IDX 56 88 65 89 57 90 58 91 64 92 66 93 59 94 60 95 61 96 62 97
REMARK SMILES IDX 63 98
REMARK H PARENT 18 8 3 16 25 29 87 48 53 59
REMARK Flexibility Score: inf
ROOT
ATOM      1  C   UNL     1      -2.802   3.232  -5.499  1.00  0.00     0.002 C 
ENDROOT
BRANCH   1   2
ATOM      2  C   UNL     1      -1.819   2.073  -5.691  1.00  0.00     0.002 C 
BRANCH   2   3
ATOM      3  C   UNL     1      -1.404   1.312  -4.429  1.00  0.00     0.021 C 
BRANCH   3   4
ATOM      4  C   UNL     1      -2.472   0.440  -3.765  1.00  0.00     0.116 C 
BRANCH   4   5
ATOM      5  N   UNL     1      -2.316  -0.960  -4.139  1.00  0.00    -0.356 N 
ATOM      6  C   UNL     1      -1.724  -1.999  -3.484  1.00  0.00     0.220 C 
ATOM      7  O   UNL     1      -1.637  -3.082  -4.068  1.00  0.00    -0.275 OA
ATOM      8  H   UNL     1      -2.704  -1.195  -5.012  1.00  0.00     0.163 HD
BRANCH   6   9
ATOM      9  C   UNL     1      -1.244  -1.860  -2.051  1.00  0.00     0.105 C 
BRANCH   9  10
ATOM     10  C   UNL     1       0.284  -1.856  -1.916  1.00  0.00     0.051 C 
BRANCH  10  11
ATOM     11  C   UNL     1       0.855  -0.458  -1.863  1.00  0.00     0.020 A 
ATOM     12  C   UNL     1       0.555  -0.117   0.618  1.00  0.00     0.064 C 
ATOM     13  C   UNL     1       0.945   0.335  -0.769  1.00  0.00     0.019 A 
ATOM     14  N   UNL     1       1.394   1.641  -0.838  1.00  0.00    -0.358 N 
ATOM     15  C   UNL     1       1.779   2.244  -2.036  1.00  0.00     0.050 A 
ATOM     16  H   UNL     1       1.443   2.166  -0.007  1.00  0.00     0.166 HD
ATOM     17  C   UNL     1       1.417   0.068  -3.150  1.00  0.00     0.192 A 
ATOM     18  C   UNL     1       2.102   3.601  -2.093  1.00  0.00     0.028 A 
ATOM     19  C   UNL     1       1.816   1.491  -3.214  1.00  0.00     0.047 A 
ATOM     20  O   UNL     1       1.519  -0.643  -4.145  1.00  0.00    -0.289 OA
ATOM     21  C   UNL     1       2.475   4.183  -3.308  1.00  0.00     0.018 A 
ATOM     22  C   UNL     1       2.171   2.069  -4.437  1.00  0.00     0.030 A 
ATOM     23  C   UNL     1       2.500   3.418  -4.475  1.00  0.00     0.018 A 
ATOM     24  Br  UNL     1       2.948   4.224  -6.124  1.00  0.00    -0.051 Br
ENDBRANCH  10  11
ENDBRANCH   9  10
ENDBRANCH   6   9
ENDBRANCH   4   5
ENDBRANCH   3   4
ENDBRANCH   2   3
ENDBRANCH   1   2
BRANCH   1  25
ATOM     25  C   UNL     1      -2.411   4.316  -4.487  1.00  0.00     0.021 C 
BRANCH  25  26
ATOM     26  C   UNL     1      -1.146   5.123  -4.792  1.00  0.00     0.116 C 
BRANCH  26  27
ATOM     27  N   UNL     1      -1.251   5.970  -5.972  1.00  0.00    -0.352 N 
ATOM     28  C   UNL     1      -0.851   7.277  -6.177  1.00  0.00     0.251 C 
ATOM     29  H   UNL     1      -1.676   5.542  -6.750  1.00  0.00     0.163 HD
ATOM     30  O   UNL     1      -1.097   7.822  -7.245  1.00  0.00    -0.269 OA
BRANCH  28  31
ATOM     31  C   UNL     1      -0.165   8.045  -5.104  1.00  0.00     0.039 A 
ATOM     32  C   UNL     1       0.855   7.479  -4.342  1.00  0.00     0.014 A 
ATOM     33  C   UNL     1      -0.546   9.367  -4.856  1.00  0.00     0.014 A 
ATOM     34  C   UNL     1       1.354   8.149  -3.222  1.00  0.00     0.010 A 
ATOM     35  C   UNL     1       0.007  10.069  -3.774  1.00  0.00     0.010 A 
ATOM     36  C   UNL     1       0.909   9.440  -2.900  1.00  0.00    -0.014 A 
BRANCH  36  37
ATOM     37  C   UNL     1       1.314  10.069  -1.605  1.00  0.00     0.031 A 
ATOM     38  C   UNL     1       0.271  10.363  -0.549  1.00  0.00     0.074 A 
ATOM     39  C   UNL     1       2.612  10.314  -1.327  1.00  0.00     0.049 A 
ATOM     40  N   UNL     1       0.423  10.889   0.642  1.00  0.00    -0.248 NA
ATOM     41  C   UNL     1      -1.124  10.023  -0.873  1.00  0.00     0.031 C 
ATOM     42  C   UNL     1       3.732  10.065  -2.235  1.00  0.00     0.029 A 
ATOM     43  N   UNL     1       3.210  10.808  -0.191  1.00  0.00    -0.354 N 
ATOM     44  C   UNL     1      -0.852  10.961   1.195  1.00  0.00     0.074 A 
ATOM     45  C   UNL     1      -1.771  10.460   0.198  1.00  0.00     0.031 C 
ATOM     46  C   UNL     1       4.881  10.363  -1.607  1.00  0.00     0.029 A 
ATOM     47  C   UNL     1       4.583  10.875  -0.271  1.00  0.00     0.049 A 
ATOM     48  H   UNL     1       2.704  11.088   0.605  1.00  0.00     0.167 HD
ATOM     49  C   UNL     1      -1.228  11.382   2.427  1.00  0.00     0.037 A 
ATOM     50  C   UNL     1       5.499  11.308   0.620  1.00  0.00     0.037 A 
ATOM     51  C   UNL     1      -0.320  11.846   3.443  1.00  0.00     0.049 A 
ATOM     52  C   UNL     1       5.054  11.826   1.962  1.00  0.00     0.074 A 
ATOM     53  C   UNL     1      -0.615  12.258   4.731  1.00  0.00     0.029 A 
ATOM     54  N   UNL     1       1.052  11.958   3.292  1.00  0.00    -0.354 N 
ATOM     55  N   UNL     1       3.845  11.871   2.467  1.00  0.00    -0.248 NA
ATOM     56  C   UNL     1       6.096  12.367   2.850  1.00  0.00     0.031 C 
ATOM     57  C   UNL     1       0.575  12.658   5.346  1.00  0.00     0.029 A 
ATOM     58  C   UNL     1       1.616  12.455   4.455  1.00  0.00     0.049 A 
ATOM     59  H   UNL     1       1.553  11.719   2.478  1.00  0.00     0.167 HD
ATOM     60  C   UNL     1       3.982  12.435   3.732  1.00  0.00     0.074 A 
ATOM     61  C   UNL     1       5.392  12.698   3.925  1.00  0.00     0.031 C 
ATOM     62  C   UNL     1       3.021  12.712   4.646  1.00  0.00     0.037 A 
BRANCH  49  63
ATOM     63  C   UNL     1      -2.695  11.357   2.758  1.00  0.00     0.058 A 
ATOM     64  C   UNL     1      -3.371  10.152   3.001  1.00  0.00     0.135 A 
ATOM     65  C   UNL     1      -3.417  12.555   2.891  1.00  0.00     0.135 A 
ATOM     66  F   UNL     1      -2.731   8.979   2.873  1.00  0.00    -0.206 F 
ATOM     67  C   UNL     1      -4.719  10.133   3.342  1.00  0.00     0.059 A 
ATOM     68  C   UNL     1      -4.761  12.560   3.256  1.00  0.00     0.059 A 
ATOM     69  F   UNL     1      -2.816  13.735   2.673  1.00  0.00    -0.206 F 
ATOM     70  C   UNL     1      -5.405  11.342   3.468  1.00  0.00     0.060 A 
BRANCH  70  71
ATOM     71  S   UNL     1      -7.153  11.293   3.918  1.00  0.00     0.124 S 
ATOM     72  O   UNL     1      -7.751  10.761   2.697  1.00  0.00    -0.237 OA
ATOM     73  O   UNL     1      -7.152  10.393   5.066  1.00  0.00    -0.237 OA
ATOM     74  O   UNL     1      -7.468  12.687   4.215  1.00  0.00    -0.744 OA
ENDBRANCH  70  71
ENDBRANCH  49  63
BRANCH  50  75
ATOM     75  C   UNL     1       6.945  11.271   0.269  1.00  0.00     0.058 A 
ATOM     76  C   UNL     1       7.815  10.368   0.896  1.00  0.00     0.135 A 
ATOM     77  C   UNL     1       7.481  12.125  -0.707  1.00  0.00     0.135 A 
ATOM     78  F   UNL     1       7.353   9.542   1.848  1.00  0.00    -0.206 F 
ATOM     79  C   UNL     1       9.166  10.310   0.568  1.00  0.00     0.059 A 
ATOM     80  C   UNL     1       8.823  12.070  -1.071  1.00  0.00     0.059 A 
ATOM     81  F   UNL     1       6.688  13.004  -1.340  1.00  0.00    -0.206 F 
ATOM     82  C   UNL     1       9.659  11.161  -0.423  1.00  0.00     0.060 A 
BRANCH  82  83
ATOM     83  S   UNL     1      11.399  11.029  -0.888  1.00  0.00     0.124 S 
ATOM     84  O   UNL     1      12.059  11.598   0.281  1.00  0.00    -0.237 OA
ATOM     85  O   UNL     1      11.555   9.589  -1.073  1.00  0.00    -0.237 OA
ATOM     86  O   UNL     1      11.481  11.823  -2.110  1.00  0.00    -0.744 OA
ENDBRANCH  82  83
ENDBRANCH  50  75
BRANCH  62  87
ATOM     87  C   UNL     1       3.438  13.333   5.950  1.00  0.00     0.058 A 
ATOM     88  C   UNL     1       3.777  14.692   6.034  1.00  0.00     0.135 A 
ATOM     89  C   UNL     1       3.384  12.595   7.144  1.00  0.00     0.135 A 
ATOM     90  F   UNL     1       3.852  15.439   4.921  1.00  0.00    -0.206 F 
ATOM     91  C   UNL     1       4.041  15.300   7.257  1.00  0.00     0.059 A 
ATOM     92  C   UNL     1       3.623  13.188   8.380  1.00  0.00     0.059 A 
ATOM     93  F   UNL     1       3.058  11.293   7.119  1.00  0.00    -0.206 F 
ATOM     94  C   UNL     1       3.949  14.543   8.426  1.00  0.00     0.060 A 
BRANCH  94  95
ATOM     95  S   UNL     1       4.209  15.370  10.011  1.00  0.00     0.124 S 
ATOM     96  O   UNL     1       5.644  15.629   9.977  1.00  0.00    -0.237 OA
ATOM     97  O   UNL     1       3.349  16.543   9.893  1.00  0.00    -0.237 OA
ATOM     98  O   UNL     1       3.774  14.377  10.989  1.00  0.00    -0.744 OA
ENDBRANCH  94  95
ENDBRANCH  62  87
ENDBRANCH  36  37
ENDBRANCH  28  31
ENDBRANCH  26  27
ENDBRANCH  25  26
ENDBRANCH   1  25
TORSDOF 18
