REMARK SMILES Cc1ccc(C)c(S(=O)(=O)N[C@H](CC2=c3ccccc3=NC2)C(=O)NCCCCCCNC(=O)c2ccc(-c3c4nc(c(-c5c(F)cc(S(=O)(=O)[O-])cc5F)c5ccc([nH]5)c(-c5c(F)cc(S(=O)(=O)[O-])cc5F)c5nc(c(-c6c(F)cc(S(=O)(=O)[O-])cc6F)c6ccc3[nH]6)C=C5)C=C4)cc2)c1
REMARK SMILES IDX 28 1 27 2 26 3 25 4 23 5 24 6 12 8 11 9 8 11 9 12 10 13 7 14
REMARK SMILES IDX 1 15 2 16 3 17 101 18 4 19 5 20 6 21 13 22 14 23 15 24 22 25
REMARK SMILES IDX 16 26 20 27 21 28 17 29 19 30 18 31 29 32 30 33 31 34 32 35
REMARK SMILES IDX 33 36 34 38 35 39 36 40 100 41 37 42 99 43 38 44 39 45 40 46
REMARK SMILES IDX 93 47 41 48 98 49 92 50 94 51 42 52 97 53 91 54 90 55 43 57
REMARK SMILES IDX 77 58 56 59 76 60 57 61 60 62 75 63 95 64 58 65 59 66 74 68
REMARK SMILES IDX 96 69 61 70 44 71 45 72 54 73 46 74 47 75 53 76 55 77 48 78
REMARK SMILES IDX 49 79 50 80 51 81 52 82 78 83 79 84 88 85 80 86 81 87 87 88
REMARK SMILES IDX 89 89 82 90 83 91 84 92 85 93 86 94 62 95 63 96 72 97 64 98
REMARK SMILES IDX 65 99 71 100 73 101 66 102 67 103 68 104 69 105 70 106
REMARK H PARENT 25 7 11 10 32 37 94 56 60 67
REMARK Flexibility Score: inf
ROOT
ATOM      1  C   UNL     1      -0.359   9.254  -1.099  1.00  0.00     0.002 C 
ENDROOT
BRANCH   1   2
ATOM      2  C   UNL     1      -1.349   8.101  -1.279  1.00  0.00     0.021 C 
BRANCH   2   3
ATOM      3  C   UNL     1      -0.884   6.883  -2.100  1.00  0.00     0.116 C 
BRANCH   3   4
ATOM      4  N   UNL     1       0.528   6.530  -1.988  1.00  0.00    -0.355 N 
ATOM      5  C   UNL     1       1.224   5.419  -1.596  1.00  0.00     0.238 C 
ATOM      6  O   UNL     1       2.456   5.540  -1.582  1.00  0.00    -0.273 OA
ATOM      7  H   UNL     1       1.121   7.268  -2.257  1.00  0.00     0.163 HD
BRANCH   5   8
ATOM      8  C   UNL     1       0.573   4.082  -1.189  1.00  0.00     0.163 C 
BRANCH   8   9
ATOM      9  N   UNL     1      -0.450   3.703  -2.203  1.00  0.00    -0.198 NA
ATOM     10  H   UNL     1      -1.236   3.300  -1.691  1.00  0.00     0.142 HD
BRANCH   9  11
ATOM     11  S   UNL     1      -0.066   2.622  -3.424  1.00  0.00     0.241 S 
ATOM     12  O   UNL     1       1.345   2.706  -3.683  1.00  0.00    -0.207 OA
ATOM     13  O   UNL     1      -1.049   2.884  -4.465  1.00  0.00    -0.207 OA
BRANCH  11  14
ATOM     14  C   UNL     1      -0.449   1.022  -2.752  1.00  0.00     0.085 A 
ATOM     15  C   UNL     1      -1.882  -0.322   0.513  1.00  0.00     0.044 C 
ATOM     16  C   UNL     1      -1.285  -0.272  -0.865  1.00  0.00    -0.050 A 
ATOM     17  C   UNL     1      -0.894  -1.441  -1.516  1.00  0.00     0.004 A 
ATOM     18  C   UNL     1      -1.076   0.953  -1.499  1.00  0.00     0.025 A 
ATOM     19  C   UNL     1      -0.321  -1.384  -2.790  1.00  0.00     0.005 A 
ATOM     20  C   UNL     1      -0.094  -0.154  -3.434  1.00  0.00    -0.031 A 
ATOM     21  C   UNL     1       0.503  -0.193  -4.813  1.00  0.00     0.046 C 
ENDBRANCH  11  14
ENDBRANCH   9  11
ENDBRANCH   8   9
BRANCH   8  22
ATOM     22  C   UNL     1      -0.006   3.958   0.255  1.00  0.00     0.063 C 
BRANCH  22  23
ATOM     23  C   UNL     1       0.436   4.951   1.291  1.00  0.00    -0.037 C 
ATOM     24  C   UNL     1       1.206   4.840   2.374  1.00  0.00     0.001 A 
ATOM     25  C   UNL     1      -0.143   6.323   1.252  1.00  0.00     0.174 C 
ATOM     26  C   UNL     1       1.863   3.796   3.091  1.00  0.00     0.010 A 
ATOM     27  C   UNL     1       1.264   6.230   2.867  1.00  0.00     0.065 A 
ATOM     28  N   UNL     1       0.517   7.118   2.290  1.00  0.00    -0.280 NA
ATOM     29  C   UNL     1       2.542   4.108   4.211  1.00  0.00     0.001 A 
ATOM     30  C   UNL     1       2.183   6.515   3.979  1.00  0.00     0.028 A 
ATOM     31  C   UNL     1       2.739   5.484   4.630  1.00  0.00     0.002 A 
ENDBRANCH  22  23
ENDBRANCH   8  22
ENDBRANCH   5   8
ENDBRANCH   3   4
ENDBRANCH   2   3
ENDBRANCH   1   2
BRANCH   1  32
ATOM     32  C   UNL     1      -0.355  10.309  -2.205  1.00  0.00     0.002 C 
BRANCH  32  33
ATOM     33  C   UNL     1      -1.705  10.937  -2.592  1.00  0.00     0.021 C 
BRANCH  33  34
ATOM     34  C   UNL     1      -2.500  11.629  -1.483  1.00  0.00     0.116 C 
BRANCH  34  35
ATOM     35  N   UNL     1      -1.836  12.830  -0.969  1.00  0.00    -0.352 N 
ATOM     36  C   UNL     1      -1.910  13.505   0.236  1.00  0.00     0.251 C 
ATOM     37  H   UNL     1      -1.210  13.239  -1.610  1.00  0.00     0.163 HD
ATOM     38  O   UNL     1      -1.595  14.694   0.257  1.00  0.00    -0.269 OA
BRANCH  36  39
ATOM     39  C   UNL     1      -2.330  12.840   1.492  1.00  0.00     0.039 A 
ATOM     40  C   UNL     1      -2.640  13.566   2.653  1.00  0.00     0.014 A 
ATOM     41  C   UNL     1      -2.327  11.458   1.558  1.00  0.00     0.014 A 
ATOM     42  C   UNL     1      -2.914  12.880   3.844  1.00  0.00     0.010 A 
ATOM     43  C   UNL     1      -2.805  10.784   2.643  1.00  0.00     0.010 A 
ATOM     44  C   UNL     1      -2.973  11.484   3.823  1.00  0.00    -0.014 A 
BRANCH  44  45
ATOM     45  C   UNL     1      -3.217  10.651   4.988  1.00  0.00     0.031 A 
ATOM     46  C   UNL     1      -4.615  10.598   5.440  1.00  0.00     0.074 A 
ATOM     47  C   UNL     1      -2.336   9.707   5.385  1.00  0.00     0.049 A 
ATOM     48  N   UNL     1      -5.081  11.041   6.557  1.00  0.00    -0.248 NA
ATOM     49  C   UNL     1      -5.637  10.100   4.508  1.00  0.00     0.031 C 
ATOM     50  C   UNL     1      -1.020   9.428   4.806  1.00  0.00     0.029 A 
ATOM     51  N   UNL     1      -2.487   8.708   6.304  1.00  0.00    -0.354 N 
ATOM     52  C   UNL     1      -6.409  10.651   6.571  1.00  0.00     0.074 A 
ATOM     53  C   UNL     1      -6.749  10.320   5.211  1.00  0.00     0.031 C 
ATOM     54  C   UNL     1      -0.593   8.229   5.252  1.00  0.00     0.029 A 
ATOM     55  C   UNL     1      -1.532   7.704   6.212  1.00  0.00     0.049 A 
ATOM     56  H   UNL     1      -3.210   8.701   6.972  1.00  0.00     0.167 HD
ATOM     57  C   UNL     1      -7.038  10.340   7.736  1.00  0.00     0.037 A 
ATOM     58  C   UNL     1      -1.489   6.511   6.859  1.00  0.00     0.037 A 
ATOM     59  C   UNL     1      -6.266  10.745   8.888  1.00  0.00     0.049 A 
ATOM     60  C   UNL     1      -2.308   6.650   8.080  1.00  0.00     0.074 A 
ATOM     61  C   UNL     1      -5.700  11.937   9.303  1.00  0.00     0.029 A 
ATOM     62  N   UNL     1      -5.637   9.765   9.621  1.00  0.00    -0.354 N 
ATOM     63  N   UNL     1      -1.987   7.432   9.073  1.00  0.00    -0.248 NA
ATOM     64  C   UNL     1      -3.715   6.294   7.992  1.00  0.00     0.031 C 
ATOM     65  C   UNL     1      -4.453  11.576   9.893  1.00  0.00     0.029 A 
ATOM     66  C   UNL     1      -4.352  10.186   9.861  1.00  0.00     0.049 A 
ATOM     67  H   UNL     1      -6.036   8.916   9.918  1.00  0.00     0.167 HD
ATOM     68  C   UNL     1      -3.181   8.037   9.431  1.00  0.00     0.074 A 
ATOM     69  C   UNL     1      -4.222   7.216   8.816  1.00  0.00     0.031 C 
ATOM     70  C   UNL     1      -3.205   9.305   9.938  1.00  0.00     0.037 A 
BRANCH  57  71
ATOM     71  C   UNL     1      -8.179   9.364   7.824  1.00  0.00     0.058 A 
ATOM     72  C   UNL     1      -8.993   9.358   8.970  1.00  0.00     0.135 A 
ATOM     73  C   UNL     1      -8.370   8.287   6.928  1.00  0.00     0.135 A 
ATOM     74  F   UNL     1      -8.862  10.314   9.904  1.00  0.00    -0.206 F 
ATOM     75  C   UNL     1      -9.911   8.341   9.223  1.00  0.00     0.059 A 
ATOM     76  C   UNL     1      -9.328   7.303   7.122  1.00  0.00     0.059 A 
ATOM     77  F   UNL     1      -7.568   8.083   5.875  1.00  0.00    -0.206 F 
ATOM     78  C   UNL     1     -10.067   7.316   8.293  1.00  0.00     0.060 A 
BRANCH  78  79
ATOM     79  S   UNL     1     -11.184   5.953   8.657  1.00  0.00     0.124 S 
ATOM     80  O   UNL     1     -10.462   5.268   9.723  1.00  0.00    -0.237 OA
ATOM     81  O   UNL     1     -12.400   6.654   9.053  1.00  0.00    -0.237 OA
ATOM     82  O   UNL     1     -11.264   5.237   7.387  1.00  0.00    -0.744 OA
ENDBRANCH  78  79
ENDBRANCH  57  71
BRANCH  58  83
ATOM     83  C   UNL     1      -1.121   5.199   6.270  1.00  0.00     0.058 A 
ATOM     84  C   UNL     1      -0.594   4.139   7.025  1.00  0.00     0.135 A 
ATOM     85  C   UNL     1      -1.520   4.886   4.955  1.00  0.00     0.135 A 
ATOM     86  F   UNL     1      -0.244   4.335   8.306  1.00  0.00    -0.206 F 
ATOM     87  C   UNL     1      -0.442   2.847   6.497  1.00  0.00     0.059 A 
ATOM     88  C   UNL     1      -1.391   3.609   4.413  1.00  0.00     0.059 A 
ATOM     89  F   UNL     1      -2.112   5.811   4.182  1.00  0.00    -0.206 F 
ATOM     90  C   UNL     1      -0.851   2.590   5.188  1.00  0.00     0.060 A 
BRANCH  90  91
ATOM     91  S   UNL     1      -0.618   0.958   4.443  1.00  0.00     0.124 S 
ATOM     92  O   UNL     1       0.544   0.434   5.153  1.00  0.00    -0.237 OA
ATOM     93  O   UNL     1      -1.890   0.305   4.727  1.00  0.00    -0.237 OA
ATOM     94  O   UNL     1      -0.382   1.274   3.035  1.00  0.00    -0.744 OA
ENDBRANCH  90  91
ENDBRANCH  58  83
BRANCH  70  95
ATOM     95  C   UNL     1      -1.900   9.930  10.373  1.00  0.00     0.058 A 
ATOM     96  C   UNL     1      -0.863  10.293   9.494  1.00  0.00     0.135 A 
ATOM     97  C   UNL     1      -1.774  10.344  11.707  1.00  0.00     0.135 A 
ATOM     98  F   UNL     1      -0.937  10.015   8.187  1.00  0.00    -0.206 F 
ATOM     99  C   UNL     1       0.250  11.021   9.920  1.00  0.00     0.059 A 
ATOM    100  C   UNL     1      -0.685  11.094  12.150  1.00  0.00     0.059 A 
ATOM    101  F   UNL     1      -2.752  10.074  12.587  1.00  0.00    -0.206 F 
ATOM    102  C   UNL     1       0.325  11.428  11.250  1.00  0.00     0.060 A 
BRANCH 102 103
ATOM    103  S   UNL     1       1.704  12.473  11.770  1.00  0.00     0.124 S 
ATOM    104  O   UNL     1       2.830  11.546  11.717  1.00  0.00    -0.237 OA
ATOM    105  O   UNL     1       1.703  13.527  10.759  1.00  0.00    -0.237 OA
ATOM    106  O   UNL     1       1.318  12.907  13.110  1.00  0.00    -0.744 OA
ENDBRANCH 102 103
ENDBRANCH  70  95
ENDBRANCH  44  45
ENDBRANCH  36  39
ENDBRANCH  34  35
ENDBRANCH  33  34
ENDBRANCH  32  33
ENDBRANCH   1  32
TORSDOF 21
