REMARK SMILES CCn1c(N2CCC(C(=O)NCCCCCCNC(=O)c3ccc(-c4c5nc(c(-c6c(F)cc(S(=O)(=O)[O-])cc6F)c6ccc([nH]6)c(-c6c(F)cc(S(=O)(=O)[O-])cc6F)c6nc(c(-c7c(F)cc(S(=O)(=O)[O-])cc7F)c7ccc4[nH]7)C=C6)C=C5)cc3)CC2)nc2cc(C)ccc21
REMARK SMILES IDX 15 1 14 2 13 3 12 4 11 5 9 6 10 7 8 9 5 10 6 11 88 12 7 13
REMARK SMILES IDX 87 14 4 15 3 16 96 17 89 18 90 19 95 20 91 21 94 22 92 23
REMARK SMILES IDX 93 24 2 25 1 26 16 27 17 28 18 29 19 30 20 32 21 33 22 34
REMARK SMILES IDX 86 35 23 36 85 37 24 38 25 39 26 40 79 41 27 42 84 43 78 44
REMARK SMILES IDX 80 45 28 46 83 47 77 48 76 49 29 51 63 52 42 53 62 54 43 55
REMARK SMILES IDX 46 56 61 57 81 58 44 59 45 60 60 62 82 63 47 64 30 65 31 66
REMARK SMILES IDX 40 67 32 68 33 69 39 70 41 71 34 72 35 73 36 74 37 75 38 76
REMARK SMILES IDX 64 77 65 78 74 79 66 80 67 81 73 82 75 83 68 84 69 85 70 86
REMARK SMILES IDX 71 87 72 88 48 89 49 90 58 91 50 92 51 93 57 94 59 95 52 96
REMARK SMILES IDX 53 97 54 98 55 99 56 100
REMARK H PARENT 11 8 18 31 80 50 46 61
REMARK Flexibility Score: inf
ROOT
ATOM      1  C   UNL     1       3.757  10.243  -0.864  1.00  0.00     0.002 C 
ENDROOT
BRANCH   1   2
ATOM      2  C   UNL     1       2.226  10.261  -0.827  1.00  0.00     0.002 C 
BRANCH   2   3
ATOM      3  C   UNL     1       1.569   8.879  -0.818  1.00  0.00     0.021 C 
BRANCH   3   4
ATOM      4  C   UNL     1       1.936   8.033   0.398  1.00  0.00     0.116 C 
BRANCH   4   5
ATOM      5  N   UNL     1       1.273   8.532   1.594  1.00  0.00    -0.356 N 
ATOM      6  C   UNL     1       0.315   7.967   2.376  1.00  0.00     0.223 C 
ATOM      7  O   UNL     1      -0.160   8.636   3.297  1.00  0.00    -0.275 OA
ATOM      8  H   UNL     1       1.566   9.426   1.884  1.00  0.00     0.163 HD
BRANCH   6   9
ATOM      9  C   UNL     1      -0.155   6.538   2.146  1.00  0.00     0.082 C 
ATOM     10  N   UNL     1       0.064   4.135   0.608  1.00  0.00    -0.342 N 
ATOM     11  C   UNL     1      -1.135   4.936   0.427  1.00  0.00     0.120 C 
ATOM     12  C   UNL     1       0.674   4.140   1.929  1.00  0.00     0.120 C 
ATOM     13  C   UNL     1      -0.898   6.388   0.812  1.00  0.00     0.035 C 
ATOM     14  C   UNL     1       0.997   5.554   2.379  1.00  0.00     0.035 C 
BRANCH  10  15
ATOM     15  C   UNL     1       0.715   3.638  -0.476  1.00  0.00     0.206 A 
ATOM     16  N   UNL     1       1.040   2.287  -0.578  1.00  0.00    -0.310 N 
ATOM     17  C   UNL     1       1.658   2.094  -1.796  1.00  0.00     0.070 A 
ATOM     18  N   UNL     1       1.007   4.276  -1.586  1.00  0.00    -0.213 NA
ATOM     19  C   UNL     1       1.625   3.354  -2.396  1.00  0.00     0.091 A 
ATOM     20  C   UNL     1       2.224   0.991  -2.452  1.00  0.00     0.029 A 
ATOM     21  C   UNL     1       2.173   3.527  -3.682  1.00  0.00     0.034 A 
ATOM     22  C   UNL     1       2.760   1.181  -3.731  1.00  0.00     0.006 A 
ATOM     23  C   UNL     1       2.741   2.430  -4.354  1.00  0.00    -0.049 A 
ATOM     24  C   UNL     1       3.340   2.607  -5.719  1.00  0.00     0.044 C 
BRANCH  16  25
ATOM     25  C   UNL     1       0.603   1.306   0.400  1.00  0.00     0.122 C 
ATOM     26  C   UNL     1       0.941  -0.159   0.203  1.00  0.00     0.028 C 
ENDBRANCH  16  25
ENDBRANCH  10  15
ENDBRANCH   6   9
ENDBRANCH   4   5
ENDBRANCH   3   4
ENDBRANCH   2   3
ENDBRANCH   1   2
BRANCH   1  27
ATOM     27  C   UNL     1       4.370   9.404  -1.988  1.00  0.00     0.021 C 
BRANCH  27  28
ATOM     28  C   UNL     1       3.869   9.759  -3.390  1.00  0.00     0.116 C 
BRANCH  28  29
ATOM     29  N   UNL     1       4.115  11.132  -3.777  1.00  0.00    -0.352 N 
ATOM     30  C   UNL     1       5.185  11.796  -4.313  1.00  0.00     0.251 C 
ATOM     31  H   UNL     1       3.341  11.719  -3.620  1.00  0.00     0.163 HD
ATOM     32  O   UNL     1       4.984  12.964  -4.658  1.00  0.00    -0.269 OA
BRANCH  30  33
ATOM     33  C   UNL     1       6.559  11.235  -4.434  1.00  0.00     0.039 A 
ATOM     34  C   UNL     1       6.917   9.916  -4.167  1.00  0.00     0.014 A 
ATOM     35  C   UNL     1       7.576  12.148  -4.775  1.00  0.00     0.014 A 
ATOM     36  C   UNL     1       8.254   9.550  -4.099  1.00  0.00     0.010 A 
ATOM     37  C   UNL     1       8.917  11.776  -4.751  1.00  0.00     0.010 A 
ATOM     38  C   UNL     1       9.257  10.488  -4.353  1.00  0.00    -0.014 A 
BRANCH  38  39
ATOM     39  C   UNL     1      10.636  10.020  -4.262  1.00  0.00     0.031 A 
ATOM     40  C   UNL     1      10.958   8.857  -5.139  1.00  0.00     0.074 A 
ATOM     41  C   UNL     1      11.582  10.596  -3.493  1.00  0.00     0.049 A 
ATOM     42  N   UNL     1      11.273   7.651  -4.791  1.00  0.00    -0.248 NA
ATOM     43  C   UNL     1      10.770   9.031  -6.587  1.00  0.00     0.031 C 
ATOM     44  C   UNL     1      11.525  11.871  -2.775  1.00  0.00     0.029 A 
ATOM     45  N   UNL     1      12.854  10.168  -3.257  1.00  0.00    -0.354 N 
ATOM     46  C   UNL     1      11.511   6.957  -5.976  1.00  0.00     0.074 A 
ATOM     47  C   UNL     1      11.051   7.809  -7.042  1.00  0.00     0.031 C 
ATOM     48  C   UNL     1      12.770  12.211  -2.370  1.00  0.00     0.029 A 
ATOM     49  C   UNL     1      13.679  11.116  -2.668  1.00  0.00     0.049 A 
ATOM     50  H   UNL     1      13.162   9.261  -3.485  1.00  0.00     0.167 HD
ATOM     51  C   UNL     1      12.244   5.809  -6.007  1.00  0.00     0.037 A 
ATOM     52  C   UNL     1      15.020  11.023  -2.486  1.00  0.00     0.037 A 
ATOM     53  C   UNL     1      12.335   5.203  -4.706  1.00  0.00     0.049 A 
ATOM     54  C   UNL     1      15.372   9.580  -2.533  1.00  0.00     0.074 A 
ATOM     55  C   UNL     1      11.422   4.674  -3.814  1.00  0.00     0.029 A 
ATOM     56  N   UNL     1      13.495   5.376  -3.991  1.00  0.00    -0.354 N 
ATOM     57  N   UNL     1      15.013   8.711  -1.628  1.00  0.00    -0.248 NA
ATOM     58  C   UNL     1      15.763   9.018  -3.816  1.00  0.00     0.031 C 
ATOM     59  C   UNL     1      11.925   5.014  -2.525  1.00  0.00     0.029 A 
ATOM     60  C   UNL     1      13.132   5.690  -2.707  1.00  0.00     0.049 A 
ATOM     61  H   UNL     1      14.413   5.291  -4.337  1.00  0.00     0.167 HD
ATOM     62  C   UNL     1      14.739   7.550  -2.336  1.00  0.00     0.074 A 
ATOM     63  C   UNL     1      15.305   7.773  -3.664  1.00  0.00     0.031 C 
ATOM     64  C   UNL     1      13.849   6.626  -1.869  1.00  0.00     0.037 A 
BRANCH  51  65
ATOM     65  C   UNL     1      13.156   5.415  -7.146  1.00  0.00     0.058 A 
ATOM     66  C   UNL     1      13.763   4.141  -7.146  1.00  0.00     0.135 A 
ATOM     67  C   UNL     1      13.686   6.340  -8.073  1.00  0.00     0.135 A 
ATOM     68  F   UNL     1      13.341   3.182  -6.306  1.00  0.00    -0.206 F 
ATOM     69  C   UNL     1      14.867   3.839  -7.944  1.00  0.00     0.059 A 
ATOM     70  C   UNL     1      14.752   6.042  -8.915  1.00  0.00     0.059 A 
ATOM     71  F   UNL     1      13.265   7.609  -8.139  1.00  0.00    -0.206 F 
ATOM     72  C   UNL     1      15.367   4.807  -8.810  1.00  0.00     0.060 A 
BRANCH  72  73
ATOM     73  S   UNL     1      16.875   4.473  -9.738  1.00  0.00     0.124 S 
ATOM     74  O   UNL     1      17.866   4.415  -8.669  1.00  0.00    -0.237 OA
ATOM     75  O   UNL     1      16.556   3.204 -10.385  1.00  0.00    -0.237 OA
ATOM     76  O   UNL     1      16.978   5.619 -10.635  1.00  0.00    -0.744 OA
ENDBRANCH  72  73
ENDBRANCH  51  65
BRANCH  52  77
ATOM     77  C   UNL     1      16.040  12.099  -2.593  1.00  0.00     0.058 A 
ATOM     78  C   UNL     1      17.353  11.916  -2.123  1.00  0.00     0.135 A 
ATOM     79  C   UNL     1      15.826  13.226  -3.413  1.00  0.00     0.135 A 
ATOM     80  F   UNL     1      17.654  10.855  -1.359  1.00  0.00    -0.206 F 
ATOM     81  C   UNL     1      18.399  12.775  -2.478  1.00  0.00     0.059 A 
ATOM     82  C   UNL     1      16.850  14.101  -3.772  1.00  0.00     0.059 A 
ATOM     83  F   UNL     1      14.627  13.459  -3.967  1.00  0.00    -0.206 F 
ATOM     84  C   UNL     1      18.141  13.856  -3.321  1.00  0.00     0.060 A 
BRANCH  84  85
ATOM     85  S   UNL     1      19.516  14.873  -3.910  1.00  0.00     0.124 S 
ATOM     86  O   UNL     1      19.969  15.511  -2.679  1.00  0.00    -0.237 OA
ATOM     87  O   UNL     1      20.415  13.874  -4.479  1.00  0.00    -0.237 OA
ATOM     88  O   UNL     1      18.887  15.766  -4.880  1.00  0.00    -0.744 OA
ENDBRANCH  84  85
ENDBRANCH  52  77
BRANCH  64  89
ATOM     89  C   UNL     1      13.381   6.739  -0.441  1.00  0.00     0.058 A 
ATOM     90  C   UNL     1      12.593   7.796   0.048  1.00  0.00     0.135 A 
ATOM     91  C   UNL     1      13.580   5.641   0.410  1.00  0.00     0.135 A 
ATOM     92  F   UNL     1      12.276   8.838  -0.734  1.00  0.00    -0.206 F 
ATOM     93  C   UNL     1      12.045   7.770   1.333  1.00  0.00     0.059 A 
ATOM     94  C   UNL     1      13.019   5.581   1.683  1.00  0.00     0.059 A 
ATOM     95  F   UNL     1      14.275   4.575  -0.021  1.00  0.00    -0.206 F 
ATOM     96  C   UNL     1      12.254   6.652   2.139  1.00  0.00     0.060 A 
BRANCH  96  97
ATOM     97  S   UNL     1      11.443   6.569   3.752  1.00  0.00     0.124 S 
ATOM     98  O   UNL     1      12.169   7.575   4.516  1.00  0.00    -0.237 OA
ATOM     99  O   UNL     1      10.058   6.894   3.426  1.00  0.00    -0.237 OA
ATOM    100  O   UNL     1      11.663   5.185   4.174  1.00  0.00    -0.744 OA
ENDBRANCH  96  97
ENDBRANCH  64  89
ENDBRANCH  38  39
ENDBRANCH  30  33
ENDBRANCH  28  29
ENDBRANCH  27  28
ENDBRANCH   1  27
TORSDOF 18
