REMARK SMILES O=C(NCCCCCCNC(=O)[C@H]1CC2(CCN(C(=O)C3CC3)CC2)CN1C(=O)CCn1cccn1)c1ccc(-c2c3nc(c(-c4c(F)cc(S(=O)(=O)[O-])cc4F)c4ccc([nH]4)c(-c4c(F)cc(S(=O)(=O)[O-])cc4F)c4nc(c(-c5c(F)cc(S(=O)(=O)[O-])cc5F)c5ccc2[nH]5)C=C4)C=C3)cc1
REMARK SMILES IDX 7 1 6 2 5 3 4 4 3 5 1 6 2 7 37 9 38 10 102 11 39 12 101 13
REMARK SMILES IDX 40 14 41 15 42 16 95 17 43 18 100 19 94 20 96 21 44 22 99 23
REMARK SMILES IDX 93 24 92 25 45 27 79 28 58 29 78 30 59 31 62 32 77 33 97 34
REMARK SMILES IDX 60 35 61 36 76 38 98 39 63 40 46 41 47 42 56 43 48 44 49 45
REMARK SMILES IDX 55 46 57 47 50 48 51 49 52 50 53 51 54 52 80 53 81 54 90 55
REMARK SMILES IDX 82 56 83 57 89 58 91 59 84 60 85 61 86 62 87 63 88 64 64 65
REMARK SMILES IDX 65 66 74 67 66 68 67 69 73 70 75 71 68 72 69 73 70 74 71 75
REMARK SMILES IDX 72 76 8 77 9 78 10 79 11 80 12 82 13 83 14 84 27 85 15 86
REMARK SMILES IDX 26 87 16 88 25 89 17 90 24 91 18 92 19 93 20 94 28 95 29 96
REMARK SMILES IDX 30 97 31 98 32 99 33 100 36 101 34 102 35 103 21 104 22 105
REMARK SMILES IDX 23 106
REMARK H PARENT 3 8 96 26 62 37 10 81
REMARK Flexibility Score: inf
ROOT
ATOM      1  C   UNL     1       7.683  10.309   3.702  1.00  0.00     0.002 C 
ENDROOT
BRANCH   1   2
ATOM      2  C   UNL     1       6.312  10.590   3.078  1.00  0.00     0.002 C 
BRANCH   2   3
ATOM      3  C   UNL     1       5.256  11.128   4.049  1.00  0.00     0.021 C 
BRANCH   3   4
ATOM      4  C   UNL     1       5.730  12.309   4.894  1.00  0.00     0.116 C 
BRANCH   4   5
ATOM      5  N   UNL     1       5.892  13.535   4.150  1.00  0.00    -0.352 N 
ATOM      6  O   UNL     1       5.499  15.477   3.164  1.00  0.00    -0.269 OA
ATOM      7  C   UNL     1       5.013  14.482   3.707  1.00  0.00     0.251 C 
ATOM      8  H   UNL     1       6.828  13.728   3.913  1.00  0.00     0.163 HD
BRANCH   7   9
ATOM      9  C   UNL     1       3.535  14.342   3.778  1.00  0.00     0.039 A 
ATOM     10  C   UNL     1       2.837  13.537   4.681  1.00  0.00     0.014 A 
ATOM     11  C   UNL     1       2.807  15.107   2.852  1.00  0.00     0.014 A 
ATOM     12  C   UNL     1       1.455  13.422   4.601  1.00  0.00     0.010 A 
ATOM     13  C   UNL     1       1.422  15.025   2.791  1.00  0.00     0.010 A 
ATOM     14  C   UNL     1       0.750  14.158   3.648  1.00  0.00    -0.014 A 
BRANCH  14  15
ATOM     15  C   UNL     1      -0.709  14.151   3.726  1.00  0.00     0.031 A 
ATOM     16  C   UNL     1      -1.254  14.721   4.998  1.00  0.00     0.074 A 
ATOM     17  C   UNL     1      -1.505  13.834   2.686  1.00  0.00     0.049 A 
ATOM     18  N   UNL     1      -2.024  14.160   5.874  1.00  0.00    -0.248 NA
ATOM     19  C   UNL     1      -0.773  16.056   5.401  1.00  0.00     0.031 C 
ATOM     20  C   UNL     1      -1.108  13.553   1.304  1.00  0.00     0.029 A 
ATOM     21  N   UNL     1      -2.865  13.808   2.621  1.00  0.00    -0.354 N 
ATOM     22  C   UNL     1      -2.293  15.139   6.831  1.00  0.00     0.074 A 
ATOM     23  C   UNL     1      -1.381  16.222   6.575  1.00  0.00     0.031 C 
ATOM     24  C   UNL     1      -2.197  13.622   0.505  1.00  0.00     0.029 A 
ATOM     25  C   UNL     1      -3.378  13.821   1.329  1.00  0.00     0.049 A 
ATOM     26  H   UNL     1      -3.437  13.782   3.422  1.00  0.00     0.167 HD
ATOM     27  C   UNL     1      -3.392  15.087   7.635  1.00  0.00     0.037 A 
ATOM     28  C   UNL     1      -4.667  14.055   0.965  1.00  0.00     0.037 A 
ATOM     29  C   UNL     1      -3.934  13.758   7.708  1.00  0.00     0.049 A 
ATOM     30  C   UNL     1      -5.513  13.822   2.164  1.00  0.00     0.074 A 
ATOM     31  C   UNL     1      -3.445  12.536   8.126  1.00  0.00     0.029 A 
ATOM     32  N   UNL     1      -5.054  13.473   6.966  1.00  0.00    -0.354 N 
ATOM     33  N   UNL     1      -5.680  12.656   2.726  1.00  0.00    -0.248 NA
ATOM     34  C   UNL     1      -5.814  14.969   3.007  1.00  0.00     0.031 C 
ATOM     35  C   UNL     1      -3.983  11.591   7.205  1.00  0.00     0.029 A 
ATOM     36  C   UNL     1      -4.816  12.283   6.325  1.00  0.00     0.049 A 
ATOM     37  H   UNL     1      -5.871  14.019   6.905  1.00  0.00     0.167 HD
ATOM     38  C   UNL     1      -5.687  12.916   4.088  1.00  0.00     0.074 A 
ATOM     39  C   UNL     1      -5.848  14.365   4.197  1.00  0.00     0.031 C 
ATOM     40  C   UNL     1      -5.288  11.975   4.994  1.00  0.00     0.037 A 
BRANCH  27  41
ATOM     41  C   UNL     1      -4.159  16.309   8.082  1.00  0.00     0.058 A 
ATOM     42  C   UNL     1      -5.150  16.195   9.079  1.00  0.00     0.135 A 
ATOM     43  C   UNL     1      -4.145  17.533   7.376  1.00  0.00     0.135 A 
ATOM     44  F   UNL     1      -5.274  15.066   9.794  1.00  0.00    -0.206 F 
ATOM     45  C   UNL     1      -6.085  17.205   9.321  1.00  0.00     0.059 A 
ATOM     46  C   UNL     1      -5.030  18.572   7.638  1.00  0.00     0.059 A 
ATOM     47  F   UNL     1      -3.332  17.743   6.333  1.00  0.00    -0.206 F 
ATOM     48  C   UNL     1      -6.022  18.386   8.587  1.00  0.00     0.060 A 
BRANCH  48  49
ATOM     49  S   UNL     1      -7.275  19.656   8.835  1.00  0.00     0.124 S 
ATOM     50  O   UNL     1      -8.457  19.012   8.274  1.00  0.00    -0.237 OA
ATOM     51  O   UNL     1      -7.261  19.815  10.285  1.00  0.00    -0.237 OA
ATOM     52  O   UNL     1      -6.755  20.793   8.081  1.00  0.00    -0.744 OA
ENDBRANCH  48  49
ENDBRANCH  27  41
BRANCH  28  53
ATOM     53  C   UNL     1      -5.162  14.810  -0.220  1.00  0.00     0.058 A 
ATOM     54  C   UNL     1      -6.518  14.776  -0.597  1.00  0.00     0.135 A 
ATOM     55  C   UNL     1      -4.377  15.807  -0.834  1.00  0.00     0.135 A 
ATOM     56  F   UNL     1      -7.349  13.879  -0.044  1.00  0.00    -0.206 F 
ATOM     57  C   UNL     1      -7.070  15.702  -1.492  1.00  0.00     0.059 A 
ATOM     58  C   UNL     1      -4.901  16.732  -1.736  1.00  0.00     0.059 A 
ATOM     59  F   UNL     1      -3.088  15.975  -0.503  1.00  0.00    -0.206 F 
ATOM     60  C   UNL     1      -6.255  16.691  -2.042  1.00  0.00     0.060 A 
BRANCH  60  61
ATOM     61  S   UNL     1      -6.992  17.994  -3.058  1.00  0.00     0.124 S 
ATOM     62  O   UNL     1      -7.357  17.265  -4.267  1.00  0.00    -0.237 OA
ATOM     63  O   UNL     1      -8.101  18.446  -2.226  1.00  0.00    -0.237 OA
ATOM     64  O   UNL     1      -5.904  18.957  -3.216  1.00  0.00    -0.744 OA
ENDBRANCH  60  61
ENDBRANCH  28  53
BRANCH  40  65
ATOM     65  C   UNL     1      -5.105  10.555   4.520  1.00  0.00     0.058 A 
ATOM     66  C   UNL     1      -4.157  10.149   3.563  1.00  0.00     0.135 A 
ATOM     67  C   UNL     1      -5.816   9.542   5.181  1.00  0.00     0.135 A 
ATOM     68  F   UNL     1      -3.358  11.040   2.960  1.00  0.00    -0.206 F 
ATOM     69  C   UNL     1      -3.956   8.802   3.250  1.00  0.00     0.059 A 
ATOM     70  C   UNL     1      -5.609   8.193   4.910  1.00  0.00     0.059 A 
ATOM     71  F   UNL     1      -6.692   9.859   6.150  1.00  0.00    -0.206 F 
ATOM     72  C   UNL     1      -4.686   7.830   3.933  1.00  0.00     0.060 A 
BRANCH  72  73
ATOM     73  S   UNL     1      -4.366   6.086   3.589  1.00  0.00     0.124 S 
ATOM     74  O   UNL     1      -4.937   5.926   2.256  1.00  0.00    -0.237 OA
ATOM     75  O   UNL     1      -2.910   6.008   3.669  1.00  0.00    -0.237 OA
ATOM     76  O   UNL     1      -5.077   5.391   4.660  1.00  0.00    -0.744 OA
ENDBRANCH  72  73
ENDBRANCH  40  65
ENDBRANCH  14  15
ENDBRANCH   7   9
ENDBRANCH   4   5
ENDBRANCH   3   4
ENDBRANCH   2   3
ENDBRANCH   1   2
BRANCH   1  77
ATOM     77  C   UNL     1       7.657   9.503   5.007  1.00  0.00     0.021 C 
BRANCH  77  78
ATOM     78  C   UNL     1       7.021   8.120   4.917  1.00  0.00     0.116 C 
BRANCH  78  79
ATOM     79  N   UNL     1       7.471   7.343   3.786  1.00  0.00    -0.354 N 
ATOM     80  C   UNL     1       7.935   6.064   3.780  1.00  0.00     0.242 C 
ATOM     81  H   UNL     1       7.439   7.794   2.912  1.00  0.00     0.163 HD
ATOM     82  O   UNL     1       7.714   5.386   2.773  1.00  0.00    -0.273 OA
BRANCH  80  83
ATOM     83  C   UNL     1       8.482   5.423   5.065  1.00  0.00     0.175 C 
ATOM     84  C   UNL     1       8.963   3.993   4.845  1.00  0.00     0.044 C 
ATOM     85  N   UNL     1       9.475   5.892   6.045  1.00  0.00    -0.330 N 
ATOM     86  C   UNL     1       9.306   3.506   6.275  1.00  0.00    -0.006 C 
ATOM     87  C   UNL     1       9.541   4.832   7.062  1.00  0.00     0.127 C 
ATOM     88  C   UNL     1      10.570   2.631   6.284  1.00  0.00     0.030 C 
ATOM     89  C   UNL     1       8.140   2.676   6.849  1.00  0.00     0.030 C 
ATOM     90  C   UNL     1      10.356   1.317   5.537  1.00  0.00     0.120 C 
ATOM     91  C   UNL     1       7.965   1.339   6.112  1.00  0.00     0.120 C 
ATOM     92  N   UNL     1       9.218   0.578   6.071  1.00  0.00    -0.342 N 
ATOM     93  C   UNL     1       9.136  -0.787   6.375  1.00  0.00     0.225 C 
ATOM     94  O   UNL     1       8.055  -1.319   6.577  1.00  0.00    -0.275 OA
BRANCH  85  95
ATOM     95  C   UNL     1      10.668   6.553   5.759  1.00  0.00     0.225 C 
ATOM     96  O   UNL     1      11.712   6.319   6.377  1.00  0.00    -0.275 OA
BRANCH  95  97
ATOM     97  C   UNL     1      10.681   7.680   4.754  1.00  0.00     0.124 C 
BRANCH  97  98
ATOM     98  C   UNL     1      11.710   7.485   3.655  1.00  0.00     0.154 C 
BRANCH  98  99
ATOM     99  N   UNL     1      11.282   6.498   2.684  1.00  0.00    -0.272 N 
ATOM    100  C   UNL     1      11.614   5.176   2.657  1.00  0.00     0.108 A 
ATOM    101  N   UNL     1      10.414   6.851   1.721  1.00  0.00    -0.182 NA
ATOM    102  C   UNL     1      10.851   4.617   1.659  1.00  0.00     0.042 A 
ATOM    103  C   UNL     1      10.125   5.694   1.118  1.00  0.00     0.135 A 
ENDBRANCH  98  99
ENDBRANCH  97  98
ENDBRANCH  95  97
ENDBRANCH  85  95
BRANCH  93 104
ATOM    104  C   UNL     1      10.322  -1.681   6.562  1.00  0.00     0.079 C 
ATOM    105  C   UNL     1      11.669  -1.685   5.907  1.00  0.00     0.014 C 
ATOM    106  C   UNL     1      11.533  -1.228   7.337  1.00  0.00     0.014 C 
ENDBRANCH  93 104
ENDBRANCH  80  83
ENDBRANCH  78  79
ENDBRANCH  77  78
ENDBRANCH   1  77
TORSDOF 21
