REMARK SMILES CC[C@@H](Sc1nnc2ccc3ccccc3n12)C(=O)Nc1cccc(C(=O)NCCCCCCNC(=O)c2ccc(-c3c4nc(c(-c5c(F)cc(S(=O)(=O)[O-])cc5F)c5ccc([nH]5)c(-c5c(F)cc(S(=O)(=O)[O-])cc5F)c5nc(c(-c6c(F)cc(S(=O)(=O)[O-])cc6F)c6ccc3[nH]6)C=C5)C=C4)cc2)c1
REMARK SMILES IDX 31 1 30 2 29 3 28 4 26 5 27 6 25 8 21 9 22 10 104 11 23 12
REMARK SMILES IDX 24 13 20 14 18 15 19 16 3 18 2 19 1 20 4 21 5 22 6 23 17 24
REMARK SMILES IDX 7 25 8 26 16 27 9 28 11 29 15 30 10 31 12 32 14 33 13 34
REMARK SMILES IDX 32 35 33 36 34 37 35 38 36 39 37 41 38 42 39 43 103 44 40 45
REMARK SMILES IDX 102 46 41 47 42 48 43 49 96 50 44 51 101 52 95 53 97 54
REMARK SMILES IDX 45 55 100 56 94 57 93 58 46 60 80 61 59 62 79 63 60 64 63 65
REMARK SMILES IDX 78 66 98 67 61 68 62 69 77 71 99 72 64 73 47 74 48 75 57 76
REMARK SMILES IDX 49 77 50 78 56 79 58 80 51 81 52 82 53 83 54 84 55 85 81 86
REMARK SMILES IDX 82 87 91 88 83 89 84 90 90 91 92 92 85 93 86 94 87 95 88 96
REMARK SMILES IDX 89 97 65 98 66 99 75 100 67 101 68 102 74 103 76 104 69 105
REMARK SMILES IDX 70 106 71 107 72 108 73 109
REMARK H PARENT 28 7 20 17 35 40 97 59 63 70
REMARK Flexibility Score: inf
ROOT
ATOM      1  C   UNL     1      -4.224   0.632   8.306  1.00  0.00     0.002 C 
ENDROOT
BRANCH   1   2
ATOM      2  C   UNL     1      -3.191   0.335   7.226  1.00  0.00     0.021 C 
BRANCH   2   3
ATOM      3  C   UNL     1      -3.718  -0.298   5.951  1.00  0.00     0.116 C 
BRANCH   3   4
ATOM      4  N   UNL     1      -4.641   0.532   5.204  1.00  0.00    -0.352 N 
ATOM      5  C   UNL     1      -4.857   0.668   3.854  1.00  0.00     0.251 C 
ATOM      6  O   UNL     1      -5.708   1.479   3.485  1.00  0.00    -0.269 OA
ATOM      7  H   UNL     1      -5.218   1.100   5.765  1.00  0.00     0.163 HD
BRANCH   5   8
ATOM      8  C   UNL     1      -4.074  -0.071   2.822  1.00  0.00     0.041 A 
ATOM      9  C   UNL     1      -2.383  -1.665   2.171  1.00  0.00     0.041 A 
ATOM     10  C   UNL     1      -2.500  -1.251   0.859  1.00  0.00     0.026 A 
ATOM     11  C   UNL     1      -3.330  -1.223   3.085  1.00  0.00     0.040 A 
ATOM     12  C   UNL     1      -3.328  -0.183   0.524  1.00  0.00     0.003 A 
ATOM     13  C   UNL     1      -4.055   0.454   1.523  1.00  0.00     0.014 A 
BRANCH   9  14
ATOM     14  N   UNL     1      -1.358  -2.487   2.660  1.00  0.00    -0.325 N 
ATOM     15  C   UNL     1       0.004  -2.331   2.606  1.00  0.00     0.237 C 
ATOM     16  O   UNL     1       0.654  -3.070   3.364  1.00  0.00    -0.273 OA
ATOM     17  H   UNL     1      -1.664  -3.305   3.114  1.00  0.00     0.169 HD
BRANCH  15  18
ATOM     18  C   UNL     1       0.777  -1.280   1.756  1.00  0.00     0.144 C 
BRANCH  18  19
ATOM     19  C   UNL     1       0.554  -1.477   0.252  1.00  0.00     0.021 C 
ATOM     20  C   UNL     1       0.043  -0.317  -0.587  1.00  0.00     0.005 C 
ENDBRANCH  18  19
BRANCH  18  21
ATOM     21  S   UNL     1       0.781   0.291   2.664  1.00  0.00    -0.072 SA
BRANCH  21  22
ATOM     22  C   UNL     1       1.375   1.690   1.829  1.00  0.00     0.196 A 
ATOM     23  N   UNL     1       0.928   2.870   2.229  1.00  0.00    -0.122 NA
ATOM     24  N   UNL     1       2.195   1.889   0.726  1.00  0.00    -0.270 N 
ATOM     25  N   UNL     1       1.272   3.818   1.308  1.00  0.00    -0.129 NA
ATOM     26  C   UNL     1       1.946   3.213   0.360  1.00  0.00     0.161 A 
ATOM     27  C   UNL     1       3.042   1.060  -0.051  1.00  0.00     0.057 A 
ATOM     28  C   UNL     1       2.395   3.704  -0.889  1.00  0.00     0.050 A 
ATOM     29  C   UNL     1       3.325   1.508  -1.361  1.00  0.00    -0.001 A 
ATOM     30  C   UNL     1       3.529  -0.165   0.385  1.00  0.00     0.027 A 
ATOM     31  C   UNL     1       3.017   2.888  -1.750  1.00  0.00     0.014 A 
ATOM     32  C   UNL     1       3.889   0.623  -2.282  1.00  0.00     0.010 A 
ATOM     33  C   UNL     1       4.097  -1.041  -0.544  1.00  0.00     0.002 A 
ATOM     34  C   UNL     1       4.229  -0.668  -1.882  1.00  0.00     0.001 A 
ENDBRANCH  21  22
ENDBRANCH  18  21
ENDBRANCH  15  18
ENDBRANCH   9  14
ENDBRANCH   5   8
ENDBRANCH   3   4
ENDBRANCH   2   3
ENDBRANCH   1   2
BRANCH   1  35
ATOM     35  C   UNL     1      -5.058  -0.556   8.792  1.00  0.00     0.002 C 
BRANCH  35  36
ATOM     36  C   UNL     1      -4.283  -1.802   9.239  1.00  0.00     0.021 C 
BRANCH  36  37
ATOM     37  C   UNL     1      -3.107  -1.546  10.181  1.00  0.00     0.116 C 
BRANCH  37  38
ATOM     38  N   UNL     1      -3.444  -0.790  11.366  1.00  0.00    -0.352 N 
ATOM     39  C   UNL     1      -3.924  -1.101  12.604  1.00  0.00     0.251 C 
ATOM     40  H   UNL     1      -3.291   0.176  11.252  1.00  0.00     0.163 HD
ATOM     41  O   UNL     1      -3.962  -0.172  13.416  1.00  0.00    -0.269 OA
BRANCH  39  42
ATOM     42  C   UNL     1      -4.453  -2.431  13.006  1.00  0.00     0.039 A 
ATOM     43  C   UNL     1      -4.343  -3.611  12.270  1.00  0.00     0.014 A 
ATOM     44  C   UNL     1      -5.160  -2.458  14.223  1.00  0.00     0.014 A 
ATOM     45  C   UNL     1      -5.014  -4.758  12.679  1.00  0.00     0.010 A 
ATOM     46  C   UNL     1      -5.808  -3.607  14.651  1.00  0.00     0.010 A 
ATOM     47  C   UNL     1      -5.777  -4.743  13.849  1.00  0.00    -0.014 A 
BRANCH  47  48
ATOM     48  C   UNL     1      -6.420  -5.988  14.265  1.00  0.00     0.031 A 
ATOM     49  C   UNL     1      -5.458  -7.099  14.529  1.00  0.00     0.074 A 
ATOM     50  C   UNL     1      -7.743  -6.078  14.517  1.00  0.00     0.049 A 
ATOM     51  N   UNL     1      -5.372  -8.246  13.937  1.00  0.00    -0.248 NA
ATOM     52  C   UNL     1      -4.357  -6.840  15.475  1.00  0.00     0.031 C 
ATOM     53  C   UNL     1      -8.713  -4.978  14.555  1.00  0.00     0.029 A 
ATOM     54  N   UNL     1      -8.492  -7.152  14.903  1.00  0.00    -0.354 N 
ATOM     55  C   UNL     1      -4.353  -8.937  14.594  1.00  0.00     0.074 A 
ATOM     56  C   UNL     1      -3.658  -7.973  15.402  1.00  0.00     0.031 C 
ATOM     57  C   UNL     1      -9.839  -5.393  15.177  1.00  0.00     0.029 A 
ATOM     58  C   UNL     1      -9.729  -6.815  15.447  1.00  0.00     0.049 A 
ATOM     59  H   UNL     1      -8.185  -8.082  14.805  1.00  0.00     0.167 HD
ATOM     60  C   UNL     1      -4.326 -10.298  14.627  1.00  0.00     0.037 A 
ATOM     61  C   UNL     1     -10.571  -7.637  16.124  1.00  0.00     0.037 A 
ATOM     62  C   UNL     1      -5.188 -10.858  13.623  1.00  0.00     0.049 A 
ATOM     63  C   UNL     1     -10.223  -9.026  15.741  1.00  0.00     0.074 A 
ATOM     64  C   UNL     1      -5.170 -10.990  12.253  1.00  0.00     0.029 A 
ATOM     65  N   UNL     1      -6.476 -11.062  14.039  1.00  0.00    -0.354 N 
ATOM     66  N   UNL     1     -10.369  -9.506  14.536  1.00  0.00    -0.248 NA
ATOM     67  C   UNL     1      -9.377  -9.814  16.628  1.00  0.00     0.031 C 
ATOM     68  C   UNL     1      -6.537 -11.016  11.848  1.00  0.00     0.029 A 
ATOM     69  C   UNL     1      -7.342 -10.943  12.986  1.00  0.00     0.049 A 
ATOM     70  H   UNL     1      -6.743 -11.265  14.965  1.00  0.00     0.167 HD
ATOM     71  C   UNL     1      -9.322 -10.396  14.389  1.00  0.00     0.074 A 
ATOM     72  C   UNL     1      -8.859 -10.670  15.743  1.00  0.00     0.031 C 
ATOM     73  C   UNL     1      -8.733 -10.585  13.173  1.00  0.00     0.037 A 
BRANCH  60  74
ATOM     74  C   UNL     1      -3.909 -11.108  15.839  1.00  0.00     0.058 A 
ATOM     75  C   UNL     1      -3.777 -12.510  15.733  1.00  0.00     0.135 A 
ATOM     76  C   UNL     1      -3.935 -10.602  17.159  1.00  0.00     0.135 A 
ATOM     77  F   UNL     1      -3.769 -13.106  14.530  1.00  0.00    -0.206 F 
ATOM     78  C   UNL     1      -3.721 -13.345  16.853  1.00  0.00     0.059 A 
ATOM     79  C   UNL     1      -3.830 -11.411  18.286  1.00  0.00     0.059 A 
ATOM     80  F   UNL     1      -4.166  -9.311  17.422  1.00  0.00    -0.206 F 
ATOM     81  C   UNL     1      -3.756 -12.784  18.127  1.00  0.00     0.060 A 
BRANCH  81  82
ATOM     82  S   UNL     1      -3.755 -13.855  19.577  1.00  0.00     0.124 S 
ATOM     83  O   UNL     1      -5.051 -14.519  19.452  1.00  0.00    -0.237 OA
ATOM     84  O   UNL     1      -2.584 -14.695  19.327  1.00  0.00    -0.237 OA
ATOM     85  O   UNL     1      -3.626 -12.925  20.685  1.00  0.00    -0.744 OA
ENDBRANCH  81  82
ENDBRANCH  60  74
BRANCH  61  86
ATOM     86  C   UNL     1     -11.407  -7.335  17.322  1.00  0.00     0.058 A 
ATOM     87  C   UNL     1     -12.353  -8.265  17.796  1.00  0.00     0.135 A 
ATOM     88  C   UNL     1     -11.080  -6.285  18.202  1.00  0.00     0.135 A 
ATOM     89  F   UNL     1     -12.725  -9.301  17.027  1.00  0.00    -0.206 F 
ATOM     90  C   UNL     1     -12.874  -8.208  19.094  1.00  0.00     0.059 A 
ATOM     91  C   UNL     1     -11.595  -6.201  19.496  1.00  0.00     0.059 A 
ATOM     92  F   UNL     1     -10.169  -5.359  17.869  1.00  0.00    -0.206 F 
ATOM     93  C   UNL     1     -12.463  -7.187  19.949  1.00  0.00     0.060 A 
BRANCH  93  94
ATOM     94  S   UNL     1     -12.962  -7.230  21.687  1.00  0.00     0.124 S 
ATOM     95  O   UNL     1     -14.398  -6.986  21.596  1.00  0.00    -0.237 OA
ATOM     96  O   UNL     1     -12.569  -8.577  22.085  1.00  0.00    -0.237 OA
ATOM     97  O   UNL     1     -12.184  -6.152  22.291  1.00  0.00    -0.744 OA
ENDBRANCH  93  94
ENDBRANCH  61  86
BRANCH  73  98
ATOM     98  C   UNL     1      -9.532 -10.245  11.947  1.00  0.00     0.058 A 
ATOM     99  C   UNL     1      -9.906  -8.948  11.559  1.00  0.00     0.135 A 
ATOM    100  C   UNL     1      -9.832 -11.295  11.065  1.00  0.00     0.135 A 
ATOM    101  F   UNL     1      -9.585  -7.883  12.307  1.00  0.00    -0.206 F 
ATOM    102  C   UNL     1     -10.574  -8.711  10.355  1.00  0.00     0.059 A 
ATOM    103  C   UNL     1     -10.467 -11.078   9.848  1.00  0.00     0.059 A 
ATOM    104  F   UNL     1      -9.458 -12.550  11.362  1.00  0.00    -0.206 F 
ATOM    105  C   UNL     1     -10.843  -9.784   9.502  1.00  0.00     0.060 A 
BRANCH 105 106
ATOM    106  S   UNL     1     -11.627  -9.468   7.907  1.00  0.00     0.124 S 
ATOM    107  O   UNL     1     -12.971  -9.056   8.298  1.00  0.00    -0.237 OA
ATOM    108  O   UNL     1     -10.781  -8.420   7.342  1.00  0.00    -0.237 OA
ATOM    109  O   UNL     1     -11.545 -10.757   7.224  1.00  0.00    -0.744 OA
ENDBRANCH 105 106
ENDBRANCH  73  98
ENDBRANCH  47  48
ENDBRANCH  39  42
ENDBRANCH  37  38
ENDBRANCH  36  37
ENDBRANCH  35  36
ENDBRANCH   1  35
TORSDOF 21
