REMARK SMILES COc1ccc(-c2nc3cc(N4C[C@@H](C(=O)NCCCCCCNC(=O)c5ccc(-c6c7nc(c(-c8c(F)cc(S(=O)(=O)[O-])cc8F)c8ccc([nH]8)c(-c8c(F)cc(S(=O)(=O)[O-])cc8F)c8nc(c(-c9c(F)cc(S(=O)(=O)[O-])cc9F)c9ccc6[nH]9)C=C8)C=C7)cc5)CC4=O)ccc3o2)cc1
REMARK SMILES IDX 20 1 19 2 18 3 17 4 15 5 16 6 14 8 12 9 13 10 94 11 93 12
REMARK SMILES IDX 95 13 11 14 7 15 8 16 99 17 9 18 98 19 10 20 97 21 96 22
REMARK SMILES IDX 6 23 3 24 4 25 101 26 5 27 100 28 2 29 1 30 21 31 22 32
REMARK SMILES IDX 23 33 24 34 25 35 26 37 27 38 28 39 92 40 29 41 91 42 30 43
REMARK SMILES IDX 31 44 32 45 85 46 33 47 90 48 84 49 86 50 34 51 89 52 83 53
REMARK SMILES IDX 82 54 35 56 69 57 48 58 68 59 49 60 52 61 67 62 87 63 50 64
REMARK SMILES IDX 51 65 66 67 88 68 53 69 36 70 37 71 46 72 38 73 39 74 45 75
REMARK SMILES IDX 47 76 40 77 41 78 42 79 43 80 44 81 70 82 71 83 80 84 72 85
REMARK SMILES IDX 73 86 79 87 81 88 74 89 75 90 76 91 77 92 78 93 54 94 55 95
REMARK SMILES IDX 64 96 56 97 57 98 63 99 65 100 58 101 59 102 60 103 61 104
REMARK SMILES IDX 62 105
REMARK H PARENT 17 7 24 36 86 55 52 66
REMARK Flexibility Score: inf
ROOT
ATOM      1  C   UNL     1       9.438  14.545  -5.864  1.00  0.00     0.002 C 
ENDROOT
BRANCH   1   2
ATOM      2  C   UNL     1       8.785  13.866  -4.654  1.00  0.00     0.021 C 
BRANCH   2   3
ATOM      3  C   UNL     1       8.126  12.528  -4.980  1.00  0.00     0.116 C 
BRANCH   3   4
ATOM      4  N   UNL     1       9.128  11.535  -5.324  1.00  0.00    -0.356 N 
ATOM      5  C   UNL     1       9.523  10.404  -4.690  1.00  0.00     0.225 C 
ATOM      6  O   UNL     1      10.456   9.765  -5.183  1.00  0.00    -0.275 OA
ATOM      7  H   UNL     1       9.605  11.715  -6.166  1.00  0.00     0.163 HD
BRANCH   5   8
ATOM      8  C   UNL     1       8.811   9.873  -3.468  1.00  0.00     0.107 C 
ATOM      9  N   UNL     1       6.588   9.807  -2.695  1.00  0.00    -0.312 N 
ATOM     10  C   UNL     1       7.406   9.440  -3.824  1.00  0.00     0.139 C 
ATOM     11  C   UNL     1       7.242  10.685  -1.829  1.00  0.00     0.227 C 
ATOM     12  C   UNL     1       8.685  10.804  -2.274  1.00  0.00     0.116 C 
ATOM     13  O   UNL     1       6.807  11.232  -0.834  1.00  0.00    -0.274 OA
BRANCH   9  14
ATOM     14  C   UNL     1       5.290   9.276  -2.503  1.00  0.00     0.046 A 
ATOM     15  C   UNL     1       2.321   5.991  -2.133  1.00  0.00     0.227 A 
ATOM     16  N   UNL     1       3.471   6.064  -2.771  1.00  0.00    -0.209 NA
ATOM     17  O   UNL     1       1.855   7.180  -1.626  1.00  0.00    -0.436 OA
ATOM     18  C   UNL     1       3.841   7.358  -2.600  1.00  0.00     0.112 A 
ATOM     19  C   UNL     1       2.876   8.058  -1.902  1.00  0.00     0.155 A 
ATOM     20  C   UNL     1       5.039   7.974  -2.953  1.00  0.00     0.058 A 
ATOM     21  C   UNL     1       3.021   9.387  -1.524  1.00  0.00     0.051 A 
ATOM     22  C   UNL     1       4.278   9.969  -1.810  1.00  0.00     0.030 A 
BRANCH  15  23
ATOM     23  C   UNL     1       1.664   4.757  -1.744  1.00  0.00     0.037 A 
ATOM     24  C   UNL     1       0.613   2.212  -1.184  1.00  0.00     0.118 A 
ATOM     25  C   UNL     1      -0.210   3.238  -1.667  1.00  0.00     0.047 A 
ATOM     26  C   UNL     1       1.965   2.464  -0.971  1.00  0.00     0.047 A 
ATOM     27  C   UNL     1       0.305   4.514  -1.932  1.00  0.00     0.017 A 
ATOM     28  C   UNL     1       2.482   3.726  -1.253  1.00  0.00     0.017 A 
BRANCH  24  29
ATOM     29  O   UNL     1       0.003   1.002  -0.999  1.00  0.00    -0.497 OA
ATOM     30  C   UNL     1       0.686   0.085  -0.151  1.00  0.00     0.278 C 
ENDBRANCH  24  29
ENDBRANCH  15  23
ENDBRANCH   9  14
ENDBRANCH   5   8
ENDBRANCH   3   4
ENDBRANCH   2   3
ENDBRANCH   1   2
BRANCH   1  31
ATOM     31  C   UNL     1       8.497  14.801  -7.046  1.00  0.00     0.002 C 
BRANCH  31  32
ATOM     32  C   UNL     1       7.220  15.572  -6.702  1.00  0.00     0.021 C 
BRANCH  32  33
ATOM     33  C   UNL     1       7.451  16.931  -6.048  1.00  0.00     0.116 C 
BRANCH  33  34
ATOM     34  N   UNL     1       8.191  17.833  -6.913  1.00  0.00    -0.352 N 
ATOM     35  C   UNL     1       7.886  19.115  -7.299  1.00  0.00     0.251 C 
ATOM     36  H   UNL     1       9.033  17.474  -7.276  1.00  0.00     0.163 HD
ATOM     37  O   UNL     1       8.536  19.653  -8.191  1.00  0.00    -0.269 OA
BRANCH  35  38
ATOM     38  C   UNL     1       6.767  19.836  -6.655  1.00  0.00     0.039 A 
ATOM     39  C   UNL     1       5.888  20.567  -7.459  1.00  0.00     0.014 A 
ATOM     40  C   UNL     1       6.588  19.805  -5.269  1.00  0.00     0.014 A 
ATOM     41  C   UNL     1       4.801  21.221  -6.877  1.00  0.00     0.010 A 
ATOM     42  C   UNL     1       5.463  20.398  -4.700  1.00  0.00     0.010 A 
ATOM     43  C   UNL     1       4.561  21.117  -5.497  1.00  0.00    -0.014 A 
BRANCH  43  44
ATOM     44  C   UNL     1       3.361  21.741  -4.883  1.00  0.00     0.031 A 
ATOM     45  C   UNL     1       3.506  22.843  -3.869  1.00  0.00     0.074 A 
ATOM     46  C   UNL     1       2.138  21.269  -5.196  1.00  0.00     0.049 A 
ATOM     47  N   UNL     1       2.575  23.487  -3.212  1.00  0.00    -0.248 NA
ATOM     48  C   UNL     1       4.875  23.256  -3.526  1.00  0.00     0.031 C 
ATOM     49  C   UNL     1       1.872  20.157  -6.111  1.00  0.00     0.029 A 
ATOM     50  N   UNL     1       0.891  21.654  -4.771  1.00  0.00    -0.354 N 
ATOM     51  C   UNL     1       3.243  24.366  -2.368  1.00  0.00     0.074 A 
ATOM     52  C   UNL     1       4.659  24.138  -2.561  1.00  0.00     0.031 C 
ATOM     53  C   UNL     1       0.546  19.962  -6.192  1.00  0.00     0.029 A 
ATOM     54  C   UNL     1      -0.130  20.910  -5.312  1.00  0.00     0.049 A 
ATOM     55  H   UNL     1       0.743  22.393  -4.138  1.00  0.00     0.167 HD
ATOM     56  C   UNL     1       2.725  25.291  -1.524  1.00  0.00     0.037 A 
ATOM     57  C   UNL     1      -1.462  20.977  -5.119  1.00  0.00     0.037 A 
ATOM     58  C   UNL     1       1.314  25.527  -1.356  1.00  0.00     0.049 A 
ATOM     59  C   UNL     1      -2.018  22.032  -4.204  1.00  0.00     0.074 A 
ATOM     60  C   UNL     1       0.689  26.499  -0.595  1.00  0.00     0.029 A 
ATOM     61  N   UNL     1       0.307  24.776  -1.948  1.00  0.00    -0.354 N 
ATOM     62  N   UNL     1      -1.373  22.921  -3.486  1.00  0.00    -0.248 NA
ATOM     63  C   UNL     1      -3.479  22.102  -4.080  1.00  0.00     0.031 C 
ATOM     64  C   UNL     1      -0.694  26.303  -0.685  1.00  0.00     0.029 A 
ATOM     65  C   UNL     1      -0.934  25.243  -1.545  1.00  0.00     0.049 A 
ATOM     66  H   UNL     1       0.454  24.021  -2.563  1.00  0.00     0.167 HD
ATOM     67  C   UNL     1      -2.351  23.667  -2.836  1.00  0.00     0.074 A 
ATOM     68  C   UNL     1      -3.630  23.136  -3.263  1.00  0.00     0.031 C 
ATOM     69  C   UNL     1      -2.201  24.697  -1.966  1.00  0.00     0.037 A 
BRANCH  56  70
ATOM     70  C   UNL     1       3.691  26.111  -0.712  1.00  0.00     0.058 A 
ATOM     71  C   UNL     1       4.529  27.071  -1.303  1.00  0.00     0.135 A 
ATOM     72  C   UNL     1       3.768  25.948   0.681  1.00  0.00     0.135 A 
ATOM     73  F   UNL     1       4.507  27.262  -2.632  1.00  0.00    -0.206 F 
ATOM     74  C   UNL     1       5.438  27.808  -0.549  1.00  0.00     0.059 A 
ATOM     75  C   UNL     1       4.647  26.696   1.459  1.00  0.00     0.059 A 
ATOM     76  F   UNL     1       2.988  25.048   1.300  1.00  0.00    -0.206 F 
ATOM     77  C   UNL     1       5.493  27.610   0.831  1.00  0.00     0.060 A 
BRANCH  77  78
ATOM     78  S   UNL     1       6.688  28.561   1.793  1.00  0.00     0.124 S 
ATOM     79  O   UNL     1       7.941  27.907   1.428  1.00  0.00    -0.237 OA
ATOM     80  O   UNL     1       6.505  29.912   1.272  1.00  0.00    -0.237 OA
ATOM     81  O   UNL     1       6.253  28.360   3.171  1.00  0.00    -0.744 OA
ENDBRANCH  77  78
ENDBRANCH  56  70
BRANCH  57  82
ATOM     82  C   UNL     1      -2.352  20.024  -5.832  1.00  0.00     0.058 A 
ATOM     83  C   UNL     1      -3.157  20.444  -6.900  1.00  0.00     0.135 A 
ATOM     84  C   UNL     1      -2.373  18.662  -5.492  1.00  0.00     0.135 A 
ATOM     85  F   UNL     1      -3.176  21.737  -7.257  1.00  0.00    -0.206 F 
ATOM     86  C   UNL     1      -3.953  19.549  -7.608  1.00  0.00     0.059 A 
ATOM     87  C   UNL     1      -3.141  17.744  -6.200  1.00  0.00     0.059 A 
ATOM     88  F   UNL     1      -1.606  18.207  -4.489  1.00  0.00    -0.206 F 
ATOM     89  C   UNL     1      -3.931  18.198  -7.256  1.00  0.00     0.060 A 
BRANCH  89  90
ATOM     90  S   UNL     1      -4.899  17.031  -8.237  1.00  0.00     0.124 S 
ATOM     91  O   UNL     1      -6.257  17.338  -7.803  1.00  0.00    -0.237 OA
ATOM     92  O   UNL     1      -4.560  17.423  -9.601  1.00  0.00    -0.237 OA
ATOM     93  O   UNL     1      -4.381  15.732  -7.820  1.00  0.00    -0.744 OA
ENDBRANCH  89  90
ENDBRANCH  57  82
BRANCH  69  94
ATOM     94  C   UNL     1      -3.454  25.329  -1.425  1.00  0.00     0.058 A 
ATOM     95  C   UNL     1      -4.267  24.670  -0.488  1.00  0.00     0.135 A 
ATOM     96  C   UNL     1      -3.826  26.625  -1.817  1.00  0.00     0.135 A 
ATOM     97  F   UNL     1      -3.961  23.427  -0.084  1.00  0.00    -0.206 F 
ATOM     98  C   UNL     1      -5.419  25.263   0.019  1.00  0.00     0.059 A 
ATOM     99  C   UNL     1      -4.958  27.249  -1.301  1.00  0.00     0.059 A 
ATOM    100  F   UNL     1      -3.079  27.305  -2.702  1.00  0.00    -0.206 F 
ATOM    101  C   UNL     1      -5.756  26.553  -0.394  1.00  0.00     0.060 A 
BRANCH 101 102
ATOM    102  S   UNL     1      -7.242  27.320   0.287  1.00  0.00     0.124 S 
ATOM    103  O   UNL     1      -8.295  26.602  -0.425  1.00  0.00    -0.237 OA
ATOM    104  O   UNL     1      -7.123  27.023   1.711  1.00  0.00    -0.237 OA
ATOM    105  O   UNL     1      -7.091  28.728  -0.069  1.00  0.00    -0.744 OA
ENDBRANCH 101 102
ENDBRANCH  69  94
ENDBRANCH  43  44
ENDBRANCH  35  38
ENDBRANCH  33  34
ENDBRANCH  32  33
ENDBRANCH  31  32
ENDBRANCH   1  31
TORSDOF 19
