REMARK SMILES O=C(CS[C@H](C(=O)Nc1ccc(C(F)(F)F)cc1)c1ccccc1)NCCCCCCNC(=O)c1ccc(-c2c3nc(c(-c4c(F)cc(S(=O)(=O)[O-])cc4F)c4ccc([nH]4)c(-c4c(F)cc(S(=O)(=O)[O-])cc4F)c4nc(c(-c5c(F)cc(S(=O)(=O)[O-])cc5F)c5ccc2[nH]5)C=C4)C=C3)cc1
REMARK SMILES IDX 27 1 26 2 25 3 1 4 2 5 3 7 4 8 5 9 19 10 20 11 24 12 21 13
REMARK SMILES IDX 23 14 22 15 6 16 7 17 8 18 9 20 10 21 18 22 11 23 17 24
REMARK SMILES IDX 12 25 13 26 14 27 15 28 16 29 28 30 29 31 30 32 31 33 32 34
REMARK SMILES IDX 33 35 34 37 35 38 36 39 100 40 37 41 99 42 38 43 39 44 40 45
REMARK SMILES IDX 93 46 41 47 98 48 92 49 94 50 42 51 97 52 91 53 90 54 43 56
REMARK SMILES IDX 77 57 56 58 76 59 57 60 60 61 75 62 95 63 58 64 59 65 74 67
REMARK SMILES IDX 96 68 61 69 44 70 45 71 54 72 46 73 47 74 53 75 55 76 48 77
REMARK SMILES IDX 49 78 50 79 51 80 52 81 78 82 79 83 88 84 80 85 81 86 87 87
REMARK SMILES IDX 89 88 82 89 83 90 84 91 85 92 86 93 62 94 63 95 72 96 64 97
REMARK SMILES IDX 65 98 71 99 73 100 66 101 67 102 68 103 69 104 70 105
REMARK H PARENT 25 6 8 19 32 36 94 55 60 66
REMARK Flexibility Score: inf
ROOT
ATOM      1  C   UNL     1      -0.047   1.462   1.282  1.00  0.00     0.021 C 
ENDROOT
BRANCH   1   2
ATOM      2  C   UNL     1      -0.514   0.716   0.029  1.00  0.00     0.116 C 
BRANCH   2   3
ATOM      3  N   UNL     1       0.361  -0.351  -0.432  1.00  0.00    -0.355 N 
ATOM      4  O   UNL     1      -1.130  -1.081  -2.013  1.00  0.00    -0.274 OA
ATOM      5  C   UNL     1      -0.016  -1.156  -1.497  1.00  0.00     0.230 C 
ATOM      6  H   UNL     1       1.226  -0.503   0.013  1.00  0.00     0.163 HD
BRANCH   5   7
ATOM      7  C   UNL     1       1.053  -2.105  -2.008  1.00  0.00     0.170 C 
BRANCH   7   8
ATOM      8  S   UNL     1       1.669  -1.697  -3.693  1.00  0.00    -0.134 SA
BRANCH   8   9
ATOM      9  C   UNL     1       2.862  -0.257  -3.495  1.00  0.00     0.166 C 
BRANCH   9  10
ATOM     10  C   UNL     1       2.211   1.083  -3.842  1.00  0.00    -0.026 A 
ATOM     11  C   UNL     1       2.854   1.989  -4.709  1.00  0.00     0.005 A 
ATOM     12  C   UNL     1       0.975   1.492  -3.327  1.00  0.00     0.005 A 
ATOM     13  C   UNL     1       2.335   3.273  -4.939  1.00  0.00     0.000 A 
ATOM     14  C   UNL     1       0.451   2.769  -3.550  1.00  0.00     0.000 A 
ATOM     15  C   UNL     1       1.145   3.672  -4.337  1.00  0.00     0.000 A 
ENDBRANCH   9  10
BRANCH   9  16
ATOM     16  C   UNL     1       3.842  -0.431  -2.286  1.00  0.00     0.242 C 
ATOM     17  O   UNL     1       3.824  -1.440  -1.566  1.00  0.00    -0.273 OA
ATOM     18  N   UNL     1       4.973   0.330  -2.114  1.00  0.00    -0.325 N 
ATOM     19  H   UNL     1       5.782  -0.193  -1.907  1.00  0.00     0.169 HD
BRANCH  18  20
ATOM     20  C   UNL     1       5.189   1.710  -2.180  1.00  0.00     0.041 A 
ATOM     21  C   UNL     1       6.487   2.212  -2.265  1.00  0.00     0.027 A 
ATOM     22  C   UNL     1       4.149   2.609  -2.042  1.00  0.00     0.027 A 
ATOM     23  C   UNL     1       6.701   3.595  -2.374  1.00  0.00     0.015 A 
ATOM     24  C   UNL     1       4.345   3.983  -2.149  1.00  0.00     0.015 A 
ATOM     25  C   UNL     1       5.621   4.492  -2.369  1.00  0.00     0.056 A 
BRANCH  25  26
ATOM     26  C   UNL     1       5.812   5.969  -2.610  1.00  0.00     0.416 C 
ATOM     27  F   UNL     1       6.324   6.622  -1.537  1.00  0.00    -0.166 F 
ATOM     28  F   UNL     1       6.665   6.212  -3.645  1.00  0.00    -0.166 F 
ATOM     29  F   UNL     1       4.654   6.611  -2.934  1.00  0.00    -0.166 F 
ENDBRANCH  25  26
ENDBRANCH  18  20
ENDBRANCH   9  16
ENDBRANCH   8   9
ENDBRANCH   7   8
ENDBRANCH   5   7
ENDBRANCH   2   3
ENDBRANCH   1   2
BRANCH   1  30
ATOM     30  C   UNL     1       1.392   1.981   1.286  1.00  0.00     0.002 C 
BRANCH  30  31
ATOM     31  C   UNL     1       1.733   3.012   0.218  1.00  0.00     0.002 C 
BRANCH  31  32
ATOM     32  C   UNL     1       1.151   4.412   0.351  1.00  0.00     0.021 C 
BRANCH  32  33
ATOM     33  C   UNL     1       1.622   5.197   1.567  1.00  0.00     0.116 C 
BRANCH  33  34
ATOM     34  N   UNL     1       3.053   5.480   1.585  1.00  0.00    -0.352 N 
ATOM     35  C   UNL     1       3.712   6.633   1.956  1.00  0.00     0.251 C 
ATOM     36  H   UNL     1       3.632   4.741   1.288  1.00  0.00     0.163 HD
ATOM     37  O   UNL     1       4.936   6.694   1.853  1.00  0.00    -0.269 OA
BRANCH  35  38
ATOM     38  C   UNL     1       2.946   7.812   2.430  1.00  0.00     0.039 A 
ATOM     39  C   UNL     1       3.299   9.085   1.974  1.00  0.00     0.014 A 
ATOM     40  C   UNL     1       1.854   7.663   3.286  1.00  0.00     0.014 A 
ATOM     41  C   UNL     1       2.497  10.186   2.293  1.00  0.00     0.010 A 
ATOM     42  C   UNL     1       0.998   8.736   3.511  1.00  0.00     0.010 A 
ATOM     43  C   UNL     1       1.306  10.011   3.018  1.00  0.00    -0.014 A 
BRANCH  43  44
ATOM     44  C   UNL     1       0.362  11.136   3.264  1.00  0.00     0.031 A 
ATOM     45  C   UNL     1       0.010  11.533   4.674  1.00  0.00     0.074 A 
ATOM     46  C   UNL     1      -0.249  11.738   2.223  1.00  0.00     0.049 A 
ATOM     47  N   UNL     1      -0.857  12.419   5.092  1.00  0.00    -0.248 NA
ATOM     48  C   UNL     1       0.696  10.812   5.759  1.00  0.00     0.031 C 
ATOM     49  C   UNL     1      -0.049  11.400   0.811  1.00  0.00     0.029 A 
ATOM     50  N   UNL     1      -1.173  12.753   2.190  1.00  0.00    -0.354 N 
ATOM     51  C   UNL     1      -0.837  12.345   6.481  1.00  0.00     0.074 A 
ATOM     52  C   UNL     1       0.080  11.283   6.832  1.00  0.00     0.031 C 
ATOM     53  C   UNL     1      -0.799  12.214   0.052  1.00  0.00     0.029 A 
ATOM     54  C   UNL     1      -1.565  13.104   0.919  1.00  0.00     0.049 A 
ATOM     55  H   UNL     1      -1.522  13.190   3.000  1.00  0.00     0.167 HD
ATOM     56  C   UNL     1      -1.499  13.109   7.383  1.00  0.00     0.037 A 
ATOM     57  C   UNL     1      -2.444  14.034   0.497  1.00  0.00     0.037 A 
ATOM     58  C   UNL     1      -2.383  14.188   7.027  1.00  0.00     0.049 A 
ATOM     59  C   UNL     1      -3.153  14.886   1.515  1.00  0.00     0.074 A 
ATOM     60  C   UNL     1      -3.044  15.070   7.862  1.00  0.00     0.029 A 
ATOM     61  N   UNL     1      -2.729  14.532   5.728  1.00  0.00    -0.354 N 
ATOM     62  N   UNL     1      -3.066  14.849   2.824  1.00  0.00    -0.248 NA
ATOM     63  C   UNL     1      -4.074  15.909   1.000  1.00  0.00     0.031 C 
ATOM     64  C   UNL     1      -3.824  15.921   7.071  1.00  0.00     0.029 A 
ATOM     65  C   UNL     1      -3.610  15.601   5.740  1.00  0.00     0.049 A 
ATOM     66  H   UNL     1      -2.397  14.083   4.917  1.00  0.00     0.167 HD
ATOM     67  C   UNL     1      -3.902  15.859   3.288  1.00  0.00     0.074 A 
ATOM     68  C   UNL     1      -4.474  16.497   2.120  1.00  0.00     0.031 C 
ATOM     69  C   UNL     1      -4.171  16.225   4.566  1.00  0.00     0.037 A 
BRANCH  56  70
ATOM     70  C   UNL     1      -1.282  12.807   8.841  1.00  0.00     0.058 A 
ATOM     71  C   UNL     1      -0.049  13.051   9.471  1.00  0.00     0.135 A 
ATOM     72  C   UNL     1      -2.321  12.280   9.626  1.00  0.00     0.135 A 
ATOM     73  F   UNL     1       0.984  13.540   8.767  1.00  0.00    -0.206 F 
ATOM     74  C   UNL     1       0.158  12.744  10.811  1.00  0.00     0.059 A 
ATOM     75  C   UNL     1      -2.145  11.996  10.978  1.00  0.00     0.059 A 
ATOM     76  F   UNL     1      -3.521  12.029   9.079  1.00  0.00    -0.206 F 
ATOM     77  C   UNL     1      -0.896  12.213  11.556  1.00  0.00     0.060 A 
BRANCH  77  78
ATOM     78  S   UNL     1      -0.606  11.809  13.291  1.00  0.00     0.124 S 
ATOM     79  O   UNL     1       0.210  10.604  13.177  1.00  0.00    -0.237 OA
ATOM     80  O   UNL     1       0.086  12.998  13.778  1.00  0.00    -0.237 OA
ATOM     81  O   UNL     1      -1.950  11.608  13.823  1.00  0.00    -0.744 OA
ENDBRANCH  77  78
ENDBRANCH  56  70
BRANCH  57  82
ATOM     82  C   UNL     1      -2.672  14.233  -0.960  1.00  0.00     0.058 A 
ATOM     83  C   UNL     1      -2.191  15.378  -1.612  1.00  0.00     0.135 A 
ATOM     84  C   UNL     1      -3.344  13.275  -1.734  1.00  0.00     0.135 A 
ATOM     85  F   UNL     1      -1.549  16.327  -0.914  1.00  0.00    -0.206 F 
ATOM     86  C   UNL     1      -2.376  15.572  -2.977  1.00  0.00     0.059 A 
ATOM     87  C   UNL     1      -3.520  13.434  -3.106  1.00  0.00     0.059 A 
ATOM     88  F   UNL     1      -3.809  12.153  -1.161  1.00  0.00    -0.206 F 
ATOM     89  C   UNL     1      -3.037  14.591  -3.717  1.00  0.00     0.060 A 
BRANCH  89  90
ATOM     90  S   UNL     1      -3.213  14.824  -5.500  1.00  0.00     0.124 S 
ATOM     91  O   UNL     1      -4.229  15.868  -5.561  1.00  0.00    -0.237 OA
ATOM     92  O   UNL     1      -1.865  15.221  -5.892  1.00  0.00    -0.237 OA
ATOM     93  O   UNL     1      -3.632  13.506  -5.970  1.00  0.00    -0.744 OA
ENDBRANCH  89  90
ENDBRANCH  57  82
BRANCH  69  94
ATOM     94  C   UNL     1      -5.105  17.385   4.771  1.00  0.00     0.058 A 
ATOM     95  C   UNL     1      -6.484  17.271   4.541  1.00  0.00     0.135 A 
ATOM     96  C   UNL     1      -4.619  18.613   5.250  1.00  0.00     0.135 A 
ATOM     97  F   UNL     1      -6.999  16.121   4.077  1.00  0.00    -0.206 F 
ATOM     98  C   UNL     1      -7.347  18.340   4.756  1.00  0.00     0.059 A 
ATOM     99  C   UNL     1      -5.467  19.687   5.499  1.00  0.00     0.059 A 
ATOM    100  F   UNL     1      -3.309  18.772   5.497  1.00  0.00    -0.206 F 
ATOM    101  C   UNL     1      -6.829  19.545   5.237  1.00  0.00     0.060 A 
BRANCH 101 102
ATOM    102  S   UNL     1      -7.963  20.916   5.541  1.00  0.00     0.124 S 
ATOM    103  O   UNL     1      -8.263  21.356   4.182  1.00  0.00    -0.237 OA
ATOM    104  O   UNL     1      -9.059  20.263   6.252  1.00  0.00    -0.237 OA
ATOM    105  O   UNL     1      -7.169  21.843   6.341  1.00  0.00    -0.744 OA
ENDBRANCH 101 102
ENDBRANCH  69  94
ENDBRANCH  43  44
ENDBRANCH  35  38
ENDBRANCH  33  34
ENDBRANCH  32  33
ENDBRANCH  31  32
ENDBRANCH  30  31
ENDBRANCH   1  30
TORSDOF 22
