REMARK SMILES C[C@H]1[C@H](C(=O)NCCCCCCNC(=O)c2ccc(-c3c4nc(c(-c5c(F)cc(S(=O)(=O)[O-])cc5F)c5ccc([nH]5)c(-c5c(F)cc(S(=O)(=O)[O-])cc5F)c5nc(c(-c6c(F)cc(S(=O)(=O)[O-])cc6F)c6ccc3[nH]6)C=C5)C=C4)cc2)CC[N@@H+]1Cc1cnn(-c2ccccc2)c1
REMARK SMILES IDX 9 1 8 2 7 3 6 4 4 5 5 6 3 8 1 9 2 10 84 11 82 12 83 13 85 15
REMARK SMILES IDX 86 16 87 17 96 18 88 19 89 20 90 21 91 22 95 23 92 24 94 25
REMARK SMILES IDX 93 26 10 27 11 28 12 29 13 30 14 31 15 33 16 34 17 35 81 36
REMARK SMILES IDX 18 37 80 38 19 39 20 40 21 41 74 42 22 43 79 44 73 45 75 46
REMARK SMILES IDX 23 47 78 48 72 49 71 50 24 52 58 53 37 54 57 55 38 56 41 57
REMARK SMILES IDX 56 58 76 59 39 60 40 61 55 63 77 64 42 65 25 66 26 67 35 68
REMARK SMILES IDX 27 69 28 70 34 71 36 72 29 73 30 74 31 75 32 76 33 77 59 78
REMARK SMILES IDX 60 79 69 80 61 81 62 82 68 83 70 84 63 85 64 86 65 87 66 88
REMARK SMILES IDX 67 89 43 90 44 91 53 92 45 93 46 94 52 95 54 96 47 97 48 98
REMARK SMILES IDX 49 99 50 100 51 101
REMARK H PARENT 6 7 84 14 13 32 75 51 41 62
REMARK Flexibility Score: inf
ROOT
ATOM      1  C   UNL     1       1.405   0.454   5.600  1.00  0.00     0.002 C 
ENDROOT
BRANCH   1   2
ATOM      2  C   UNL     1       1.505   0.290   4.068  1.00  0.00     0.021 C 
BRANCH   2   3
ATOM      3  C   UNL     1       0.568   1.198   3.266  1.00  0.00     0.116 C 
BRANCH   3   4
ATOM      4  N   UNL     1       1.167   2.111   2.323  1.00  0.00    -0.356 N 
ATOM      5  C   UNL     1       0.726   2.367   1.056  1.00  0.00     0.229 C 
ATOM      6  O   UNL     1       0.763   3.546   0.684  1.00  0.00    -0.275 OA
ATOM      7  H   UNL     1       1.970   2.596   2.621  1.00  0.00     0.163 HD
BRANCH   5   8
ATOM      8  C   UNL     1       0.274   1.285   0.074  1.00  0.00     0.142 C 
ATOM      9  C   UNL     1       1.635  -0.687  -0.603  1.00  0.00     0.076 C 
ATOM     10  C   UNL     1       0.551  -0.195   0.380  1.00  0.00     0.193 C 
ATOM     11  N   UNL     1      -0.721  -0.916   0.145  1.00  0.00    -0.328 N 
ATOM     12  C   UNL     1      -1.192   1.342  -0.345  1.00  0.00     0.081 C 
ATOM     13  C   UNL     1      -1.495  -0.089  -0.773  1.00  0.00     0.263 C 
ATOM     14  H   UNL     1      -0.489  -1.823  -0.262  1.00  0.00     0.348 HD
BRANCH  11  15
ATOM     15  C   UNL     1      -1.472  -1.440   1.310  1.00  0.00     0.302 C 
BRANCH  15  16
ATOM     16  C   UNL     1      -2.381  -0.497   2.067  1.00  0.00     0.045 A 
ATOM     17  C   UNL     1      -3.587   0.155   1.697  1.00  0.00     0.145 A 
ATOM     18  C   UNL     1      -2.300  -0.155   3.402  1.00  0.00     0.124 A 
ATOM     19  N   UNL     1      -4.049   1.010   2.622  1.00  0.00    -0.176 NA
ATOM     20  N   UNL     1      -3.202   0.853   3.654  1.00  0.00    -0.240 N 
BRANCH  20  21
ATOM     21  C   UNL     1      -3.212   1.672   4.809  1.00  0.00     0.065 A 
ATOM     22  C   UNL     1      -3.898   1.228   5.940  1.00  0.00     0.028 A 
ATOM     23  C   UNL     1      -2.298   2.734   4.910  1.00  0.00     0.028 A 
ATOM     24  C   UNL     1      -3.621   1.804   7.185  1.00  0.00     0.002 A 
ATOM     25  C   UNL     1      -1.999   3.279   6.165  1.00  0.00     0.002 A 
ATOM     26  C   UNL     1      -2.648   2.800   7.303  1.00  0.00     0.000 A 
ENDBRANCH  20  21
ENDBRANCH  15  16
ENDBRANCH  11  15
ENDBRANCH   5   8
ENDBRANCH   3   4
ENDBRANCH   2   3
ENDBRANCH   1   2
BRANCH   1  27
ATOM     27  C   UNL     1       0.009   0.343   6.218  1.00  0.00     0.002 C 
BRANCH  27  28
ATOM     28  C   UNL     1      -0.558  -1.057   6.420  1.00  0.00     0.021 C 
BRANCH  28  29
ATOM     29  C   UNL     1      -0.085  -1.744   7.685  1.00  0.00     0.116 C 
BRANCH  29  30
ATOM     30  N   UNL     1      -0.443  -1.008   8.897  1.00  0.00    -0.352 N 
ATOM     31  C   UNL     1      -1.238  -1.351   9.968  1.00  0.00     0.251 C 
ATOM     32  H   UNL     1      -0.044  -0.110   8.959  1.00  0.00     0.163 HD
ATOM     33  O   UNL     1      -1.554  -0.497  10.786  1.00  0.00    -0.269 OA
BRANCH  31  34
ATOM     34  C   UNL     1      -1.725  -2.741  10.112  1.00  0.00     0.039 A 
ATOM     35  C   UNL     1      -2.990  -2.990  10.650  1.00  0.00     0.014 A 
ATOM     36  C   UNL     1      -0.931  -3.804   9.693  1.00  0.00     0.014 A 
ATOM     37  C   UNL     1      -3.478  -4.300  10.685  1.00  0.00     0.010 A 
ATOM     38  C   UNL     1      -1.484  -5.064   9.559  1.00  0.00     0.010 A 
ATOM     39  C   UNL     1      -2.746  -5.342  10.093  1.00  0.00    -0.014 A 
BRANCH  39  40
ATOM     40  C   UNL     1      -3.224  -6.748  10.064  1.00  0.00     0.031 A 
ATOM     41  C   UNL     1      -2.340  -7.838  10.624  1.00  0.00     0.074 A 
ATOM     42  C   UNL     1      -4.385  -7.054   9.453  1.00  0.00     0.049 A 
ATOM     43  N   UNL     1      -2.482  -9.136  10.558  1.00  0.00    -0.248 NA
ATOM     44  C   UNL     1      -1.093  -7.413  11.287  1.00  0.00     0.031 C 
ATOM     45  C   UNL     1      -5.285  -6.095   8.805  1.00  0.00     0.029 A 
ATOM     46  N   UNL     1      -5.006  -8.262   9.266  1.00  0.00    -0.354 N 
ATOM     47  C   UNL     1      -1.330  -9.669  11.127  1.00  0.00     0.074 A 
ATOM     48  C   UNL     1      -0.458  -8.563  11.442  1.00  0.00     0.031 C 
ATOM     49  C   UNL     1      -6.363  -6.746   8.338  1.00  0.00     0.029 A 
ATOM     50  C   UNL     1      -6.209  -8.171   8.606  1.00  0.00     0.049 A 
ATOM     51  H   UNL     1      -4.625  -9.116   9.576  1.00  0.00     0.167 HD
ATOM     52  C   UNL     1      -1.042 -10.961  11.409  1.00  0.00     0.037 A 
ATOM     53  C   UNL     1      -7.086  -9.132   8.259  1.00  0.00     0.037 A 
ATOM     54  C   UNL     1      -1.955 -12.042  11.160  1.00  0.00     0.049 A 
ATOM     55  C   UNL     1      -6.769 -10.558   8.621  1.00  0.00     0.074 A 
ATOM     56  C   UNL     1      -1.817 -13.379  11.482  1.00  0.00     0.029 A 
ATOM     57  N   UNL     1      -3.189 -11.901  10.539  1.00  0.00    -0.354 N 
ATOM     58  N   UNL     1      -5.706 -11.039   9.224  1.00  0.00    -0.248 NA
ATOM     59  C   UNL     1      -7.770 -11.572   8.266  1.00  0.00     0.031 C 
ATOM     60  C   UNL     1      -2.947 -14.055  11.014  1.00  0.00     0.029 A 
ATOM     61  C   UNL     1      -3.815 -13.131  10.450  1.00  0.00     0.049 A 
ATOM     62  H   UNL     1      -3.562 -11.052  10.210  1.00  0.00     0.167 HD
ATOM     63  C   UNL     1      -5.921 -12.407   9.342  1.00  0.00     0.074 A 
ATOM     64  C   UNL     1      -7.224 -12.673   8.764  1.00  0.00     0.031 C 
ATOM     65  C   UNL     1      -5.117 -13.360   9.876  1.00  0.00     0.037 A 
BRANCH  52  66
ATOM     66  C   UNL     1       0.292 -11.261  12.042  1.00  0.00     0.058 A 
ATOM     67  C   UNL     1       0.612 -10.824  13.339  1.00  0.00     0.135 A 
ATOM     68  C   UNL     1       1.262 -12.002  11.348  1.00  0.00     0.135 A 
ATOM     69  F   UNL     1      -0.267 -10.095  14.045  1.00  0.00    -0.206 F 
ATOM     70  C   UNL     1       1.857 -11.073  13.907  1.00  0.00     0.059 A 
ATOM     71  C   UNL     1       2.501 -12.295  11.911  1.00  0.00     0.059 A 
ATOM     72  F   UNL     1       1.014 -12.445  10.105  1.00  0.00    -0.206 F 
ATOM     73  C   UNL     1       2.796 -11.810  13.184  1.00  0.00     0.060 A 
BRANCH  73  74
ATOM     74  S   UNL     1       4.405 -12.126  13.939  1.00  0.00     0.124 S 
ATOM     75  O   UNL     1       5.021 -10.804  13.874  1.00  0.00    -0.237 OA
ATOM     76  O   UNL     1       4.037 -12.587  15.274  1.00  0.00    -0.237 OA
ATOM     77  O   UNL     1       4.996 -13.137  13.069  1.00  0.00    -0.744 OA
ENDBRANCH  73  74
ENDBRANCH  52  66
BRANCH  53  78
ATOM     78  C   UNL     1      -8.357  -8.772   7.573  1.00  0.00     0.058 A 
ATOM     79  C   UNL     1      -9.588  -8.883   8.237  1.00  0.00     0.135 A 
ATOM     80  C   UNL     1      -8.370  -8.286   6.256  1.00  0.00     0.135 A 
ATOM     81  F   UNL     1      -9.631  -9.344   9.497  1.00  0.00    -0.206 F 
ATOM     82  C   UNL     1     -10.787  -8.546   7.617  1.00  0.00     0.059 A 
ATOM     83  C   UNL     1      -9.553  -7.915   5.623  1.00  0.00     0.059 A 
ATOM     84  F   UNL     1      -7.218  -8.139   5.583  1.00  0.00    -0.206 F 
ATOM     85  C   UNL     1     -10.758  -8.059   6.309  1.00  0.00     0.060 A 
BRANCH  85  86
ATOM     86  S   UNL     1     -12.317  -7.581   5.530  1.00  0.00     0.124 S 
ATOM     87  O   UNL     1     -12.943  -8.879   5.307  1.00  0.00    -0.237 OA
ATOM     88  O   UNL     1     -12.928  -6.745   6.559  1.00  0.00    -0.237 OA
ATOM     89  O   UNL     1     -11.888  -6.872   4.329  1.00  0.00    -0.744 OA
ENDBRANCH  85  86
ENDBRANCH  53  78
BRANCH  65  90
ATOM     90  C   UNL     1      -5.635 -14.770   9.888  1.00  0.00     0.058 A 
ATOM     91  C   UNL     1      -5.726 -15.531   8.713  1.00  0.00     0.135 A 
ATOM     92  C   UNL     1      -5.982 -15.387  11.102  1.00  0.00     0.135 A 
ATOM     93  F   UNL     1      -5.410 -14.985   7.528  1.00  0.00    -0.206 F 
ATOM     94  C   UNL     1      -6.166 -16.849   8.737  1.00  0.00     0.059 A 
ATOM     95  C   UNL     1      -6.393 -16.713  11.153  1.00  0.00     0.059 A 
ATOM     96  F   UNL     1      -5.898 -14.705  12.255  1.00  0.00    -0.206 F 
ATOM     97  C   UNL     1      -6.493 -17.433   9.963  1.00  0.00     0.060 A 
BRANCH  97  98
ATOM     98  S   UNL     1      -7.025 -19.156   9.982  1.00  0.00     0.124 S 
ATOM     99  O   UNL     1      -8.363 -19.057   9.407  1.00  0.00    -0.237 OA
ATOM    100  O   UNL     1      -6.020 -19.801   9.143  1.00  0.00    -0.237 OA
ATOM    101  O   UNL     1      -6.974 -19.512  11.397  1.00  0.00    -0.744 OA
ENDBRANCH  97  98
ENDBRANCH  65  90
ENDBRANCH  39  40
ENDBRANCH  31  34
ENDBRANCH  29  30
ENDBRANCH  28  29
ENDBRANCH  27  28
ENDBRANCH   1  27
TORSDOF 19
