REMARK SMILES COc1cccc2ccc(C[N@@H+]3CC4(CC[NH2+]CC4)C[C@@H]3C(=O)NCCCCCCNC(=O)c3ccc(-c4c5nc(c(-c6c(F)cc(S(=O)(=O)[O-])cc6F)c6ccc([nH]6)c(-c6c(F)cc(S(=O)(=O)[O-])cc6F)c6nc(c(-c7c(F)cc(S(=O)(=O)[O-])cc7F)c7ccc4[nH]7)C=C6)C=C5)cc3)nc12
REMARK SMILES IDX 27 1 26 2 25 3 24 4 22 5 23 6 21 8 12 9 13 10 14 12 20 13
REMARK SMILES IDX 15 14 19 15 16 16 18 17 17 18 11 21 10 22 3 23 4 24 101 25
REMARK SMILES IDX 5 26 7 27 100 28 6 29 8 30 9 31 2 32 1 33 28 34 29 35 30 36
REMARK SMILES IDX 31 37 32 38 33 40 34 41 35 42 99 43 36 44 98 45 37 46 38 47
REMARK SMILES IDX 39 48 92 49 40 50 97 51 91 52 93 53 41 54 96 55 90 56 89 57
REMARK SMILES IDX 42 59 76 60 55 61 75 62 56 63 59 64 74 65 94 66 57 67 58 68
REMARK SMILES IDX 73 70 95 71 60 72 43 73 44 74 53 75 45 76 46 77 52 78 54 79
REMARK SMILES IDX 47 80 48 81 49 82 50 83 51 84 77 85 78 86 87 87 79 88 80 89
REMARK SMILES IDX 86 90 88 91 81 92 82 93 83 94 84 95 85 96 61 97 62 98 71 99
REMARK SMILES IDX 63 100 64 101 70 102 72 103 65 104 66 105 67 106 68 107
REMARK SMILES IDX 69 108
REMARK H PARENT 24 7 12 11 17 19 17 20 31 39 93 58 59 69
REMARK Flexibility Score: inf
ROOT
ATOM      1  C   UNL     1      -0.448   3.336  -1.393  1.00  0.00     0.002 C 
ENDROOT
BRANCH   1   2
ATOM      2  C   UNL     1      -1.475   3.179  -2.512  1.00  0.00     0.021 C 
BRANCH   2   3
ATOM      3  C   UNL     1      -1.772   1.747  -2.940  1.00  0.00     0.116 C 
BRANCH   3   4
ATOM      4  N   UNL     1      -2.534   0.998  -1.962  1.00  0.00    -0.351 N 
ATOM      5  C   UNL     1      -3.493   0.035  -2.097  1.00  0.00     0.278 C 
ATOM      6  O   UNL     1      -4.010  -0.349  -1.038  1.00  0.00    -0.268 OA
ATOM      7  H   UNL     1      -2.321   1.225  -1.028  1.00  0.00     0.163 HD
BRANCH   5   8
ATOM      8  C   UNL     1      -4.030  -0.455  -3.472  1.00  0.00     0.275 C 
ATOM      9  N   UNL     1      -4.367  -1.901  -3.549  1.00  0.00    -0.319 N 
ATOM     10  C   UNL     1      -4.477  -2.246  -4.968  1.00  0.00     0.270 C 
ATOM     11  H   UNL     1      -5.260  -2.008  -3.067  1.00  0.00     0.349 HD
ATOM     12  C   UNL     1      -3.622  -1.248  -5.777  1.00  0.00     0.036 C 
ATOM     13  C   UNL     1      -3.249  -0.175  -4.748  1.00  0.00     0.089 C 
ATOM     14  C   UNL     1      -4.405  -0.679  -6.983  1.00  0.00     0.074 C 
ATOM     15  C   UNL     1      -2.320  -1.810  -6.377  1.00  0.00     0.074 C 
ATOM     16  C   UNL     1      -4.599  -1.734  -8.083  1.00  0.00     0.261 C 
ATOM     17  C   UNL     1      -2.576  -2.894  -7.412  1.00  0.00     0.261 C 
ATOM     18  N   UNL     1      -3.349  -2.354  -8.528  1.00  0.00    -0.346 N 
ATOM     19  H   UNL     1      -2.786  -1.652  -9.008  1.00  0.00     0.346 HD
ATOM     20  H   UNL     1      -3.585  -3.127  -9.149  1.00  0.00     0.346 HD
BRANCH   9  21
ATOM     21  C   UNL     1      -3.654  -2.876  -2.701  1.00  0.00     0.320 C 
BRANCH  21  22
ATOM     22  C   UNL     1      -2.164  -3.064  -2.915  1.00  0.00     0.095 A 
ATOM     23  C   UNL     1       0.885  -1.501  -1.680  1.00  0.00     0.145 A 
ATOM     24  C   UNL     1       2.195  -1.281  -2.121  1.00  0.00     0.049 A 
ATOM     25  C   UNL     1      -0.009  -2.259  -2.460  1.00  0.00     0.113 A 
ATOM     26  C   UNL     1       2.639  -1.852  -3.314  1.00  0.00     0.005 A 
ATOM     27  C   UNL     1       0.498  -2.945  -3.580  1.00  0.00     0.004 A 
ATOM     28  N   UNL     1      -1.329  -2.307  -2.167  1.00  0.00    -0.243 NA
ATOM     29  C   UNL     1       1.808  -2.711  -4.023  1.00  0.00     0.010 A 
ATOM     30  C   UNL     1      -0.343  -3.848  -4.241  1.00  0.00     0.012 A 
ATOM     31  C   UNL     1      -1.685  -3.933  -3.885  1.00  0.00     0.030 A 
BRANCH  23  32
ATOM     32  O   UNL     1       0.366  -1.059  -0.488  1.00  0.00    -0.494 OA
ATOM     33  C   UNL     1       1.101  -0.221   0.383  1.00  0.00     0.278 C 
ENDBRANCH  23  32
ENDBRANCH  21  22
ENDBRANCH   9  21
ENDBRANCH   5   8
ENDBRANCH   3   4
ENDBRANCH   2   3
ENDBRANCH   1   2
BRANCH   1  34
ATOM     34  C   UNL     1       0.934   2.744  -1.679  1.00  0.00     0.002 C 
BRANCH  34  35
ATOM     35  C   UNL     1       1.617   3.191  -2.969  1.00  0.00     0.021 C 
BRANCH  35  36
ATOM     36  C   UNL     1       1.699   4.696  -3.179  1.00  0.00     0.116 C 
BRANCH  36  37
ATOM     37  N   UNL     1       2.406   5.376  -2.104  1.00  0.00    -0.352 N 
ATOM     38  C   UNL     1       3.551   6.139  -2.149  1.00  0.00     0.251 C 
ATOM     39  H   UNL     1       2.005   5.275  -1.211  1.00  0.00     0.163 HD
ATOM     40  O   UNL     1       4.090   6.499  -1.116  1.00  0.00    -0.269 OA
BRANCH  38  41
ATOM     41  C   UNL     1       4.140   6.485  -3.462  1.00  0.00     0.039 A 
ATOM     42  C   UNL     1       5.506   6.277  -3.662  1.00  0.00     0.014 A 
ATOM     43  C   UNL     1       3.341   6.974  -4.499  1.00  0.00     0.014 A 
ATOM     44  C   UNL     1       6.053   6.466  -4.933  1.00  0.00     0.010 A 
ATOM     45  C   UNL     1       3.871   7.089  -5.780  1.00  0.00     0.010 A 
ATOM     46  C   UNL     1       5.228   6.819  -6.013  1.00  0.00    -0.014 A 
BRANCH  46  47
ATOM     47  C   UNL     1       5.747   6.854  -7.404  1.00  0.00     0.031 A 
ATOM     48  C   UNL     1       5.750   8.139  -8.182  1.00  0.00     0.074 A 
ATOM     49  C   UNL     1       6.129   5.702  -7.993  1.00  0.00     0.049 A 
ATOM     50  N   UNL     1       6.064   8.343  -9.435  1.00  0.00    -0.248 NA
ATOM     51  C   UNL     1       5.322   9.350  -7.464  1.00  0.00     0.031 C 
ATOM     52  C   UNL     1       6.126   4.383  -7.354  1.00  0.00     0.029 A 
ATOM     53  N   UNL     1       6.577   5.450  -9.266  1.00  0.00    -0.354 N 
ATOM     54  C   UNL     1       5.863   9.699  -9.660  1.00  0.00     0.074 A 
ATOM     55  C   UNL     1       5.354  10.261  -8.427  1.00  0.00     0.031 C 
ATOM     56  C   UNL     1       6.563   3.467  -8.231  1.00  0.00     0.029 A 
ATOM     57  C   UNL     1       6.833   4.120  -9.508  1.00  0.00     0.049 A 
ATOM     58  H   UNL     1       6.702   6.154  -9.942  1.00  0.00     0.167 HD
ATOM     59  C   UNL     1       6.099  10.413 -10.787  1.00  0.00     0.037 A 
ATOM     60  C   UNL     1       7.220   3.493 -10.636  1.00  0.00     0.037 A 
ATOM     61  C   UNL     1       6.620   9.847 -12.004  1.00  0.00     0.049 A 
ATOM     62  C   UNL     1       7.446   4.302 -11.883  1.00  0.00     0.074 A 
ATOM     63  C   UNL     1       6.959  10.497 -13.178  1.00  0.00     0.029 A 
ATOM     64  N   UNL     1       6.869   8.497 -12.210  1.00  0.00    -0.354 N 
ATOM     65  N   UNL     1       7.320   5.596 -12.057  1.00  0.00    -0.248 NA
ATOM     66  C   UNL     1       7.861   3.569 -13.087  1.00  0.00     0.031 C 
ATOM     67  C   UNL     1       7.362   9.535 -14.110  1.00  0.00     0.029 A 
ATOM     68  C   UNL     1       7.321   8.290 -13.503  1.00  0.00     0.049 A 
ATOM     69  H   UNL     1       6.741   7.791 -11.536  1.00  0.00     0.167 HD
ATOM     70  C   UNL     1       7.652   5.834 -13.386  1.00  0.00     0.074 A 
ATOM     71  C   UNL     1       8.004   4.553 -13.964  1.00  0.00     0.031 C 
ATOM     72  C   UNL     1       7.660   7.007 -14.066  1.00  0.00     0.037 A 
BRANCH  59  73
ATOM     73  C   UNL     1       5.799  11.886 -10.757  1.00  0.00     0.058 A 
ATOM     74  C   UNL     1       6.583  12.783 -10.013  1.00  0.00     0.135 A 
ATOM     75  C   UNL     1       4.742  12.415 -11.515  1.00  0.00     0.135 A 
ATOM     76  F   UNL     1       7.597  12.330  -9.259  1.00  0.00    -0.206 F 
ATOM     77  C   UNL     1       6.313  14.147 -10.000  1.00  0.00     0.059 A 
ATOM     78  C   UNL     1       4.470  13.780 -11.538  1.00  0.00     0.059 A 
ATOM     79  F   UNL     1       3.960  11.603 -12.244  1.00  0.00    -0.206 F 
ATOM     80  C   UNL     1       5.254  14.637 -10.766  1.00  0.00     0.060 A 
BRANCH  80  81
ATOM     81  S   UNL     1       4.922  16.411 -10.742  1.00  0.00     0.124 S 
ATOM     82  O   UNL     1       4.357  16.582  -9.407  1.00  0.00    -0.237 OA
ATOM     83  O   UNL     1       6.251  16.979 -10.945  1.00  0.00    -0.237 OA
ATOM     84  O   UNL     1       3.988  16.598 -11.847  1.00  0.00    -0.744 OA
ENDBRANCH  80  81
ENDBRANCH  59  73
BRANCH  60  85
ATOM     85  C   UNL     1       7.415   2.018 -10.635  1.00  0.00     0.058 A 
ATOM     86  C   UNL     1       8.697   1.459 -10.738  1.00  0.00     0.135 A 
ATOM     87  C   UNL     1       6.327   1.139 -10.511  1.00  0.00     0.135 A 
ATOM     88  F   UNL     1       9.767   2.257 -10.867  1.00  0.00    -0.206 F 
ATOM     89  C   UNL     1       8.895   0.082 -10.729  1.00  0.00     0.059 A 
ATOM     90  C   UNL     1       6.501  -0.240 -10.474  1.00  0.00     0.059 A 
ATOM     91  F   UNL     1       5.080   1.623 -10.393  1.00  0.00    -0.206 F 
ATOM     92  C   UNL     1       7.790  -0.760 -10.591  1.00  0.00     0.060 A 
BRANCH  92  93
ATOM     93  S   UNL     1       8.061  -2.544 -10.518  1.00  0.00     0.124 S 
ATOM     94  O   UNL     1       8.381  -2.850 -11.907  1.00  0.00    -0.237 OA
ATOM     95  O   UNL     1       9.165  -2.646  -9.568  1.00  0.00    -0.237 OA
ATOM     96  O   UNL     1       6.782  -3.057 -10.035  1.00  0.00    -0.744 OA
ENDBRANCH  92  93
ENDBRANCH  60  85
BRANCH  72  97
ATOM     97  C   UNL     1       8.065   6.963 -15.514  1.00  0.00     0.058 A 
ATOM     98  C   UNL     1       7.211   6.439 -16.496  1.00  0.00     0.135 A 
ATOM     99  C   UNL     1       9.290   7.508 -15.931  1.00  0.00     0.135 A 
ATOM    100  F   UNL     1       6.034   5.896 -16.149  1.00  0.00    -0.206 F 
ATOM    101  C   UNL     1       7.564   6.444 -17.842  1.00  0.00     0.059 A 
ATOM    102  C   UNL     1       9.651   7.549 -17.274  1.00  0.00     0.059 A 
ATOM    103  F   UNL     1      10.140   8.029 -15.031  1.00  0.00    -0.206 F 
ATOM    104  C   UNL     1       8.784   7.007 -18.221  1.00  0.00     0.060 A 
BRANCH 104 105
ATOM    105  S   UNL     1       9.204   7.053 -19.976  1.00  0.00     0.124 S 
ATOM    106  O   UNL     1       9.509   5.651 -20.242  1.00  0.00    -0.237 OA
ATOM    107  O   UNL     1       7.974   7.560 -20.578  1.00  0.00    -0.237 OA
ATOM    108  O   UNL     1      10.343   7.964 -20.030  1.00  0.00    -0.744 OA
ENDBRANCH 104 105
ENDBRANCH  72  97
ENDBRANCH  46  47
ENDBRANCH  38  41
ENDBRANCH  36  37
ENDBRANCH  35  36
ENDBRANCH  34  35
ENDBRANCH   1  34
TORSDOF 19
