REMARK SMILES CCN(CC)c1ccc([C@@H]2c3[nH]c4ccccc4c3C[C@@H](C(=O)NCCCCCCNC(=O)c3ccc(-c4c5nc(c(-c6c(F)cc(S(=O)(=O)[O-])cc6F)c6ccc([nH]6)c(-c6c(F)cc(S(=O)(=O)[O-])cc6F)c6nc(c(-c7c(F)cc(S(=O)(=O)[O-])cc7F)c7ccc4[nH]7)C=C6)C=C5)cc3)N2C(C)=O)cc1
REMARK SMILES IDX 27 1 26 2 25 3 24 4 22 5 23 6 21 8 10 9 11 10 100 11 12 12
REMARK SMILES IDX 19 13 13 14 18 16 20 17 14 18 17 19 15 20 16 21 9 22 6 23
REMARK SMILES IDX 7 24 105 25 8 26 104 27 3 28 2 29 1 30 4 31 5 32 101 33
REMARK SMILES IDX 102 34 103 35 28 36 29 37 30 38 31 39 32 40 33 42 34 43
REMARK SMILES IDX 35 44 99 45 36 46 98 47 37 48 38 49 39 50 92 51 40 52 97 53
REMARK SMILES IDX 91 54 93 55 41 56 96 57 90 58 89 59 42 61 76 62 55 63 75 64
REMARK SMILES IDX 56 65 59 66 74 67 94 68 57 69 58 70 73 72 95 73 60 74 43 75
REMARK SMILES IDX 44 76 53 77 45 78 46 79 52 80 54 81 47 82 48 83 49 84 50 85
REMARK SMILES IDX 51 86 77 87 78 88 87 89 79 90 80 91 86 92 88 93 81 94 82 95
REMARK SMILES IDX 83 96 84 97 85 98 61 99 62 100 71 101 63 102 64 103 70 104
REMARK SMILES IDX 72 105 65 106 66 107 67 108 68 109 69 110
REMARK H PARENT 24 7 12 15 31 41 93 60 59 71
REMARK Flexibility Score: inf
ROOT
ATOM      1  C   UNL     1       6.227  -2.842   7.138  1.00  0.00     0.002 C 
ENDROOT
BRANCH   1   2
ATOM      2  C   UNL     1       6.642  -1.758   6.121  1.00  0.00     0.021 C 
BRANCH   2   3
ATOM      3  C   UNL     1       8.065  -1.748   5.504  1.00  0.00     0.116 C 
BRANCH   3   4
ATOM      4  N   UNL     1       8.140  -1.484   4.025  1.00  0.00    -0.354 N 
ATOM      5  C   UNL     1       8.469  -0.487   3.127  1.00  0.00     0.243 C 
ATOM      6  O   UNL     1       8.546  -0.882   1.950  1.00  0.00    -0.273 OA
ATOM      7  H   UNL     1       7.862  -2.290   3.533  1.00  0.00     0.163 HD
BRANCH   5   8
ATOM      8  C   UNL     1       8.528   1.091   3.374  1.00  0.00     0.179 C 
ATOM      9  C   UNL     1       6.098   1.060   3.599  1.00  0.00     0.163 C 
ATOM     10  C   UNL     1       6.389   1.211   5.088  1.00  0.00     0.047 A 
ATOM     11  N   UNL     1       7.224   1.813   3.058  1.00  0.00    -0.318 N 
ATOM     12  N   UNL     1       5.502   1.288   6.121  1.00  0.00    -0.356 N 
ATOM     13  C   UNL     1       7.663   1.415   5.634  1.00  0.00    -0.014 A 
ATOM     14  C   UNL     1       6.122   1.886   7.194  1.00  0.00     0.046 A 
ATOM     15  H   UNL     1       4.571   0.968   6.101  1.00  0.00     0.166 HD
ATOM     16  C   UNL     1       7.492   1.898   6.942  1.00  0.00     0.003 A 
ATOM     17  C   UNL     1       8.920   1.381   4.822  1.00  0.00     0.073 C 
ATOM     18  C   UNL     1       5.570   2.447   8.341  1.00  0.00     0.026 A 
ATOM     19  C   UNL     1       8.375   2.442   7.883  1.00  0.00     0.010 A 
ATOM     20  C   UNL     1       6.457   3.061   9.229  1.00  0.00     0.002 A 
ATOM     21  C   UNL     1       7.836   3.047   9.015  1.00  0.00     0.001 A 
BRANCH   9  22
ATOM     22  C   UNL     1       4.730   1.330   3.014  1.00  0.00    -0.019 A 
ATOM     23  C   UNL     1       2.025   1.335   2.112  1.00  0.00     0.037 A 
ATOM     24  C   UNL     1       2.403   1.867   3.340  1.00  0.00     0.026 A 
ATOM     25  C   UNL     1       3.076   0.966   1.262  1.00  0.00     0.026 A 
ATOM     26  C   UNL     1       3.720   1.910   3.762  1.00  0.00     0.008 A 
ATOM     27  C   UNL     1       4.410   0.946   1.704  1.00  0.00     0.008 A 
BRANCH  23  28
ATOM     28  N   UNL     1       0.688   1.167   1.778  1.00  0.00    -0.372 N 
BRANCH  28  29
ATOM     29  C   UNL     1       0.245  -0.148   1.295  1.00  0.00     0.113 C 
ATOM     30  C   UNL     1       0.417  -0.318  -0.207  1.00  0.00     0.027 C 
ENDBRANCH  28  29
BRANCH  28  31
ATOM     31  C   UNL     1      -0.344   2.099   2.268  1.00  0.00     0.113 C 
ATOM     32  C   UNL     1      -0.691   1.953   3.749  1.00  0.00     0.027 C 
ENDBRANCH  28  31
ENDBRANCH  23  28
ENDBRANCH   9  22
BRANCH  11  33
ATOM     33  C   UNL     1       7.038   3.215   3.138  1.00  0.00     0.220 C 
ATOM     34  C   UNL     1       8.184   4.177   3.005  1.00  0.00     0.114 C 
ATOM     35  O   UNL     1       5.939   3.741   3.353  1.00  0.00    -0.275 OA
ENDBRANCH  11  33
ENDBRANCH   5   8
ENDBRANCH   3   4
ENDBRANCH   2   3
ENDBRANCH   1   2
BRANCH   1  36
ATOM     36  C   UNL     1       6.902  -2.860   8.520  1.00  0.00     0.002 C 
BRANCH  36  37
ATOM     37  C   UNL     1       6.804  -1.614   9.419  1.00  0.00     0.021 C 
BRANCH  37  38
ATOM     38  C   UNL     1       5.413  -1.137   9.862  1.00  0.00     0.116 C 
BRANCH  38  39
ATOM     39  N   UNL     1       4.650  -2.149  10.579  1.00  0.00    -0.352 N 
ATOM     40  C   UNL     1       4.228  -2.242  11.884  1.00  0.00     0.251 C 
ATOM     41  H   UNL     1       4.385  -2.915  10.021  1.00  0.00     0.163 HD
ATOM     42  O   UNL     1       3.732  -3.305  12.259  1.00  0.00    -0.269 OA
BRANCH  40  43
ATOM     43  C   UNL     1       4.345  -1.125  12.859  1.00  0.00     0.039 A 
ATOM     44  C   UNL     1       4.647  -1.438  14.192  1.00  0.00     0.014 A 
ATOM     45  C   UNL     1       4.053   0.200  12.526  1.00  0.00     0.014 A 
ATOM     46  C   UNL     1       4.704  -0.432  15.166  1.00  0.00     0.010 A 
ATOM     47  C   UNL     1       4.165   1.214  13.489  1.00  0.00     0.010 A 
ATOM     48  C   UNL     1       4.487   0.911  14.822  1.00  0.00    -0.014 A 
BRANCH  48  49
ATOM     49  C   UNL     1       4.601   1.990  15.848  1.00  0.00     0.031 A 
ATOM     50  C   UNL     1       3.402   2.815  16.244  1.00  0.00     0.074 A 
ATOM     51  C   UNL     1       5.800   2.252  16.410  1.00  0.00     0.049 A 
ATOM     52  N   UNL     1       3.321   3.798  17.106  1.00  0.00    -0.248 NA
ATOM     53  C   UNL     1       2.131   2.507  15.571  1.00  0.00     0.031 C 
ATOM     54  C   UNL     1       7.050   1.559  16.088  1.00  0.00     0.029 A 
ATOM     55  N   UNL     1       6.170   3.169  17.364  1.00  0.00    -0.354 N 
ATOM     56  C   UNL     1       1.999   4.231  17.073  1.00  0.00     0.074 A 
ATOM     57  C   UNL     1       1.326   3.437  16.068  1.00  0.00     0.031 C 
ATOM     58  C   UNL     1       8.039   2.057  16.846  1.00  0.00     0.029 A 
ATOM     59  C   UNL     1       7.508   3.129  17.683  1.00  0.00     0.049 A 
ATOM     60  H   UNL     1       5.536   3.797  17.780  1.00  0.00     0.167 HD
ATOM     61  C   UNL     1       1.395   5.186  17.825  1.00  0.00     0.037 A 
ATOM     62  C   UNL     1       8.231   3.872  18.545  1.00  0.00     0.037 A 
ATOM     63  C   UNL     1       2.065   5.965  18.837  1.00  0.00     0.049 A 
ATOM     64  C   UNL     1       7.541   4.933  19.361  1.00  0.00     0.074 A 
ATOM     65  C   UNL     1       1.526   6.915  19.688  1.00  0.00     0.029 A 
ATOM     66  N   UNL     1       3.419   5.892  19.130  1.00  0.00    -0.354 N 
ATOM     67  N   UNL     1       6.275   5.278  19.363  1.00  0.00    -0.248 NA
ATOM     68  C   UNL     1       8.375   5.700  20.296  1.00  0.00     0.031 C 
ATOM     69  C   UNL     1       2.563   7.454  20.458  1.00  0.00     0.029 A 
ATOM     70  C   UNL     1       3.739   6.799  20.129  1.00  0.00     0.049 A 
ATOM     71  H   UNL     1       4.059   5.285  18.693  1.00  0.00     0.167 HD
ATOM     72  C   UNL     1       6.157   6.286  20.315  1.00  0.00     0.074 A 
ATOM     73  C   UNL     1       7.476   6.479  20.882  1.00  0.00     0.031 C 
ATOM     74  C   UNL     1       5.057   6.988  20.684  1.00  0.00     0.037 A 
BRANCH  61  75
ATOM     75  C   UNL     1      -0.071   5.446  17.584  1.00  0.00     0.058 A 
ATOM     76  C   UNL     1      -1.056   4.508  17.935  1.00  0.00     0.135 A 
ATOM     77  C   UNL     1      -0.501   6.667  17.037  1.00  0.00     0.135 A 
ATOM     78  F   UNL     1      -0.705   3.320  18.452  1.00  0.00    -0.206 F 
ATOM     79  C   UNL     1      -2.408   4.757  17.722  1.00  0.00     0.059 A 
ATOM     80  C   UNL     1      -1.851   6.950  16.844  1.00  0.00     0.059 A 
ATOM     81  F   UNL     1       0.394   7.604  16.687  1.00  0.00    -0.206 F 
ATOM     82  C   UNL     1      -2.797   5.980  17.175  1.00  0.00     0.060 A 
BRANCH  82  83
ATOM     83  S   UNL     1      -4.555   6.291  16.907  1.00  0.00     0.124 S 
ATOM     84  O   UNL     1      -4.839   5.395  15.784  1.00  0.00    -0.237 OA
ATOM     85  O   UNL     1      -5.139   5.892  18.189  1.00  0.00    -0.237 OA
ATOM     86  O   UNL     1      -4.614   7.709  16.608  1.00  0.00    -0.744 OA
ENDBRANCH  82  83
ENDBRANCH  61  75
BRANCH  62  87
ATOM     87  C   UNL     1       9.692   3.627  18.695  1.00  0.00     0.058 A 
ATOM     88  C   UNL     1      10.219   3.079  19.874  1.00  0.00     0.135 A 
ATOM     89  C   UNL     1      10.591   3.928  17.659  1.00  0.00     0.135 A 
ATOM     90  F   UNL     1       9.404   2.783  20.898  1.00  0.00    -0.206 F 
ATOM     91  C   UNL     1      11.583   2.853  20.029  1.00  0.00     0.059 A 
ATOM     92  C   UNL     1      11.956   3.685  17.779  1.00  0.00     0.059 A 
ATOM     93  F   UNL     1      10.139   4.441  16.504  1.00  0.00    -0.206 F 
ATOM     94  C   UNL     1      12.444   3.156  18.973  1.00  0.00     0.060 A 
BRANCH  94  95
ATOM     95  S   UNL     1      14.207   2.813  19.165  1.00  0.00     0.124 S 
ATOM     96  O   UNL     1      14.608   3.853  20.105  1.00  0.00    -0.237 OA
ATOM     97  O   UNL     1      14.197   1.449  19.686  1.00  0.00    -0.237 OA
ATOM     98  O   UNL     1      14.726   2.953  17.808  1.00  0.00    -0.744 OA
ENDBRANCH  94  95
ENDBRANCH  62  87
BRANCH  74  99
ATOM     99  C   UNL     1       5.225   8.017  21.770  1.00  0.00     0.058 A 
ATOM    100  C   UNL     1       5.926   9.214  21.552  1.00  0.00     0.135 A 
ATOM    101  C   UNL     1       4.649   7.819  23.036  1.00  0.00     0.135 A 
ATOM    102  F   UNL     1       6.503   9.453  20.363  1.00  0.00    -0.206 F 
ATOM    103  C   UNL     1       6.078  10.163  22.559  1.00  0.00     0.059 A 
ATOM    104  C   UNL     1       4.761   8.769  24.048  1.00  0.00     0.059 A 
ATOM    105  F   UNL     1       3.958   6.698  23.297  1.00  0.00    -0.206 F 
ATOM    106  C   UNL     1       5.491   9.931  23.804  1.00  0.00     0.060 A 
BRANCH 106 107
ATOM    107  S   UNL     1       5.680  11.178  25.096  1.00  0.00     0.124 S 
ATOM    108  O   UNL     1       7.080  11.005  25.469  1.00  0.00    -0.237 OA
ATOM    109  O   UNL     1       5.361  12.413  24.386  1.00  0.00    -0.237 OA
ATOM    110  O   UNL     1       4.706  10.774  26.105  1.00  0.00    -0.744 OA
ENDBRANCH 106 107
ENDBRANCH  74  99
ENDBRANCH  48  49
ENDBRANCH  40  43
ENDBRANCH  38  39
ENDBRANCH  37  38
ENDBRANCH  36  37
ENDBRANCH   1  36
TORSDOF 21
