REMARK SMILES Cc1cc(C(=O)NCCCCCCNC(=O)c2ccc(-c3c4nc(c(-c5c(F)cc(S(=O)(=O)[O-])cc5F)c5ccc([nH]5)c(-c5c(F)cc(S(=O)(=O)[O-])cc5F)c5nc(c(-c6c(F)cc(S(=O)(=O)[O-])cc6F)c6ccc3[nH]6)C=C5)C=C4)cc2)ccc1NS(=O)(=O)c1c(F)cccc1F
REMARK SMILES IDX 10 1 9 2 8 3 7 4 5 5 6 6 4 8 1 9 2 10 3 11 85 12 84 13 83 14
REMARK SMILES IDX 86 15 87 17 88 18 89 19 90 20 91 21 96 22 92 23 93 24 95 25
REMARK SMILES IDX 97 26 94 27 11 28 12 29 13 30 14 31 15 32 16 34 17 35 18 36
REMARK SMILES IDX 82 37 19 38 81 39 20 40 21 41 22 42 75 43 23 44 80 45 74 46
REMARK SMILES IDX 76 47 24 48 79 49 73 50 72 51 25 53 59 54 38 55 58 56 39 57
REMARK SMILES IDX 42 58 57 59 77 60 40 61 41 62 56 64 78 65 43 66 26 67 27 68
REMARK SMILES IDX 36 69 28 70 29 71 35 72 37 73 30 74 31 75 32 76 33 77 34 78
REMARK SMILES IDX 60 79 61 80 70 81 62 82 63 83 69 84 71 85 64 86 65 87 66 88
REMARK SMILES IDX 67 89 68 90 44 91 45 92 54 93 46 94 47 95 53 96 55 97 48 98
REMARK SMILES IDX 49 99 50 100 51 101 52 102
REMARK H PARENT 7 7 86 16 14 33 76 52 42 63
REMARK Flexibility Score: inf
ROOT
ATOM      1  C   UNL     1      -6.014  -2.768  -1.046  1.00  0.00     0.002 C 
ENDROOT
BRANCH   1   2
ATOM      2  C   UNL     1      -4.965  -1.654  -1.143  1.00  0.00     0.021 C 
BRANCH   2   3
ATOM      3  C   UNL     1      -3.978  -1.508   0.017  1.00  0.00     0.116 C 
BRANCH   3   4
ATOM      4  N   UNL     1      -3.012  -2.587   0.132  1.00  0.00    -0.352 N 
ATOM      5  C   UNL     1      -1.661  -2.561   0.405  1.00  0.00     0.251 C 
ATOM      6  O   UNL     1      -1.035  -3.619   0.451  1.00  0.00    -0.269 OA
ATOM      7  H   UNL     1      -3.384  -3.488  -0.009  1.00  0.00     0.163 HD
BRANCH   5   8
ATOM      8  C   UNL     1      -0.917  -1.282   0.569  1.00  0.00     0.040 A 
ATOM      9  C   UNL     1       2.458   0.042  -0.559  1.00  0.00     0.046 C 
ATOM     10  C   UNL     1       1.044   0.037  -0.045  1.00  0.00    -0.026 A 
ATOM     11  C   UNL     1       0.362  -1.192   0.006  1.00  0.00     0.019 A 
ATOM     12  C   UNL     1       0.384   1.193   0.404  1.00  0.00     0.052 A 
ATOM     13  C   UNL     1      -0.759   1.049   1.195  1.00  0.00     0.028 A 
ATOM     14  C   UNL     1      -1.412  -0.187   1.273  1.00  0.00     0.016 A 
BRANCH  12  15
ATOM     15  N   UNL     1       0.851   2.454  -0.078  1.00  0.00    -0.279 N 
ATOM     16  H   UNL     1       1.659   2.437  -0.640  1.00  0.00     0.180 HD
BRANCH  15  17
ATOM     17  S   UNL     1       0.172   3.957   0.209  1.00  0.00     0.267 S 
ATOM     18  O   UNL     1       0.295   4.185   1.635  1.00  0.00    -0.201 OA
ATOM     19  O   UNL     1       0.793   4.848  -0.749  1.00  0.00    -0.201 OA
BRANCH  17  20
ATOM     20  C   UNL     1      -1.535   3.904  -0.181  1.00  0.00     0.158 A 
ATOM     21  C   UNL     1      -2.376   4.788   0.486  1.00  0.00     0.146 A 
ATOM     22  C   UNL     1      -2.088   2.950  -1.022  1.00  0.00     0.146 A 
ATOM     23  F   UNL     1      -1.883   5.777   1.243  1.00  0.00    -0.205 F 
ATOM     24  C   UNL     1      -3.761   4.673   0.382  1.00  0.00     0.041 A 
ATOM     25  C   UNL     1      -3.475   2.805  -1.111  1.00  0.00     0.041 A 
ATOM     26  F   UNL     1      -1.324   2.122  -1.745  1.00  0.00    -0.205 F 
ATOM     27  C   UNL     1      -4.315   3.659  -0.395  1.00  0.00     0.006 A 
ENDBRANCH  17  20
ENDBRANCH  15  17
ENDBRANCH  12  15
ENDBRANCH   5   8
ENDBRANCH   3   4
ENDBRANCH   2   3
ENDBRANCH   1   2
BRANCH   1  28
ATOM     28  C   UNL     1      -6.861  -2.847   0.232  1.00  0.00     0.002 C 
BRANCH  28  29
ATOM     29  C   UNL     1      -7.470  -1.541   0.745  1.00  0.00     0.021 C 
BRANCH  29  30
ATOM     30  C   UNL     1      -8.508  -0.917  -0.182  1.00  0.00     0.116 C 
BRANCH  30  31
ATOM     31  N   UNL     1      -9.859  -0.965   0.356  1.00  0.00    -0.352 N 
ATOM     32  C   UNL     1     -10.959  -0.246  -0.079  1.00  0.00     0.251 C 
ATOM     33  H   UNL     1     -10.007  -1.576   1.114  1.00  0.00     0.163 HD
ATOM     34  O   UNL     1     -11.955  -0.078   0.603  1.00  0.00    -0.269 OA
BRANCH  32  35
ATOM     35  C   UNL     1     -10.931   0.194  -1.488  1.00  0.00     0.039 A 
ATOM     36  C   UNL     1     -11.726  -0.516  -2.395  1.00  0.00     0.014 A 
ATOM     37  C   UNL     1      -9.953   1.081  -1.927  1.00  0.00     0.014 A 
ATOM     38  C   UNL     1     -11.431  -0.460  -3.754  1.00  0.00     0.010 A 
ATOM     39  C   UNL     1      -9.613   1.076  -3.267  1.00  0.00     0.010 A 
ATOM     40  C   UNL     1     -10.322   0.273  -4.175  1.00  0.00    -0.014 A 
BRANCH  40  41
ATOM     41  C   UNL     1      -9.776   0.211  -5.529  1.00  0.00     0.031 A 
ATOM     42  C   UNL     1      -9.939   1.357  -6.454  1.00  0.00     0.074 A 
ATOM     43  C   UNL     1      -9.033  -0.853  -5.904  1.00  0.00     0.049 A 
ATOM     44  N   UNL     1      -9.717   1.315  -7.725  1.00  0.00    -0.248 NA
ATOM     45  C   UNL     1     -10.411   2.661  -5.999  1.00  0.00     0.031 C 
ATOM     46  C   UNL     1      -8.142  -0.948  -7.057  1.00  0.00     0.029 A 
ATOM     47  N   UNL     1      -9.119  -2.163  -5.424  1.00  0.00    -0.354 N 
ATOM     48  C   UNL     1      -9.789   2.598  -8.216  1.00  0.00     0.074 A 
ATOM     49  C   UNL     1     -10.242   3.399  -7.101  1.00  0.00     0.031 C 
ATOM     50  C   UNL     1      -7.970  -2.241  -7.367  1.00  0.00     0.029 A 
ATOM     51  C   UNL     1      -8.864  -3.013  -6.522  1.00  0.00     0.049 A 
ATOM     52  H   UNL     1      -9.318  -2.439  -4.500  1.00  0.00     0.167 HD
ATOM     53  C   UNL     1      -9.368   2.861  -9.487  1.00  0.00     0.037 A 
ATOM     54  C   UNL     1      -9.835  -3.859  -6.979  1.00  0.00     0.037 A 
ATOM     55  C   UNL     1      -9.029   1.636 -10.206  1.00  0.00     0.049 A 
ATOM     56  C   UNL     1     -10.323  -3.563  -8.384  1.00  0.00     0.074 A 
ATOM     57  C   UNL     1      -7.853   0.943 -10.442  1.00  0.00     0.029 A 
ATOM     58  N   UNL     1     -10.055   0.782 -10.566  1.00  0.00    -0.354 N 
ATOM     59  N   UNL     1      -9.898  -2.575  -9.123  1.00  0.00    -0.248 NA
ATOM     60  C   UNL     1     -11.391  -4.323  -9.038  1.00  0.00     0.031 C 
ATOM     61  C   UNL     1      -8.193  -0.368 -10.885  1.00  0.00     0.029 A 
ATOM     62  C   UNL     1      -9.571  -0.462 -10.925  1.00  0.00     0.049 A 
ATOM     63  H   UNL     1     -11.008   1.028 -10.567  1.00  0.00     0.167 HD
ATOM     64  C   UNL     1     -10.643  -2.516 -10.270  1.00  0.00     0.074 A 
ATOM     65  C   UNL     1     -11.548  -3.646 -10.188  1.00  0.00     0.031 C 
ATOM     66  C   UNL     1     -10.517  -1.527 -11.197  1.00  0.00     0.037 A 
BRANCH  53  67
ATOM     67  C   UNL     1      -9.066   4.250 -10.000  1.00  0.00     0.058 A 
ATOM     68  C   UNL     1      -8.009   4.463 -10.911  1.00  0.00     0.135 A 
ATOM     69  C   UNL     1      -9.738   5.418  -9.590  1.00  0.00     0.135 A 
ATOM     70  F   UNL     1      -7.333   3.440 -11.451  1.00  0.00    -0.206 F 
ATOM     71  C   UNL     1      -7.581   5.736 -11.292  1.00  0.00     0.059 A 
ATOM     72  C   UNL     1      -9.290   6.705  -9.905  1.00  0.00     0.059 A 
ATOM     73  F   UNL     1     -10.884   5.352  -8.898  1.00  0.00    -0.206 F 
ATOM     74  C   UNL     1      -8.200   6.854 -10.751  1.00  0.00     0.060 A 
BRANCH  74  75
ATOM     75  S   UNL     1      -7.552   8.487 -11.155  1.00  0.00     0.124 S 
ATOM     76  O   UNL     1      -6.129   8.335 -10.866  1.00  0.00    -0.237 OA
ATOM     77  O   UNL     1      -7.904   8.613 -12.564  1.00  0.00    -0.237 OA
ATOM     78  O   UNL     1      -8.274   9.373 -10.245  1.00  0.00    -0.744 OA
ENDBRANCH  74  75
ENDBRANCH  53  67
BRANCH  54  79
ATOM     79  C   UNL     1     -10.659  -4.425  -5.875  1.00  0.00     0.058 A 
ATOM     80  C   UNL     1     -10.007  -5.236  -4.924  1.00  0.00     0.135 A 
ATOM     81  C   UNL     1     -11.885  -3.855  -5.510  1.00  0.00     0.135 A 
ATOM     82  F   UNL     1      -8.837  -5.822  -5.231  1.00  0.00    -0.206 F 
ATOM     83  C   UNL     1     -10.456  -5.329  -3.612  1.00  0.00     0.059 A 
ATOM     84  C   UNL     1     -12.364  -3.951  -4.202  1.00  0.00     0.059 A 
ATOM     85  F   UNL     1     -12.556  -3.080  -6.375  1.00  0.00    -0.206 F 
ATOM     86  C   UNL     1     -11.600  -4.623  -3.247  1.00  0.00     0.060 A 
BRANCH  86  87
ATOM     87  S   UNL     1     -11.963  -4.460  -1.483  1.00  0.00     0.124 S 
ATOM     88  O   UNL     1     -12.091  -5.852  -1.069  1.00  0.00    -0.237 OA
ATOM     89  O   UNL     1     -10.773  -3.764  -0.994  1.00  0.00    -0.237 OA
ATOM     90  O   UNL     1     -13.194  -3.679  -1.467  1.00  0.00    -0.744 OA
ENDBRANCH  86  87
ENDBRANCH  54  79
BRANCH  66  91
ATOM     91  C   UNL     1     -11.315  -1.516 -12.458  1.00  0.00     0.058 A 
ATOM     92  C   UNL     1     -11.260  -2.588 -13.362  1.00  0.00     0.135 A 
ATOM     93  C   UNL     1     -12.055  -0.385 -12.850  1.00  0.00     0.135 A 
ATOM     94  F   UNL     1     -10.555  -3.692 -13.066  1.00  0.00    -0.206 F 
ATOM     95  C   UNL     1     -11.918  -2.548 -14.589  1.00  0.00     0.059 A 
ATOM     96  C   UNL     1     -12.692  -0.309 -14.084  1.00  0.00     0.059 A 
ATOM     97  F   UNL     1     -12.187   0.669 -12.028  1.00  0.00    -0.206 F 
ATOM     98  C   UNL     1     -12.630  -1.403 -14.942  1.00  0.00     0.060 A 
BRANCH  98  99
ATOM     99  S   UNL     1     -13.454  -1.327 -16.545  1.00  0.00     0.124 S 
ATOM    100  O   UNL     1     -12.607  -2.167 -17.386  1.00  0.00    -0.237 OA
ATOM    101  O   UNL     1     -14.766  -1.879 -16.222  1.00  0.00    -0.237 OA
ATOM    102  O   UNL     1     -13.428   0.096 -16.865  1.00  0.00    -0.744 OA
ENDBRANCH  98  99
ENDBRANCH  66  91
ENDBRANCH  40  41
ENDBRANCH  32  35
ENDBRANCH  30  31
ENDBRANCH  29  30
ENDBRANCH  28  29
ENDBRANCH   1  28
TORSDOF 19
