REMARK SMILES O=C(C[C@@H]1C[N@@H+](CCSc2ccccc2F)CCO1)NCCCCCCNC(=O)c1ccc(-c2c3nc(c(-c4c(F)cc(S(=O)(=O)[O-])cc4F)c4ccc([nH]4)c(-c4c(F)cc(S(=O)(=O)[O-])cc4F)c4nc(c(-c5c(F)cc(S(=O)(=O)[O-])cc5F)c5ccc2[nH]5)C=C4)C=C3)cc1
REMARK SMILES IDX 22 1 21 2 20 3 1 4 2 5 3 7 4 8 5 9 19 10 6 11 18 12 17 13
REMARK SMILES IDX 7 15 8 16 9 17 10 18 11 19 15 20 12 21 14 22 16 23 13 24
REMARK SMILES IDX 23 25 24 26 25 27 26 28 27 29 28 30 29 32 30 33 31 34 95 35
REMARK SMILES IDX 32 36 94 37 33 38 34 39 35 40 88 41 36 42 93 43 87 44 89 45
REMARK SMILES IDX 37 46 92 47 86 48 85 49 38 51 72 52 51 53 71 54 52 55 55 56
REMARK SMILES IDX 70 57 90 58 53 59 54 60 69 62 91 63 56 64 39 65 40 66 49 67
REMARK SMILES IDX 41 68 42 69 48 70 50 71 43 72 44 73 45 74 46 75 47 76 73 77
REMARK SMILES IDX 74 78 83 79 75 80 76 81 82 82 84 83 77 84 78 85 79 86 80 87
REMARK SMILES IDX 81 88 57 89 58 90 67 91 59 92 60 93 66 94 68 95 61 96 62 97
REMARK SMILES IDX 63 98 64 99 65 100
REMARK H PARENT 20 6 6 14 27 31 89 50 55 61
REMARK Flexibility Score: inf
ROOT
ATOM      1  C   UNL     1       2.582  -0.027   3.461  1.00  0.00     0.021 C 
ENDROOT
BRANCH   1   2
ATOM      2  C   UNL     1       2.212   0.391   2.031  1.00  0.00     0.116 C 
BRANCH   2   3
ATOM      3  N   UNL     1       2.921  -0.379   1.017  1.00  0.00    -0.356 N 
ATOM      4  O   UNL     1       1.085  -1.488   0.191  1.00  0.00    -0.275 OA
ATOM      5  C   UNL     1       2.286  -1.230   0.132  1.00  0.00     0.222 C 
ATOM      6  H   UNL     1       3.899  -0.288   0.959  1.00  0.00     0.163 HD
BRANCH   5   7
ATOM      7  C   UNL     1       3.193  -1.871  -0.932  1.00  0.00     0.138 C 
BRANCH   7   8
ATOM      8  C   UNL     1       3.540  -0.965  -2.137  1.00  0.00     0.182 C 
ATOM      9  C   UNL     1       5.105  -0.873  -2.480  1.00  0.00     0.295 C 
ATOM     10  O   UNL     1       2.841   0.251  -1.892  1.00  0.00    -0.366 OA
ATOM     11  N   UNL     1       5.779   0.445  -2.508  1.00  0.00    -0.330 N 
ATOM     12  C   UNL     1       3.580   1.402  -2.193  1.00  0.00     0.222 C 
ATOM     13  C   UNL     1       5.015   1.266  -1.624  1.00  0.00     0.291 C 
ATOM     14  H   UNL     1       6.745   0.217  -2.275  1.00  0.00     0.348 HD
BRANCH  11  15
ATOM     15  C   UNL     1       5.975   1.206  -3.754  1.00  0.00     0.273 C 
BRANCH  15  16
ATOM     16  C   UNL     1       5.517   2.750  -3.977  1.00  0.00     0.136 C 
BRANCH  16  17
ATOM     17  S   UNL     1       4.718   4.288  -3.001  1.00  0.00    -0.117 SA
BRANCH  17  18
ATOM     18  C   UNL     1       4.922   4.641  -1.226  1.00  0.00     0.043 A 
ATOM     19  C   UNL     1       4.945   6.018  -0.921  1.00  0.00     0.018 A 
ATOM     20  C   UNL     1       4.784   3.852  -0.072  1.00  0.00     0.136 A 
ATOM     21  C   UNL     1       4.981   6.511   0.406  1.00  0.00     0.001 A 
ATOM     22  C   UNL     1       5.026   4.302   1.224  1.00  0.00     0.040 A 
ATOM     23  F   UNL     1       4.173   2.671  -0.058  1.00  0.00    -0.206 F 
ATOM     24  C   UNL     1       5.096   5.646   1.481  1.00  0.00     0.003 A 
ENDBRANCH  17  18
ENDBRANCH  16  17
ENDBRANCH  15  16
ENDBRANCH  11  15
ENDBRANCH   7   8
ENDBRANCH   5   7
ENDBRANCH   2   3
ENDBRANCH   1   2
BRANCH   1  25
ATOM     25  C   UNL     1       4.038   0.255   3.858  1.00  0.00     0.002 C 
BRANCH  25  26
ATOM     26  C   UNL     1       4.379   1.738   4.007  1.00  0.00     0.002 C 
BRANCH  26  27
ATOM     27  C   UNL     1       3.748   2.480   5.183  1.00  0.00     0.021 C 
BRANCH  27  28
ATOM     28  C   UNL     1       4.053   1.909   6.560  1.00  0.00     0.116 C 
BRANCH  28  29
ATOM     29  N   UNL     1       5.469   1.962   6.900  1.00  0.00    -0.352 N 
ATOM     30  C   UNL     1       6.076   2.461   8.027  1.00  0.00     0.251 C 
ATOM     31  H   UNL     1       6.079   1.585   6.226  1.00  0.00     0.163 HD
ATOM     32  O   UNL     1       7.306   2.545   8.072  1.00  0.00    -0.269 OA
BRANCH  30  33
ATOM     33  C   UNL     1       5.260   2.930   9.170  1.00  0.00     0.039 A 
ATOM     34  C   UNL     1       5.611   4.118   9.816  1.00  0.00     0.014 A 
ATOM     35  C   UNL     1       4.135   2.215   9.591  1.00  0.00     0.014 A 
ATOM     36  C   UNL     1       4.793   4.622  10.830  1.00  0.00     0.010 A 
ATOM     37  C   UNL     1       3.267   2.772  10.525  1.00  0.00     0.010 A 
ATOM     38  C   UNL     1       3.589   3.978  11.162  1.00  0.00    -0.014 A 
BRANCH  38  39
ATOM     39  C   UNL     1       2.660   4.551  12.172  1.00  0.00     0.031 A 
ATOM     40  C   UNL     1       2.327   3.783  13.423  1.00  0.00     0.074 A 
ATOM     41  C   UNL     1       2.080   5.745  11.940  1.00  0.00     0.049 A 
ATOM     42  N   UNL     1       1.530   4.114  14.407  1.00  0.00    -0.248 NA
ATOM     43  C   UNL     1       2.948   2.458  13.577  1.00  0.00     0.031 C 
ATOM     44  C   UNL     1       2.277   6.560  10.739  1.00  0.00     0.029 A 
ATOM     45  N   UNL     1       1.213   6.487  12.704  1.00  0.00    -0.354 N 
ATOM     46  C   UNL     1       1.556   3.043  15.292  1.00  0.00     0.074 A 
ATOM     47  C   UNL     1       2.381   2.019  14.691  1.00  0.00     0.031 C 
ATOM     48  C   UNL     1       1.594   7.708  10.869  1.00  0.00     0.029 A 
ATOM     49  C   UNL     1       0.876   7.695  12.140  1.00  0.00     0.049 A 
ATOM     50  H   UNL     1       0.865   6.182  13.573  1.00  0.00     0.167 HD
ATOM     51  C   UNL     1       0.976   2.934  16.512  1.00  0.00     0.037 A 
ATOM     52  C   UNL     1       0.083   8.685  12.596  1.00  0.00     0.037 A 
ATOM     53  C   UNL     1       0.161   3.962  17.107  1.00  0.00     0.049 A 
ATOM     54  C   UNL     1      -0.569   8.539  13.941  1.00  0.00     0.074 A 
ATOM     55  C   UNL     1      -0.443   3.967  18.351  1.00  0.00     0.029 A 
ATOM     56  N   UNL     1      -0.170   5.165  16.497  1.00  0.00    -0.354 N 
ATOM     57  N   UNL     1      -0.489   7.542  14.791  1.00  0.00    -0.248 NA
ATOM     58  C   UNL     1      -1.415   9.650  14.394  1.00  0.00     0.031 C 
ATOM     59  C   UNL     1      -1.181   5.149  18.474  1.00  0.00     0.029 A 
ATOM     60  C   UNL     1      -0.990   5.909  17.330  1.00  0.00     0.049 A 
ATOM     61  H   UNL     1       0.133   5.447  15.604  1.00  0.00     0.167 HD
ATOM     62  C   UNL     1      -1.263   7.911  15.886  1.00  0.00     0.074 A 
ATOM     63  C   UNL     1      -1.785   9.232  15.598  1.00  0.00     0.031 C 
ATOM     64  C   UNL     1      -1.518   7.218  17.024  1.00  0.00     0.037 A 
BRANCH  51  65
ATOM     65  C   UNL     1       1.217   1.663  17.284  1.00  0.00     0.058 A 
ATOM     66  C   UNL     1       0.167   0.769  17.544  1.00  0.00     0.135 A 
ATOM     67  C   UNL     1       2.490   1.337  17.784  1.00  0.00     0.135 A 
ATOM     68  F   UNL     1      -1.069   1.025  17.090  1.00  0.00    -0.206 F 
ATOM     69  C   UNL     1       0.370  -0.402  18.269  1.00  0.00     0.059 A 
ATOM     70  C   UNL     1       2.722   0.155  18.482  1.00  0.00     0.059 A 
ATOM     71  F   UNL     1       3.536   2.145  17.549  1.00  0.00    -0.206 F 
ATOM     72  C   UNL     1       1.653  -0.704  18.727  1.00  0.00     0.060 A 
BRANCH  72  73
ATOM     73  S   UNL     1       1.913  -2.262  19.603  1.00  0.00     0.124 S 
ATOM     74  O   UNL     1       1.227  -2.015  20.866  1.00  0.00    -0.237 OA
ATOM     75  O   UNL     1       1.277  -3.225  18.708  1.00  0.00    -0.237 OA
ATOM     76  O   UNL     1       3.367  -2.365  19.685  1.00  0.00    -0.744 OA
ENDBRANCH  72  73
ENDBRANCH  51  65
BRANCH  52  77
ATOM     77  C   UNL     1      -0.079   9.919  11.781  1.00  0.00     0.058 A 
ATOM     78  C   UNL     1      -0.775   9.905  10.563  1.00  0.00     0.135 A 
ATOM     79  C   UNL     1       0.536  11.120  12.168  1.00  0.00     0.135 A 
ATOM     80  F   UNL     1      -1.373   8.780  10.142  1.00  0.00    -0.206 F 
ATOM     81  C   UNL     1      -0.819  11.022   9.736  1.00  0.00     0.059 A 
ATOM     82  C   UNL     1       0.485  12.259  11.370  1.00  0.00     0.059 A 
ATOM     83  F   UNL     1       1.202  11.187  13.331  1.00  0.00    -0.206 F 
ATOM     84  C   UNL     1      -0.175  12.192  10.143  1.00  0.00     0.060 A 
BRANCH  84  85
ATOM     85  S   UNL     1      -0.186  13.608   9.023  1.00  0.00     0.124 S 
ATOM     86  O   UNL     1       0.618  13.107   7.912  1.00  0.00    -0.237 OA
ATOM     87  O   UNL     1      -1.610  13.772   8.753  1.00  0.00    -0.237 OA
ATOM     88  O   UNL     1       0.430  14.670   9.812  1.00  0.00    -0.744 OA
ENDBRANCH  84  85
ENDBRANCH  52  77
BRANCH  64  89
ATOM     89  C   UNL     1      -2.402   7.872  18.052  1.00  0.00     0.058 A 
ATOM     90  C   UNL     1      -1.878   8.285  19.287  1.00  0.00     0.135 A 
ATOM     91  C   UNL     1      -3.781   8.036  17.839  1.00  0.00     0.135 A 
ATOM     92  F   UNL     1      -0.568   8.145  19.548  1.00  0.00    -0.206 F 
ATOM     93  C   UNL     1      -2.689   8.827  20.278  1.00  0.00     0.059 A 
ATOM     94  C   UNL     1      -4.606   8.606  18.805  1.00  0.00     0.059 A 
ATOM     95  F   UNL     1      -4.332   7.666  16.672  1.00  0.00    -0.206 F 
ATOM     96  C   UNL     1      -4.052   8.986  20.027  1.00  0.00     0.060 A 
BRANCH  96  97
ATOM     97  S   UNL     1      -5.082   9.724  21.312  1.00  0.00     0.124 S 
ATOM     98  O   UNL     1      -5.104   8.671  22.321  1.00  0.00    -0.237 OA
ATOM     99  O   UNL     1      -4.326  10.923  21.661  1.00  0.00    -0.237 OA
ATOM    100  O   UNL     1      -6.351   9.968  20.631  1.00  0.00    -0.744 OA
ENDBRANCH  96  97
ENDBRANCH  64  89
ENDBRANCH  38  39
ENDBRANCH  30  33
ENDBRANCH  28  29
ENDBRANCH  27  28
ENDBRANCH  26  27
ENDBRANCH  25  26
ENDBRANCH   1  25
TORSDOF 21
