REMARK SMILES CN(C)S(=O)(=O)c1c[nH]c(C(=O)NCCCCCCNC(=O)c2ccc(-c3c4nc(c(-c5c(F)cc(S(=O)(=O)[O-])cc5F)c5ccc([nH]5)c(-c5c(F)cc(S(=O)(=O)[O-])cc5F)c5nc(c(-c6c(F)cc(S(=O)(=O)[O-])cc6F)c6ccc3[nH]6)C=C5)C=C4)cc2)c1
REMARK SMILES IDX 17 1 16 2 15 3 14 4 13 5 11 6 12 7 10 9 7 10 8 11 89 12 9 13
REMARK SMILES IDX 4 15 5 16 6 17 2 18 1 19 3 20 18 21 19 22 20 23 21 24 22 26
REMARK SMILES IDX 23 27 24 28 88 29 25 30 87 31 26 32 27 33 28 34 81 35 29 36
REMARK SMILES IDX 86 37 80 38 82 39 30 40 85 41 79 42 78 43 31 45 65 46 44 47
REMARK SMILES IDX 64 48 45 49 48 50 63 51 83 52 46 53 47 54 62 56 84 57 49 58
REMARK SMILES IDX 32 59 33 60 42 61 34 62 35 63 41 64 43 65 36 66 37 67 38 68
REMARK SMILES IDX 39 69 40 70 66 71 67 72 76 73 68 74 69 75 75 76 77 77 70 78
REMARK SMILES IDX 71 79 72 80 73 81 74 82 50 83 51 84 60 85 52 86 53 87 59 88
REMARK SMILES IDX 61 89 54 90 55 91 56 92 57 93 58 94
REMARK H PARENT 13 8 9 14 20 25 82 44 48 55
REMARK Flexibility Score: inf
ROOT
ATOM      1  C   UNL     1      -2.309  -3.033   9.573  1.00  0.00     0.002 C 
ENDROOT
BRANCH   1   2
ATOM      2  C   UNL     1      -0.936  -2.344   9.574  1.00  0.00     0.002 C 
BRANCH   2   3
ATOM      3  C   UNL     1      -0.419  -1.913   8.194  1.00  0.00     0.021 C 
BRANCH   3   4
ATOM      4  C   UNL     1      -1.354  -0.947   7.467  1.00  0.00     0.116 C 
BRANCH   4   5
ATOM      5  N   UNL     1      -1.169   0.412   7.933  1.00  0.00    -0.351 N 
ATOM      6  C   UNL     1      -0.606   1.512   7.346  1.00  0.00     0.267 C 
ATOM      7  O   UNL     1      -0.689   2.575   7.967  1.00  0.00    -0.268 OA
ATOM      8  H   UNL     1      -1.513   0.575   8.841  1.00  0.00     0.163 HD
BRANCH   6   9
ATOM      9  C   UNL     1       0.007   1.468   6.034  1.00  0.00     0.105 A 
ATOM     10  C   UNL     1       0.862   1.046   3.968  1.00  0.00     0.100 A 
ATOM     11  C   UNL     1       0.790   2.412   4.122  1.00  0.00     0.104 A 
ATOM     12  C   UNL     1       0.444   0.458   5.191  1.00  0.00     0.055 A 
ATOM     13  N   UNL     1       0.315   2.652   5.383  1.00  0.00    -0.356 N 
ATOM     14  H   UNL     1       0.207   3.549   5.776  1.00  0.00     0.166 HD
BRANCH  10  15
ATOM     15  S   UNL     1       1.359   0.168   2.564  1.00  0.00     0.244 S 
ATOM     16  O   UNL     1       0.856  -1.165   2.769  1.00  0.00    -0.207 OA
ATOM     17  O   UNL     1       2.777   0.462   2.450  1.00  0.00    -0.207 OA
BRANCH  15  18
ATOM     18  N   UNL     1       0.567   0.819   1.189  1.00  0.00    -0.204 NA
ATOM     19  C   UNL     1       1.062   0.205  -0.068  1.00  0.00     0.124 C 
ATOM     20  C   UNL     1      -0.909   0.774   1.259  1.00  0.00     0.124 C 
ENDBRANCH  15  18
ENDBRANCH  10  15
ENDBRANCH   6   9
ENDBRANCH   4   5
ENDBRANCH   3   4
ENDBRANCH   2   3
ENDBRANCH   1   2
BRANCH   1  21
ATOM     21  C   UNL     1      -2.440  -4.229   8.618  1.00  0.00     0.021 C 
BRANCH  21  22
ATOM     22  C   UNL     1      -1.631  -5.448   9.062  1.00  0.00     0.116 C 
BRANCH  22  23
ATOM     23  N   UNL     1      -2.200  -6.006  10.279  1.00  0.00    -0.352 N 
ATOM     24  C   UNL     1      -1.867  -7.128  10.985  1.00  0.00     0.251 C 
ATOM     25  H   UNL     1      -2.948  -5.490  10.657  1.00  0.00     0.163 HD
ATOM     26  O   UNL     1      -2.665  -7.559  11.815  1.00  0.00    -0.269 OA
BRANCH  24  27
ATOM     27  C   UNL     1      -0.600  -7.848  10.749  1.00  0.00     0.039 A 
ATOM     28  C   UNL     1      -0.642  -9.248  10.780  1.00  0.00     0.014 A 
ATOM     29  C   UNL     1       0.622  -7.184  10.594  1.00  0.00     0.014 A 
ATOM     30  C   UNL     1       0.523  -9.983  10.593  1.00  0.00     0.010 A 
ATOM     31  C   UNL     1       1.790  -7.918  10.393  1.00  0.00     0.010 A 
ATOM     32  C   UNL     1       1.734  -9.318  10.372  1.00  0.00    -0.014 A 
BRANCH  32  33
ATOM     33  C   UNL     1       2.922 -10.118   9.993  1.00  0.00     0.031 A 
ATOM     34  C   UNL     1       2.902 -10.548   8.504  1.00  0.00     0.074 A 
ATOM     35  C   UNL     1       3.807 -10.384  10.996  1.00  0.00     0.049 A 
ATOM     36  N   UNL     1       3.405 -11.587   7.896  1.00  0.00    -0.248 NA
ATOM     37  C   UNL     1       2.100  -9.713   7.566  1.00  0.00     0.031 C 
ATOM     38  C   UNL     1       3.683  -9.923  12.396  1.00  0.00     0.029 A 
ATOM     39  N   UNL     1       4.975 -11.104  11.053  1.00  0.00    -0.354 N 
ATOM     40  C   UNL     1       3.128 -11.443   6.514  1.00  0.00     0.074 A 
ATOM     41  C   UNL     1       2.220 -10.340   6.396  1.00  0.00     0.031 C 
ATOM     42  C   UNL     1       4.664 -10.445  13.164  1.00  0.00     0.029 A 
ATOM     43  C   UNL     1       5.522 -11.280  12.350  1.00  0.00     0.049 A 
ATOM     44  H   UNL     1       5.404 -11.473  10.248  1.00  0.00     0.167 HD
ATOM     45  C   UNL     1       3.754 -12.127   5.510  1.00  0.00     0.037 A 
ATOM     46  C   UNL     1       6.539 -12.114  12.735  1.00  0.00     0.037 A 
ATOM     47  C   UNL     1       4.783 -12.986   5.998  1.00  0.00     0.049 A 
ATOM     48  C   UNL     1       6.951 -12.774  11.484  1.00  0.00     0.074 A 
ATOM     49  C   UNL     1       4.973 -14.324   6.239  1.00  0.00     0.029 A 
ATOM     50  N   UNL     1       5.962 -12.349   6.284  1.00  0.00    -0.354 N 
ATOM     51  N   UNL     1       7.657 -12.233  10.541  1.00  0.00    -0.248 NA
ATOM     52  C   UNL     1       6.297 -14.044  11.169  1.00  0.00     0.031 C 
ATOM     53  C   UNL     1       6.247 -14.435   6.862  1.00  0.00     0.029 A 
ATOM     54  C   UNL     1       6.659 -13.140   7.154  1.00  0.00     0.049 A 
ATOM     55  H   UNL     1       6.254 -11.479   5.928  1.00  0.00     0.167 HD
ATOM     56  C   UNL     1       7.351 -12.977   9.424  1.00  0.00     0.074 A 
ATOM     57  C   UNL     1       6.599 -14.138   9.880  1.00  0.00     0.031 C 
ATOM     58  C   UNL     1       7.421 -12.469   8.169  1.00  0.00     0.037 A 
BRANCH  45  59
ATOM     59  C   UNL     1       3.791 -11.883   4.007  1.00  0.00     0.058 A 
ATOM     60  C   UNL     1       4.163 -12.966   3.171  1.00  0.00     0.135 A 
ATOM     61  C   UNL     1       3.898 -10.605   3.430  1.00  0.00     0.135 A 
ATOM     62  F   UNL     1       4.014 -14.234   3.588  1.00  0.00    -0.206 F 
ATOM     63  C   UNL     1       4.767 -12.787   1.928  1.00  0.00     0.059 A 
ATOM     64  C   UNL     1       4.448 -10.407   2.156  1.00  0.00     0.059 A 
ATOM     65  F   UNL     1       3.552  -9.507   4.116  1.00  0.00    -0.206 F 
ATOM     66  C   UNL     1       4.945 -11.498   1.446  1.00  0.00     0.060 A 
BRANCH  66  67
ATOM     67  S   UNL     1       5.863 -11.274  -0.096  1.00  0.00     0.124 S 
ATOM     68  O   UNL     1       7.242 -11.433   0.351  1.00  0.00    -0.237 OA
ATOM     69  O   UNL     1       5.343 -12.353  -0.932  1.00  0.00    -0.237 OA
ATOM     70  O   UNL     1       5.482  -9.930  -0.519  1.00  0.00    -0.744 OA
ENDBRANCH  66  67
ENDBRANCH  45  59
BRANCH  46  71
ATOM     71  C   UNL     1       7.104 -12.652  14.031  1.00  0.00     0.058 A 
ATOM     72  C   UNL     1       6.905 -12.112  15.309  1.00  0.00     0.135 A 
ATOM     73  C   UNL     1       7.848 -13.867  14.023  1.00  0.00     0.135 A 
ATOM     74  F   UNL     1       6.361 -10.900  15.469  1.00  0.00    -0.206 F 
ATOM     75  C   UNL     1       7.264 -12.799  16.485  1.00  0.00     0.059 A 
ATOM     76  C   UNL     1       8.197 -14.576  15.171  1.00  0.00     0.059 A 
ATOM     77  F   UNL     1       8.241 -14.444  12.878  1.00  0.00    -0.206 F 
ATOM     78  C   UNL     1       7.868 -14.052  16.406  1.00  0.00     0.060 A 
BRANCH  78  79
ATOM     79  S   UNL     1       8.114 -15.058  17.887  1.00  0.00     0.124 S 
ATOM     80  O   UNL     1       9.392 -14.562  18.384  1.00  0.00    -0.237 OA
ATOM     81  O   UNL     1       6.944 -14.724  18.694  1.00  0.00    -0.237 OA
ATOM     82  O   UNL     1       8.127 -16.422  17.364  1.00  0.00    -0.744 OA
ENDBRANCH  78  79
ENDBRANCH  46  71
BRANCH  58  83
ATOM     83  C   UNL     1       7.861 -11.024   8.086  1.00  0.00     0.058 A 
ATOM     84  C   UNL     1       9.205 -10.653   8.041  1.00  0.00     0.135 A 
ATOM     85  C   UNL     1       6.922  -9.971   8.098  1.00  0.00     0.135 A 
ATOM     86  F   UNL     1      10.161 -11.594   8.053  1.00  0.00    -0.206 F 
ATOM     87  C   UNL     1       9.591  -9.308   7.972  1.00  0.00     0.059 A 
ATOM     88  C   UNL     1       7.272  -8.629   8.009  1.00  0.00     0.059 A 
ATOM     89  F   UNL     1       5.617 -10.240   8.167  1.00  0.00    -0.206 F 
ATOM     90  C   UNL     1       8.617  -8.303   7.945  1.00  0.00     0.060 A 
BRANCH  90  91
ATOM     91  S   UNL     1       9.119  -6.573   7.821  1.00  0.00     0.124 S 
ATOM     92  O   UNL     1       9.928  -6.398   9.023  1.00  0.00    -0.237 OA
ATOM     93  O   UNL     1       9.850  -6.557   6.558  1.00  0.00    -0.237 OA
ATOM     94  O   UNL     1       7.853  -5.844   7.816  1.00  0.00    -0.744 OA
ENDBRANCH  90  91
ENDBRANCH  58  83
ENDBRANCH  32  33
ENDBRANCH  24  27
ENDBRANCH  22  23
ENDBRANCH  21  22
ENDBRANCH   1  21
TORSDOF 18
