REMARK SMILES COC(=O)[C@H]1Sc2nnc(CCC(=O)NCCCCCCNC(=O)c3ccc(-c4c5nc(c(-c6c(F)cc(S(=O)(=O)[O-])cc6F)c6ccc([nH]6)c(-c6c(F)cc(S(=O)(=O)[O-])cc6F)c6nc(c(-c7c(F)cc(S(=O)(=O)[O-])cc7F)c7ccc4[nH]7)C=C6)C=C5)cc3)c(=O)n2N=C1C
REMARK SMILES IDX 18 1 17 2 16 3 15 4 13 5 14 6 12 8 11 9 10 10 5 11 6 12
REMARK SMILES IDX 95 13 7 14 94 15 96 16 8 17 93 18 9 19 91 20 92 21 3 22 4 23
REMARK SMILES IDX 2 24 1 25 19 26 20 27 21 28 22 29 23 30 24 32 25 33 26 34
REMARK SMILES IDX 90 35 27 36 89 37 28 38 29 39 30 40 83 41 31 42 88 43 82 44
REMARK SMILES IDX 84 45 32 46 87 47 81 48 80 49 33 51 67 52 46 53 66 54 47 55
REMARK SMILES IDX 50 56 65 57 85 58 48 59 49 60 64 62 86 63 51 64 34 65 35 66
REMARK SMILES IDX 44 67 36 68 37 69 43 70 45 71 38 72 39 73 40 74 41 75 42 76
REMARK SMILES IDX 68 77 69 78 78 79 70 80 71 81 77 82 79 83 72 84 73 85 74 86
REMARK SMILES IDX 75 87 76 88 52 89 53 90 62 91 54 92 55 93 61 94 63 95 56 96
REMARK SMILES IDX 57 97 58 98 59 99 60 100
REMARK H PARENT 15 7 22 31 84 50 50 61
REMARK Flexibility Score: inf
ROOT
ATOM      1  C   UNL     1       1.613  -6.578  -2.330  1.00  0.00     0.002 C 
ENDROOT
BRANCH   1   2
ATOM      2  C   UNL     1       0.213  -6.326  -1.743  1.00  0.00     0.021 C 
BRANCH   2   3
ATOM      3  C   UNL     1      -0.843  -7.432  -1.907  1.00  0.00     0.116 C 
BRANCH   3   4
ATOM      4  N   UNL     1      -0.632  -8.533  -0.973  1.00  0.00    -0.356 N 
ATOM      5  C   UNL     1      -1.372  -8.993   0.075  1.00  0.00     0.220 C 
ATOM      6  O   UNL     1      -0.923  -9.935   0.733  1.00  0.00    -0.275 OA
ATOM      7  H   UNL     1       0.200  -9.037  -1.129  1.00  0.00     0.163 HD
BRANCH   5   8
ATOM      8  C   UNL     1      -2.711  -8.380   0.436  1.00  0.00     0.106 C 
BRANCH   8   9
ATOM      9  C   UNL     1      -2.605  -7.410   1.608  1.00  0.00     0.074 C 
BRANCH   9  10
ATOM     10  C   UNL     1      -2.606  -5.986   1.119  1.00  0.00     0.131 A 
ATOM     11  C   UNL     1      -0.807  -1.891  -1.412  1.00  0.00     0.210 C 
ATOM     12  S   UNL     1      -2.402  -1.919  -0.572  1.00  0.00    -0.063 SA
ATOM     13  C   UNL     1       0.216  -2.693  -0.626  1.00  0.00     0.061 C 
ATOM     14  C   UNL     1      -2.442  -3.562  -0.008  1.00  0.00     0.214 A 
ATOM     15  N   UNL     1      -0.021  -3.645   0.212  1.00  0.00    -0.171 NA
ATOM     16  C   UNL     1       1.695  -2.442  -0.778  1.00  0.00     0.065 C 
ATOM     17  N   UNL     1      -3.587  -4.163   0.060  1.00  0.00    -0.123 NA
ATOM     18  N   UNL     1      -1.272  -4.113   0.439  1.00  0.00    -0.169 N 
ATOM     19  N   UNL     1      -3.650  -5.484   0.534  1.00  0.00    -0.147 NA
ATOM     20  C   UNL     1      -1.333  -5.215   1.259  1.00  0.00     0.296 A 
ATOM     21  O   UNL     1      -0.466  -5.622   2.026  1.00  0.00    -0.265 OA
BRANCH  11  22
ATOM     22  C   UNL     1      -0.907  -2.208  -2.891  1.00  0.00     0.325 C 
ATOM     23  O   UNL     1       0.070  -2.531  -3.549  1.00  0.00    -0.250 OA
BRANCH  22  24
ATOM     24  O   UNL     1      -2.121  -1.993  -3.458  1.00  0.00    -0.468 OA
ATOM     25  C   UNL     1      -2.159  -2.117  -4.890  1.00  0.00     0.282 C 
ENDBRANCH  22  24
ENDBRANCH  11  22
ENDBRANCH   9  10
ENDBRANCH   8   9
ENDBRANCH   5   8
ENDBRANCH   3   4
ENDBRANCH   2   3
ENDBRANCH   1   2
BRANCH   1  26
ATOM     26  C   UNL     1       1.826  -6.314  -3.833  1.00  0.00     0.002 C 
BRANCH  26  27
ATOM     27  C   UNL     1       1.588  -4.888  -4.387  1.00  0.00     0.021 C 
BRANCH  27  28
ATOM     28  C   UNL     1       2.591  -3.784  -3.974  1.00  0.00     0.116 C 
BRANCH  28  29
ATOM     29  N   UNL     1       3.161  -3.010  -5.080  1.00  0.00    -0.352 N 
ATOM     30  C   UNL     1       3.293  -1.653  -5.314  1.00  0.00     0.251 C 
ATOM     31  H   UNL     1       3.523  -3.570  -5.804  1.00  0.00     0.163 HD
ATOM     32  O   UNL     1       4.321  -1.288  -5.893  1.00  0.00    -0.269 OA
BRANCH  30  33
ATOM     33  C   UNL     1       2.238  -0.615  -5.105  1.00  0.00     0.039 A 
ATOM     34  C   UNL     1       1.823   0.088  -6.244  1.00  0.00     0.014 A 
ATOM     35  C   UNL     1       1.816  -0.120  -3.873  1.00  0.00     0.014 A 
ATOM     36  C   UNL     1       0.963   1.200  -6.155  1.00  0.00     0.010 A 
ATOM     37  C   UNL     1       0.883   0.950  -3.781  1.00  0.00     0.010 A 
ATOM     38  C   UNL     1       0.437   1.634  -4.925  1.00  0.00    -0.014 A 
BRANCH  38  39
ATOM     39  C   UNL     1      -0.547   2.781  -4.894  1.00  0.00     0.031 A 
ATOM     40  C   UNL     1      -0.254   4.092  -4.187  1.00  0.00     0.074 A 
ATOM     41  C   UNL     1      -1.716   2.688  -5.572  1.00  0.00     0.049 A 
ATOM     42  N   UNL     1      -0.953   5.205  -4.186  1.00  0.00    -0.248 NA
ATOM     43  C   UNL     1       0.971   4.168  -3.379  1.00  0.00     0.031 C 
ATOM     44  C   UNL     1      -2.175   1.504  -6.297  1.00  0.00     0.029 A 
ATOM     45  N   UNL     1      -2.722   3.608  -5.790  1.00  0.00    -0.354 N 
ATOM     46  C   UNL     1      -0.242   6.117  -3.409  1.00  0.00     0.074 A 
ATOM     47  C   UNL     1       0.909   5.402  -2.895  1.00  0.00     0.031 C 
ATOM     48  C   UNL     1      -3.333   1.779  -6.917  1.00  0.00     0.029 A 
ATOM     49  C   UNL     1      -3.725   3.155  -6.620  1.00  0.00     0.049 A 
ATOM     50  H   UNL     1      -2.723   4.507  -5.388  1.00  0.00     0.167 HD
ATOM     51  C   UNL     1      -0.492   7.431  -3.169  1.00  0.00     0.037 A 
ATOM     52  C   UNL     1      -4.825   3.763  -7.114  1.00  0.00     0.037 A 
ATOM     53  C   UNL     1      -1.624   8.171  -3.673  1.00  0.00     0.049 A 
ATOM     54  C   UNL     1      -5.111   5.205  -6.785  1.00  0.00     0.074 A 
ATOM     55  C   UNL     1      -1.925   9.512  -3.485  1.00  0.00     0.029 A 
ATOM     56  N   UNL     1      -2.636   7.650  -4.462  1.00  0.00    -0.354 N 
ATOM     57  N   UNL     1      -4.391   6.049  -6.089  1.00  0.00    -0.248 NA
ATOM     58  C   UNL     1      -6.358   5.779  -7.318  1.00  0.00     0.031 C 
ATOM     59  C   UNL     1      -3.136   9.792  -4.126  1.00  0.00     0.029 A 
ATOM     60  C   UNL     1      -3.569   8.636  -4.751  1.00  0.00     0.049 A 
ATOM     61  H   UNL     1      -2.687   6.717  -4.771  1.00  0.00     0.167 HD
ATOM     62  C   UNL     1      -5.081   7.258  -6.128  1.00  0.00     0.074 A 
ATOM     63  C   UNL     1      -6.269   7.042  -6.923  1.00  0.00     0.031 C 
ATOM     64  C   UNL     1      -4.750   8.439  -5.552  1.00  0.00     0.037 A 
BRANCH  51  65
ATOM     65  C   UNL     1       0.509   8.199  -2.342  1.00  0.00     0.058 A 
ATOM     66  C   UNL     1       1.755   8.567  -2.876  1.00  0.00     0.135 A 
ATOM     67  C   UNL     1       0.185   8.664  -1.057  1.00  0.00     0.135 A 
ATOM     68  F   UNL     1       2.116   8.148  -4.098  1.00  0.00    -0.206 F 
ATOM     69  C   UNL     1       2.651   9.353  -2.158  1.00  0.00     0.059 A 
ATOM     70  C   UNL     1       1.057   9.473  -0.330  1.00  0.00     0.059 A 
ATOM     71  F   UNL     1      -0.997   8.353  -0.504  1.00  0.00    -0.206 F 
ATOM     72  C   UNL     1       2.291   9.805  -0.887  1.00  0.00     0.060 A 
BRANCH  72  73
ATOM     73  S   UNL     1       3.462  10.841   0.017  1.00  0.00     0.124 S 
ATOM     74  O   UNL     1       4.518   9.882   0.328  1.00  0.00    -0.237 OA
ATOM     75  O   UNL     1       3.803  11.860  -0.970  1.00  0.00    -0.237 OA
ATOM     76  O   UNL     1       2.688  11.312   1.161  1.00  0.00    -0.744 OA
ENDBRANCH  72  73
ENDBRANCH  51  65
BRANCH  52  77
ATOM     77  C   UNL     1      -5.747   3.021  -8.021  1.00  0.00     0.058 A 
ATOM     78  C   UNL     1      -5.849   3.360  -9.379  1.00  0.00     0.135 A 
ATOM     79  C   UNL     1      -6.560   1.981  -7.545  1.00  0.00     0.135 A 
ATOM     80  F   UNL     1      -5.102   4.356  -9.879  1.00  0.00    -0.206 F 
ATOM     81  C   UNL     1      -6.737   2.710 -10.230  1.00  0.00     0.059 A 
ATOM     82  C   UNL     1      -7.438   1.298  -8.382  1.00  0.00     0.059 A 
ATOM     83  F   UNL     1      -6.494   1.611  -6.257  1.00  0.00    -0.206 F 
ATOM     84  C   UNL     1      -7.528   1.679  -9.721  1.00  0.00     0.060 A 
BRANCH  84  85
ATOM     85  S   UNL     1      -8.653   0.818 -10.841  1.00  0.00     0.124 S 
ATOM     86  O   UNL     1      -9.680   1.829 -11.061  1.00  0.00    -0.237 OA
ATOM     87  O   UNL     1      -7.787   0.528 -11.979  1.00  0.00    -0.237 OA
ATOM     88  O   UNL     1      -9.069  -0.348 -10.067  1.00  0.00    -0.744 OA
ENDBRANCH  84  85
ENDBRANCH  52  77
BRANCH  64  89
ATOM     89  C   UNL     1      -5.666   9.615  -5.769  1.00  0.00     0.058 A 
ATOM     90  C   UNL     1      -6.915   9.703  -5.135  1.00  0.00     0.135 A 
ATOM     91  C   UNL     1      -5.263  10.698  -6.569  1.00  0.00     0.135 A 
ATOM     92  F   UNL     1      -7.355   8.694  -4.366  1.00  0.00    -0.206 F 
ATOM     93  C   UNL     1      -7.737  10.816  -5.294  1.00  0.00     0.059 A 
ATOM     94  C   UNL     1      -6.059  11.832  -6.723  1.00  0.00     0.059 A 
ATOM     95  F   UNL     1      -4.076  10.671  -7.195  1.00  0.00    -0.206 F 
ATOM     96  C   UNL     1      -7.298  11.879  -6.085  1.00  0.00     0.060 A 
BRANCH  96  97
ATOM     97  S   UNL     1      -8.354  13.336  -6.240  1.00  0.00     0.124 S 
ATOM     98  O   UNL     1      -9.437  12.828  -7.076  1.00  0.00    -0.237 OA
ATOM     99  O   UNL     1      -8.705  13.615  -4.851  1.00  0.00    -0.237 OA
ATOM    100  O   UNL     1      -7.484  14.323  -6.872  1.00  0.00    -0.744 OA
ENDBRANCH  96  97
ENDBRANCH  64  89
ENDBRANCH  38  39
ENDBRANCH  30  33
ENDBRANCH  28  29
ENDBRANCH  27  28
ENDBRANCH  26  27
ENDBRANCH   1  26
TORSDOF 20
