REMARK SMILES O=C(NCCCCCCNC(=O)[C@@H]1CCCC[C@@H]1NS(=O)(=O)c1ccc2ccccc2c1)c1ccc(-c2c3nc(c(-c4c(F)cc(S(=O)(=O)[O-])cc4F)c4ccc([nH]4)c(-c4c(F)cc(S(=O)(=O)[O-])cc4F)c4nc(c(-c5c(F)cc(S(=O)(=O)[O-])cc5F)c5ccc2[nH]5)C=C4)C=C3)cc1
REMARK SMILES IDX 6 1 5 2 4 3 3 4 1 5 2 6 33 8 34 9 98 10 35 11 97 12 36 13
REMARK SMILES IDX 37 14 38 15 91 16 39 17 96 18 90 19 92 20 40 21 95 22 89 23
REMARK SMILES IDX 88 24 41 26 75 27 54 28 74 29 55 30 58 31 73 32 93 33 56 34
REMARK SMILES IDX 57 35 72 37 94 38 59 39 42 40 43 41 52 42 44 43 45 44 51 45
REMARK SMILES IDX 53 46 46 47 47 48 48 49 49 50 50 51 76 52 77 53 86 54 78 55
REMARK SMILES IDX 79 56 85 57 87 58 80 59 81 60 82 61 83 62 84 63 60 64 61 65
REMARK SMILES IDX 70 66 62 67 63 68 69 69 71 70 64 71 65 72 66 73 67 74 68 75
REMARK SMILES IDX 7 76 8 77 9 78 10 79 11 80 12 82 13 83 14 84 18 85 15 86
REMARK SMILES IDX 17 87 16 88 19 89 20 91 21 92 22 93 23 94 24 95 32 96 25 97
REMARK SMILES IDX 31 98 26 99 30 100 27 101 29 102 28 103
REMARK H PARENT 3 7 92 25 58 36 10 81 19 90
REMARK Flexibility Score: inf
ROOT
ATOM      1  C   UNL     1       3.936   2.642   2.859  1.00  0.00     0.002 C 
ENDROOT
BRANCH   1   2
ATOM      2  C   UNL     1       4.421   2.412   1.425  1.00  0.00     0.021 C 
BRANCH   2   3
ATOM      3  C   UNL     1       4.281   0.980   0.916  1.00  0.00     0.116 C 
BRANCH   3   4
ATOM      4  N   UNL     1       2.894   0.559   0.852  1.00  0.00    -0.352 N 
ATOM      5  O   UNL     1       1.012  -0.198  -0.119  1.00  0.00    -0.269 OA
ATOM      6  C   UNL     1       2.232  -0.077  -0.168  1.00  0.00     0.251 C 
ATOM      7  H   UNL     1       2.354   0.756   1.650  1.00  0.00     0.163 HD
BRANCH   6   8
ATOM      8  C   UNL     1       2.984  -0.601  -1.330  1.00  0.00     0.039 A 
ATOM      9  C   UNL     1       4.152  -1.351  -1.155  1.00  0.00     0.014 A 
ATOM     10  C   UNL     1       2.473  -0.386  -2.613  1.00  0.00     0.014 A 
ATOM     11  C   UNL     1       4.845  -1.827  -2.267  1.00  0.00     0.010 A 
ATOM     12  C   UNL     1       3.143  -0.902  -3.724  1.00  0.00     0.010 A 
ATOM     13  C   UNL     1       4.336  -1.621  -3.560  1.00  0.00    -0.014 A 
BRANCH  13  14
ATOM     14  C   UNL     1       5.000  -2.253  -4.726  1.00  0.00     0.031 A 
ATOM     15  C   UNL     1       5.720  -1.426  -5.752  1.00  0.00     0.074 A 
ATOM     16  C   UNL     1       4.917  -3.590  -4.864  1.00  0.00     0.049 A 
ATOM     17  N   UNL     1       6.323  -1.818  -6.844  1.00  0.00    -0.248 NA
ATOM     18  C   UNL     1       5.763   0.027  -5.529  1.00  0.00     0.031 C 
ATOM     19  C   UNL     1       4.214  -4.489  -3.945  1.00  0.00     0.029 A 
ATOM     20  N   UNL     1       5.415  -4.426  -5.831  1.00  0.00    -0.354 N 
ATOM     21  C   UNL     1       6.800  -0.665  -7.452  1.00  0.00     0.074 A 
ATOM     22  C   UNL     1       6.409   0.447  -6.610  1.00  0.00     0.031 C 
ATOM     23  C   UNL     1       4.332  -5.750  -4.388  1.00  0.00     0.029 A 
ATOM     24  C   UNL     1       5.082  -5.745  -5.639  1.00  0.00     0.049 A 
ATOM     25  H   UNL     1       5.958  -4.111  -6.589  1.00  0.00     0.167 HD
ATOM     26  C   UNL     1       7.504  -0.549  -8.603  1.00  0.00     0.037 A 
ATOM     27  C   UNL     1       5.330  -6.829  -6.397  1.00  0.00     0.037 A 
ATOM     28  C   UNL     1       7.912  -1.663  -9.419  1.00  0.00     0.049 A 
ATOM     29  C   UNL     1       6.101  -6.669  -7.674  1.00  0.00     0.074 A 
ATOM     30  C   UNL     1       8.711  -1.654 -10.550  1.00  0.00     0.029 A 
ATOM     31  N   UNL     1       7.543  -2.982  -9.202  1.00  0.00    -0.354 N 
ATOM     32  N   UNL     1       6.608  -5.578  -8.194  1.00  0.00    -0.248 NA
ATOM     33  C   UNL     1       6.325  -7.882  -8.472  1.00  0.00     0.031 C 
ATOM     34  C   UNL     1       8.795  -2.964 -11.037  1.00  0.00     0.029 A 
ATOM     35  C   UNL     1       8.069  -3.791 -10.196  1.00  0.00     0.049 A 
ATOM     36  H   UNL     1       6.988  -3.297  -8.453  1.00  0.00     0.167 HD
ATOM     37  C   UNL     1       7.209  -5.971  -9.383  1.00  0.00     0.074 A 
ATOM     38  C   UNL     1       7.020  -7.403  -9.495  1.00  0.00     0.031 C 
ATOM     39  C   UNL     1       7.856  -5.212 -10.300  1.00  0.00     0.037 A 
BRANCH  26  40
ATOM     40  C   UNL     1       7.880   0.830  -9.060  1.00  0.00     0.058 A 
ATOM     41  C   UNL     1       8.951   1.527  -8.484  1.00  0.00     0.135 A 
ATOM     42  C   UNL     1       7.201   1.433 -10.131  1.00  0.00     0.135 A 
ATOM     43  F   UNL     1       9.624   0.999  -7.449  1.00  0.00    -0.206 F 
ATOM     44  C   UNL     1       9.332   2.783  -8.947  1.00  0.00     0.059 A 
ATOM     45  C   UNL     1       7.574   2.682 -10.620  1.00  0.00     0.059 A 
ATOM     46  F   UNL     1       6.167   0.806 -10.714  1.00  0.00    -0.206 F 
ATOM     47  C   UNL     1       8.636   3.353 -10.015  1.00  0.00     0.060 A 
BRANCH  47  48
ATOM     48  S   UNL     1       9.151   4.976 -10.618  1.00  0.00     0.124 S 
ATOM     49  O   UNL     1       8.590   5.855  -9.596  1.00  0.00    -0.237 OA
ATOM     50  O   UNL     1      10.606   4.862 -10.625  1.00  0.00    -0.237 OA
ATOM     51  O   UNL     1       8.526   5.063 -11.934  1.00  0.00    -0.744 OA
ENDBRANCH  47  48
ENDBRANCH  26  40
BRANCH  27  52
ATOM     52  C   UNL     1       4.815  -8.153  -5.972  1.00  0.00     0.058 A 
ATOM     53  C   UNL     1       5.672  -9.123  -5.435  1.00  0.00     0.135 A 
ATOM     54  C   UNL     1       3.448  -8.456  -6.058  1.00  0.00     0.135 A 
ATOM     55  F   UNL     1       6.987  -8.875  -5.337  1.00  0.00    -0.206 F 
ATOM     56  C   UNL     1       5.193 -10.353  -4.999  1.00  0.00     0.059 A 
ATOM     57  C   UNL     1       2.942  -9.672  -5.612  1.00  0.00     0.059 A 
ATOM     58  F   UNL     1       2.588  -7.551  -6.551  1.00  0.00    -0.206 F 
ATOM     59  C   UNL     1       3.825 -10.618  -5.090  1.00  0.00     0.060 A 
BRANCH  59  60
ATOM     60  S   UNL     1       3.191 -12.188  -4.461  1.00  0.00     0.124 S 
ATOM     61  O   UNL     1       3.450 -13.078  -5.586  1.00  0.00    -0.237 OA
ATOM     62  O   UNL     1       4.012 -12.404  -3.273  1.00  0.00    -0.237 OA
ATOM     63  O   UNL     1       1.786 -11.893  -4.194  1.00  0.00    -0.744 OA
ENDBRANCH  59  60
ENDBRANCH  27  52
BRANCH  39  64
ATOM     64  C   UNL     1       8.395  -5.915 -11.509  1.00  0.00     0.058 A 
ATOM     65  C   UNL     1       7.553  -6.270 -12.574  1.00  0.00     0.135 A 
ATOM     66  C   UNL     1       9.764  -6.196 -11.626  1.00  0.00     0.135 A 
ATOM     67  F   UNL     1       6.234  -6.030 -12.502  1.00  0.00    -0.206 F 
ATOM     68  C   UNL     1       8.051  -6.891 -13.714  1.00  0.00     0.059 A 
ATOM     69  C   UNL     1      10.286  -6.802 -12.764  1.00  0.00     0.059 A 
ATOM     70  F   UNL     1      10.608  -5.870 -10.634  1.00  0.00    -0.206 F 
ATOM     71  C   UNL     1       9.420  -7.154 -13.799  1.00  0.00     0.060 A 
BRANCH  71  72
ATOM     72  S   UNL     1      10.067  -7.923 -15.299  1.00  0.00     0.124 S 
ATOM     73  O   UNL     1       9.740  -9.327 -15.072  1.00  0.00    -0.237 OA
ATOM     74  O   UNL     1       9.307  -7.257 -16.352  1.00  0.00    -0.237 OA
ATOM     75  O   UNL     1      11.489  -7.593 -15.258  1.00  0.00    -0.744 OA
ENDBRANCH  71  72
ENDBRANCH  39  64
ENDBRANCH  13  14
ENDBRANCH   6   8
ENDBRANCH   3   4
ENDBRANCH   2   3
ENDBRANCH   1   2
BRANCH   1  76
ATOM     76  C   UNL     1       4.593   1.763   3.930  1.00  0.00     0.002 C 
BRANCH  76  77
ATOM     77  C   UNL     1       6.125   1.763   3.929  1.00  0.00     0.021 C 
BRANCH  77  78
ATOM     78  C   UNL     1       6.751   3.146   4.078  1.00  0.00     0.116 C 
BRANCH  78  79
ATOM     79  N   UNL     1       6.565   3.680   5.418  1.00  0.00    -0.356 N 
ATOM     80  C   UNL     1       7.494   4.180   6.289  1.00  0.00     0.224 C 
ATOM     81  H   UNL     1       5.637   3.682   5.746  1.00  0.00     0.163 HD
ATOM     82  O   UNL     1       7.097   4.755   7.302  1.00  0.00    -0.275 OA
BRANCH  80  83
ATOM     83  C   UNL     1       8.965   4.082   5.915  1.00  0.00     0.096 C 
ATOM     84  C   UNL     1       9.535   2.660   5.882  1.00  0.00     0.015 C 
ATOM     85  C   UNL     1       9.870   5.084   6.638  1.00  0.00     0.082 C 
ATOM     86  C   UNL     1      10.903   2.662   5.207  1.00  0.00     0.001 C 
ATOM     87  C   UNL     1      11.309   5.018   6.108  1.00  0.00     0.021 C 
ATOM     88  C   UNL     1      11.868   3.611   5.904  1.00  0.00     0.002 C 
BRANCH  85  89
ATOM     89  N   UNL     1       9.763   5.245   8.108  1.00  0.00    -0.207 NA
ATOM     90  H   UNL     1       8.811   5.584   8.249  1.00  0.00     0.141 HD
BRANCH  89  91
ATOM     91  S   UNL     1       9.986   4.140   9.347  1.00  0.00     0.240 S 
ATOM     92  O   UNL     1       9.654   4.843  10.567  1.00  0.00    -0.207 OA
ATOM     93  O   UNL     1       9.330   2.899   9.005  1.00  0.00    -0.207 OA
BRANCH  91  94
ATOM     94  C   UNL     1      11.733   3.866   9.406  1.00  0.00     0.083 A 
ATOM     95  C   UNL     1      12.222   2.559   9.455  1.00  0.00     0.022 A 
ATOM     96  C   UNL     1      12.598   4.952   9.259  1.00  0.00     0.030 A 
ATOM     97  C   UNL     1      13.585   2.333   9.258  1.00  0.00     0.010 A 
ATOM     98  C   UNL     1      13.958   4.730   9.011  1.00  0.00    -0.017 A 
ATOM     99  C   UNL     1      14.455   3.404   8.991  1.00  0.00    -0.018 A 
ATOM    100  C   UNL     1      14.821   5.796   8.718  1.00  0.00     0.009 A 
ATOM    101  C   UNL     1      15.801   3.184   8.661  1.00  0.00     0.009 A 
ATOM    102  C   UNL     1      16.153   5.558   8.378  1.00  0.00     0.001 A 
ATOM    103  C   UNL     1      16.641   4.254   8.345  1.00  0.00     0.001 A 
ENDBRANCH  91  94
ENDBRANCH  89  91
ENDBRANCH  85  89
ENDBRANCH  80  83
ENDBRANCH  78  79
ENDBRANCH  77  78
ENDBRANCH  76  77
ENDBRANCH   1  76
TORSDOF 19
