REMARK SMILES C[C@@H]1[C@@H](C(=O)NCCCCCCNC(=O)c2ccc(-c3c4nc(c(-c5c(F)cc(S(=O)(=O)[O-])cc5F)c5ccc([nH]5)c(-c5c(F)cc(S(=O)(=O)[O-])cc5F)c5nc(c(-c6c(F)cc(S(=O)(=O)[O-])cc6F)c6ccc3[nH]6)C=C5)C=C4)cc2)CCN1C(=O)[C@]1([NH3+])CCOC1
REMARK SMILES IDX 9 1 8 2 7 3 6 4 4 5 5 6 3 8 1 9 2 10 84 11 82 12 83 13 85 14
REMARK SMILES IDX 86 15 87 16 89 17 92 18 90 19 91 20 88 21 10 25 11 26 12 27
REMARK SMILES IDX 13 28 14 29 15 31 16 32 17 33 81 34 18 35 80 36 19 37 20 38
REMARK SMILES IDX 21 39 74 40 22 41 79 42 73 43 75 44 23 45 78 46 72 47 71 48
REMARK SMILES IDX 24 50 58 51 37 52 57 53 38 54 41 55 56 56 76 57 39 58 40 59
REMARK SMILES IDX 55 61 77 62 42 63 25 64 26 65 35 66 27 67 28 68 34 69 36 70
REMARK SMILES IDX 29 71 30 72 31 73 32 74 33 75 59 76 60 77 69 78 61 79 62 80
REMARK SMILES IDX 68 81 70 82 63 83 64 84 65 85 66 86 67 87 43 88 44 89 53 90
REMARK SMILES IDX 45 91 46 92 52 93 54 94 47 95 48 96 49 97 50 98 51 99
REMARK H PARENT 6 7 88 22 88 23 88 24 13 30 75 49 41 60
REMARK Flexibility Score: inf
ROOT
ATOM      1  C   UNL     1       7.741  -4.067   1.476  1.00  0.00     0.002 C 
ENDROOT
BRANCH   1   2
ATOM      2  C   UNL     1       7.115  -3.823   0.095  1.00  0.00     0.021 C 
BRANCH   2   3
ATOM      3  C   UNL     1       6.958  -5.074  -0.768  1.00  0.00     0.116 C 
BRANCH   3   4
ATOM      4  N   UNL     1       6.092  -6.048  -0.129  1.00  0.00    -0.356 N 
ATOM      5  C   UNL     1       4.988  -6.689  -0.598  1.00  0.00     0.225 C 
ATOM      6  O   UNL     1       4.421  -7.482   0.154  1.00  0.00    -0.275 OA
ATOM      7  H   UNL     1       6.344  -6.281   0.794  1.00  0.00     0.163 HD
BRANCH   5   8
ATOM      8  C   UNL     1       4.534  -6.450  -2.030  1.00  0.00     0.102 C 
ATOM      9  C   UNL     1       3.993  -4.638  -3.670  1.00  0.00     0.032 C 
ATOM     10  C   UNL     1       3.825  -5.094  -2.214  1.00  0.00     0.094 C 
ATOM     11  N   UNL     1       2.416  -5.369  -1.907  1.00  0.00    -0.334 N 
ATOM     12  C   UNL     1       3.451  -7.450  -2.449  1.00  0.00     0.037 C 
ATOM     13  C   UNL     1       2.163  -6.807  -1.956  1.00  0.00     0.121 C 
BRANCH  11  14
ATOM     14  C   UNL     1       1.395  -4.551  -1.471  1.00  0.00     0.286 C 
ATOM     15  O   UNL     1       0.263  -5.048  -1.325  1.00  0.00    -0.267 OA
BRANCH  14  16
ATOM     16  C   UNL     1       1.567  -3.029  -1.097  1.00  0.00     0.199 C 
ATOM     17  C   UNL     1       1.916  -2.103  -2.244  1.00  0.00     0.110 C 
ATOM     18  C   UNL     1       2.659  -2.780  -0.062  1.00  0.00     0.239 C 
ATOM     19  C   UNL     1       3.341  -1.657  -1.992  1.00  0.00     0.167 C 
ATOM     20  O   UNL     1       3.765  -2.142  -0.720  1.00  0.00    -0.374 OA
BRANCH  16  21
ATOM     21  N   UNL     1       0.243  -2.577  -0.545  1.00  0.00    -0.343 N 
ATOM     22  H   UNL     1       0.301  -1.592  -0.286  1.00  0.00     0.345 HD
ATOM     23  H   UNL     1       0.010  -3.132   0.279  1.00  0.00     0.345 HD
ATOM     24  H   UNL     1      -0.481  -2.700  -1.253  1.00  0.00     0.345 HD
ENDBRANCH  16  21
ENDBRANCH  14  16
ENDBRANCH  11  14
ENDBRANCH   5   8
ENDBRANCH   3   4
ENDBRANCH   2   3
ENDBRANCH   1   2
BRANCH   1  25
ATOM     25  C   UNL     1       9.127  -4.718   1.464  1.00  0.00     0.002 C 
BRANCH  25  26
ATOM     26  C   UNL     1      10.199  -3.959   0.678  1.00  0.00     0.021 C 
BRANCH  26  27
ATOM     27  C   UNL     1      10.435  -2.519   1.127  1.00  0.00     0.116 C 
BRANCH  27  28
ATOM     28  N   UNL     1      10.900  -2.435   2.501  1.00  0.00    -0.352 N 
ATOM     29  C   UNL     1      11.964  -1.744   3.027  1.00  0.00     0.251 C 
ATOM     30  H   UNL     1      10.374  -2.952   3.154  1.00  0.00     0.163 HD
ATOM     31  O   UNL     1      12.293  -1.938   4.194  1.00  0.00    -0.269 OA
BRANCH  29  32
ATOM     32  C   UNL     1      12.729  -0.788   2.193  1.00  0.00     0.039 A 
ATOM     33  C   UNL     1      14.122  -0.764   2.308  1.00  0.00     0.014 A 
ATOM     34  C   UNL     1      12.087   0.102   1.327  1.00  0.00     0.014 A 
ATOM     35  C   UNL     1      14.871   0.115   1.522  1.00  0.00     0.010 A 
ATOM     36  C   UNL     1      12.839   0.928   0.492  1.00  0.00     0.010 A 
ATOM     37  C   UNL     1      14.239   0.950   0.586  1.00  0.00    -0.014 A 
BRANCH  37  38
ATOM     38  C   UNL     1      15.032   1.853  -0.289  1.00  0.00     0.031 A 
ATOM     39  C   UNL     1      14.892   3.348  -0.170  1.00  0.00     0.074 A 
ATOM     40  C   UNL     1      15.852   1.326  -1.221  1.00  0.00     0.049 A 
ATOM     41  N   UNL     1      15.481   4.290  -0.861  1.00  0.00    -0.248 NA
ATOM     42  C   UNL     1      13.948   3.849   0.842  1.00  0.00     0.031 C 
ATOM     43  C   UNL     1      16.038  -0.105  -1.470  1.00  0.00     0.029 A 
ATOM     44  N   UNL     1      16.680   1.931  -2.134  1.00  0.00    -0.354 N 
ATOM     45  C   UNL     1      14.977   5.491  -0.374  1.00  0.00     0.074 A 
ATOM     46  C   UNL     1      13.992   5.157   0.631  1.00  0.00     0.031 C 
ATOM     47  C   UNL     1      16.943  -0.268  -2.449  1.00  0.00     0.029 A 
ATOM     48  C   UNL     1      17.376   1.044  -2.921  1.00  0.00     0.049 A 
ATOM     49  H   UNL     1      16.767   2.908  -2.217  1.00  0.00     0.167 HD
ATOM     50  C   UNL     1      15.321   6.756  -0.716  1.00  0.00     0.037 A 
ATOM     51  C   UNL     1      18.262   1.261  -3.913  1.00  0.00     0.037 A 
ATOM     52  C   UNL     1      16.320   7.084  -1.700  1.00  0.00     0.049 A 
ATOM     53  C   UNL     1      18.628   2.675  -4.274  1.00  0.00     0.074 A 
ATOM     54  C   UNL     1      16.782   8.334  -2.074  1.00  0.00     0.029 A 
ATOM     55  N   UNL     1      17.011   6.158  -2.467  1.00  0.00    -0.354 N 
ATOM     56  N   UNL     1      18.190   3.798  -3.755  1.00  0.00    -0.248 NA
ATOM     57  C   UNL     1      19.615   2.853  -5.348  1.00  0.00     0.031 C 
ATOM     58  C   UNL     1      17.720   8.167  -3.098  1.00  0.00     0.029 A 
ATOM     59  C   UNL     1      17.879   6.810  -3.329  1.00  0.00     0.049 A 
ATOM     60  H   UNL     1      16.901   5.182  -2.409  1.00  0.00     0.167 HD
ATOM     61  C   UNL     1      18.864   4.814  -4.424  1.00  0.00     0.074 A 
ATOM     62  C   UNL     1      19.751   4.172  -5.372  1.00  0.00     0.031 C 
ATOM     63  C   UNL     1      18.758   6.157  -4.268  1.00  0.00     0.037 A 
BRANCH  50  64
ATOM     64  C   UNL     1      14.615   7.885  -0.012  1.00  0.00     0.058 A 
ATOM     65  C   UNL     1      14.850   8.169   1.343  1.00  0.00     0.135 A 
ATOM     66  C   UNL     1      13.723   8.716  -0.709  1.00  0.00     0.135 A 
ATOM     67  F   UNL     1      15.683   7.399   2.061  1.00  0.00    -0.206 F 
ATOM     68  C   UNL     1      14.204   9.217   1.990  1.00  0.00     0.059 A 
ATOM     69  C   UNL     1      13.086   9.788  -0.089  1.00  0.00     0.059 A 
ATOM     70  F   UNL     1      13.462   8.491  -2.006  1.00  0.00    -0.206 F 
ATOM     71  C   UNL     1      13.322  10.021   1.265  1.00  0.00     0.060 A 
BRANCH  71  72
ATOM     72  S   UNL     1      12.495  11.379   2.119  1.00  0.00     0.124 S 
ATOM     73  O   UNL     1      11.525  10.659   2.939  1.00  0.00    -0.237 OA
ATOM     74  O   UNL     1      13.594  12.008   2.845  1.00  0.00    -0.237 OA
ATOM     75  O   UNL     1      11.931  12.172   1.031  1.00  0.00    -0.744 OA
ENDBRANCH  71  72
ENDBRANCH  50  64
BRANCH  51  76
ATOM     76  C   UNL     1      18.882   0.109  -4.622  1.00  0.00     0.058 A 
ATOM     77  C   UNL     1      20.238  -0.202  -4.444  1.00  0.00     0.135 A 
ATOM     78  C   UNL     1      18.131  -0.707  -5.481  1.00  0.00     0.135 A 
ATOM     79  F   UNL     1      20.999   0.553  -3.637  1.00  0.00    -0.206 F 
ATOM     80  C   UNL     1      20.834  -1.271  -5.106  1.00  0.00     0.059 A 
ATOM     81  C   UNL     1      18.698  -1.796  -6.135  1.00  0.00     0.059 A 
ATOM     82  F   UNL     1      16.826  -0.462  -5.673  1.00  0.00    -0.206 F 
ATOM     83  C   UNL     1      20.054  -2.064  -5.950  1.00  0.00     0.060 A 
BRANCH  83  84
ATOM     84  S   UNL     1      20.825  -3.476  -6.770  1.00  0.00     0.124 S 
ATOM     85  O   UNL     1      21.627  -2.818  -7.794  1.00  0.00    -0.237 OA
ATOM     86  O   UNL     1      21.566  -4.098  -5.677  1.00  0.00    -0.237 OA
ATOM     87  O   UNL     1      19.682  -4.244  -7.258  1.00  0.00    -0.744 OA
ENDBRANCH  83  84
ENDBRANCH  51  76
BRANCH  63  88
ATOM     88  C   UNL     1      19.639   7.024  -5.124  1.00  0.00     0.058 A 
ATOM     89  C   UNL     1      19.402   7.187  -6.497  1.00  0.00     0.135 A 
ATOM     90  C   UNL     1      20.708   7.736  -4.554  1.00  0.00     0.135 A 
ATOM     91  F   UNL     1      18.397   6.525  -7.093  1.00  0.00    -0.206 F 
ATOM     92  C   UNL     1      20.209   8.004  -7.282  1.00  0.00     0.059 A 
ATOM     93  C   UNL     1      21.511   8.580  -5.314  1.00  0.00     0.059 A 
ATOM     94  F   UNL     1      20.972   7.624  -3.242  1.00  0.00    -0.206 F 
ATOM     95  C   UNL     1      21.262   8.697  -6.681  1.00  0.00     0.060 A 
BRANCH  95  96
ATOM     96  S   UNL     1      22.285   9.776  -7.705  1.00  0.00     0.124 S 
ATOM     97  O   UNL     1      23.087   8.806  -8.443  1.00  0.00    -0.237 OA
ATOM     98  O   UNL     1      21.289  10.501  -8.488  1.00  0.00    -0.237 OA
ATOM     99  O   UNL     1      23.013  10.581  -6.729  1.00  0.00    -0.744 OA
ENDBRANCH  95  96
ENDBRANCH  63  88
ENDBRANCH  37  38
ENDBRANCH  29  32
ENDBRANCH  27  28
ENDBRANCH  26  27
ENDBRANCH  25  26
ENDBRANCH   1  25
TORSDOF 19
