REMARK SMILES Cc1ccc(Oc2cc(C(=O)NCCCCCCNC(=O)c3ccc(-c4c5nc(c(-c6c(F)cc(S(=O)(=O)[O-])cc6F)c6ccc([nH]6)c(-c6c(F)cc(S(=O)(=O)[O-])cc6F)c6nc(c(-c7c(F)cc(S(=O)(=O)[O-])cc7F)c7ccc4[nH]7)C=C6)C=C5)cc3)nc3ccccc23)cc1
REMARK SMILES IDX 16 1 15 2 14 3 13 4 12 5 10 6 11 7 9 9 7 10 8 11 94 12 89 13
REMARK SMILES IDX 93 14 88 15 90 16 92 17 91 18 6 19 5 20 1 21 2 22 3 23 96 24
REMARK SMILES IDX 4 25 95 26 17 27 18 28 19 29 20 30 21 32 22 33 23 34 87 35
REMARK SMILES IDX 24 36 86 37 25 38 26 39 27 40 80 41 28 42 85 43 79 44 81 45
REMARK SMILES IDX 29 46 84 47 78 48 77 49 30 51 64 52 43 53 63 54 44 55 47 56
REMARK SMILES IDX 62 57 82 58 45 59 46 60 61 62 83 63 48 64 31 65 32 66 41 67
REMARK SMILES IDX 33 68 34 69 40 70 42 71 35 72 36 73 37 74 38 75 39 76 65 77
REMARK SMILES IDX 66 78 75 79 67 80 68 81 74 82 76 83 69 84 70 85 71 86 72 87
REMARK SMILES IDX 73 88 49 89 50 90 59 91 51 92 52 93 58 94 60 95 53 96 54 97
REMARK SMILES IDX 55 98 56 99 57 100
REMARK H PARENT 12 8 19 31 81 50 47 61
REMARK Flexibility Score: inf
ROOT
ATOM      1  C   UNL     1      -9.026   7.535   2.019  1.00  0.00     0.002 C 
ENDROOT
BRANCH   1   2
ATOM      2  C   UNL     1      -9.447   6.235   1.313  1.00  0.00     0.002 C 
BRANCH   2   3
ATOM      3  C   UNL     1      -8.389   5.549   0.438  1.00  0.00     0.021 C 
BRANCH   3   4
ATOM      4  C   UNL     1      -7.029   5.334   1.105  1.00  0.00     0.116 C 
BRANCH   4   5
ATOM      5  N   UNL     1      -7.010   4.158   1.960  1.00  0.00    -0.351 N 
ATOM      6  C   UNL     1      -6.299   2.980   1.890  1.00  0.00     0.270 C 
ATOM      7  O   UNL     1      -6.435   2.177   2.818  1.00  0.00    -0.268 OA
ATOM      8  H   UNL     1      -7.619   4.214   2.732  1.00  0.00     0.163 HD
BRANCH   6   9
ATOM      9  C   UNL     1      -5.366   2.630   0.764  1.00  0.00     0.132 A 
ATOM     10  C   UNL     1      -3.770   1.147  -0.197  1.00  0.00     0.139 A 
ATOM     11  C   UNL     1      -4.646   1.450   0.841  1.00  0.00     0.082 A 
ATOM     12  C   UNL     1      -3.666   1.986  -1.328  1.00  0.00     0.043 A 
ATOM     13  C   UNL     1      -4.422   3.172  -1.292  1.00  0.00     0.075 A 
ATOM     14  C   UNL     1      -2.855   1.725  -2.460  1.00  0.00     0.014 A 
ATOM     15  N   UNL     1      -5.246   3.480  -0.280  1.00  0.00    -0.242 NA
ATOM     16  C   UNL     1      -4.306   4.074  -2.340  1.00  0.00     0.029 A 
ATOM     17  C   UNL     1      -2.754   2.647  -3.500  1.00  0.00     0.001 A 
ATOM     18  C   UNL     1      -3.474   3.831  -3.435  1.00  0.00     0.002 A 
BRANCH  10  19
ATOM     19  O   UNL     1      -3.064  -0.031  -0.067  1.00  0.00    -0.457 OA
BRANCH  19  20
ATOM     20  C   UNL     1      -1.690   0.031   0.055  1.00  0.00     0.127 A 
ATOM     21  C   UNL     1       2.617  -0.120   0.098  1.00  0.00     0.044 C 
ATOM     22  C   UNL     1       1.118  -0.066   0.108  1.00  0.00    -0.051 A 
ATOM     23  C   UNL     1       0.372  -1.233  -0.094  1.00  0.00     0.007 A 
ATOM     24  C   UNL     1       0.445   1.139   0.335  1.00  0.00     0.007 A 
ATOM     25  C   UNL     1      -1.023  -1.183  -0.122  1.00  0.00     0.047 A 
ATOM     26  C   UNL     1      -0.952   1.187   0.322  1.00  0.00     0.047 A 
ENDBRANCH  19  20
ENDBRANCH  10  19
ENDBRANCH   6   9
ENDBRANCH   4   5
ENDBRANCH   3   4
ENDBRANCH   2   3
ENDBRANCH   1   2
BRANCH   1  27
ATOM     27  C   UNL     1      -8.352   8.599   1.149  1.00  0.00     0.021 C 
BRANCH  27  28
ATOM     28  C   UNL     1      -9.314   9.364   0.244  1.00  0.00     0.116 C 
BRANCH  28  29
ATOM     29  N   UNL     1      -9.404  10.786   0.581  1.00  0.00    -0.352 N 
ATOM     30  C   UNL     1      -9.930  11.812  -0.182  1.00  0.00     0.251 C 
ATOM     31  H   UNL     1      -9.046  11.043   1.461  1.00  0.00     0.163 HD
ATOM     32  O   UNL     1      -9.906  12.992   0.144  1.00  0.00    -0.269 OA
BRANCH  30  33
ATOM     33  C   UNL     1     -10.647  11.407  -1.402  1.00  0.00     0.039 A 
ATOM     34  C   UNL     1     -12.039  11.324  -1.306  1.00  0.00     0.014 A 
ATOM     35  C   UNL     1      -9.935  10.759  -2.409  1.00  0.00     0.014 A 
ATOM     36  C   UNL     1     -12.704  10.395  -2.092  1.00  0.00     0.010 A 
ATOM     37  C   UNL     1     -10.589   9.783  -3.139  1.00  0.00     0.010 A 
ATOM     38  C   UNL     1     -11.953   9.553  -2.919  1.00  0.00    -0.014 A 
BRANCH  38  39
ATOM     39  C   UNL     1     -12.519   8.311  -3.433  1.00  0.00     0.031 A 
ATOM     40  C   UNL     1     -12.963   8.229  -4.835  1.00  0.00     0.074 A 
ATOM     41  C   UNL     1     -12.753   7.275  -2.597  1.00  0.00     0.049 A 
ATOM     42  N   UNL     1     -14.045   7.635  -5.213  1.00  0.00    -0.248 NA
ATOM     43  C   UNL     1     -12.230   8.867  -5.921  1.00  0.00     0.031 C 
ATOM     44  C   UNL     1     -13.246   5.950  -2.957  1.00  0.00     0.029 A 
ATOM     45  N   UNL     1     -12.805   7.302  -1.204  1.00  0.00    -0.354 N 
ATOM     46  C   UNL     1     -14.026   7.591  -6.586  1.00  0.00     0.074 A 
ATOM     47  C   UNL     1     -12.919   8.436  -6.982  1.00  0.00     0.031 C 
ATOM     48  C   UNL     1     -13.783   5.381  -1.866  1.00  0.00     0.029 A 
ATOM     49  C   UNL     1     -13.747   6.354  -0.785  1.00  0.00     0.049 A 
ATOM     50  H   UNL     1     -12.273   7.886  -0.616  1.00  0.00     0.167 HD
ATOM     51  C   UNL     1     -14.836   6.728  -7.263  1.00  0.00     0.037 A 
ATOM     52  C   UNL     1     -14.817   6.712  -0.021  1.00  0.00     0.037 A 
ATOM     53  C   UNL     1     -15.633   5.912  -6.351  1.00  0.00     0.049 A 
ATOM     54  C   UNL     1     -16.146   6.504  -0.712  1.00  0.00     0.074 A 
ATOM     55  C   UNL     1     -15.415   4.650  -5.822  1.00  0.00     0.029 A 
ATOM     56  N   UNL     1     -16.642   6.488  -5.582  1.00  0.00    -0.354 N 
ATOM     57  N   UNL     1     -16.281   6.322  -1.998  1.00  0.00    -0.248 NA
ATOM     58  C   UNL     1     -17.428   6.488  -0.013  1.00  0.00     0.031 C 
ATOM     59  C   UNL     1     -16.250   4.489  -4.693  1.00  0.00     0.029 A 
ATOM     60  C   UNL     1     -17.001   5.642  -4.546  1.00  0.00     0.049 A 
ATOM     61  H   UNL     1     -17.043   7.371  -5.751  1.00  0.00     0.167 HD
ATOM     62  C   UNL     1     -17.612   6.182  -2.308  1.00  0.00     0.074 A 
ATOM     63  C   UNL     1     -18.286   6.271  -1.026  1.00  0.00     0.031 C 
ATOM     64  C   UNL     1     -18.045   5.995  -3.593  1.00  0.00     0.037 A 
BRANCH  51  65
ATOM     65  C   UNL     1     -14.558   6.405  -8.713  1.00  0.00     0.058 A 
ATOM     66  C   UNL     1     -14.534   5.077  -9.180  1.00  0.00     0.135 A 
ATOM     67  C   UNL     1     -14.192   7.382  -9.661  1.00  0.00     0.135 A 
ATOM     68  F   UNL     1     -14.961   4.058  -8.424  1.00  0.00    -0.206 F 
ATOM     69  C   UNL     1     -14.033   4.730 -10.434  1.00  0.00     0.059 A 
ATOM     70  C   UNL     1     -13.640   7.058 -10.905  1.00  0.00     0.059 A 
ATOM     71  F   UNL     1     -14.333   8.689  -9.385  1.00  0.00    -0.206 F 
ATOM     72  C   UNL     1     -13.541   5.722 -11.272  1.00  0.00     0.060 A 
BRANCH  72  73
ATOM     73  S   UNL     1     -12.723   5.232 -12.804  1.00  0.00     0.124 S 
ATOM     74  O   UNL     1     -11.833   4.166 -12.355  1.00  0.00    -0.237 OA
ATOM     75  O   UNL     1     -13.851   4.812 -13.627  1.00  0.00    -0.237 OA
ATOM     76  O   UNL     1     -12.050   6.455 -13.232  1.00  0.00    -0.744 OA
ENDBRANCH  72  73
ENDBRANCH  51  65
BRANCH  52  77
ATOM     77  C   UNL     1     -14.515   7.726   1.024  1.00  0.00     0.058 A 
ATOM     78  C   UNL     1     -13.722   7.329   2.118  1.00  0.00     0.135 A 
ATOM     79  C   UNL     1     -14.687   9.101   0.824  1.00  0.00     0.135 A 
ATOM     80  F   UNL     1     -13.532   6.023   2.368  1.00  0.00    -0.206 F 
ATOM     81  C   UNL     1     -13.044   8.248   2.915  1.00  0.00     0.059 A 
ATOM     82  C   UNL     1     -14.011  10.044   1.609  1.00  0.00     0.059 A 
ATOM     83  F   UNL     1     -15.436   9.546  -0.195  1.00  0.00    -0.206 F 
ATOM     84  C   UNL     1     -13.153   9.604   2.619  1.00  0.00     0.060 A 
BRANCH  84  85
ATOM     85  S   UNL     1     -12.125  10.769   3.550  1.00  0.00     0.124 S 
ATOM     86  O   UNL     1     -12.344  10.339   4.928  1.00  0.00    -0.237 OA
ATOM     87  O   UNL     1     -10.793  10.494   3.015  1.00  0.00    -0.237 OA
ATOM     88  O   UNL     1     -12.692  12.065   3.201  1.00  0.00    -0.744 OA
ENDBRANCH  84  85
ENDBRANCH  52  77
BRANCH  64  89
ATOM     89  C   UNL     1     -19.485   5.989  -4.065  1.00  0.00     0.058 A 
ATOM     90  C   UNL     1     -20.523   6.711  -3.453  1.00  0.00     0.135 A 
ATOM     91  C   UNL     1     -19.837   5.331  -5.271  1.00  0.00     0.135 A 
ATOM     92  F   UNL     1     -20.302   7.466  -2.368  1.00  0.00    -0.206 F 
ATOM     93  C   UNL     1     -21.826   6.730  -3.960  1.00  0.00     0.059 A 
ATOM     94  C   UNL     1     -21.114   5.383  -5.824  1.00  0.00     0.059 A 
ATOM     95  F   UNL     1     -18.941   4.618  -5.971  1.00  0.00    -0.206 F 
ATOM     96  C   UNL     1     -22.112   6.066  -5.149  1.00  0.00     0.060 A 
BRANCH  96  97
ATOM     97  S   UNL     1     -23.765   6.151  -5.864  1.00  0.00     0.124 S 
ATOM     98  O   UNL     1     -24.374   4.934  -5.336  1.00  0.00    -0.237 OA
ATOM     99  O   UNL     1     -24.291   7.402  -5.327  1.00  0.00    -0.237 OA
ATOM    100  O   UNL     1     -23.502   6.157  -7.299  1.00  0.00    -0.744 OA
ENDBRANCH  96  97
ENDBRANCH  64  89
ENDBRANCH  38  39
ENDBRANCH  30  33
ENDBRANCH  28  29
ENDBRANCH  27  28
ENDBRANCH   1  27
TORSDOF 18
