REMARK SMILES CCOc1cccc(OCC)c1-c1ccc([C@@H](C)C(=O)NCCCCCCNC(=O)c2ccc(-c3c4nc(c(-c5c(F)cc(S(=O)(=O)[O-])cc5F)c5ccc([nH]5)c(-c5c(F)cc(S(=O)(=O)[O-])cc5F)c5nc(c(-c6c(F)cc(S(=O)(=O)[O-])cc6F)c6ccc3[nH]6)C=C5)C=C4)cc2)cc1F
REMARK SMILES IDX 24 1 23 2 22 3 21 4 19 5 20 6 17 8 18 9 16 10 13 11 14 12
REMARK SMILES IDX 98 13 15 14 97 15 99 16 12 17 4 18 5 19 6 20 8 21 7 22 3 23
REMARK SMILES IDX 2 24 1 25 9 26 10 27 11 28 25 29 26 30 27 31 28 32 29 33
REMARK SMILES IDX 30 35 31 36 32 37 96 38 33 39 95 40 34 41 35 42 36 43 89 44
REMARK SMILES IDX 37 45 94 46 88 47 90 48 38 49 93 50 87 51 86 52 39 54 73 55
REMARK SMILES IDX 52 56 72 57 53 58 56 59 71 60 91 61 54 62 55 63 70 65 92 66
REMARK SMILES IDX 57 67 40 68 41 69 50 70 42 71 43 72 49 73 51 74 44 75 45 76
REMARK SMILES IDX 46 77 47 78 48 79 74 80 75 81 84 82 76 83 77 84 83 85 85 86
REMARK SMILES IDX 78 87 79 88 80 89 81 90 82 91 58 92 59 93 68 94 60 95 61 96
REMARK SMILES IDX 67 97 69 98 62 99 63 100 64 101 65 102 66 103
REMARK H PARENT 21 7 28 34 90 53 56 64
REMARK Flexibility Score: inf
ROOT
ATOM      1  C   UNL     1       3.009   3.020  -4.782  1.00  0.00     0.002 C 
ENDROOT
BRANCH   1   2
ATOM      2  C   UNL     1       3.015   3.004  -3.256  1.00  0.00     0.021 C 
BRANCH   2   3
ATOM      3  C   UNL     1       2.630   4.332  -2.573  1.00  0.00     0.116 C 
BRANCH   3   4
ATOM      4  N   UNL     1       1.223   4.347  -2.192  1.00  0.00    -0.356 N 
ATOM      5  C   UNL     1       0.544   4.194  -1.020  1.00  0.00     0.227 C 
ATOM      6  O   UNL     1      -0.691   4.187  -1.127  1.00  0.00    -0.274 OA
ATOM      7  H   UNL     1       0.626   4.506  -2.958  1.00  0.00     0.163 HD
BRANCH   5   8
ATOM      8  C   UNL     1       1.175   4.037   0.383  1.00  0.00     0.105 C 
ATOM      9  C   UNL     1       2.175   5.126   0.755  1.00  0.00     0.023 C 
BRANCH   8  10
ATOM     10  C   UNL     1       1.674   2.637   0.697  1.00  0.00    -0.033 A 
ATOM     11  C   UNL     1       2.607  -0.018   1.124  1.00  0.00     0.025 A 
ATOM     12  C   UNL     1       2.999   0.721   0.014  1.00  0.00     0.012 A 
ATOM     13  C   UNL     1       1.708   0.585   2.013  1.00  0.00     0.131 A 
ATOM     14  C   UNL     1       2.624   2.045  -0.122  1.00  0.00     0.005 A 
ATOM     15  C   UNL     1       1.221   1.886   1.790  1.00  0.00     0.044 A 
ATOM     16  F   UNL     1       1.270  -0.082   3.091  1.00  0.00    -0.206 F 
BRANCH  11  17
ATOM     17  C   UNL     1       3.103  -1.394   1.216  1.00  0.00     0.069 A 
ATOM     18  C   UNL     1       2.189  -2.436   0.901  1.00  0.00     0.130 A 
ATOM     19  C   UNL     1       2.586  -3.770   0.794  1.00  0.00     0.047 A 
ATOM     20  C   UNL     1       3.920  -4.099   0.980  1.00  0.00     0.008 A 
ATOM     21  C   UNL     1       4.457  -1.748   1.425  1.00  0.00     0.130 A 
ATOM     22  C   UNL     1       4.835  -3.100   1.305  1.00  0.00     0.047 A 
BRANCH  18  23
ATOM     23  O   UNL     1       0.853  -2.140   0.758  1.00  0.00    -0.493 OA
BRANCH  23  24
ATOM     24  C   UNL     1       0.413  -2.159  -0.604  1.00  0.00     0.226 C 
ATOM     25  C   UNL     1      -0.187  -0.803  -0.947  1.00  0.00     0.049 C 
ENDBRANCH  23  24
ENDBRANCH  18  23
BRANCH  21  26
ATOM     26  O   UNL     1       5.549  -0.995   1.768  1.00  0.00    -0.493 OA
BRANCH  26  27
ATOM     27  C   UNL     1       5.648   0.415   1.629  1.00  0.00     0.226 C 
ATOM     28  C   UNL     1       6.177   0.789   0.250  1.00  0.00     0.049 C 
ENDBRANCH  26  27
ENDBRANCH  21  26
ENDBRANCH  11  17
ENDBRANCH   8  10
ENDBRANCH   5   8
ENDBRANCH   3   4
ENDBRANCH   2   3
ENDBRANCH   1   2
BRANCH   1  29
ATOM     29  C   UNL     1       4.085   3.901  -5.422  1.00  0.00     0.002 C 
BRANCH  29  30
ATOM     30  C   UNL     1       5.532   3.590  -5.019  1.00  0.00     0.021 C 
BRANCH  30  31
ATOM     31  C   UNL     1       6.003   2.166  -5.312  1.00  0.00     0.116 C 
BRANCH  31  32
ATOM     32  N   UNL     1       5.948   1.856  -6.732  1.00  0.00    -0.352 N 
ATOM     33  C   UNL     1       6.963   1.575  -7.611  1.00  0.00     0.251 C 
ATOM     34  H   UNL     1       5.044   1.847  -7.122  1.00  0.00     0.163 HD
ATOM     35  O   UNL     1       6.736   1.584  -8.822  1.00  0.00    -0.269 OA
BRANCH  33  36
ATOM     36  C   UNL     1       8.323   1.268  -7.119  1.00  0.00     0.039 A 
ATOM     37  C   UNL     1       9.425   1.823  -7.778  1.00  0.00     0.014 A 
ATOM     38  C   UNL     1       8.519   0.400  -6.041  1.00  0.00     0.014 A 
ATOM     39  C   UNL     1      10.717   1.551  -7.321  1.00  0.00     0.010 A 
ATOM     40  C   UNL     1       9.805   0.181  -5.548  1.00  0.00     0.010 A 
ATOM     41  C   UNL     1      10.918   0.750  -6.185  1.00  0.00    -0.014 A 
BRANCH  41  42
ATOM     42  C   UNL     1      12.282   0.500  -5.649  1.00  0.00     0.031 A 
ATOM     43  C   UNL     1      12.853  -0.893  -5.645  1.00  0.00     0.074 A 
ATOM     44  C   UNL     1      12.979   1.518  -5.106  1.00  0.00     0.049 A 
ATOM     45  N   UNL     1      13.992  -1.317  -5.162  1.00  0.00    -0.248 NA
ATOM     46  C   UNL     1      12.023  -1.954  -6.240  1.00  0.00     0.031 C 
ATOM     47  C   UNL     1      12.515   2.904  -5.007  1.00  0.00     0.029 A 
ATOM     48  N   UNL     1      14.222   1.545  -4.523  1.00  0.00    -0.354 N 
ATOM     49  C   UNL     1      14.009  -2.691  -5.374  1.00  0.00     0.074 A 
ATOM     50  C   UNL     1      12.747  -3.037  -5.992  1.00  0.00     0.031 C 
ATOM     51  C   UNL     1      13.467   3.647  -4.419  1.00  0.00     0.029 A 
ATOM     52  C   UNL     1      14.592   2.788  -4.066  1.00  0.00     0.049 A 
ATOM     53  H   UNL     1      14.795   0.748  -4.441  1.00  0.00     0.167 HD
ATOM     54  C   UNL     1      14.993  -3.580  -5.096  1.00  0.00     0.037 A 
ATOM     55  C   UNL     1      15.708   3.189  -3.426  1.00  0.00     0.037 A 
ATOM     56  C   UNL     1      16.261  -3.223  -4.514  1.00  0.00     0.049 A 
ATOM     57  C   UNL     1      16.790   2.183  -3.138  1.00  0.00     0.074 A 
ATOM     58  C   UNL     1      17.353  -4.037  -4.267  1.00  0.00     0.029 A 
ATOM     59  N   UNL     1      16.608  -1.950  -4.087  1.00  0.00    -0.354 N 
ATOM     60  N   UNL     1      16.819   0.901  -3.415  1.00  0.00    -0.248 NA
ATOM     61  C   UNL     1      17.994   2.678  -2.456  1.00  0.00     0.031 C 
ATOM     62  C   UNL     1      18.343  -3.266  -3.648  1.00  0.00     0.029 A 
ATOM     63  C   UNL     1      17.886  -1.961  -3.554  1.00  0.00     0.049 A 
ATOM     64  H   UNL     1      16.030  -1.155  -4.151  1.00  0.00     0.167 HD
ATOM     65  C   UNL     1      18.054   0.444  -2.969  1.00  0.00     0.074 A 
ATOM     66  C   UNL     1      18.747   1.587  -2.413  1.00  0.00     0.031 C 
ATOM     67  C   UNL     1      18.568  -0.810  -3.015  1.00  0.00     0.037 A 
BRANCH  54  68
ATOM     68  C   UNL     1      14.744  -5.028  -5.419  1.00  0.00     0.058 A 
ATOM     69  C   UNL     1      14.701  -5.494  -6.742  1.00  0.00     0.135 A 
ATOM     70  C   UNL     1      14.596  -5.972  -4.389  1.00  0.00     0.135 A 
ATOM     71  F   UNL     1      14.823  -4.634  -7.766  1.00  0.00    -0.206 F 
ATOM     72  C   UNL     1      14.496  -6.839  -7.035  1.00  0.00     0.059 A 
ATOM     73  C   UNL     1      14.417  -7.326  -4.657  1.00  0.00     0.059 A 
ATOM     74  F   UNL     1      14.629  -5.582  -3.105  1.00  0.00    -0.206 F 
ATOM     75  C   UNL     1      14.355  -7.748  -5.984  1.00  0.00     0.060 A 
BRANCH  75  76
ATOM     76  S   UNL     1      14.103  -9.491  -6.381  1.00  0.00     0.124 S 
ATOM     77  O   UNL     1      12.722  -9.483  -6.855  1.00  0.00    -0.237 OA
ATOM     78  O   UNL     1      15.120  -9.731  -7.399  1.00  0.00    -0.237 OA
ATOM     79  O   UNL     1      14.324 -10.165  -5.106  1.00  0.00    -0.744 OA
ENDBRANCH  75  76
ENDBRANCH  54  68
BRANCH  55  80
ATOM     80  C   UNL     1      15.872   4.614  -3.032  1.00  0.00     0.058 A 
ATOM     81  C   UNL     1      16.811   5.436  -3.673  1.00  0.00     0.135 A 
ATOM     82  C   UNL     1      15.099   5.182  -2.007  1.00  0.00     0.135 A 
ATOM     83  F   UNL     1      17.577   4.938  -4.655  1.00  0.00    -0.206 F 
ATOM     84  C   UNL     1      16.994   6.763  -3.300  1.00  0.00     0.059 A 
ATOM     85  C   UNL     1      15.246   6.514  -1.633  1.00  0.00     0.059 A 
ATOM     86  F   UNL     1      14.174   4.444  -1.374  1.00  0.00    -0.206 F 
ATOM     87  C   UNL     1      16.207   7.293  -2.276  1.00  0.00     0.060 A 
BRANCH  87  88
ATOM     88  S   UNL     1      16.428   9.027  -1.821  1.00  0.00     0.124 S 
ATOM     89  O   UNL     1      17.688   8.979  -1.089  1.00  0.00    -0.237 OA
ATOM     90  O   UNL     1      16.468   9.684  -3.124  1.00  0.00    -0.237 OA
ATOM     91  O   UNL     1      15.242   9.315  -1.020  1.00  0.00    -0.744 OA
ENDBRANCH  87  88
ENDBRANCH  55  80
BRANCH  67  92
ATOM     92  C   UNL     1      19.962  -1.007  -2.487  1.00  0.00     0.058 A 
ATOM     93  C   UNL     1      20.241  -0.979  -1.112  1.00  0.00     0.135 A 
ATOM     94  C   UNL     1      21.023  -1.274  -3.367  1.00  0.00     0.135 A 
ATOM     95  F   UNL     1      19.263  -0.721  -0.229  1.00  0.00    -0.206 F 
ATOM     96  C   UNL     1      21.529  -1.187  -0.628  1.00  0.00     0.059 A 
ATOM     97  C   UNL     1      22.313  -1.512  -2.904  1.00  0.00     0.059 A 
ATOM     98  F   UNL     1      20.807  -1.322  -4.691  1.00  0.00    -0.206 F 
ATOM     99  C   UNL     1      22.558  -1.454  -1.533  1.00  0.00     0.060 A 
BRANCH  99 100
ATOM    100  S   UNL     1      24.219  -1.753  -0.892  1.00  0.00     0.124 S 
ATOM    101  O   UNL     1      24.640  -0.405  -0.526  1.00  0.00    -0.237 OA
ATOM    102  O   UNL     1      23.966  -2.663   0.221  1.00  0.00    -0.237 OA
ATOM    103  O   UNL     1      24.921  -2.343  -2.028  1.00  0.00    -0.744 OA
ENDBRANCH  99 100
ENDBRANCH  67  92
ENDBRANCH  41  42
ENDBRANCH  33  36
ENDBRANCH  31  32
ENDBRANCH  30  31
ENDBRANCH  29  30
ENDBRANCH   1  29
TORSDOF 22
