REMARK SMILES O=C(Cc1ccn(-c2ccccc2F)c1)NCCCCCCNC(=O)c1ccc(-c2c3nc(c(-c4c(F)cc(S(=O)(=O)[O-])cc4F)c4ccc([nH]4)c(-c4c(F)cc(S(=O)(=O)[O-])cc4F)c4nc(c(-c5c(F)cc(S(=O)(=O)[O-])cc5F)c5ccc2[nH]5)C=C4)C=C3)cc1
REMARK SMILES IDX 20 1 19 2 18 3 17 4 16 5 1 6 2 7 3 9 4 10 5 11 15 12 6 13
REMARK SMILES IDX 7 14 8 15 9 16 13 17 10 18 12 19 14 20 11 21 21 22 22 23
REMARK SMILES IDX 23 24 24 25 25 27 26 28 27 29 91 30 28 31 90 32 29 33 30 34
REMARK SMILES IDX 31 35 84 36 32 37 89 38 83 39 85 40 33 41 88 42 82 43 81 44
REMARK SMILES IDX 34 46 68 47 47 48 67 49 48 50 51 51 66 52 86 53 49 54 50 55
REMARK SMILES IDX 65 57 87 58 52 59 35 60 36 61 45 62 37 63 38 64 44 65 46 66
REMARK SMILES IDX 39 67 40 68 41 69 42 70 43 71 69 72 70 73 79 74 71 75 72 76
REMARK SMILES IDX 78 77 80 78 73 79 74 80 75 81 76 82 77 83 53 84 54 85 63 86
REMARK SMILES IDX 55 87 56 88 62 89 64 90 57 91 58 92 59 93 60 94 61 95
REMARK H PARENT 16 8 23 26 85 45 51 56
REMARK Flexibility Score: inf
ROOT
ATOM      1  C   UNL     1       4.629   3.486  -2.575  1.00  0.00     0.002 C 
ENDROOT
BRANCH   1   2
ATOM      2  C   UNL     1       4.207   3.575  -1.104  1.00  0.00     0.002 C 
BRANCH   2   3
ATOM      3  C   UNL     1       2.709   3.365  -0.837  1.00  0.00     0.021 C 
BRANCH   3   4
ATOM      4  C   UNL     1       2.161   2.011  -1.288  1.00  0.00     0.116 C 
BRANCH   4   5
ATOM      5  N   UNL     1       2.834   0.926  -0.607  1.00  0.00    -0.356 N 
ATOM      6  O   UNL     1       0.956  -0.216   0.068  1.00  0.00    -0.275 OA
ATOM      7  C   UNL     1       2.177  -0.096   0.042  1.00  0.00     0.224 C 
ATOM      8  H   UNL     1       3.819   0.918  -0.608  1.00  0.00     0.163 HD
BRANCH   7   9
ATOM      9  C   UNL     1       3.106  -1.037   0.788  1.00  0.00     0.137 C 
BRANCH   9  10
ATOM     10  C   UNL     1       3.927  -1.894  -0.124  1.00  0.00    -0.021 A 
ATOM     11  C   UNL     1       5.146  -1.550  -0.767  1.00  0.00     0.024 A 
ATOM     12  C   UNL     1       3.661  -3.204  -0.479  1.00  0.00     0.095 A 
ATOM     13  C   UNL     1       5.589  -2.663  -1.444  1.00  0.00     0.091 A 
ATOM     14  N   UNL     1       4.685  -3.690  -1.264  1.00  0.00    -0.321 N 
BRANCH  14  15
ATOM     15  C   UNL     1       4.818  -5.011  -1.758  1.00  0.00     0.081 A 
ATOM     16  C   UNL     1       6.096  -5.562  -1.936  1.00  0.00     0.030 A 
ATOM     17  C   UNL     1       3.693  -5.783  -2.054  1.00  0.00     0.147 A 
ATOM     18  C   UNL     1       6.233  -6.877  -2.388  1.00  0.00     0.002 A 
ATOM     19  C   UNL     1       3.832  -7.083  -2.536  1.00  0.00     0.041 A 
ATOM     20  F   UNL     1       2.452  -5.286  -1.954  1.00  0.00    -0.205 F 
ATOM     21  C   UNL     1       5.103  -7.635  -2.696  1.00  0.00     0.003 A 
ENDBRANCH  14  15
ENDBRANCH   9  10
ENDBRANCH   7   9
ENDBRANCH   4   5
ENDBRANCH   3   4
ENDBRANCH   2   3
ENDBRANCH   1   2
BRANCH   1  22
ATOM     22  C   UNL     1       3.905   4.455  -3.521  1.00  0.00     0.021 C 
BRANCH  22  23
ATOM     23  C   UNL     1       4.142   5.935  -3.202  1.00  0.00     0.116 C 
BRANCH  23  24
ATOM     24  N   UNL     1       5.518   6.308  -3.486  1.00  0.00    -0.352 N 
ATOM     25  C   UNL     1       6.112   7.543  -3.531  1.00  0.00     0.251 C 
ATOM     26  H   UNL     1       6.119   5.553  -3.676  1.00  0.00     0.163 HD
ATOM     27  O   UNL     1       7.165   7.657  -4.151  1.00  0.00    -0.269 OA
BRANCH  25  28
ATOM     28  C   UNL     1       5.526   8.732  -2.868  1.00  0.00     0.039 A 
ATOM     29  C   UNL     1       5.721   9.976  -3.486  1.00  0.00     0.014 A 
ATOM     30  C   UNL     1       4.899   8.670  -1.618  1.00  0.00     0.014 A 
ATOM     31  C   UNL     1       5.244  11.140  -2.889  1.00  0.00     0.010 A 
ATOM     32  C   UNL     1       4.412   9.834  -1.018  1.00  0.00     0.010 A 
ATOM     33  C   UNL     1       4.562  11.066  -1.667  1.00  0.00    -0.014 A 
BRANCH  33  34
ATOM     34  C   UNL     1       3.804  12.263  -1.217  1.00  0.00     0.031 A 
ATOM     35  C   UNL     1       2.443  12.365  -1.962  1.00  0.00     0.074 A 
ATOM     36  C   UNL     1       4.405  13.085  -0.297  1.00  0.00     0.049 A 
ATOM     37  N   UNL     1       1.704  13.399  -2.221  1.00  0.00    -0.248 NA
ATOM     38  C   UNL     1       1.851  11.139  -2.577  1.00  0.00     0.031 C 
ATOM     39  C   UNL     1       5.705  12.806   0.358  1.00  0.00     0.029 A 
ATOM     40  N   UNL     1       4.077  14.300   0.282  1.00  0.00    -0.354 N 
ATOM     41  C   UNL     1       0.496  12.938  -2.807  1.00  0.00     0.074 A 
ATOM     42  C   UNL     1       0.698  11.557  -3.108  1.00  0.00     0.031 C 
ATOM     43  C   UNL     1       6.087  13.837   1.146  1.00  0.00     0.029 A 
ATOM     44  C   UNL     1       5.080  14.880   1.118  1.00  0.00     0.049 A 
ATOM     45  H   UNL     1       3.208  14.736   0.127  1.00  0.00     0.167 HD
ATOM     46  C   UNL     1      -0.637  13.702  -2.890  1.00  0.00     0.037 A 
ATOM     47  C   UNL     1       5.112  16.120   1.711  1.00  0.00     0.037 A 
ATOM     48  C   UNL     1      -0.373  14.985  -2.337  1.00  0.00     0.049 A 
ATOM     49  C   UNL     1       3.766  16.670   1.506  1.00  0.00     0.074 A 
ATOM     50  C   UNL     1       0.361  16.041  -2.804  1.00  0.00     0.029 A 
ATOM     51  N   UNL     1      -0.591  15.131  -0.988  1.00  0.00    -0.354 N 
ATOM     52  N   UNL     1       2.703  16.267   2.134  1.00  0.00    -0.248 NA
ATOM     53  C   UNL     1       3.569  17.692   0.470  1.00  0.00     0.031 C 
ATOM     54  C   UNL     1       0.982  16.529  -1.642  1.00  0.00     0.029 A 
ATOM     55  C   UNL     1       0.408  15.937  -0.508  1.00  0.00     0.049 A 
ATOM     56  H   UNL     1      -1.325  14.733  -0.466  1.00  0.00     0.167 HD
ATOM     57  C   UNL     1       1.699  16.726   1.320  1.00  0.00     0.074 A 
ATOM     58  C   UNL     1       2.250  17.831   0.564  1.00  0.00     0.031 C 
ATOM     59  C   UNL     1       0.749  15.855   0.893  1.00  0.00     0.037 A 
BRANCH  46  60
ATOM     60  C   UNL     1      -2.078  13.408  -3.220  1.00  0.00     0.058 A 
ATOM     61  C   UNL     1      -2.736  12.222  -2.873  1.00  0.00     0.135 A 
ATOM     62  C   UNL     1      -2.914  14.504  -3.568  1.00  0.00     0.135 A 
ATOM     63  F   UNL     1      -2.044  11.120  -2.553  1.00  0.00    -0.206 F 
ATOM     64  C   UNL     1      -4.131  12.158  -2.767  1.00  0.00     0.059 A 
ATOM     65  C   UNL     1      -4.298  14.475  -3.428  1.00  0.00     0.059 A 
ATOM     66  F   UNL     1      -2.386  15.667  -3.987  1.00  0.00    -0.206 F 
ATOM     67  C   UNL     1      -4.899  13.302  -2.999  1.00  0.00     0.060 A 
BRANCH  67  68
ATOM     68  S   UNL     1      -6.672  13.275  -2.646  1.00  0.00     0.124 S 
ATOM     69  O   UNL     1      -7.179  12.463  -3.746  1.00  0.00    -0.237 OA
ATOM     70  O   UNL     1      -6.716  12.658  -1.325  1.00  0.00    -0.237 OA
ATOM     71  O   UNL     1      -7.049  14.685  -2.685  1.00  0.00    -0.744 OA
ENDBRANCH  67  68
ENDBRANCH  46  60
BRANCH  47  72
ATOM     72  C   UNL     1       6.104  17.063   2.384  1.00  0.00     0.058 A 
ATOM     73  C   UNL     1       5.748  18.434   2.579  1.00  0.00     0.135 A 
ATOM     74  C   UNL     1       7.433  16.780   2.725  1.00  0.00     0.135 A 
ATOM     75  F   UNL     1       4.478  18.855   2.515  1.00  0.00    -0.206 F 
ATOM     76  C   UNL     1       6.663  19.457   2.810  1.00  0.00     0.059 A 
ATOM     77  C   UNL     1       8.370  17.792   3.031  1.00  0.00     0.059 A 
ATOM     78  F   UNL     1       7.877  15.518   2.768  1.00  0.00    -0.206 F 
ATOM     79  C   UNL     1       7.991  19.133   2.976  1.00  0.00     0.060 A 
BRANCH  79  80
ATOM     80  S   UNL     1       9.184  20.485   3.062  1.00  0.00     0.124 S 
ATOM     81  O   UNL     1       9.261  20.890   1.661  1.00  0.00    -0.237 OA
ATOM     82  O   UNL     1       8.530  21.438   3.955  1.00  0.00    -0.237 OA
ATOM     83  O   UNL     1      10.381  19.848   3.599  1.00  0.00    -0.744 OA
ENDBRANCH  79  80
ENDBRANCH  47  72
BRANCH  59  84
ATOM     84  C   UNL     1       0.476  14.693   1.835  1.00  0.00     0.058 A 
ATOM     85  C   UNL     1       0.724  13.343   1.532  1.00  0.00     0.135 A 
ATOM     86  C   UNL     1       0.027  14.949   3.142  1.00  0.00     0.135 A 
ATOM     87  F   UNL     1       1.161  12.987   0.324  1.00  0.00    -0.206 F 
ATOM     88  C   UNL     1       0.536  12.307   2.454  1.00  0.00     0.059 A 
ATOM     89  C   UNL     1      -0.161  13.936   4.089  1.00  0.00     0.059 A 
ATOM     90  F   UNL     1      -0.246  16.210   3.518  1.00  0.00    -0.206 F 
ATOM     91  C   UNL     1       0.096  12.614   3.736  1.00  0.00     0.060 A 
BRANCH  91  92
ATOM     92  S   UNL     1      -0.173  11.266   4.912  1.00  0.00     0.124 S 
ATOM     93  O   UNL     1      -1.102  10.404   4.186  1.00  0.00    -0.237 OA
ATOM     94  O   UNL     1       1.173  10.727   5.085  1.00  0.00    -0.237 OA
ATOM     95  O   UNL     1      -0.732  11.935   6.082  1.00  0.00    -0.744 OA
ENDBRANCH  91  92
ENDBRANCH  59  84
ENDBRANCH  33  34
ENDBRANCH  25  28
ENDBRANCH  23  24
ENDBRANCH  22  23
ENDBRANCH   1  22
TORSDOF 18
