REMARK SMILES [NH3+][C@H](CC(=O)NCCCCCCNC(=O)c1ccc(-c2c3nc(c(-c4c(F)cc(S(=O)(=O)[O-])cc4F)c4ccc([nH]4)c(-c4c(F)cc(S(=O)(=O)[O-])cc4F)c4nc(c(-c5c(F)cc(S(=O)(=O)[O-])cc5F)c5ccc2[nH]5)C=C4)C=C3)cc1)c1ccc2c(c1)OC(F)(F)O2
REMARK SMILES IDX 10 1 9 2 8 3 7 4 6 5 4 6 5 7 3 9 2 10 1 11 82 15 83 16 87 17
REMARK SMILES IDX 84 18 86 19 85 20 88 21 92 22 89 23 90 24 91 25 11 26 12 27
REMARK SMILES IDX 13 28 14 29 15 31 16 32 17 33 81 34 18 35 80 36 19 37 20 38
REMARK SMILES IDX 21 39 74 40 22 41 79 42 73 43 75 44 23 45 78 46 72 47 71 48
REMARK SMILES IDX 24 50 58 51 37 52 57 53 38 54 41 55 56 56 76 57 39 58 40 59
REMARK SMILES IDX 55 61 77 62 42 63 25 64 26 65 35 66 27 67 28 68 34 69 36 70
REMARK SMILES IDX 29 71 30 72 31 73 32 74 33 75 59 76 60 77 69 78 61 79 62 80
REMARK SMILES IDX 68 81 70 82 63 83 64 84 65 85 66 86 67 87 43 88 44 89 53 90
REMARK SMILES IDX 45 91 46 92 52 93 54 94 47 95 48 96 49 97 50 98 51 99
REMARK H PARENT 6 8 1 12 1 13 1 14 13 30 75 49 41 60
REMARK Flexibility Score: inf
ROOT
ATOM      1  C   UNL     1       4.686   3.944  -3.511  1.00  0.00     0.002 C 
ENDROOT
BRANCH   1   2
ATOM      2  C   UNL     1       3.805   4.068  -2.265  1.00  0.00     0.002 C 
BRANCH   2   3
ATOM      3  C   UNL     1       2.642   3.078  -2.216  1.00  0.00     0.021 C 
BRANCH   3   4
ATOM      4  C   UNL     1       3.074   1.620  -2.030  1.00  0.00     0.116 C 
BRANCH   4   5
ATOM      5  N   UNL     1       3.341   1.360  -0.632  1.00  0.00    -0.356 N 
ATOM      6  C   UNL     1       2.505   0.908   0.341  1.00  0.00     0.226 C 
ATOM      7  O   UNL     1       2.910   0.932   1.505  1.00  0.00    -0.275 OA
ATOM      8  H   UNL     1       4.265   1.537  -0.342  1.00  0.00     0.163 HD
BRANCH   6   9
ATOM      9  C   UNL     1       1.145   0.320   0.006  1.00  0.00     0.170 C 
BRANCH   9  10
ATOM     10  C   UNL     1       0.019   1.345  -0.241  1.00  0.00     0.221 C 
BRANCH  10  11
ATOM     11  N   UNL     1      -0.223   1.536  -1.682  1.00  0.00    -0.351 N 
ATOM     12  H   UNL     1      -0.971   2.218  -1.813  1.00  0.00     0.345 HD
ATOM     13  H   UNL     1      -0.496   0.648  -2.102  1.00  0.00     0.345 HD
ATOM     14  H   UNL     1       0.629   1.876  -2.128  1.00  0.00     0.345 HD
ENDBRANCH  10  11
BRANCH  10  15
ATOM     15  C   UNL     1      -1.372   0.959   0.272  1.00  0.00     0.014 A 
ATOM     16  C   UNL     1      -2.397   1.946   0.164  1.00  0.00     0.014 A 
ATOM     17  C   UNL     1      -1.732  -0.373   0.522  1.00  0.00     0.060 A 
ATOM     18  C   UNL     1      -3.749   1.597   0.159  1.00  0.00     0.051 A 
ATOM     19  C   UNL     1      -3.071  -0.688   0.485  1.00  0.00     0.173 A 
ATOM     20  C   UNL     1      -4.048   0.261   0.273  1.00  0.00     0.172 A 
ATOM     21  O   UNL     1      -3.574  -1.954   0.512  1.00  0.00    -0.395 OA
ATOM     22  O   UNL     1      -5.278  -0.299   0.106  1.00  0.00    -0.395 OA
ATOM     23  C   UNL     1      -4.888  -1.676   0.013  1.00  0.00     0.586 C 
ATOM     24  F   UNL     1      -4.933  -2.057  -1.290  1.00  0.00    -0.125 F 
ATOM     25  F   UNL     1      -5.784  -2.434   0.690  1.00  0.00    -0.125 F 
ENDBRANCH  10  15
ENDBRANCH   9  10
ENDBRANCH   6   9
ENDBRANCH   4   5
ENDBRANCH   3   4
ENDBRANCH   2   3
ENDBRANCH   1   2
BRANCH   1  26
ATOM     26  C   UNL     1       3.941   4.013  -4.848  1.00  0.00     0.021 C 
BRANCH  26  27
ATOM     27  C   UNL     1       3.077   5.259  -5.037  1.00  0.00     0.116 C 
BRANCH  27  28
ATOM     28  N   UNL     1       3.874   6.473  -5.001  1.00  0.00    -0.352 N 
ATOM     29  C   UNL     1       4.093   7.398  -5.991  1.00  0.00     0.251 C 
ATOM     30  H   UNL     1       4.323   6.657  -4.144  1.00  0.00     0.163 HD
ATOM     31  O   UNL     1       4.995   8.219  -5.871  1.00  0.00    -0.269 OA
BRANCH  29  32
ATOM     32  C   UNL     1       3.241   7.399  -7.200  1.00  0.00     0.039 A 
ATOM     33  C   UNL     1       3.844   7.536  -8.453  1.00  0.00     0.014 A 
ATOM     34  C   UNL     1       1.850   7.302  -7.093  1.00  0.00     0.014 A 
ATOM     35  C   UNL     1       3.053   7.532  -9.604  1.00  0.00     0.010 A 
ATOM     36  C   UNL     1       1.069   7.238  -8.245  1.00  0.00     0.010 A 
ATOM     37  C   UNL     1       1.662   7.363  -9.510  1.00  0.00    -0.014 A 
BRANCH  37  38
ATOM     38  C   UNL     1       0.810   7.327 -10.726  1.00  0.00     0.031 A 
ATOM     39  C   UNL     1      -0.191   8.421 -10.978  1.00  0.00     0.074 A 
ATOM     40  C   UNL     1       0.895   6.278 -11.567  1.00  0.00     0.049 A 
ATOM     41  N   UNL     1      -1.063   8.534 -11.947  1.00  0.00    -0.248 NA
ATOM     42  C   UNL     1      -0.236   9.517  -9.998  1.00  0.00     0.031 C 
ATOM     43  C   UNL     1       1.790   5.131 -11.400  1.00  0.00     0.029 A 
ATOM     44  N   UNL     1       0.211   6.000 -12.723  1.00  0.00    -0.354 N 
ATOM     45  C   UNL     1      -1.772   9.700 -11.684  1.00  0.00     0.074 A 
ATOM     46  C   UNL     1      -1.258  10.235 -10.441  1.00  0.00     0.031 C 
ATOM     47  C   UNL     1       1.609   4.280 -12.423  1.00  0.00     0.029 A 
ATOM     48  C   UNL     1       0.569   4.806 -13.302  1.00  0.00     0.049 A 
ATOM     49  H   UNL     1      -0.472   6.599 -13.102  1.00  0.00     0.167 HD
ATOM     50  C   UNL     1      -2.749  10.283 -12.421  1.00  0.00     0.037 A 
ATOM     51  C   UNL     1       0.107   4.200 -14.413  1.00  0.00     0.037 A 
ATOM     52  C   UNL     1      -3.233   9.762 -13.672  1.00  0.00     0.049 A 
ATOM     53  C   UNL     1      -0.956   4.879 -15.231  1.00  0.00     0.074 A 
ATOM     54  C   UNL     1      -4.169  10.312 -14.530  1.00  0.00     0.029 A 
ATOM     55  N   UNL     1      -2.819   8.568 -14.246  1.00  0.00    -0.354 N 
ATOM     56  N   UNL     1      -1.569   6.016 -15.003  1.00  0.00    -0.248 NA
ATOM     57  C   UNL     1      -1.384   4.199 -16.461  1.00  0.00     0.031 C 
ATOM     58  C   UNL     1      -4.347   9.434 -15.606  1.00  0.00     0.029 A 
ATOM     59  C   UNL     1      -3.492   8.356 -15.438  1.00  0.00     0.049 A 
ATOM     60  H   UNL     1      -2.146   7.961 -13.862  1.00  0.00     0.167 HD
ATOM     61  C   UNL     1      -2.440   6.199 -16.071  1.00  0.00     0.074 A 
ATOM     62  C   UNL     1      -2.265   5.061 -16.951  1.00  0.00     0.031 C 
ATOM     63  C   UNL     1      -3.305   7.218 -16.302  1.00  0.00     0.037 A 
BRANCH  50  64
ATOM     64  C   UNL     1      -3.355  11.553 -11.890  1.00  0.00     0.058 A 
ATOM     65  C   UNL     1      -2.639  12.761 -11.875  1.00  0.00     0.135 A 
ATOM     66  C   UNL     1      -4.673  11.567 -11.406  1.00  0.00     0.135 A 
ATOM     67  F   UNL     1      -1.370  12.800 -12.312  1.00  0.00    -0.206 F 
ATOM     68  C   UNL     1      -3.195  13.930 -11.367  1.00  0.00     0.059 A 
ATOM     69  C   UNL     1      -5.259  12.732 -10.917  1.00  0.00     0.059 A 
ATOM     70  F   UNL     1      -5.403  10.441 -11.398  1.00  0.00    -0.206 F 
ATOM     71  C   UNL     1      -4.505  13.904 -10.885  1.00  0.00     0.060 A 
BRANCH  71  72
ATOM     72  S   UNL     1      -5.210  15.426 -10.218  1.00  0.00     0.124 S 
ATOM     73  O   UNL     1      -4.549  15.507  -8.919  1.00  0.00    -0.237 OA
ATOM     74  O   UNL     1      -4.797  16.422 -11.201  1.00  0.00    -0.237 OA
ATOM     75  O   UNL     1      -6.642  15.147 -10.177  1.00  0.00    -0.744 OA
ENDBRANCH  71  72
ENDBRANCH  50  64
BRANCH  51  76
ATOM     76  C   UNL     1       0.675   2.891 -14.828  1.00  0.00     0.058 A 
ATOM     77  C   UNL     1       1.540   2.798 -15.927  1.00  0.00     0.135 A 
ATOM     78  C   UNL     1       0.393   1.716 -14.113  1.00  0.00     0.135 A 
ATOM     79  F   UNL     1       1.835   3.894 -16.643  1.00  0.00    -0.206 F 
ATOM     80  C   UNL     1       2.102   1.585 -16.310  1.00  0.00     0.059 A 
ATOM     81  C   UNL     1       0.960   0.495 -14.464  1.00  0.00     0.059 A 
ATOM     82  F   UNL     1      -0.415   1.758 -13.043  1.00  0.00    -0.206 F 
ATOM     83  C   UNL     1       1.809   0.439 -15.569  1.00  0.00     0.060 A 
BRANCH  83  84
ATOM     84  S   UNL     1       2.599  -1.119 -16.031  1.00  0.00     0.124 S 
ATOM     85  O   UNL     1       1.839  -1.493 -17.218  1.00  0.00    -0.237 OA
ATOM     86  O   UNL     1       3.980  -0.708 -16.260  1.00  0.00    -0.237 OA
ATOM     87  O   UNL     1       2.391  -1.959 -14.855  1.00  0.00    -0.744 OA
ENDBRANCH  83  84
ENDBRANCH  51  76
BRANCH  63  88
ATOM     88  C   UNL     1      -4.112   7.161 -17.569  1.00  0.00     0.058 A 
ATOM     89  C   UNL     1      -5.195   6.281 -17.712  1.00  0.00     0.135 A 
ATOM     90  C   UNL     1      -3.825   8.031 -18.634  1.00  0.00     0.135 A 
ATOM     91  F   UNL     1      -5.505   5.425 -16.725  1.00  0.00    -0.206 F 
ATOM     92  C   UNL     1      -5.954   6.249 -18.876  1.00  0.00     0.059 A 
ATOM     93  C   UNL     1      -4.586   8.032 -19.798  1.00  0.00     0.059 A 
ATOM     94  F   UNL     1      -2.805   8.899 -18.543  1.00  0.00    -0.206 F 
ATOM     95  C   UNL     1      -5.642   7.128 -19.915  1.00  0.00     0.060 A 
BRANCH  95  96
ATOM     96  S   UNL     1      -6.653   7.099 -21.410  1.00  0.00     0.124 S 
ATOM     97  O   UNL     1      -6.155   5.901 -22.077  1.00  0.00    -0.237 OA
ATOM     98  O   UNL     1      -8.007   7.010 -20.874  1.00  0.00    -0.237 OA
ATOM     99  O   UNL     1      -6.327   8.364 -22.064  1.00  0.00    -0.744 OA
ENDBRANCH  95  96
ENDBRANCH  63  88
ENDBRANCH  37  38
ENDBRANCH  29  32
ENDBRANCH  27  28
ENDBRANCH  26  27
ENDBRANCH   1  26
TORSDOF 19
