REMARK SMILES CC(C)(C(=O)N1C[C@@H]2c3ccccc3OC[C@]2(C(=O)NCCCCCCNC(=O)c2ccc(-c3c4nc(c(-c5c(F)cc(S(=O)(=O)[O-])cc5F)c5ccc([nH]5)c(-c5c(F)cc(S(=O)(=O)[O-])cc5F)c5nc(c(-c6c(F)cc(S(=O)(=O)[O-])cc6F)c6ccc3[nH]6)C=C5)C=C4)cc2)C1)[NH+]1CCOCC1
REMARK SMILES IDX 23 1 22 2 21 3 20 4 18 5 19 6 17 8 6 9 7 10 96 11 8 12 9 13
REMARK SMILES IDX 16 14 10 15 14 16 15 17 11 18 13 19 12 20 4 21 5 22 2 23
REMARK SMILES IDX 1 24 3 25 97 26 98 27 102 28 99 30 101 31 100 32 24 33 25 34
REMARK SMILES IDX 26 35 27 36 28 37 29 39 30 40 31 41 95 42 32 43 94 44 33 45
REMARK SMILES IDX 34 46 35 47 88 48 36 49 93 50 87 51 89 52 37 53 92 54 86 55
REMARK SMILES IDX 85 56 38 58 72 59 51 60 71 61 52 62 55 63 70 64 90 65 53 66
REMARK SMILES IDX 54 67 69 69 91 70 56 71 39 72 40 73 49 74 41 75 42 76 48 77
REMARK SMILES IDX 50 78 43 79 44 80 45 81 46 82 47 83 73 84 74 85 83 86 75 87
REMARK SMILES IDX 76 88 82 89 84 90 77 91 78 92 79 93 80 94 81 95 57 96 58 97
REMARK SMILES IDX 67 98 59 99 60 100 66 101 68 102 61 103 62 104 63 105 64 106
REMARK SMILES IDX 65 107
REMARK H PARENT 20 7 97 29 27 38 89 57 55 68
REMARK Flexibility Score: inf
ROOT
ATOM      1  C   UNL     1      -1.068  -4.709  -1.239  1.00  0.00     0.002 C 
ENDROOT
BRANCH   1   2
ATOM      2  C   UNL     1      -1.815  -3.562  -0.554  1.00  0.00     0.021 C 
BRANCH   2   3
ATOM      3  C   UNL     1      -1.593  -2.161  -1.098  1.00  0.00     0.116 C 
BRANCH   3   4
ATOM      4  N   UNL     1      -1.763  -1.999  -2.533  1.00  0.00    -0.355 N 
ATOM      5  C   UNL     1      -2.094  -0.807  -3.159  1.00  0.00     0.232 C 
ATOM      6  O   UNL     1      -1.703  -0.609  -4.312  1.00  0.00    -0.274 OA
ATOM      7  H   UNL     1      -1.633  -2.793  -3.101  1.00  0.00     0.163 HD
BRANCH   5   8
ATOM      8  C   UNL     1      -2.992   0.181  -2.339  1.00  0.00     0.109 C 
ATOM      9  N   UNL     1      -1.672   1.613  -0.838  1.00  0.00    -0.335 N 
ATOM     10  C   UNL     1      -3.031   2.068  -0.796  1.00  0.00     0.129 C 
ATOM     11  C   UNL     1      -1.517   0.839  -2.055  1.00  0.00     0.141 C 
ATOM     12  C   UNL     1      -3.559   1.676  -2.180  1.00  0.00     0.063 C 
ATOM     13  C   UNL     1      -5.043   1.948  -2.245  1.00  0.00     0.000 A 
ATOM     14  C   UNL     1      -4.094  -0.237  -3.415  1.00  0.00     0.249 C 
ATOM     15  C   UNL     1      -5.577   3.232  -2.058  1.00  0.00     0.008 A 
ATOM     16  C   UNL     1      -5.905   0.915  -2.575  1.00  0.00     0.122 A 
ATOM     17  O   UNL     1      -5.407  -0.327  -2.815  1.00  0.00    -0.492 OA
ATOM     18  C   UNL     1      -6.951   3.454  -2.185  1.00  0.00     0.001 A 
ATOM     19  C   UNL     1      -7.278   1.117  -2.683  1.00  0.00     0.047 A 
ATOM     20  C   UNL     1      -7.803   2.395  -2.497  1.00  0.00     0.004 A 
BRANCH   9  21
ATOM     21  C   UNL     1      -0.947   1.438   0.336  1.00  0.00     0.283 C 
ATOM     22  O   UNL     1      -1.568   1.259   1.390  1.00  0.00    -0.268 OA
BRANCH  21  23
ATOM     23  C   UNL     1       0.645   1.616   0.302  1.00  0.00     0.171 C 
ATOM     24  C   UNL     1       1.372   0.577  -0.568  1.00  0.00     0.090 C 
ATOM     25  C   UNL     1       0.882   2.994  -0.363  1.00  0.00     0.090 C 
BRANCH  23  26
ATOM     26  N   UNL     1       1.098   1.574   1.726  1.00  0.00    -0.319 N 
ATOM     27  C   UNL     1       2.039   2.580   2.232  1.00  0.00     0.291 C 
ATOM     28  C   UNL     1       1.435   0.263   2.314  1.00  0.00     0.291 C 
ATOM     29  H   UNL     1       0.178   1.857   2.065  1.00  0.00     0.349 HD
ATOM     30  C   UNL     1       3.500   2.180   2.003  1.00  0.00     0.221 C 
ATOM     31  C   UNL     1       2.935  -0.109   2.234  1.00  0.00     0.221 C 
ATOM     32  O   UNL     1       3.789   0.950   2.674  1.00  0.00    -0.370 OA
ENDBRANCH  23  26
ENDBRANCH  21  23
ENDBRANCH   9  21
ENDBRANCH   5   8
ENDBRANCH   3   4
ENDBRANCH   2   3
ENDBRANCH   1   2
BRANCH   1  33
ATOM     33  C   UNL     1       0.420  -4.525  -1.551  1.00  0.00     0.002 C 
BRANCH  33  34
ATOM     34  C   UNL     1       1.342  -4.113  -0.406  1.00  0.00     0.021 C 
BRANCH  34  35
ATOM     35  C   UNL     1       1.249  -4.927   0.877  1.00  0.00     0.116 C 
BRANCH  35  36
ATOM     36  N   UNL     1       1.540  -6.341   0.706  1.00  0.00    -0.352 N 
ATOM     37  C   UNL     1       2.288  -7.179   1.505  1.00  0.00     0.251 C 
ATOM     38  H   UNL     1       1.147  -6.759  -0.093  1.00  0.00     0.163 HD
ATOM     39  O   UNL     1       2.474  -8.344   1.160  1.00  0.00    -0.269 OA
BRANCH  37  40
ATOM     40  C   UNL     1       2.910  -6.665   2.748  1.00  0.00     0.039 A 
ATOM     41  C   UNL     1       2.202  -5.840   3.623  1.00  0.00     0.014 A 
ATOM     42  C   UNL     1       4.245  -6.983   3.021  1.00  0.00     0.014 A 
ATOM     43  C   UNL     1       2.875  -5.182   4.649  1.00  0.00     0.010 A 
ATOM     44  C   UNL     1       4.896  -6.391   4.110  1.00  0.00     0.010 A 
ATOM     45  C   UNL     1       4.235  -5.434   4.895  1.00  0.00    -0.014 A 
BRANCH  45  46
ATOM     46  C   UNL     1       4.941  -4.654   5.949  1.00  0.00     0.031 A 
ATOM     47  C   UNL     1       6.052  -3.701   5.587  1.00  0.00     0.074 A 
ATOM     48  C   UNL     1       4.520  -4.735   7.227  1.00  0.00     0.049 A 
ATOM     49  N   UNL     1       6.722  -2.883   6.360  1.00  0.00    -0.248 NA
ATOM     50  C   UNL     1       6.471  -3.662   4.176  1.00  0.00     0.031 C 
ATOM     51  C   UNL     1       3.449  -5.613   7.704  1.00  0.00     0.029 A 
ATOM     52  N   UNL     1       4.907  -4.046   8.349  1.00  0.00    -0.354 N 
ATOM     53  C   UNL     1       7.638  -2.239   5.535  1.00  0.00     0.074 A 
ATOM     54  C   UNL     1       7.473  -2.795   4.210  1.00  0.00     0.031 C 
ATOM     55  C   UNL     1       3.215  -5.357   9.000  1.00  0.00     0.029 A 
ATOM     56  C   UNL     1       4.156  -4.340   9.462  1.00  0.00     0.049 A 
ATOM     57  H   UNL     1       5.652  -3.402   8.355  1.00  0.00     0.167 HD
ATOM     58  C   UNL     1       8.521  -1.258   5.845  1.00  0.00     0.037 A 
ATOM     59  C   UNL     1       4.213  -3.849  10.716  1.00  0.00     0.037 A 
ATOM     60  C   UNL     1       8.667  -0.687   7.159  1.00  0.00     0.049 A 
ATOM     61  C   UNL     1       5.239  -2.805  11.051  1.00  0.00     0.074 A 
ATOM     62  C   UNL     1       9.514   0.329   7.565  1.00  0.00     0.029 A 
ATOM     63  N   UNL     1       7.947  -1.079   8.278  1.00  0.00    -0.354 N 
ATOM     64  N   UNL     1       6.088  -2.202  10.254  1.00  0.00    -0.248 NA
ATOM     65  C   UNL     1       5.332  -2.389  12.457  1.00  0.00     0.031 C 
ATOM     66  C   UNL     1       9.337   0.521   8.940  1.00  0.00     0.029 A 
ATOM     67  C   UNL     1       8.354  -0.349   9.382  1.00  0.00     0.049 A 
ATOM     68  H   UNL     1       7.250  -1.775   8.286  1.00  0.00     0.167 HD
ATOM     69  C   UNL     1       6.818  -1.338  11.061  1.00  0.00     0.074 A 
ATOM     70  C   UNL     1       6.296  -1.479  12.405  1.00  0.00     0.031 C 
ATOM     71  C   UNL     1       7.835  -0.510  10.718  1.00  0.00     0.037 A 
BRANCH  58  72
ATOM     72  C   UNL     1       9.401  -0.738   4.741  1.00  0.00     0.058 A 
ATOM     73  C   UNL     1       8.890   0.072   3.715  1.00  0.00     0.135 A 
ATOM     74  C   UNL     1      10.775  -1.026   4.723  1.00  0.00     0.135 A 
ATOM     75  F   UNL     1       7.582   0.369   3.676  1.00  0.00    -0.206 F 
ATOM     76  C   UNL     1       9.702   0.549   2.690  1.00  0.00     0.059 A 
ATOM     77  C   UNL     1      11.612  -0.540   3.721  1.00  0.00     0.059 A 
ATOM     78  F   UNL     1      11.318  -1.793   5.682  1.00  0.00    -0.206 F 
ATOM     79  C   UNL     1      11.062   0.233   2.699  1.00  0.00     0.060 A 
BRANCH  79  80
ATOM     80  S   UNL     1      12.095   0.844   1.351  1.00  0.00     0.124 S 
ATOM     81  O   UNL     1      11.647   0.009   0.240  1.00  0.00    -0.237 OA
ATOM     82  O   UNL     1      11.715   2.251   1.277  1.00  0.00    -0.237 OA
ATOM     83  O   UNL     1      13.454   0.588   1.818  1.00  0.00    -0.744 OA
ENDBRANCH  79  80
ENDBRANCH  58  72
BRANCH  59  84
ATOM     84  C   UNL     1       3.253  -4.341  11.739  1.00  0.00     0.058 A 
ATOM     85  C   UNL     1       2.212  -3.524  12.199  1.00  0.00     0.135 A 
ATOM     86  C   UNL     1       3.323  -5.654  12.232  1.00  0.00     0.135 A 
ATOM     87  F   UNL     1       2.109  -2.259  11.764  1.00  0.00    -0.206 F 
ATOM     88  C   UNL     1       1.266  -3.993  13.105  1.00  0.00     0.059 A 
ATOM     89  C   UNL     1       2.377  -6.152  13.120  1.00  0.00     0.059 A 
ATOM     90  F   UNL     1       4.296  -6.478  11.813  1.00  0.00    -0.206 F 
ATOM     91  C   UNL     1       1.351  -5.313  13.552  1.00  0.00     0.060 A 
BRANCH  91  92
ATOM     92  S   UNL     1       0.069  -5.935  14.662  1.00  0.00     0.124 S 
ATOM     93  O   UNL     1       0.387  -5.235  15.901  1.00  0.00    -0.237 OA
ATOM     94  O   UNL     1      -1.152  -5.512  13.984  1.00  0.00    -0.237 OA
ATOM     95  O   UNL     1       0.304  -7.376  14.672  1.00  0.00    -0.744 OA
ENDBRANCH  91  92
ENDBRANCH  59  84
BRANCH  71  96
ATOM     96  C   UNL     1       8.478   0.296  11.810  1.00  0.00     0.058 A 
ATOM     97  C   UNL     1       9.381  -0.294  12.707  1.00  0.00     0.135 A 
ATOM     98  C   UNL     1       8.274   1.683  11.896  1.00  0.00     0.135 A 
ATOM     99  F   UNL     1       9.601  -1.617  12.671  1.00  0.00    -0.206 F 
ATOM    100  C   UNL     1      10.067   0.465  13.649  1.00  0.00     0.059 A 
ATOM    101  C   UNL     1       8.966   2.464  12.817  1.00  0.00     0.059 A 
ATOM    102  F   UNL     1       7.424   2.295  11.057  1.00  0.00    -0.206 F 
ATOM    103  C   UNL     1       9.862   1.845  13.688  1.00  0.00     0.060 A 
BRANCH 103 104
ATOM    104  S   UNL     1      10.825   2.825  14.860  1.00  0.00     0.124 S 
ATOM    105  O   UNL     1      10.224   2.438  16.133  1.00  0.00    -0.237 OA
ATOM    106  O   UNL     1      12.182   2.341  14.627  1.00  0.00    -0.237 OA
ATOM    107  O   UNL     1      10.575   4.201  14.441  1.00  0.00    -0.744 OA
ENDBRANCH 103 104
ENDBRANCH  71  96
ENDBRANCH  45  46
ENDBRANCH  37  40
ENDBRANCH  35  36
ENDBRANCH  34  35
ENDBRANCH  33  34
ENDBRANCH   1  33
TORSDOF 19
