REMARK SMILES C[NH2+][C@@]1(C(=O)NCCCCCCNC(=O)c2ccc(-c3c4nc(c(-c5c(F)cc(S(=O)(=O)[O-])cc5F)c5ccc([nH]5)c(-c5c(F)cc(S(=O)(=O)[O-])cc5F)c5nc(c(-c6c(F)cc(S(=O)(=O)[O-])cc6F)c6ccc3[nH]6)C=C5)C=C4)cc2)CC[C@H](Sc2nccc(=O)[nH]2)C1
REMARK SMILES IDX 10 1 9 2 8 3 7 4 6 5 4 6 5 7 3 9 82 10 93 11 83 12 84 13
REMARK SMILES IDX 2 14 1 15 85 18 86 19 87 20 92 21 88 22 90 23 89 25 91 26
REMARK SMILES IDX 11 27 12 28 13 29 14 30 15 32 16 33 17 34 81 35 18 36 80 37
REMARK SMILES IDX 19 38 20 39 21 40 74 41 22 42 79 43 73 44 75 45 23 46 78 47
REMARK SMILES IDX 72 48 71 49 24 51 58 52 37 53 57 54 38 55 41 56 56 57 76 58
REMARK SMILES IDX 39 59 40 60 55 62 77 63 42 64 25 65 26 66 35 67 27 68 28 69
REMARK SMILES IDX 34 70 36 71 29 72 30 73 31 74 32 75 33 76 59 77 60 78 69 79
REMARK SMILES IDX 61 80 62 81 68 82 70 83 63 84 64 85 65 86 66 87 67 88 43 89
REMARK SMILES IDX 44 90 53 91 45 92 46 93 52 94 54 95 47 96 48 97 49 98 50 99
REMARK SMILES IDX 51 100
REMARK H PARENT 6 8 2 16 2 17 92 24 13 31 75 50 41 61
REMARK Flexibility Score: inf
ROOT
ATOM      1  C   UNL     1      -6.247   1.338   2.398  1.00  0.00     0.002 C 
ENDROOT
BRANCH   1   2
ATOM      2  C   UNL     1      -5.337   0.106   2.428  1.00  0.00     0.002 C 
BRANCH   2   3
ATOM      3  C   UNL     1      -4.616  -0.227   1.123  1.00  0.00     0.021 C 
BRANCH   3   4
ATOM      4  C   UNL     1      -3.847   0.920   0.486  1.00  0.00     0.116 C 
BRANCH   4   5
ATOM      5  N   UNL     1      -2.563   1.188   1.082  1.00  0.00    -0.351 N 
ATOM      6  C   UNL     1      -1.354   1.438   0.511  1.00  0.00     0.281 C 
ATOM      7  O   UNL     1      -0.517   1.955   1.269  1.00  0.00    -0.268 OA
ATOM      8  H   UNL     1      -2.560   1.190   2.067  1.00  0.00     0.163 HD
BRANCH   6   9
ATOM      9  C   UNL     1      -0.985   1.163  -1.008  1.00  0.00     0.176 C 
ATOM     10  C   UNL     1      -1.489   2.322  -1.897  1.00  0.00     0.080 C 
ATOM     11  C   UNL     1      -1.566  -0.104  -1.664  1.00  0.00     0.094 C 
ATOM     12  C   UNL     1      -2.774   1.832  -2.565  1.00  0.00     0.022 C 
ATOM     13  C   UNL     1      -2.522   0.345  -2.795  1.00  0.00     0.062 C 
BRANCH   9  14
ATOM     14  N   UNL     1       0.514   1.156  -1.102  1.00  0.00    -0.336 N 
ATOM     15  C   UNL     1       1.156   0.031  -0.418  1.00  0.00     0.331 C 
ATOM     16  H   UNL     1       0.772   1.121  -2.088  1.00  0.00     0.346 HD
ATOM     17  H   UNL     1       0.839   2.004  -0.637  1.00  0.00     0.346 HD
ENDBRANCH   9  14
BRANCH  13  18
ATOM     18  S   UNL     1      -3.844  -0.894  -2.942  1.00  0.00    -0.084 SA
BRANCH  18  19
ATOM     19  C   UNL     1      -5.366  -0.078  -2.939  1.00  0.00     0.168 A 
ATOM     20  N   UNL     1      -5.573   1.121  -3.365  1.00  0.00    -0.233 NA
ATOM     21  N   UNL     1      -6.342  -0.893  -2.455  1.00  0.00    -0.301 N 
ATOM     22  C   UNL     1      -6.880   1.550  -3.349  1.00  0.00     0.120 A 
ATOM     23  C   UNL     1      -7.647  -0.515  -2.400  1.00  0.00     0.251 A 
ATOM     24  H   UNL     1      -6.095  -1.790  -2.133  1.00  0.00     0.172 HD
ATOM     25  C   UNL     1      -7.924   0.833  -2.917  1.00  0.00     0.091 A 
ATOM     26  O   UNL     1      -8.518  -1.226  -1.927  1.00  0.00    -0.269 OA
ENDBRANCH  18  19
ENDBRANCH  13  18
ENDBRANCH   6   9
ENDBRANCH   4   5
ENDBRANCH   3   4
ENDBRANCH   2   3
ENDBRANCH   1   2
BRANCH   1  27
ATOM     27  C   UNL     1      -7.256   1.418   1.247  1.00  0.00     0.021 C 
BRANCH  27  28
ATOM     28  C   UNL     1      -8.232   0.250   1.128  1.00  0.00     0.116 C 
BRANCH  28  29
ATOM     29  N   UNL     1      -9.047   0.072   2.315  1.00  0.00    -0.352 N 
ATOM     30  C   UNL     1     -10.410  -0.068   2.425  1.00  0.00     0.251 C 
ATOM     31  H   UNL     1      -8.552   0.048   3.165  1.00  0.00     0.163 HD
ATOM     32  O   UNL     1     -10.928  -0.069   3.539  1.00  0.00    -0.269 OA
BRANCH  30  33
ATOM     33  C   UNL     1     -11.258  -0.185   1.216  1.00  0.00     0.039 A 
ATOM     34  C   UNL     1     -12.434   0.566   1.142  1.00  0.00     0.014 A 
ATOM     35  C   UNL     1     -10.917  -1.039   0.166  1.00  0.00     0.014 A 
ATOM     36  C   UNL     1     -13.233   0.502  -0.004  1.00  0.00     0.010 A 
ATOM     37  C   UNL     1     -11.679  -1.049  -1.005  1.00  0.00     0.010 A 
ATOM     38  C   UNL     1     -12.849  -0.283  -1.105  1.00  0.00    -0.014 A 
BRANCH  38  39
ATOM     39  C   UNL     1     -13.652  -0.292  -2.361  1.00  0.00     0.031 A 
ATOM     40  C   UNL     1     -14.305  -1.559  -2.851  1.00  0.00     0.074 A 
ATOM     41  C   UNL     1     -13.762   0.837  -3.091  1.00  0.00     0.049 A 
ATOM     42  N   UNL     1     -15.034  -1.751  -3.922  1.00  0.00    -0.248 NA
ATOM     43  C   UNL     1     -14.096  -2.772  -2.046  1.00  0.00     0.031 C 
ATOM     44  C   UNL     1     -13.135   2.120  -2.764  1.00  0.00     0.029 A 
ATOM     45  N   UNL     1     -14.437   1.089  -4.261  1.00  0.00    -0.354 N 
ATOM     46  C   UNL     1     -15.363  -3.102  -3.924  1.00  0.00     0.074 A 
ATOM     47  C   UNL     1     -14.709  -3.693  -2.776  1.00  0.00     0.031 C 
ATOM     48  C   UNL     1     -13.478   3.027  -3.692  1.00  0.00     0.029 A 
ATOM     49  C   UNL     1     -14.317   2.387  -4.702  1.00  0.00     0.049 A 
ATOM     50  H   UNL     1     -14.958   0.405  -4.740  1.00  0.00     0.167 HD
ATOM     51  C   UNL     1     -16.156  -3.785  -4.785  1.00  0.00     0.037 A 
ATOM     52  C   UNL     1     -14.820   2.996  -5.795  1.00  0.00     0.037 A 
ATOM     53  C   UNL     1     -16.822  -3.194  -5.919  1.00  0.00     0.049 A 
ATOM     54  C   UNL     1     -15.695   2.217  -6.740  1.00  0.00     0.074 A 
ATOM     55  C   UNL     1     -17.696  -3.792  -6.810  1.00  0.00     0.029 A 
ATOM     56  N   UNL     1     -16.682  -1.875  -6.324  1.00  0.00    -0.354 N 
ATOM     57  N   UNL     1     -16.062   0.959  -6.678  1.00  0.00    -0.248 NA
ATOM     58  C   UNL     1     -16.232   2.942  -7.901  1.00  0.00     0.031 C 
ATOM     59  C   UNL     1     -18.042  -2.851  -7.785  1.00  0.00     0.029 A 
ATOM     60  C   UNL     1     -17.431  -1.649  -7.468  1.00  0.00     0.049 A 
ATOM     61  H   UNL     1     -16.131  -1.199  -5.867  1.00  0.00     0.167 HD
ATOM     62  C   UNL     1     -16.894   0.750  -7.773  1.00  0.00     0.074 A 
ATOM     63  C   UNL     1     -16.987   2.014  -8.474  1.00  0.00     0.031 C 
ATOM     64  C   UNL     1     -17.525  -0.386  -8.160  1.00  0.00     0.037 A 
BRANCH  51  65
ATOM     65  C   UNL     1     -16.355  -5.258  -4.537  1.00  0.00     0.058 A 
ATOM     66  C   UNL     1     -17.095  -5.728  -3.439  1.00  0.00     0.135 A 
ATOM     67  C   UNL     1     -15.838  -6.210  -5.431  1.00  0.00     0.135 A 
ATOM     68  F   UNL     1     -17.605  -4.864  -2.547  1.00  0.00    -0.206 F 
ATOM     69  C   UNL     1     -17.286  -7.088  -3.218  1.00  0.00     0.059 A 
ATOM     70  C   UNL     1     -16.044  -7.575  -5.246  1.00  0.00     0.059 A 
ATOM     71  F   UNL     1     -15.127  -5.819  -6.500  1.00  0.00    -0.206 F 
ATOM     72  C   UNL     1     -16.756  -8.005  -4.128  1.00  0.00     0.060 A 
BRANCH  72  73
ATOM     73  S   UNL     1     -17.015  -9.765  -3.826  1.00  0.00     0.124 S 
ATOM     74  O   UNL     1     -16.131 -10.000  -2.689  1.00  0.00    -0.237 OA
ATOM     75  O   UNL     1     -18.445  -9.825  -3.539  1.00  0.00    -0.237 OA
ATOM     76  O   UNL     1     -16.604 -10.390  -5.079  1.00  0.00    -0.744 OA
ENDBRANCH  72  73
ENDBRANCH  51  65
BRANCH  52  77
ATOM     77  C   UNL     1     -14.522   4.433  -6.045  1.00  0.00     0.058 A 
ATOM     78  C   UNL     1     -15.523   5.410  -5.936  1.00  0.00     0.135 A 
ATOM     79  C   UNL     1     -13.230   4.857  -6.390  1.00  0.00     0.135 A 
ATOM     80  F   UNL     1     -16.776   5.053  -5.615  1.00  0.00    -0.206 F 
ATOM     81  C   UNL     1     -15.259   6.754  -6.176  1.00  0.00     0.059 A 
ATOM     82  C   UNL     1     -12.935   6.199  -6.609  1.00  0.00     0.059 A 
ATOM     83  F   UNL     1     -12.232   3.965  -6.491  1.00  0.00    -0.206 F 
ATOM     84  C   UNL     1     -13.959   7.140  -6.509  1.00  0.00     0.060 A 
BRANCH  84  85
ATOM     85  S   UNL     1     -13.615   8.893  -6.771  1.00  0.00     0.124 S 
ATOM     86  O   UNL     1     -14.263   9.132  -8.055  1.00  0.00    -0.237 OA
ATOM     87  O   UNL     1     -14.251   9.505  -5.609  1.00  0.00    -0.237 OA
ATOM     88  O   UNL     1     -12.156   8.950  -6.779  1.00  0.00    -0.744 OA
ENDBRANCH  84  85
ENDBRANCH  52  77
BRANCH  64  89
ATOM     89  C   UNL     1     -18.404  -0.316  -9.381  1.00  0.00     0.058 A 
ATOM     90  C   UNL     1     -17.870  -0.187 -10.673  1.00  0.00     0.135 A 
ATOM     91  C   UNL     1     -19.799  -0.434  -9.259  1.00  0.00     0.135 A 
ATOM     92  F   UNL     1     -16.545  -0.063 -10.847  1.00  0.00    -0.206 F 
ATOM     93  C   UNL     1     -18.689  -0.153 -11.798  1.00  0.00     0.059 A 
ATOM     94  C   UNL     1     -20.634  -0.433 -10.372  1.00  0.00     0.059 A 
ATOM     95  F   UNL     1     -20.363  -0.570  -8.048  1.00  0.00    -0.206 F 
ATOM     96  C   UNL     1     -20.070  -0.280 -11.638  1.00  0.00     0.060 A 
BRANCH  96  97
ATOM     97  S   UNL     1     -21.117  -0.270 -13.109  1.00  0.00     0.124 S 
ATOM     98  O   UNL     1     -21.061   1.135 -13.500  1.00  0.00    -0.237 OA
ATOM     99  O   UNL     1     -20.423  -1.202 -13.992  1.00  0.00    -0.237 OA
ATOM    100  O   UNL     1     -22.409  -0.732 -12.611  1.00  0.00    -0.744 OA
ENDBRANCH  96  97
ENDBRANCH  64  89
ENDBRANCH  38  39
ENDBRANCH  30  33
ENDBRANCH  28  29
ENDBRANCH  27  28
ENDBRANCH   1  27
TORSDOF 19
