REMARK SMILES Cc1cc(C)c2c(c1)C=C(C(=O)NCCCCCCNC(=O)c1ccc(-c3c4nc(c(-c5c(F)cc(S(=O)(=O)[O-])cc5F)c5ccc([nH]5)c(-c5c(F)cc(S(=O)(=O)[O-])cc5F)c5nc(c(-c6c(F)cc(S(=O)(=O)[O-])cc6F)c6ccc3[nH]6)C=C5)C=C4)cc1)[C@@H](C(F)(F)F)O2
REMARK SMILES IDX 17 1 16 2 15 3 14 4 13 5 11 6 12 7 10 9 1 10 2 11 3 12 8 13
REMARK SMILES IDX 4 14 7 15 5 16 6 17 9 18 94 19 89 20 90 21 91 22 92 23 93 24
REMARK SMILES IDX 18 25 19 26 20 27 21 28 22 30 23 31 24 32 88 33 25 34 87 35
REMARK SMILES IDX 26 36 27 37 28 38 81 39 29 40 86 41 80 42 82 43 30 44 85 45
REMARK SMILES IDX 79 46 78 47 31 49 65 50 44 51 64 52 45 53 48 54 63 55 83 56
REMARK SMILES IDX 46 57 47 58 62 60 84 61 49 62 32 63 33 64 42 65 34 66 35 67
REMARK SMILES IDX 41 68 43 69 36 70 37 71 38 72 39 73 40 74 66 75 67 76 76 77
REMARK SMILES IDX 68 78 69 79 75 80 77 81 70 82 71 83 72 84 73 85 74 86 50 87
REMARK SMILES IDX 51 88 60 89 52 90 53 91 59 92 61 93 54 94 55 95 56 96 57 97
REMARK SMILES IDX 58 98
REMARK H PARENT 13 8 20 29 82 48 48 59
REMARK Flexibility Score: inf
ROOT
ATOM      1  C   UNL     1      -0.189  10.532  -6.056  1.00  0.00     0.002 C 
ENDROOT
BRANCH   1   2
ATOM      2  C   UNL     1      -1.025  10.133  -4.833  1.00  0.00     0.002 C 
BRANCH   2   3
ATOM      3  C   UNL     1      -1.310   8.635  -4.699  1.00  0.00     0.021 C 
BRANCH   3   4
ATOM      4  C   UNL     1      -0.053   7.770  -4.678  1.00  0.00     0.116 C 
BRANCH   4   5
ATOM      5  N   UNL     1       0.503   7.661  -3.341  1.00  0.00    -0.352 N 
ATOM      6  C   UNL     1       0.767   6.674  -2.454  1.00  0.00     0.251 C 
ATOM      7  O   UNL     1       1.290   7.044  -1.397  1.00  0.00    -0.270 OA
ATOM      8  H   UNL     1       0.758   8.543  -2.984  1.00  0.00     0.163 HD
BRANCH   6   9
ATOM      9  C   UNL     1       0.476   5.224  -2.663  1.00  0.00     0.067 C 
ATOM     10  C   UNL     1       0.968  -0.211   0.242  1.00  0.00     0.044 C 
ATOM     11  C   UNL     1       0.549   0.735  -0.844  1.00  0.00    -0.050 A 
ATOM     12  C   UNL     1      -0.086   0.260  -2.000  1.00  0.00     0.010 A 
ATOM     13  C   UNL     1       0.810   2.106  -0.716  1.00  0.00     0.015 A 
ATOM     14  C   UNL     1      -0.469   1.140  -3.019  1.00  0.00    -0.008 A 
ATOM     15  C   UNL     1       0.441   2.995  -1.728  1.00  0.00     0.018 A 
ATOM     16  C   UNL     1      -1.153   0.629  -4.255  1.00  0.00     0.048 C 
ATOM     17  C   UNL     1      -0.191   2.505  -2.873  1.00  0.00     0.130 A 
ATOM     18  C   UNL     1       0.673   4.429  -1.595  1.00  0.00     0.025 C 
ATOM     19  O   UNL     1      -0.607   3.329  -3.878  1.00  0.00    -0.475 OA
ATOM     20  C   UNL     1       0.033   4.627  -3.968  1.00  0.00     0.314 C 
BRANCH  20  21
ATOM     21  C   UNL     1       1.166   4.561  -5.008  1.00  0.00     0.429 C 
ATOM     22  F   UNL     1       0.664   4.337  -6.247  1.00  0.00    -0.167 F 
ATOM     23  F   UNL     1       1.868   5.717  -5.084  1.00  0.00    -0.167 F 
ATOM     24  F   UNL     1       2.057   3.579  -4.745  1.00  0.00    -0.167 F 
ENDBRANCH  20  21
ENDBRANCH   6   9
ENDBRANCH   4   5
ENDBRANCH   3   4
ENDBRANCH   2   3
ENDBRANCH   1   2
BRANCH   1  25
ATOM     25  C   UNL     1      -0.671   9.968  -7.397  1.00  0.00     0.021 C 
BRANCH  25  26
ATOM     26  C   UNL     1      -2.106  10.335  -7.764  1.00  0.00     0.116 C 
BRANCH  26  27
ATOM     27  N   UNL     1      -2.287  11.774  -7.840  1.00  0.00    -0.352 N 
ATOM     28  C   UNL     1      -2.701  12.544  -8.892  1.00  0.00     0.251 C 
ATOM     29  H   UNL     1      -2.081  12.268  -7.013  1.00  0.00     0.163 HD
ATOM     30  O   UNL     1      -2.558  13.767  -8.845  1.00  0.00    -0.269 OA
BRANCH  28  31
ATOM     31  C   UNL     1      -3.319  11.917 -10.078  1.00  0.00     0.039 A 
ATOM     32  C   UNL     1      -2.969  12.384 -11.348  1.00  0.00     0.014 A 
ATOM     33  C   UNL     1      -4.281  10.912  -9.939  1.00  0.00     0.014 A 
ATOM     34  C   UNL     1      -3.563  11.823 -12.480  1.00  0.00     0.010 A 
ATOM     35  C   UNL     1      -4.829  10.313 -11.070  1.00  0.00     0.010 A 
ATOM     36  C   UNL     1      -4.488  10.776 -12.350  1.00  0.00    -0.014 A 
BRANCH  36  37
ATOM     37  C   UNL     1      -5.154  10.187 -13.537  1.00  0.00     0.031 A 
ATOM     38  C   UNL     1      -6.632  10.386 -13.736  1.00  0.00     0.074 A 
ATOM     39  C   UNL     1      -4.442   9.445 -14.406  1.00  0.00     0.049 A 
ATOM     40  N   UNL     1      -7.418   9.882 -14.651  1.00  0.00    -0.248 NA
ATOM     41  C   UNL     1      -7.321  11.250 -12.763  1.00  0.00     0.031 C 
ATOM     42  C   UNL     1      -3.007   9.171 -14.308  1.00  0.00     0.029 A 
ATOM     43  N   UNL     1      -4.831   8.779 -15.540  1.00  0.00    -0.354 N 
ATOM     44  C   UNL     1      -8.691  10.360 -14.362  1.00  0.00     0.074 A 
ATOM     45  C   UNL     1      -8.582  11.152 -13.157  1.00  0.00     0.031 C 
ATOM     46  C   UNL     1      -2.634   8.410 -15.349  1.00  0.00     0.029 A 
ATOM     47  C   UNL     1      -3.806   8.109 -16.165  1.00  0.00     0.049 A 
ATOM     48  H   UNL     1      -5.757   8.780 -15.875  1.00  0.00     0.167 HD
ATOM     49  C   UNL     1      -9.841  10.173 -15.052  1.00  0.00     0.037 A 
ATOM     50  C   UNL     1      -3.815   7.333 -17.267  1.00  0.00     0.037 A 
ATOM     51  C   UNL     1      -9.936   9.401 -16.263  1.00  0.00     0.049 A 
ATOM     52  C   UNL     1      -5.111   7.119 -18.000  1.00  0.00     0.074 A 
ATOM     53  C   UNL     1     -11.048   9.178 -17.056  1.00  0.00     0.029 A 
ATOM     54  N   UNL     1      -8.878   8.731 -16.860  1.00  0.00    -0.354 N 
ATOM     55  N   UNL     1      -6.303   7.593 -17.724  1.00  0.00    -0.248 NA
ATOM     56  C   UNL     1      -5.064   6.265 -19.194  1.00  0.00     0.031 C 
ATOM     57  C   UNL     1     -10.670   8.342 -18.113  1.00  0.00     0.029 A 
ATOM     58  C   UNL     1      -9.314   8.080 -18.003  1.00  0.00     0.049 A 
ATOM     59  H   UNL     1      -7.954   8.720 -16.522  1.00  0.00     0.167 HD
ATOM     60  C   UNL     1      -7.145   7.107 -18.718  1.00  0.00     0.074 A 
ATOM     61  C   UNL     1      -6.321   6.319 -19.613  1.00  0.00     0.031 C 
ATOM     62  C   UNL     1      -8.479   7.293 -18.875  1.00  0.00     0.037 A 
BRANCH  49  63
ATOM     63  C   UNL     1     -11.088  10.822 -14.518  1.00  0.00     0.058 A 
ATOM     64  C   UNL     1     -11.279  12.211 -14.587  1.00  0.00     0.135 A 
ATOM     65  C   UNL     1     -12.122  10.045 -13.970  1.00  0.00     0.135 A 
ATOM     66  F   UNL     1     -10.314  13.002 -15.083  1.00  0.00    -0.206 F 
ATOM     67  C   UNL     1     -12.443  12.809 -14.116  1.00  0.00     0.059 A 
ATOM     68  C   UNL     1     -13.306  10.620 -13.517  1.00  0.00     0.059 A 
ATOM     69  F   UNL     1     -11.989   8.713 -13.875  1.00  0.00    -0.206 F 
ATOM     70  C   UNL     1     -13.452  12.005 -13.585  1.00  0.00     0.060 A 
BRANCH  70  71
ATOM     71  S   UNL     1     -14.963  12.798 -12.996  1.00  0.00     0.124 S 
ATOM     72  O   UNL     1     -14.488  13.472 -11.791  1.00  0.00    -0.237 OA
ATOM     73  O   UNL     1     -15.312  13.670 -14.114  1.00  0.00    -0.237 OA
ATOM     74  O   UNL     1     -15.871  11.678 -12.771  1.00  0.00    -0.744 OA
ENDBRANCH  70  71
ENDBRANCH  49  63
BRANCH  50  75
ATOM     75  C   UNL     1      -2.551   6.718 -17.750  1.00  0.00     0.058 A 
ATOM     76  C   UNL     1      -1.934   7.172 -18.924  1.00  0.00     0.135 A 
ATOM     77  C   UNL     1      -1.925   5.681 -17.041  1.00  0.00     0.135 A 
ATOM     78  F   UNL     1      -2.500   8.155 -19.641  1.00  0.00    -0.206 F 
ATOM     79  C   UNL     1      -0.745   6.617 -19.385  1.00  0.00     0.059 A 
ATOM     80  C   UNL     1      -0.723   5.125 -17.469  1.00  0.00     0.059 A 
ATOM     81  F   UNL     1      -2.468   5.219 -15.904  1.00  0.00    -0.206 F 
ATOM     82  C   UNL     1      -0.144   5.596 -18.647  1.00  0.00     0.060 A 
BRANCH  82  83
ATOM     83  S   UNL     1       1.430   4.924 -19.225  1.00  0.00     0.124 S 
ATOM     84  O   UNL     1       1.014   4.174 -20.404  1.00  0.00    -0.237 OA
ATOM     85  O   UNL     1       2.204   6.136 -19.478  1.00  0.00    -0.237 OA
ATOM     86  O   UNL     1       1.887   4.122 -18.094  1.00  0.00    -0.744 OA
ENDBRANCH  82  83
ENDBRANCH  50  75
BRANCH  62  87
ATOM     87  C   UNL     1      -9.128   6.639 -20.063  1.00  0.00     0.058 A 
ATOM     88  C   UNL     1      -9.341   5.253 -20.112  1.00  0.00     0.135 A 
ATOM     89  C   UNL     1      -9.579   7.411 -21.146  1.00  0.00     0.135 A 
ATOM     90  F   UNL     1      -8.924   4.470 -19.104  1.00  0.00    -0.206 F 
ATOM     91  C   UNL     1      -9.951   4.650 -21.206  1.00  0.00     0.059 A 
ATOM     92  C   UNL     1     -10.217   6.832 -22.239  1.00  0.00     0.059 A 
ATOM     93  F   UNL     1      -9.412   8.743 -21.144  1.00  0.00    -0.206 F 
ATOM     94  C   UNL     1     -10.386   5.449 -22.266  1.00  0.00     0.060 A 
BRANCH  94  95
ATOM     95  S   UNL     1     -11.191   4.654 -23.672  1.00  0.00     0.124 S 
ATOM     96  O   UNL     1     -10.062   4.006 -24.329  1.00  0.00    -0.237 OA
ATOM     97  O   UNL     1     -12.144   3.760 -23.021  1.00  0.00    -0.237 OA
ATOM     98  O   UNL     1     -11.786   5.771 -24.400  1.00  0.00    -0.744 OA
ENDBRANCH  94  95
ENDBRANCH  62  87
ENDBRANCH  36  37
ENDBRANCH  28  31
ENDBRANCH  26  27
ENDBRANCH  25  26
ENDBRANCH   1  25
TORSDOF 17
