REMARK SMILES COc1ccc(-c2ncn(CC(=O)NCCCCCCNC(=O)c3ccc(-c4c5nc(c(-c6c(F)cc(S(=O)(=O)[O-])cc6F)c6ccc([nH]6)c(-c6c(F)cc(S(=O)(=O)[O-])cc6F)c6nc(c(-c7c(F)cc(S(=O)(=O)[O-])cc7F)c7ccc4[nH]7)C=C6)C=C5)cc3)c2-c2ccc(OC)cc2)cc1
REMARK SMILES IDX 17 1 16 2 15 3 14 4 12 5 13 6 11 8 10 9 7 10 8 11 90 12 9 13
REMARK SMILES IDX 6 14 3 15 4 16 100 17 5 18 99 19 2 20 1 21 91 22 92 23 98 24
REMARK SMILES IDX 93 25 97 26 94 27 95 28 96 29 18 30 19 31 20 32 21 33 22 34
REMARK SMILES IDX 23 36 24 37 25 38 89 39 26 40 88 41 27 42 28 43 29 44 82 45
REMARK SMILES IDX 30 46 87 47 81 48 83 49 31 50 86 51 80 52 79 53 32 55 66 56
REMARK SMILES IDX 45 57 65 58 46 59 49 60 64 61 84 62 47 63 48 64 63 66 85 67
REMARK SMILES IDX 50 68 33 69 34 70 43 71 35 72 36 73 42 74 44 75 37 76 38 77
REMARK SMILES IDX 39 78 40 79 41 80 67 81 68 82 77 83 69 84 70 85 76 86 78 87
REMARK SMILES IDX 71 88 72 89 73 90 74 91 75 92 51 93 52 94 61 95 53 96 54 97
REMARK SMILES IDX 60 98 62 99 55 100 56 101 57 102 58 103 59 104
REMARK H PARENT 14 7 21 35 83 54 49 65
REMARK Flexibility Score: inf
ROOT
ATOM      1  C   UNL     1      -1.295  -7.281   7.027  1.00  0.00     0.002 C 
ENDROOT
BRANCH   1   2
ATOM      2  C   UNL     1       0.081  -7.283   6.349  1.00  0.00     0.021 C 
BRANCH   2   3
ATOM      3  C   UNL     1       0.600  -8.665   5.954  1.00  0.00     0.116 C 
BRANCH   3   4
ATOM      4  N   UNL     1      -0.180  -9.272   4.894  1.00  0.00    -0.355 N 
ATOM      5  C   UNL     1       0.172  -9.558   3.607  1.00  0.00     0.239 C 
ATOM      6  O   UNL     1      -0.625 -10.221   2.936  1.00  0.00    -0.273 OA
ATOM      7  H   UNL     1      -1.102  -9.515   5.139  1.00  0.00     0.163 HD
BRANCH   5   8
ATOM      8  C   UNL     1       1.525  -9.165   3.047  1.00  0.00     0.223 C 
BRANCH   8   9
ATOM      9  N   UNL     1       1.839  -7.753   3.154  1.00  0.00    -0.321 N 
ATOM     10  C   UNL     1       1.893  -5.581   3.017  1.00  0.00     0.096 A 
ATOM     11  N   UNL     1       2.970  -5.946   3.782  1.00  0.00    -0.236 NA
ATOM     12  C   UNL     1       1.195  -6.692   2.560  1.00  0.00     0.076 A 
ATOM     13  C   UNL     1       2.935  -7.256   3.812  1.00  0.00     0.201 A 
BRANCH  10  14
ATOM     14  C   UNL     1       1.581  -4.223   2.630  1.00  0.00     0.003 A 
ATOM     15  C   UNL     1       0.838  -1.746   1.546  1.00  0.00     0.118 A 
ATOM     16  C   UNL     1      -0.047  -2.451   2.363  1.00  0.00     0.047 A 
ATOM     17  C   UNL     1       2.112  -2.266   1.310  1.00  0.00     0.047 A 
ATOM     18  C   UNL     1       0.315  -3.688   2.896  1.00  0.00     0.014 A 
ATOM     19  C   UNL     1       2.493  -3.490   1.871  1.00  0.00     0.014 A 
BRANCH  15  20
ATOM     20  O   UNL     1       0.345  -0.566   1.063  1.00  0.00    -0.497 OA
ATOM     21  C   UNL     1       1.084   0.044   0.010  1.00  0.00     0.278 C 
ENDBRANCH  15  20
ENDBRANCH  10  14
BRANCH  12  22
ATOM     22  C   UNL     1       0.121  -6.773   1.576  1.00  0.00     0.001 A 
ATOM     23  C   UNL     1      -1.179  -7.129   1.933  1.00  0.00     0.014 A 
ATOM     24  C   UNL     1       0.385  -6.402   0.252  1.00  0.00     0.014 A 
ATOM     25  C   UNL     1      -2.188  -7.157   0.967  1.00  0.00     0.047 A 
ATOM     26  C   UNL     1      -0.630  -6.406  -0.708  1.00  0.00     0.047 A 
ATOM     27  C   UNL     1      -1.922  -6.791  -0.354  1.00  0.00     0.118 A 
BRANCH  27  28
ATOM     28  O   UNL     1      -2.998  -6.851  -1.198  1.00  0.00    -0.497 OA
ATOM     29  C   UNL     1      -2.819  -6.274  -2.485  1.00  0.00     0.278 C 
ENDBRANCH  27  28
ENDBRANCH  12  22
ENDBRANCH   8   9
ENDBRANCH   5   8
ENDBRANCH   3   4
ENDBRANCH   2   3
ENDBRANCH   1   2
BRANCH   1  30
ATOM     30  C   UNL     1      -1.478  -8.249   8.206  1.00  0.00     0.002 C 
BRANCH  30  31
ATOM     31  C   UNL     1      -0.414  -8.200   9.314  1.00  0.00     0.021 C 
BRANCH  31  32
ATOM     32  C   UNL     1      -0.361  -6.883  10.072  1.00  0.00     0.116 C 
BRANCH  32  33
ATOM     33  N   UNL     1      -1.554  -6.652  10.885  1.00  0.00    -0.352 N 
ATOM     34  C   UNL     1      -1.859  -5.540  11.653  1.00  0.00     0.251 C 
ATOM     35  H   UNL     1      -2.222  -7.375  10.887  1.00  0.00     0.163 HD
ATOM     36  O   UNL     1      -2.662  -5.614  12.567  1.00  0.00    -0.269 OA
BRANCH  34  37
ATOM     37  C   UNL     1      -1.185  -4.265  11.336  1.00  0.00     0.039 A 
ATOM     38  C   UNL     1      -0.724  -3.410  12.340  1.00  0.00     0.014 A 
ATOM     39  C   UNL     1      -0.981  -3.960   9.995  1.00  0.00     0.014 A 
ATOM     40  C   UNL     1       0.021  -2.289  11.973  1.00  0.00     0.010 A 
ATOM     41  C   UNL     1      -0.101  -2.968   9.650  1.00  0.00     0.010 A 
ATOM     42  C   UNL     1       0.352  -2.086  10.623  1.00  0.00    -0.014 A 
BRANCH  42  43
ATOM     43  C   UNL     1       1.256  -1.009  10.221  1.00  0.00     0.031 A 
ATOM     44  C   UNL     1       2.544  -0.966  10.970  1.00  0.00     0.074 A 
ATOM     45  C   UNL     1       1.059  -0.245   9.121  1.00  0.00     0.049 A 
ATOM     46  N   UNL     1       2.939  -0.075  11.817  1.00  0.00    -0.248 NA
ATOM     47  C   UNL     1       3.440  -2.132  10.878  1.00  0.00     0.031 C 
ATOM     48  C   UNL     1       0.020  -0.367   8.089  1.00  0.00     0.029 A 
ATOM     49  N   UNL     1       1.833   0.760   8.632  1.00  0.00    -0.354 N 
ATOM     50  C   UNL     1       4.234  -0.439  12.182  1.00  0.00     0.074 A 
ATOM     51  C   UNL     1       4.404  -1.797  11.738  1.00  0.00     0.031 C 
ATOM     52  C   UNL     1       0.373   0.347   6.997  1.00  0.00     0.029 A 
ATOM     53  C   UNL     1       1.551   1.128   7.320  1.00  0.00     0.049 A 
ATOM     54  H   UNL     1       2.537   1.195   9.165  1.00  0.00     0.167 HD
ATOM     55  C   UNL     1       5.139   0.490  12.601  1.00  0.00     0.037 A 
ATOM     56  C   UNL     1       2.250   2.000   6.549  1.00  0.00     0.037 A 
ATOM     57  C   UNL     1       4.485   1.726  12.959  1.00  0.00     0.049 A 
ATOM     58  C   UNL     1       3.051   2.843   7.471  1.00  0.00     0.074 A 
ATOM     59  C   UNL     1       3.497   2.077  13.861  1.00  0.00     0.029 A 
ATOM     60  N   UNL     1       4.554   2.769  12.066  1.00  0.00    -0.354 N 
ATOM     61  N   UNL     1       2.532   3.695   8.311  1.00  0.00    -0.248 NA
ATOM     62  C   UNL     1       4.401   2.399   7.781  1.00  0.00     0.031 C 
ATOM     63  C   UNL     1       2.696   3.036  13.173  1.00  0.00     0.029 A 
ATOM     64  C   UNL     1       3.284   3.271  11.930  1.00  0.00     0.049 A 
ATOM     65  H   UNL     1       5.363   3.095  11.609  1.00  0.00     0.167 HD
ATOM     66  C   UNL     1       3.292   3.559   9.463  1.00  0.00     0.074 A 
ATOM     67  C   UNL     1       4.479   2.812   9.049  1.00  0.00     0.031 C 
ATOM     68  C   UNL     1       2.760   3.812  10.695  1.00  0.00     0.037 A 
BRANCH  55  69
ATOM     69  C   UNL     1       6.629   0.420  12.338  1.00  0.00     0.058 A 
ATOM     70  C   UNL     1       7.481   1.374  12.936  1.00  0.00     0.135 A 
ATOM     71  C   UNL     1       7.216  -0.356  11.313  1.00  0.00     0.135 A 
ATOM     72  F   UNL     1       7.033   2.170  13.920  1.00  0.00    -0.206 F 
ATOM     73  C   UNL     1       8.785   1.597  12.491  1.00  0.00     0.059 A 
ATOM     74  C   UNL     1       8.531  -0.187  10.893  1.00  0.00     0.059 A 
ATOM     75  F   UNL     1       6.521  -1.248  10.600  1.00  0.00    -0.206 F 
ATOM     76  C   UNL     1       9.294   0.821  11.456  1.00  0.00     0.060 A 
BRANCH  76  77
ATOM     77  S   UNL     1      10.937   1.176  10.807  1.00  0.00     0.124 S 
ATOM     78  O   UNL     1      10.719   2.461  10.153  1.00  0.00    -0.237 OA
ATOM     79  O   UNL     1      11.742   1.204  12.024  1.00  0.00    -0.237 OA
ATOM     80  O   UNL     1      11.197   0.048   9.918  1.00  0.00    -0.744 OA
ENDBRANCH  76  77
ENDBRANCH  55  69
BRANCH  56  81
ATOM     81  C   UNL     1       2.561   1.908   5.099  1.00  0.00     0.058 A 
ATOM     82  C   UNL     1       3.099   3.005   4.399  1.00  0.00     0.135 A 
ATOM     83  C   UNL     1       2.650   0.659   4.460  1.00  0.00     0.135 A 
ATOM     84  F   UNL     1       3.082   4.228   4.950  1.00  0.00    -0.206 F 
ATOM     85  C   UNL     1       3.735   2.864   3.159  1.00  0.00     0.059 A 
ATOM     86  C   UNL     1       3.297   0.495   3.237  1.00  0.00     0.059 A 
ATOM     87  F   UNL     1       2.205  -0.457   5.057  1.00  0.00    -0.206 F 
ATOM     88  C   UNL     1       3.849   1.596   2.594  1.00  0.00     0.060 A 
BRANCH  88  89
ATOM     89  S   UNL     1       4.807   1.380   1.073  1.00  0.00     0.124 S 
ATOM     90  O   UNL     1       3.972   2.060   0.088  1.00  0.00    -0.237 OA
ATOM     91  O   UNL     1       6.068   2.035   1.400  1.00  0.00    -0.237 OA
ATOM     92  O   UNL     1       4.882  -0.071   0.915  1.00  0.00    -0.744 OA
ENDBRANCH  88  89
ENDBRANCH  56  81
BRANCH  68  93
ATOM     93  C   UNL     1       1.425   4.512  10.769  1.00  0.00     0.058 A 
ATOM     94  C   UNL     1       0.214   3.989  10.279  1.00  0.00     0.135 A 
ATOM     95  C   UNL     1       1.351   5.706  11.502  1.00  0.00     0.135 A 
ATOM     96  F   UNL     1       0.175   2.804   9.656  1.00  0.00    -0.206 F 
ATOM     97  C   UNL     1      -1.006   4.643  10.475  1.00  0.00     0.059 A 
ATOM     98  C   UNL     1       0.143   6.358  11.737  1.00  0.00     0.059 A 
ATOM     99  F   UNL     1       2.461   6.229  12.048  1.00  0.00    -0.206 F 
ATOM    100  C   UNL     1      -1.031   5.828  11.208  1.00  0.00     0.060 A 
BRANCH 100 101
ATOM    101  S   UNL     1      -2.614   6.638  11.524  1.00  0.00     0.124 S 
ATOM    102  O   UNL     1      -2.962   7.159  10.207  1.00  0.00    -0.237 OA
ATOM    103  O   UNL     1      -3.443   5.539  12.011  1.00  0.00    -0.237 OA
ATOM    104  O   UNL     1      -2.286   7.649  12.527  1.00  0.00    -0.744 OA
ENDBRANCH 100 101
ENDBRANCH  68  93
ENDBRANCH  42  43
ENDBRANCH  34  37
ENDBRANCH  32  33
ENDBRANCH  31  32
ENDBRANCH  30  31
ENDBRANCH   1  30
TORSDOF 21
