REMARK SMILES NS(=O)(=O)c1ccc(C#Cc2cc(Cl)cc3c2O[C@H](C(F)(F)F)C(C(=O)NCCCCCCNC(=O)c2ccc(-c4c5nc(c(-c6c(F)cc(S(=O)(=O)[O-])cc6F)c6ccc([nH]6)c(-c6c(F)cc(S(=O)(=O)[O-])cc6F)c6nc(c(-c7c(F)cc(S(=O)(=O)[O-])cc7F)c7ccc4[nH]7)C=C6)C=C5)cc2)=C3)cc1
REMARK SMILES IDX 30 1 29 2 28 3 27 4 25 5 26 6 24 8 11 9 12 10 17 11 13 12
REMARK SMILES IDX 16 13 18 14 14 15 15 16 103 17 19 18 10 19 9 20 8 21 5 22
REMARK SMILES IDX 6 23 105 24 7 25 104 26 2 27 3 28 4 29 1 30 20 33 21 34
REMARK SMILES IDX 22 35 23 36 31 37 32 38 33 39 34 40 35 41 36 43 37 44 38 45
REMARK SMILES IDX 102 46 39 47 101 48 40 49 41 50 42 51 95 52 43 53 100 54
REMARK SMILES IDX 94 55 96 56 44 57 99 58 93 59 92 60 45 62 79 63 58 64 78 65
REMARK SMILES IDX 59 66 62 67 77 68 97 69 60 70 61 71 76 73 98 74 63 75 46 76
REMARK SMILES IDX 47 77 56 78 48 79 49 80 55 81 57 82 50 83 51 84 52 85 53 86
REMARK SMILES IDX 54 87 80 88 81 89 90 90 82 91 83 92 89 93 91 94 84 95 85 96
REMARK SMILES IDX 86 97 87 98 88 99 64 100 65 101 74 102 66 103 67 104 73 105
REMARK SMILES IDX 75 106 68 107 69 108 70 109 71 110 72 111
REMARK H PARENT 27 7 1 31 1 32 34 42 96 61 62 72
REMARK Flexibility Score: inf
ROOT
ATOM      1  C   UNL     1      -0.002 -14.787   0.048  1.00  0.00     0.002 C 
ENDROOT
BRANCH   1   2
ATOM      2  C   UNL     1      -0.083 -13.435  -0.662  1.00  0.00     0.021 C 
BRANCH   2   3
ATOM      3  C   UNL     1       1.176 -13.105  -1.454  1.00  0.00     0.116 C 
BRANCH   3   4
ATOM      4  N   UNL     1       1.136 -13.675  -2.791  1.00  0.00    -0.352 N 
ATOM      5  C   UNL     1       1.177 -13.216  -4.064  1.00  0.00     0.251 C 
ATOM      6  O   UNL     1       1.141 -14.080  -4.946  1.00  0.00    -0.270 OA
ATOM      7  H   UNL     1       1.059 -14.656  -2.763  1.00  0.00     0.163 HD
BRANCH   5   8
ATOM      8  C   UNL     1       1.257 -11.775  -4.446  1.00  0.00     0.067 C 
ATOM      9  C   UNL     1       1.259  -7.732  -5.597  1.00  0.00     0.069 A 
ATOM     10  C   UNL     1       1.258  -7.394  -6.948  1.00  0.00     0.041 A 
ATOM     11  C   UNL     1       1.225  -9.081  -5.223  1.00  0.00     0.143 A 
ATOM     12  C   UNL     1       1.223  -8.406  -7.909  1.00  0.00     0.043 A 
ATOM     13  C   UNL     1       1.189 -10.097  -6.183  1.00  0.00     0.020 A 
ATOM     14  O   UNL     1       1.171  -9.347  -3.888  1.00  0.00    -0.474 OA
ATOM     15  Cl  UNL     1       1.208  -7.989  -9.579  1.00  0.00    -0.084 Cl
ATOM     16  C   UNL     1       1.190  -9.753  -7.536  1.00  0.00     0.032 A 
ATOM     17  C   UNL     1       1.108 -11.490  -5.753  1.00  0.00     0.025 C 
ATOM     18  C   UNL     1       1.525 -10.678  -3.459  1.00  0.00     0.314 C 
BRANCH   9  19
ATOM     19  C   UNL     1       1.283  -6.708  -4.592  1.00  0.00    -0.058 C 
ATOM     20  C   UNL     1       1.269  -5.892  -3.708  1.00  0.00    -0.062 C 
BRANCH  20  21
ATOM     21  C   UNL     1       1.181  -4.914  -2.668  1.00  0.00     0.025 A 
ATOM     22  C   UNL     1       0.806  -2.962  -0.711  1.00  0.00     0.082 A 
ATOM     23  C   UNL     1       1.156  -2.581  -2.008  1.00  0.00     0.023 A 
ATOM     24  C   UNL     1       0.693  -4.314  -0.372  1.00  0.00     0.023 A 
ATOM     25  C   UNL     1       1.344  -3.562  -2.985  1.00  0.00     0.018 A 
ATOM     26  C   UNL     1       0.878  -5.291  -1.355  1.00  0.00     0.018 A 
BRANCH  22  27
ATOM     27  S   UNL     1       0.466  -1.752   0.534  1.00  0.00     0.238 S 
ATOM     28  O   UNL     1       1.185  -2.107   1.731  1.00  0.00    -0.207 OA
ATOM     29  O   UNL     1      -0.952  -1.478   0.508  1.00  0.00    -0.207 OA
BRANCH  27  30
ATOM     30  N   UNL     1       1.206  -0.344  -0.023  1.00  0.00    -0.225 NA
ATOM     31  H   UNL     1       1.053   0.408   0.648  1.00  0.00     0.137 HD
ATOM     32  H   UNL     1       0.806  -0.083  -0.924  1.00  0.00     0.137 HD
ENDBRANCH  27  30
ENDBRANCH  22  27
ENDBRANCH  20  21
ENDBRANCH   9  19
BRANCH  18  33
ATOM     33  C   UNL     1       2.979 -10.677  -2.953  1.00  0.00     0.429 C 
ATOM     34  F   UNL     1       3.086  -9.954  -1.813  1.00  0.00    -0.167 F 
ATOM     35  F   UNL     1       3.432 -11.920  -2.664  1.00  0.00    -0.167 F 
ATOM     36  F   UNL     1       3.836 -10.151  -3.858  1.00  0.00    -0.167 F 
ENDBRANCH  18  33
ENDBRANCH   5   8
ENDBRANCH   3   4
ENDBRANCH   2   3
ENDBRANCH   1   2
BRANCH   1  37
ATOM     37  C   UNL     1       1.212 -14.953   0.974  1.00  0.00     0.002 C 
BRANCH  37  38
ATOM     38  C   UNL     1       1.415 -13.818   1.979  1.00  0.00     0.021 C 
BRANCH  38  39
ATOM     39  C   UNL     1       0.234 -13.602   2.913  1.00  0.00     0.116 C 
BRANCH  39  40
ATOM     40  N   UNL     1      -0.052 -14.784   3.716  1.00  0.00    -0.352 N 
ATOM     41  C   UNL     1      -0.146 -14.903   5.082  1.00  0.00     0.251 C 
ATOM     42  H   UNL     1      -0.199 -15.614   3.208  1.00  0.00     0.163 HD
ATOM     43  O   UNL     1      -0.194 -16.011   5.605  1.00  0.00    -0.269 OA
BRANCH  41  44
ATOM     44  C   UNL     1      -0.153 -13.678   5.907  1.00  0.00     0.039 A 
ATOM     45  C   UNL     1      -0.923 -12.582   5.516  1.00  0.00     0.014 A 
ATOM     46  C   UNL     1       0.670 -13.599   7.031  1.00  0.00     0.014 A 
ATOM     47  C   UNL     1      -0.705 -11.350   6.115  1.00  0.00     0.010 A 
ATOM     48  C   UNL     1       0.797 -12.382   7.706  1.00  0.00     0.010 A 
ATOM     49  C   UNL     1       0.166 -11.229   7.211  1.00  0.00    -0.014 A 
BRANCH  49  50
ATOM     50  C   UNL     1       0.423  -9.880   7.784  1.00  0.00     0.031 A 
ATOM     51  C   UNL     1       1.811  -9.288   7.768  1.00  0.00     0.074 A 
ATOM     52  C   UNL     1      -0.614  -9.151   8.244  1.00  0.00     0.049 A 
ATOM     53  N   UNL     1       2.206  -8.107   8.172  1.00  0.00    -0.248 NA
ATOM     54  C   UNL     1       2.898 -10.126   7.237  1.00  0.00     0.031 C 
ATOM     55  C   UNL     1      -2.005  -9.610   8.300  1.00  0.00     0.029 A 
ATOM     56  N   UNL     1      -0.673  -7.865   8.718  1.00  0.00    -0.354 N 
ATOM     57  C   UNL     1       3.579  -8.065   7.954  1.00  0.00     0.074 A 
ATOM     58  C   UNL     1       3.961  -9.357   7.430  1.00  0.00     0.031 C 
ATOM     59  C   UNL     1      -2.785  -8.603   8.717  1.00  0.00     0.029 A 
ATOM     60  C   UNL     1      -1.947  -7.451   9.031  1.00  0.00     0.049 A 
ATOM     61  H   UNL     1       0.121  -7.292   8.824  1.00  0.00     0.167 HD
ATOM     62  C   UNL     1       4.439  -7.037   8.148  1.00  0.00     0.037 A 
ATOM     63  C   UNL     1      -2.394  -6.282   9.530  1.00  0.00     0.037 A 
ATOM     64  C   UNL     1       4.048  -5.744   8.649  1.00  0.00     0.049 A 
ATOM     65  C   UNL     1      -1.408  -5.181   9.802  1.00  0.00     0.074 A 
ATOM     66  C   UNL     1       4.842  -4.630   8.857  1.00  0.00     0.029 A 
ATOM     67  N   UNL     1       2.759  -5.391   9.020  1.00  0.00    -0.354 N 
ATOM     68  N   UNL     1      -0.119  -5.152   9.559  1.00  0.00    -0.248 NA
ATOM     69  C   UNL     1      -1.930  -3.958  10.427  1.00  0.00     0.031 C 
ATOM     70  C   UNL     1       4.047  -3.625   9.413  1.00  0.00     0.029 A 
ATOM     71  C   UNL     1       2.744  -4.090   9.494  1.00  0.00     0.049 A 
ATOM     72  H   UNL     1       1.971  -5.978   8.956  1.00  0.00     0.167 HD
ATOM     73  C   UNL     1       0.320  -3.905   9.989  1.00  0.00     0.074 A 
ATOM     74  C   UNL     1      -0.843  -3.200  10.484  1.00  0.00     0.031 C 
ATOM     75  C   UNL     1       1.577  -3.396   9.983  1.00  0.00     0.037 A 
BRANCH  62  76
ATOM     76  C   UNL     1       5.892  -7.255   7.819  1.00  0.00     0.058 A 
ATOM     77  C   UNL     1       6.337  -7.387   6.494  1.00  0.00     0.135 A 
ATOM     78  C   UNL     1       6.862  -7.260   8.836  1.00  0.00     0.135 A 
ATOM     79  F   UNL     1       5.455  -7.405   5.482  1.00  0.00    -0.206 F 
ATOM     80  C   UNL     1       7.687  -7.537   6.190  1.00  0.00     0.059 A 
ATOM     81  C   UNL     1       8.221  -7.377   8.553  1.00  0.00     0.059 A 
ATOM     82  F   UNL     1       6.495  -7.136  10.121  1.00  0.00    -0.206 F 
ATOM     83  C   UNL     1       8.622  -7.525   7.227  1.00  0.00     0.060 A 
BRANCH  83  84
ATOM     84  S   UNL     1      10.368  -7.707   6.807  1.00  0.00     0.124 S 
ATOM     85  O   UNL     1      10.406  -9.078   6.305  1.00  0.00    -0.237 OA
ATOM     86  O   UNL     1      10.555  -6.662   5.807  1.00  0.00    -0.237 OA
ATOM     87  O   UNL     1      11.051  -7.488   8.078  1.00  0.00    -0.744 OA
ENDBRANCH  83  84
ENDBRANCH  62  76
BRANCH  63  88
ATOM     88  C   UNL     1      -3.846  -6.103   9.805  1.00  0.00     0.058 A 
ATOM     89  C   UNL     1      -4.616  -5.195   9.064  1.00  0.00     0.135 A 
ATOM     90  C   UNL     1      -4.500  -6.859  10.793  1.00  0.00     0.135 A 
ATOM     91  F   UNL     1      -4.038  -4.444   8.115  1.00  0.00    -0.206 F 
ATOM     92  C   UNL     1      -5.978  -5.036   9.296  1.00  0.00     0.059 A 
ATOM     93  C   UNL     1      -5.867  -6.742  11.020  1.00  0.00     0.059 A 
ATOM     94  F   UNL     1      -3.813  -7.752  11.522  1.00  0.00    -0.206 F 
ATOM     95  C   UNL     1      -6.597  -5.822  10.271  1.00  0.00     0.060 A 
BRANCH  95  96
ATOM     96  S   UNL     1      -8.375  -5.642  10.523  1.00  0.00     0.124 S 
ATOM     97  O   UNL     1      -8.461  -4.293  11.069  1.00  0.00    -0.237 OA
ATOM     98  O   UNL     1      -8.891  -5.819   9.170  1.00  0.00    -0.237 OA
ATOM     99  O   UNL     1      -8.694  -6.720  11.455  1.00  0.00    -0.744 OA
ENDBRANCH  95  96
ENDBRANCH  63  88
BRANCH  75 100
ATOM    100  C   UNL     1       1.778  -2.010  10.531  1.00  0.00     0.058 A 
ATOM    101  C   UNL     1       1.707  -1.754  11.908  1.00  0.00     0.135 A 
ATOM    102  C   UNL     1       2.153  -0.952   9.685  1.00  0.00     0.135 A 
ATOM    103  F   UNL     1       1.345  -2.727  12.759  1.00  0.00    -0.206 F 
ATOM    104  C   UNL     1       2.000  -0.498  12.430  1.00  0.00     0.059 A 
ATOM    105  C   UNL     1       2.481   0.303  10.188  1.00  0.00     0.059 A 
ATOM    106  F   UNL     1       2.245  -1.145   8.360  1.00  0.00    -0.206 F 
ATOM    107  C   UNL     1       2.400   0.520  11.562  1.00  0.00     0.060 A 
BRANCH 107 108
ATOM    108  S   UNL     1       2.849   2.120  12.267  1.00  0.00     0.124 S 
ATOM    109  O   UNL     1       1.565   2.589  12.779  1.00  0.00    -0.237 OA
ATOM    110  O   UNL     1       3.835   1.746  13.276  1.00  0.00    -0.237 OA
ATOM    111  O   UNL     1       3.376   2.862  11.126  1.00  0.00    -0.744 OA
ENDBRANCH 107 108
ENDBRANCH  75 100
ENDBRANCH  49  50
ENDBRANCH  41  44
ENDBRANCH  39  40
ENDBRANCH  38  39
ENDBRANCH  37  38
ENDBRANCH   1  37
TORSDOF 21
