REMARK SMILES COc1cccc(NC(=O)[C@@H]2[C@@H](C(=O)NCCCCCCNC(=O)c3ccc(-c4c5nc(c(-c6c(F)cc(S(=O)(=O)[O-])cc6F)c6ccc([nH]6)c(-c6c(F)cc(S(=O)(=O)[O-])cc6F)c6nc(c(-c7c(F)cc(S(=O)(=O)[O-])cc7F)c7ccc4[nH]7)C=C6)C=C5)cc3)[C@H]3C=C[C@@H]2C3)c1
REMARK SMILES IDX 18 1 17 2 16 3 15 4 13 5 14 6 12 8 11 9 94 10 91 11 93 12
REMARK SMILES IDX 95 13 92 14 9 15 8 16 10 18 7 19 3 20 4 21 96 22 5 23 6 24
REMARK SMILES IDX 2 25 1 26 19 27 20 28 21 29 22 30 23 31 24 33 25 34 26 35
REMARK SMILES IDX 90 36 27 37 89 38 28 39 29 40 30 41 83 42 31 43 88 44 82 45
REMARK SMILES IDX 84 46 32 47 87 48 81 49 80 50 33 52 67 53 46 54 66 55 47 56
REMARK SMILES IDX 50 57 65 58 85 59 48 60 49 61 64 63 86 64 51 65 34 66 35 67
REMARK SMILES IDX 44 68 36 69 37 70 43 71 45 72 38 73 39 74 40 75 41 76 42 77
REMARK SMILES IDX 68 78 69 79 78 80 70 81 71 82 77 83 79 84 72 85 73 86 74 87
REMARK SMILES IDX 75 88 76 89 52 90 53 91 62 92 54 93 55 94 61 95 63 96 56 97
REMARK SMILES IDX 57 98 58 99 59 100 60 101
REMARK H PARENT 15 7 8 17 22 32 84 51 50 62
REMARK Flexibility Score: inf
ROOT
ATOM      1  C   UNL     1      -1.093  -2.691   1.692  1.00  0.00     0.002 C 
ENDROOT
BRANCH   1   2
ATOM      2  C   UNL     1       0.256  -3.108   2.305  1.00  0.00     0.021 C 
BRANCH   2   3
ATOM      3  C   UNL     1       0.238  -4.463   3.019  1.00  0.00     0.116 C 
BRANCH   3   4
ATOM      4  N   UNL     1      -0.006  -5.552   2.083  1.00  0.00    -0.356 N 
ATOM      5  C   UNL     1       0.864  -6.336   1.385  1.00  0.00     0.224 C 
ATOM      6  O   UNL     1       0.402  -7.033   0.479  1.00  0.00    -0.275 OA
ATOM      7  H   UNL     1      -0.957  -5.755   1.929  1.00  0.00     0.163 HD
BRANCH   5   8
ATOM      8  C   UNL     1       2.335  -6.379   1.779  1.00  0.00     0.098 C 
ATOM      9  C   UNL     1       3.300  -6.837   0.624  1.00  0.00     0.099 C 
ATOM     10  C   UNL     1       4.005  -8.075   1.261  1.00  0.00     0.025 C 
ATOM     11  C   UNL     1       2.574  -7.468   2.868  1.00  0.00     0.025 C 
ATOM     12  C   UNL     1       2.983  -9.182   1.382  1.00  0.00    -0.027 C 
ATOM     13  C   UNL     1       4.084  -7.678   2.742  1.00  0.00     0.017 C 
ATOM     14  C   UNL     1       2.131  -8.825   2.355  1.00  0.00    -0.027 C 
BRANCH   9  15
ATOM     15  C   UNL     1       4.332  -5.764   0.277  1.00  0.00     0.228 C 
ATOM     16  N   UNL     1       3.981  -4.539  -0.207  1.00  0.00    -0.326 N 
ATOM     17  H   UNL     1       4.716  -3.885  -0.180  1.00  0.00     0.169 HD
ATOM     18  O   UNL     1       5.535  -5.943   0.498  1.00  0.00    -0.274 OA
BRANCH  16  19
ATOM     19  C   UNL     1       2.792  -4.015  -0.737  1.00  0.00     0.044 A 
ATOM     20  C   UNL     1       1.419  -2.037  -1.061  1.00  0.00     0.120 A 
ATOM     21  C   UNL     1       0.416  -2.822  -1.622  1.00  0.00     0.046 A 
ATOM     22  C   UNL     1       2.615  -2.626  -0.640  1.00  0.00     0.072 A 
ATOM     23  C   UNL     1       0.616  -4.189  -1.785  1.00  0.00     0.006 A 
ATOM     24  C   UNL     1       1.804  -4.781  -1.349  1.00  0.00     0.026 A 
BRANCH  20  25
ATOM     25  O   UNL     1       1.084  -0.748  -0.755  1.00  0.00    -0.497 OA
ATOM     26  C   UNL     1       1.982   0.231  -1.264  1.00  0.00     0.278 C 
ENDBRANCH  20  25
ENDBRANCH  16  19
ENDBRANCH   9  15
ENDBRANCH   5   8
ENDBRANCH   3   4
ENDBRANCH   2   3
ENDBRANCH   1   2
BRANCH   1  27
ATOM     27  C   UNL     1      -2.022  -1.904   2.622  1.00  0.00     0.002 C 
BRANCH  27  28
ATOM     28  C   UNL     1      -1.510  -0.528   3.066  1.00  0.00     0.021 C 
BRANCH  28  29
ATOM     29  C   UNL     1      -1.176   0.456   1.945  1.00  0.00     0.116 C 
BRANCH  29  30
ATOM     30  N   UNL     1      -2.355   0.962   1.257  1.00  0.00    -0.352 N 
ATOM     31  C   UNL     1      -2.805   2.256   1.135  1.00  0.00     0.251 C 
ATOM     32  H   UNL     1      -2.911   0.279   0.816  1.00  0.00     0.163 HD
ATOM     33  O   UNL     1      -3.896   2.485   0.617  1.00  0.00    -0.269 OA
BRANCH  31  34
ATOM     34  C   UNL     1      -1.991   3.376   1.659  1.00  0.00     0.039 A 
ATOM     35  C   UNL     1      -2.589   4.301   2.518  1.00  0.00     0.014 A 
ATOM     36  C   UNL     1      -0.640   3.504   1.322  1.00  0.00     0.014 A 
ATOM     37  C   UNL     1      -1.813   5.306   3.105  1.00  0.00     0.010 A 
ATOM     38  C   UNL     1       0.144   4.470   1.955  1.00  0.00     0.010 A 
ATOM     39  C   UNL     1      -0.431   5.373   2.862  1.00  0.00    -0.014 A 
BRANCH  39  40
ATOM     40  C   UNL     1       0.423   6.361   3.577  1.00  0.00     0.031 A 
ATOM     41  C   UNL     1       1.131   7.452   2.818  1.00  0.00     0.074 A 
ATOM     42  C   UNL     1       0.609   6.240   4.908  1.00  0.00     0.049 A 
ATOM     43  N   UNL     1       1.947   8.371   3.267  1.00  0.00    -0.248 NA
ATOM     44  C   UNL     1       0.911   7.503   1.364  1.00  0.00     0.031 C 
ATOM     45  C   UNL     1       0.027   5.192   5.751  1.00  0.00     0.029 A 
ATOM     46  N   UNL     1       1.347   6.996   5.786  1.00  0.00    -0.354 N 
ATOM     47  C   UNL     1       2.348   9.101   2.154  1.00  0.00     0.074 A 
ATOM     48  C   UNL     1       1.719   8.490   1.002  1.00  0.00     0.031 C 
ATOM     49  C   UNL     1       0.416   5.382   7.023  1.00  0.00     0.029 A 
ATOM     50  C   UNL     1       1.298   6.543   7.085  1.00  0.00     0.049 A 
ATOM     51  H   UNL     1       1.862   7.788   5.512  1.00  0.00     0.167 HD
ATOM     52  C   UNL     1       3.148  10.193   2.099  1.00  0.00     0.037 A 
ATOM     53  C   UNL     1       1.900   7.005   8.199  1.00  0.00     0.037 A 
ATOM     54  C   UNL     1       3.745  10.819   3.250  1.00  0.00     0.049 A 
ATOM     55  C   UNL     1       2.768   8.232   8.113  1.00  0.00     0.074 A 
ATOM     56  C   UNL     1       4.514  11.970   3.299  1.00  0.00     0.029 A 
ATOM     57  N   UNL     1       3.642  10.353   4.551  1.00  0.00    -0.354 N 
ATOM     58  N   UNL     1       3.072   8.953   7.060  1.00  0.00    -0.248 NA
ATOM     59  C   UNL     1       3.368   8.715   9.365  1.00  0.00     0.031 C 
ATOM     60  C   UNL     1       4.909  12.177   4.625  1.00  0.00     0.029 A 
ATOM     61  C   UNL     1       4.348  11.181   5.408  1.00  0.00     0.049 A 
ATOM     62  H   UNL     1       3.142   9.551   4.826  1.00  0.00     0.167 HD
ATOM     63  C   UNL     1       3.873   9.989   7.528  1.00  0.00     0.074 A 
ATOM     64  C   UNL     1       3.998   9.809   8.959  1.00  0.00     0.031 C 
ATOM     65  C   UNL     1       4.453  10.999   6.834  1.00  0.00     0.037 A 
BRANCH  52  66
ATOM     66  C   UNL     1       3.421  10.797   0.749  1.00  0.00     0.058 A 
ATOM     67  C   UNL     1       2.435  11.510   0.050  1.00  0.00     0.135 A 
ATOM     68  C   UNL     1       4.702  10.719   0.177  1.00  0.00     0.135 A 
ATOM     69  F   UNL     1       1.190  11.604   0.544  1.00  0.00    -0.206 F 
ATOM     70  C   UNL     1       2.703  12.110  -1.176  1.00  0.00     0.059 A 
ATOM     71  C   UNL     1       4.999  11.333  -1.036  1.00  0.00     0.059 A 
ATOM     72  F   UNL     1       5.682  10.048   0.804  1.00  0.00    -0.206 F 
ATOM     73  C   UNL     1       3.989  12.018  -1.710  1.00  0.00     0.060 A 
BRANCH  73  74
ATOM     74  S   UNL     1       4.326  12.823  -3.290  1.00  0.00     0.124 S 
ATOM     75  O   UNL     1       3.638  11.935  -4.221  1.00  0.00    -0.237 OA
ATOM     76  O   UNL     1       3.722  14.139  -3.106  1.00  0.00    -0.237 OA
ATOM     77  O   UNL     1       5.784  12.812  -3.373  1.00  0.00    -0.744 OA
ENDBRANCH  73  74
ENDBRANCH  52  66
BRANCH  53  78
ATOM     78  C   UNL     1       1.694   6.315   9.501  1.00  0.00     0.058 A 
ATOM     79  C   UNL     1       0.948   6.913  10.528  1.00  0.00     0.135 A 
ATOM     80  C   UNL     1       2.249   5.050   9.749  1.00  0.00     0.135 A 
ATOM     81  F   UNL     1       0.403   8.124  10.342  1.00  0.00    -0.206 F 
ATOM     82  C   UNL     1       0.781   6.295  11.763  1.00  0.00     0.059 A 
ATOM     83  C   UNL     1       2.074   4.400  10.967  1.00  0.00     0.059 A 
ATOM     84  F   UNL     1       2.956   4.426   8.793  1.00  0.00    -0.206 F 
ATOM     85  C   UNL     1       1.351   5.038  11.974  1.00  0.00     0.060 A 
BRANCH  85  86
ATOM     86  S   UNL     1       1.106   4.229  13.569  1.00  0.00     0.124 S 
ATOM     87  O   UNL     1       2.023   4.977  14.421  1.00  0.00    -0.237 OA
ATOM     88  O   UNL     1      -0.316   4.449  13.812  1.00  0.00    -0.237 OA
ATOM     89  O   UNL     1       1.479   2.843  13.301  1.00  0.00    -0.744 OA
ENDBRANCH  85  86
ENDBRANCH  53  78
BRANCH  65  90
ATOM     90  C   UNL     1       5.244  12.013   7.612  1.00  0.00     0.058 A 
ATOM     91  C   UNL     1       6.508  11.714   8.142  1.00  0.00     0.135 A 
ATOM     92  C   UNL     1       4.754  13.319   7.780  1.00  0.00     0.135 A 
ATOM     93  F   UNL     1       7.019  10.479   8.015  1.00  0.00    -0.206 F 
ATOM     94  C   UNL     1       7.251  12.668   8.830  1.00  0.00     0.059 A 
ATOM     95  C   UNL     1       5.491  14.296   8.442  1.00  0.00     0.059 A 
ATOM     96  F   UNL     1       3.554  13.660   7.283  1.00  0.00    -0.206 F 
ATOM     97  C   UNL     1       6.735  13.957   8.973  1.00  0.00     0.060 A 
BRANCH  97  98
ATOM     98  S   UNL     1       7.725  15.197   9.834  1.00  0.00     0.124 S 
ATOM     99  O   UNL     1       7.564  14.788  11.225  1.00  0.00    -0.237 OA
ATOM    100  O   UNL     1       9.053  14.991   9.263  1.00  0.00    -0.237 OA
ATOM    101  O   UNL     1       7.083  16.457   9.471  1.00  0.00    -0.744 OA
ENDBRANCH  97  98
ENDBRANCH  65  90
ENDBRANCH  39  40
ENDBRANCH  31  34
ENDBRANCH  29  30
ENDBRANCH  28  29
ENDBRANCH  27  28
ENDBRANCH   1  27
TORSDOF 19
