REMARK SMILES COCCNC(=O)c1cccc(NC(=O)[C@@H]2CCCC[C@H]2C(=O)NCCCCCCNC(=O)c2ccc(-c3c4nc(c(-c5c(F)cc(S(=O)(=O)[O-])cc5F)c5ccc([nH]5)c(-c5c(F)cc(S(=O)(=O)[O-])cc5F)c5nc(c(-c6c(F)cc(S(=O)(=O)[O-])cc6F)c6ccc3[nH]6)C=C5)C=C4)cc2)c1
REMARK SMILES IDX 26 1 25 2 24 3 22 4 23 5 21 7 16 8 17 9 18 10 20 11 19 12
REMARK SMILES IDX 14 13 13 14 15 16 12 17 8 18 9 19 100 20 10 21 11 22 6 23
REMARK SMILES IDX 5 24 7 26 4 27 3 28 2 29 1 30 27 31 28 32 29 33 30 34 31 35
REMARK SMILES IDX 32 36 33 38 34 39 35 40 99 41 36 42 98 43 37 44 38 45 39 46
REMARK SMILES IDX 92 47 40 48 97 49 91 50 93 51 41 52 96 53 90 54 89 55 42 57
REMARK SMILES IDX 76 58 55 59 75 60 56 61 59 62 74 63 94 64 57 65 58 66 73 68
REMARK SMILES IDX 95 69 60 70 43 71 44 72 53 73 45 74 46 75 52 76 54 77 47 78
REMARK SMILES IDX 48 79 49 80 50 81 51 82 77 83 78 84 87 85 79 86 80 87 86 88
REMARK SMILES IDX 88 89 81 90 82 91 83 92 84 93 85 94 61 95 62 96 71 97 63 98
REMARK SMILES IDX 64 99 70 100 72 101 65 102 66 103 67 104 68 105 69 106
REMARK H PARENT 24 6 13 15 5 25 31 37 93 56 59 67
REMARK Flexibility Score: inf
ROOT
ATOM      1  C   UNL     1       4.446  -4.174   4.910  1.00  0.00     0.021 C 
ENDROOT
BRANCH   1   2
ATOM      2  C   UNL     1       4.837  -4.335   6.374  1.00  0.00     0.116 C 
BRANCH   2   3
ATOM      3  N   UNL     1       3.976  -3.535   7.231  1.00  0.00    -0.356 N 
ATOM      4  C   UNL     1       3.003  -3.868   8.120  1.00  0.00     0.223 C 
ATOM      5  O   UNL     1       2.369  -2.934   8.622  1.00  0.00    -0.275 OA
ATOM      6  H   UNL     1       4.128  -2.565   7.151  1.00  0.00     0.163 HD
BRANCH   4   7
ATOM      7  C   UNL     1       2.683  -5.313   8.514  1.00  0.00     0.091 C 
ATOM      8  C   UNL     1       2.047  -6.118   7.357  1.00  0.00     0.091 C 
ATOM      9  C   UNL     1       1.838  -7.584   7.765  1.00  0.00     0.014 C 
ATOM     10  C   UNL     1       3.135  -8.221   8.243  1.00  0.00     0.001 C 
ATOM     11  C   UNL     1       3.899  -5.995   9.171  1.00  0.00     0.014 C 
ATOM     12  C   UNL     1       3.688  -7.479   9.453  1.00  0.00     0.001 C 
BRANCH   8  13
ATOM     13  C   UNL     1       0.679  -5.540   6.988  1.00  0.00     0.228 C 
ATOM     14  N   UNL     1       0.366  -5.152   5.716  1.00  0.00    -0.326 N 
ATOM     15  H   UNL     1      -0.482  -4.656   5.658  1.00  0.00     0.169 HD
ATOM     16  O   UNL     1      -0.182  -5.366   7.857  1.00  0.00    -0.274 OA
BRANCH  14  17
ATOM     17  C   UNL     1       1.003  -5.315   4.476  1.00  0.00     0.041 A 
ATOM     18  C   UNL     1       1.417  -4.363   2.269  1.00  0.00     0.041 A 
ATOM     19  C   UNL     1       2.349  -5.383   2.026  1.00  0.00     0.014 A 
ATOM     20  C   UNL     1       0.714  -4.365   3.480  1.00  0.00     0.040 A 
ATOM     21  C   UNL     1       2.558  -6.391   2.963  1.00  0.00     0.003 A 
ATOM     22  C   UNL     1       1.879  -6.359   4.181  1.00  0.00     0.026 A 
BRANCH  18  23
ATOM     23  C   UNL     1       1.160  -3.415   1.155  1.00  0.00     0.251 C 
ATOM     24  N   UNL     1       0.629  -2.168   1.313  1.00  0.00    -0.350 N 
ATOM     25  H   UNL     1       0.299  -1.782   0.470  1.00  0.00     0.163 HD
ATOM     26  O   UNL     1       1.420  -3.770   0.004  1.00  0.00    -0.269 OA
BRANCH  24  27
ATOM     27  C   UNL     1       0.441  -1.284   2.452  1.00  0.00     0.144 C 
BRANCH  27  28
ATOM     28  C   UNL     1       1.065   0.102   2.227  1.00  0.00     0.181 C 
BRANCH  28  29
ATOM     29  O   UNL     1       0.425   0.850   1.188  1.00  0.00    -0.383 OA
ATOM     30  C   UNL     1       0.995   0.667  -0.103  1.00  0.00     0.194 C 
ENDBRANCH  28  29
ENDBRANCH  27  28
ENDBRANCH  24  27
ENDBRANCH  18  23
ENDBRANCH  14  17
ENDBRANCH   8  13
ENDBRANCH   4   7
ENDBRANCH   2   3
ENDBRANCH   1   2
BRANCH   1  31
ATOM     31  C   UNL     1       5.085  -3.001   4.171  1.00  0.00     0.002 C 
BRANCH  31  32
ATOM     32  C   UNL     1       6.591  -3.124   3.930  1.00  0.00     0.002 C 
BRANCH  32  33
ATOM     33  C   UNL     1       7.061  -4.401   3.223  1.00  0.00     0.021 C 
BRANCH  33  34
ATOM     34  C   UNL     1       6.393  -4.709   1.882  1.00  0.00     0.116 C 
BRANCH  34  35
ATOM     35  N   UNL     1       6.543  -3.634   0.916  1.00  0.00    -0.352 N 
ATOM     36  C   UNL     1       7.163  -3.626  -0.309  1.00  0.00     0.251 C 
ATOM     37  H   UNL     1       6.137  -2.777   1.181  1.00  0.00     0.163 HD
ATOM     38  O   UNL     1       7.324  -2.562  -0.904  1.00  0.00    -0.269 OA
BRANCH  36  39
ATOM     39  C   UNL     1       7.667  -4.884  -0.900  1.00  0.00     0.039 A 
ATOM     40  C   UNL     1       8.975  -4.918  -1.391  1.00  0.00     0.014 A 
ATOM     41  C   UNL     1       6.861  -6.024  -0.975  1.00  0.00     0.014 A 
ATOM     42  C   UNL     1       9.503  -6.117  -1.876  1.00  0.00     0.010 A 
ATOM     43  C   UNL     1       7.408  -7.234  -1.405  1.00  0.00     0.010 A 
ATOM     44  C   UNL     1       8.741  -7.297  -1.841  1.00  0.00    -0.014 A 
BRANCH  44  45
ATOM     45  C   UNL     1       9.353  -8.608  -2.190  1.00  0.00     0.031 A 
ATOM     46  C   UNL     1       8.873  -9.398  -3.376  1.00  0.00     0.074 A 
ATOM     47  C   UNL     1      10.313  -9.115  -1.389  1.00  0.00     0.049 A 
ATOM     48  N   UNL     1       9.265 -10.574  -3.796  1.00  0.00    -0.248 NA
ATOM     49  C   UNL     1       7.802  -8.798  -4.186  1.00  0.00     0.031 C 
ATOM     50  C   UNL     1      10.835  -8.466  -0.183  1.00  0.00     0.029 A 
ATOM     51  N   UNL     1      11.016 -10.293  -1.459  1.00  0.00    -0.354 N 
ATOM     52  C   UNL     1       8.492 -10.858  -4.915  1.00  0.00     0.074 A 
ATOM     53  C   UNL     1       7.573  -9.751  -5.080  1.00  0.00     0.031 C 
ATOM     54  C   UNL     1      11.786  -9.242   0.359  1.00  0.00     0.029 A 
ATOM     55  C   UNL     1      11.913 -10.463  -0.430  1.00  0.00     0.049 A 
ATOM     56  H   UNL     1      10.889 -10.954  -2.178  1.00  0.00     0.167 HD
ATOM     57  C   UNL     1       8.554 -11.933  -5.738  1.00  0.00     0.037 A 
ATOM     58  C   UNL     1      12.736 -11.491  -0.141  1.00  0.00     0.037 A 
ATOM     59  C   UNL     1       9.475 -13.030  -5.569  1.00  0.00     0.049 A 
ATOM     60  C   UNL     1      12.765 -12.687  -1.054  1.00  0.00     0.074 A 
ATOM     61  C   UNL     1       9.651 -14.137  -6.382  1.00  0.00     0.029 A 
ATOM     62  N   UNL     1      10.366 -13.169  -4.514  1.00  0.00    -0.354 N 
ATOM     63  N   UNL     1      12.076 -12.904  -2.149  1.00  0.00    -0.248 NA
ATOM     64  C   UNL     1      13.684 -13.776  -0.695  1.00  0.00     0.031 C 
ATOM     65  C   UNL     1      10.602 -14.973  -5.788  1.00  0.00     0.029 A 
ATOM     66  C   UNL     1      11.067 -14.358  -4.637  1.00  0.00     0.049 A 
ATOM     67  H   UNL     1      10.482 -12.518  -3.785  1.00  0.00     0.167 HD
ATOM     68  C   UNL     1      12.494 -14.143  -2.621  1.00  0.00     0.074 A 
ATOM     69  C   UNL     1      13.509 -14.618  -1.704  1.00  0.00     0.031 C 
ATOM     70  C   UNL     1      12.074 -14.826  -3.715  1.00  0.00     0.037 A 
BRANCH  57  71
ATOM     71  C   UNL     1       7.597 -11.985  -6.899  1.00  0.00     0.058 A 
ATOM     72  C   UNL     1       7.717 -11.115  -7.995  1.00  0.00     0.135 A 
ATOM     73  C   UNL     1       6.579 -12.953  -6.944  1.00  0.00     0.135 A 
ATOM     74  F   UNL     1       8.664 -10.163  -8.003  1.00  0.00    -0.206 F 
ATOM     75  C   UNL     1       6.847 -11.184  -9.079  1.00  0.00     0.059 A 
ATOM     76  C   UNL     1       5.717 -13.060  -8.032  1.00  0.00     0.059 A 
ATOM     77  F   UNL     1       6.419 -13.813  -5.926  1.00  0.00    -0.206 F 
ATOM     78  C   UNL     1       5.851 -12.161  -9.089  1.00  0.00     0.060 A 
BRANCH  78  79
ATOM     79  S   UNL     1       4.738 -12.243 -10.509  1.00  0.00     0.124 S 
ATOM     80  O   UNL     1       3.936 -11.038 -10.319  1.00  0.00    -0.237 OA
ATOM     81  O   UNL     1       5.667 -12.214 -11.634  1.00  0.00    -0.237 OA
ATOM     82  O   UNL     1       4.030 -13.504 -10.316  1.00  0.00    -0.744 OA
ENDBRANCH  78  79
ENDBRANCH  57  71
BRANCH  58  83
ATOM     83  C   UNL     1      13.605 -11.431   1.066  1.00  0.00     0.058 A 
ATOM     84  C   UNL     1      14.998 -11.320   0.952  1.00  0.00     0.135 A 
ATOM     85  C   UNL     1      13.057 -11.474   2.358  1.00  0.00     0.135 A 
ATOM     86  F   UNL     1      15.571 -11.284  -0.261  1.00  0.00    -0.206 F 
ATOM     87  C   UNL     1      15.820 -11.270   2.073  1.00  0.00     0.059 A 
ATOM     88  C   UNL     1      13.856 -11.396   3.494  1.00  0.00     0.059 A 
ATOM     89  F   UNL     1      11.728 -11.563   2.524  1.00  0.00    -0.206 F 
ATOM     90  C   UNL     1      15.238 -11.304   3.341  1.00  0.00     0.060 A 
BRANCH  90  91
ATOM     91  S   UNL     1      16.310 -11.188   4.790  1.00  0.00     0.124 S 
ATOM     92  O   UNL     1      16.956 -12.495   4.784  1.00  0.00    -0.237 OA
ATOM     93  O   UNL     1      17.161 -10.052   4.449  1.00  0.00    -0.237 OA
ATOM     94  O   UNL     1      15.371 -10.952   5.883  1.00  0.00    -0.744 OA
ENDBRANCH  90  91
ENDBRANCH  58  83
BRANCH  70  95
ATOM     95  C   UNL     1      12.725 -16.154  -3.996  1.00  0.00     0.058 A 
ATOM     96  C   UNL     1      12.480 -17.281  -3.196  1.00  0.00     0.135 A 
ATOM     97  C   UNL     1      13.571 -16.313  -5.107  1.00  0.00     0.135 A 
ATOM     98  F   UNL     1      11.687 -17.185  -2.117  1.00  0.00    -0.206 F 
ATOM     99  C   UNL     1      13.070 -18.511  -3.471  1.00  0.00     0.059 A 
ATOM    100  C   UNL     1      14.146 -17.541  -5.419  1.00  0.00     0.059 A 
ATOM    101  F   UNL     1      13.834 -15.271  -5.912  1.00  0.00    -0.206 F 
ATOM    102  C   UNL     1      13.900 -18.632  -4.587  1.00  0.00     0.060 A 
BRANCH 102 103
ATOM    103  S   UNL     1      14.632 -20.242  -4.949  1.00  0.00     0.124 S 
ATOM    104  O   UNL     1      15.630 -20.356  -3.890  1.00  0.00    -0.237 OA
ATOM    105  O   UNL     1      13.485 -21.138  -4.838  1.00  0.00    -0.237 OA
ATOM    106  O   UNL     1      15.165 -20.079  -6.298  1.00  0.00    -0.744 OA
ENDBRANCH 102 103
ENDBRANCH  70  95
ENDBRANCH  44  45
ENDBRANCH  36  39
ENDBRANCH  34  35
ENDBRANCH  33  34
ENDBRANCH  32  33
ENDBRANCH  31  32
ENDBRANCH   1  31
TORSDOF 22
