REMARK SMILES COC[C@@H](C)N(C)c1nc(C(C)C)c(C(=O)NCCCCCCNC(=O)c2ccc(-c3c4nc(c(-c5c(F)cc(S(=O)(=O)[O-])cc5F)c5ccc([nH]5)c(-c5c(F)cc(S(=O)(=O)[O-])cc5F)c5nc(c(-c6c(F)cc(S(=O)(=O)[O-])cc6F)c6ccc3[nH]6)C=C5)C=C4)cc2)s1
REMARK SMILES IDX 20 1 19 2 18 3 17 4 15 5 16 6 14 8 8 9 9 10 93 11 10 12 6 13
REMARK SMILES IDX 7 14 4 15 5 16 3 17 2 18 1 19 11 20 12 21 13 22 21 23 22 24
REMARK SMILES IDX 23 25 24 26 25 27 26 29 27 30 28 31 92 32 29 33 91 34 30 35
REMARK SMILES IDX 31 36 32 37 85 38 33 39 90 40 84 41 86 42 34 43 89 44 83 45
REMARK SMILES IDX 82 46 35 48 69 49 48 50 68 51 49 52 52 53 67 54 87 55 50 56
REMARK SMILES IDX 51 57 66 59 88 60 53 61 36 62 37 63 46 64 38 65 39 66 45 67
REMARK SMILES IDX 47 68 40 69 41 70 42 71 43 72 44 73 70 74 71 75 80 76 72 77
REMARK SMILES IDX 73 78 79 79 81 80 74 81 75 82 76 83 77 84 78 85 54 86 55 87
REMARK SMILES IDX 64 88 56 89 57 90 63 91 65 92 58 93 59 94 60 95 61 96 62 97
REMARK H PARENT 17 7 24 28 86 47 52 58
REMARK Flexibility Score: inf
ROOT
ATOM      1  C   UNL     1      10.115   2.023   5.707  1.00  0.00     0.002 C 
ENDROOT
BRANCH   1   2
ATOM      2  C   UNL     1       8.593   2.130   5.622  1.00  0.00     0.021 C 
BRANCH   2   3
ATOM      3  C   UNL     1       7.916   0.877   5.069  1.00  0.00     0.116 C 
BRANCH   3   4
ATOM      4  N   UNL     1       7.120   0.196   6.053  1.00  0.00    -0.351 N 
ATOM      5  C   UNL     1       5.803  -0.154   6.178  1.00  0.00     0.263 C 
ATOM      6  O   UNL     1       5.632  -0.843   7.197  1.00  0.00    -0.268 OA
ATOM      7  H   UNL     1       7.655  -0.090   6.828  1.00  0.00     0.163 HD
BRANCH   5   8
ATOM      8  C   UNL     1       4.695   0.179   5.277  1.00  0.00     0.117 A 
ATOM      9  C   UNL     1       2.315   0.169   4.511  1.00  0.00     0.186 A 
ATOM     10  N   UNL     1       3.117   0.693   3.633  1.00  0.00    -0.224 NA
ATOM     11  S   UNL     1       3.131  -0.360   5.910  1.00  0.00    -0.091 S 
ATOM     12  C   UNL     1       4.422   0.840   4.077  1.00  0.00     0.069 A 
BRANCH   9  13
ATOM     13  N   UNL     1       0.977   0.054   4.290  1.00  0.00    -0.346 N 
ATOM     14  C   UNL     1       0.033   0.134   5.386  1.00  0.00     0.146 C 
BRANCH  13  15
ATOM     15  C   UNL     1       0.470  -0.116   2.911  1.00  0.00     0.107 C 
ATOM     16  C   UNL     1       0.945  -1.467   2.365  1.00  0.00     0.033 C 
BRANCH  15  17
ATOM     17  C   UNL     1       0.806   1.077   1.980  1.00  0.00     0.184 C 
BRANCH  17  18
ATOM     18  O   UNL     1       0.107   1.028   0.728  1.00  0.00    -0.383 OA
ATOM     19  C   UNL     1       0.852   0.402  -0.313  1.00  0.00     0.194 C 
ENDBRANCH  17  18
ENDBRANCH  15  17
ENDBRANCH  13  15
ENDBRANCH   9  13
BRANCH  12  20
ATOM     20  C   UNL     1       5.185   1.723   3.123  1.00  0.00     0.034 C 
ATOM     21  C   UNL     1       5.657   3.019   3.784  1.00  0.00     0.014 C 
ATOM     22  C   UNL     1       6.167   0.976   2.218  1.00  0.00     0.014 C 
ENDBRANCH  12  20
ENDBRANCH   5   8
ENDBRANCH   3   4
ENDBRANCH   2   3
ENDBRANCH   1   2
BRANCH   1  23
ATOM     23  C   UNL     1      10.829   1.722   4.383  1.00  0.00     0.002 C 
BRANCH  23  24
ATOM     24  C   UNL     1      10.523   2.674   3.222  1.00  0.00     0.021 C 
BRANCH  24  25
ATOM     25  C   UNL     1      10.785   4.152   3.505  1.00  0.00     0.116 C 
BRANCH  25  26
ATOM     26  N   UNL     1      12.140   4.389   3.981  1.00  0.00    -0.352 N 
ATOM     27  C   UNL     1      13.167   5.092   3.408  1.00  0.00     0.251 C 
ATOM     28  H   UNL     1      12.353   3.979   4.851  1.00  0.00     0.163 HD
ATOM     29  O   UNL     1      14.307   4.990   3.867  1.00  0.00    -0.269 OA
BRANCH  27  30
ATOM     30  C   UNL     1      12.919   5.957   2.238  1.00  0.00     0.039 A 
ATOM     31  C   UNL     1      13.799   5.901   1.154  1.00  0.00     0.014 A 
ATOM     32  C   UNL     1      11.830   6.832   2.216  1.00  0.00     0.014 A 
ATOM     33  C   UNL     1      13.543   6.667   0.015  1.00  0.00     0.010 A 
ATOM     34  C   UNL     1      11.542   7.547   1.057  1.00  0.00     0.010 A 
ATOM     35  C   UNL     1      12.389   7.463  -0.058  1.00  0.00    -0.014 A 
BRANCH  35  36
ATOM     36  C   UNL     1      12.021   8.183  -1.304  1.00  0.00     0.031 A 
ATOM     37  C   UNL     1      11.961   9.683  -1.325  1.00  0.00     0.074 A 
ATOM     38  C   UNL     1      11.643   7.474  -2.385  1.00  0.00     0.049 A 
ATOM     39  N   UNL     1      11.545  10.479  -2.275  1.00  0.00    -0.248 NA
ATOM     40  C   UNL     1      12.404  10.378  -0.107  1.00  0.00     0.031 C 
ATOM     41  C   UNL     1      11.614   6.012  -2.467  1.00  0.00     0.029 A 
ATOM     42  N   UNL     1      11.181   7.884  -3.611  1.00  0.00    -0.354 N 
ATOM     43  C   UNL     1      11.663  11.768  -1.769  1.00  0.00     0.074 A 
ATOM     44  C   UNL     1      12.144  11.642  -0.409  1.00  0.00     0.031 C 
ATOM     45  C   UNL     1      11.155   5.648  -3.674  1.00  0.00     0.029 A 
ATOM     46  C   UNL     1      10.814   6.846  -4.435  1.00  0.00     0.049 A 
ATOM     47  H   UNL     1      11.119   8.830  -3.875  1.00  0.00     0.167 HD
ATOM     48  C   UNL     1      11.411  12.947  -2.388  1.00  0.00     0.037 A 
ATOM     49  C   UNL     1      10.239   6.854  -5.654  1.00  0.00     0.037 A 
ATOM     50  C   UNL     1      10.934  13.057  -3.743  1.00  0.00     0.049 A 
ATOM     51  C   UNL     1       9.938   8.170  -6.314  1.00  0.00     0.074 A 
ATOM     52  C   UNL     1      10.709  14.203  -4.485  1.00  0.00     0.029 A 
ATOM     53  N   UNL     1      10.592  11.984  -4.554  1.00  0.00    -0.354 N 
ATOM     54  N   UNL     1      10.133   9.383  -5.854  1.00  0.00    -0.248 NA
ATOM     55  C   UNL     1       9.341   8.123  -7.655  1.00  0.00     0.031 C 
ATOM     56  C   UNL     1      10.179  13.825  -5.723  1.00  0.00     0.029 A 
ATOM     57  C   UNL     1      10.122  12.441  -5.774  1.00  0.00     0.049 A 
ATOM     58  H   UNL     1      10.672  11.036  -4.298  1.00  0.00     0.167 HD
ATOM     59  C   UNL     1       9.690  10.245  -6.850  1.00  0.00     0.074 A 
ATOM     60  C   UNL     1       9.235   9.414  -7.947  1.00  0.00     0.031 C 
ATOM     61  C   UNL     1       9.660  11.601  -6.854  1.00  0.00     0.037 A 
BRANCH  48  62
ATOM     62  C   UNL     1      11.635  14.206  -1.595  1.00  0.00     0.058 A 
ATOM     63  C   UNL     1      12.923  14.624  -1.221  1.00  0.00     0.135 A 
ATOM     64  C   UNL     1      10.551  15.009  -1.205  1.00  0.00     0.135 A 
ATOM     65  F   UNL     1      13.996  13.891  -1.559  1.00  0.00    -0.206 F 
ATOM     66  C   UNL     1      13.124  15.762  -0.446  1.00  0.00     0.059 A 
ATOM     67  C   UNL     1      10.731  16.169  -0.456  1.00  0.00     0.059 A 
ATOM     68  F   UNL     1       9.298  14.663  -1.539  1.00  0.00    -0.206 F 
ATOM     69  C   UNL     1      12.020  16.523  -0.061  1.00  0.00     0.060 A 
BRANCH  69  70
ATOM     70  S   UNL     1      12.294  17.976   0.975  1.00  0.00     0.124 S 
ATOM     71  O   UNL     1      12.606  17.359   2.261  1.00  0.00    -0.237 OA
ATOM     72  O   UNL     1      13.410  18.634   0.303  1.00  0.00    -0.237 OA
ATOM     73  O   UNL     1      11.021  18.685   0.912  1.00  0.00    -0.744 OA
ENDBRANCH  69  70
ENDBRANCH  48  62
BRANCH  49  74
ATOM     74  C   UNL     1       9.904   5.562  -6.309  1.00  0.00     0.058 A 
ATOM     75  C   UNL     1      10.641   5.092  -7.404  1.00  0.00     0.135 A 
ATOM     76  C   UNL     1       8.877   4.743  -5.810  1.00  0.00     0.135 A 
ATOM     77  F   UNL     1      11.626   5.842  -7.921  1.00  0.00    -0.206 F 
ATOM     78  C   UNL     1      10.379   3.852  -7.979  1.00  0.00     0.059 A 
ATOM     79  C   UNL     1       8.612   3.491  -6.353  1.00  0.00     0.059 A 
ATOM     80  F   UNL     1       8.153   5.142  -4.753  1.00  0.00    -0.206 F 
ATOM     81  C   UNL     1       9.368   3.054  -7.439  1.00  0.00     0.060 A 
BRANCH  81  82
ATOM     82  S   UNL     1       9.098   1.409  -8.135  1.00  0.00     0.124 S 
ATOM     83  O   UNL     1       8.472   1.729  -9.413  1.00  0.00    -0.237 OA
ATOM     84  O   UNL     1      10.456   0.880  -8.203  1.00  0.00    -0.237 OA
ATOM     85  O   UNL     1       8.232   0.767  -7.150  1.00  0.00    -0.744 OA
ENDBRANCH  81  82
ENDBRANCH  49  74
BRANCH  61  86
ATOM     86  C   UNL     1       9.115  12.281  -8.079  1.00  0.00     0.058 A 
ATOM     87  C   UNL     1       7.739  12.299  -8.354  1.00  0.00     0.135 A 
ATOM     88  C   UNL     1       9.965  12.993  -8.940  1.00  0.00     0.135 A 
ATOM     89  F   UNL     1       6.884  11.624  -7.569  1.00  0.00    -0.206 F 
ATOM     90  C   UNL     1       7.224  12.996  -9.442  1.00  0.00     0.059 A 
ATOM     91  C   UNL     1       9.470  13.718 -10.020  1.00  0.00     0.059 A 
ATOM     92  F   UNL     1      11.289  13.012  -8.719  1.00  0.00    -0.206 F 
ATOM     93  C   UNL     1       8.098  13.711 -10.264  1.00  0.00     0.060 A 
BRANCH  93  94
ATOM     94  S   UNL     1       7.408  14.668 -11.632  1.00  0.00     0.124 S 
ATOM     95  O   UNL     1       7.014  13.613 -12.560  1.00  0.00    -0.237 OA
ATOM     96  O   UNL     1       6.314  15.387 -10.987  1.00  0.00    -0.237 OA
ATOM     97  O   UNL     1       8.527  15.499 -12.065  1.00  0.00    -0.744 OA
ENDBRANCH  93  94
ENDBRANCH  61  86
ENDBRANCH  35  36
ENDBRANCH  27  30
ENDBRANCH  25  26
ENDBRANCH  24  25
ENDBRANCH  23  24
ENDBRANCH   1  23
TORSDOF 21
