REMARK SMILES O=C(NCCCCCCNC(=O)C1CCN(S(=O)(=O)c2ccc3nc(O)sc3c2)CC1)c1ccc(-c2c3nc(c(-c4c(F)cc(S(=O)(=O)[O-])cc4F)c4ccc([nH]4)c(-c4c(F)cc(S(=O)(=O)[O-])cc4F)c4nc(c(-c5c(F)cc(S(=O)(=O)[O-])cc5F)c5ccc2[nH]5)C=C4)C=C3)cc1
REMARK SMILES IDX 6 1 5 2 4 3 3 4 1 5 2 6 32 8 33 9 97 10 34 11 96 12 35 13
REMARK SMILES IDX 36 14 37 15 90 16 38 17 95 18 89 19 91 20 39 21 94 22 88 23
REMARK SMILES IDX 87 24 40 26 74 27 53 28 73 29 54 30 57 31 72 32 92 33 55 34
REMARK SMILES IDX 56 35 71 37 93 38 58 39 41 40 42 41 51 42 43 43 44 44 50 45
REMARK SMILES IDX 52 46 45 47 46 48 47 49 48 50 49 51 75 52 76 53 85 54 77 55
REMARK SMILES IDX 78 56 84 57 86 58 79 59 80 60 81 61 82 62 83 63 59 64 60 65
REMARK SMILES IDX 69 66 61 67 62 68 68 69 70 70 63 71 64 72 65 73 66 74 67 75
REMARK SMILES IDX 7 76 8 77 9 78 10 79 11 80 12 82 13 83 14 84 31 85 15 86
REMARK SMILES IDX 30 87 16 88 17 89 18 90 19 91 20 92 21 93 29 94 22 95 28 96
REMARK SMILES IDX 23 97 27 98 24 99 25 100 26 101
REMARK H PARENT 3 7 91 25 57 36 10 81 26 102
REMARK Flexibility Score: inf
ROOT
ATOM      1  C   UNL     1       4.136   3.248  -1.001  1.00  0.00     0.002 C 
ENDROOT
BRANCH   1   2
ATOM      2  C   UNL     1       4.691   1.812  -1.065  1.00  0.00     0.021 C 
BRANCH   2   3
ATOM      3  C   UNL     1       4.255   0.875   0.077  1.00  0.00     0.116 C 
BRANCH   3   4
ATOM      4  N   UNL     1       2.811   0.735   0.076  1.00  0.00    -0.352 N 
ATOM      5  O   UNL     1       0.917  -0.254  -0.517  1.00  0.00    -0.269 OA
ATOM      6  C   UNL     1       2.013  -0.373   0.035  1.00  0.00     0.251 C 
ATOM      7  H   UNL     1       2.321   1.588   0.112  1.00  0.00     0.163 HD
BRANCH   6   8
ATOM      8  C   UNL     1       2.359  -1.663   0.682  1.00  0.00     0.039 A 
ATOM      9  C   UNL     1       1.664  -2.800   0.239  1.00  0.00     0.014 A 
ATOM     10  C   UNL     1       3.161  -1.758   1.823  1.00  0.00     0.014 A 
ATOM     11  C   UNL     1       1.746  -4.008   0.933  1.00  0.00     0.010 A 
ATOM     12  C   UNL     1       3.246  -2.976   2.518  1.00  0.00     0.010 A 
ATOM     13  C   UNL     1       2.534  -4.106   2.084  1.00  0.00    -0.014 A 
BRANCH  13  14
ATOM     14  C   UNL     1       2.664  -5.441   2.720  1.00  0.00     0.031 A 
ATOM     15  C   UNL     1       4.077  -5.870   2.955  1.00  0.00     0.074 A 
ATOM     16  C   UNL     1       1.671  -6.000   3.454  1.00  0.00     0.049 A 
ATOM     17  N   UNL     1       4.776  -5.408   3.949  1.00  0.00    -0.248 NA
ATOM     18  C   UNL     1       4.875  -6.594   1.967  1.00  0.00     0.031 C 
ATOM     19  C   UNL     1       0.694  -5.210   4.216  1.00  0.00     0.029 A 
ATOM     20  N   UNL     1       1.441  -7.298   3.869  1.00  0.00    -0.354 N 
ATOM     21  C   UNL     1       6.097  -5.749   3.730  1.00  0.00     0.074 A 
ATOM     22  C   UNL     1       6.111  -6.489   2.487  1.00  0.00     0.031 C 
ATOM     23  C   UNL     1       0.094  -6.011   5.121  1.00  0.00     0.029 A 
ATOM     24  C   UNL     1       0.527  -7.397   4.926  1.00  0.00     0.049 A 
ATOM     25  H   UNL     1       1.879  -8.080   3.460  1.00  0.00     0.167 HD
ATOM     26  C   UNL     1       7.087  -5.398   4.595  1.00  0.00     0.037 A 
ATOM     27  C   UNL     1       0.604  -8.294   5.955  1.00  0.00     0.037 A 
ATOM     28  C   UNL     1       6.652  -4.663   5.748  1.00  0.00     0.049 A 
ATOM     29  C   UNL     1       1.873  -7.851   6.638  1.00  0.00     0.074 A 
ATOM     30  C   UNL     1       6.578  -3.350   6.156  1.00  0.00     0.029 A 
ATOM     31  N   UNL     1       6.067  -5.376   6.769  1.00  0.00    -0.354 N 
ATOM     32  N   UNL     1       1.997  -6.818   7.428  1.00  0.00    -0.248 NA
ATOM     33  C   UNL     1       3.133  -8.382   6.116  1.00  0.00     0.031 C 
ATOM     34  C   UNL     1       5.542  -3.319   7.145  1.00  0.00     0.029 A 
ATOM     35  C   UNL     1       5.036  -4.613   7.253  1.00  0.00     0.049 A 
ATOM     36  H   UNL     1       6.338  -6.266   7.091  1.00  0.00     0.167 HD
ATOM     37  C   UNL     1       3.321  -6.402   7.286  1.00  0.00     0.074 A 
ATOM     38  C   UNL     1       3.966  -7.413   6.470  1.00  0.00     0.031 C 
ATOM     39  C   UNL     1       3.778  -5.181   7.686  1.00  0.00     0.037 A 
BRANCH  26  40
ATOM     40  C   UNL     1       8.479  -5.891   4.548  1.00  0.00     0.058 A 
ATOM     41  C   UNL     1       8.818  -6.947   5.410  1.00  0.00     0.135 A 
ATOM     42  C   UNL     1       9.513  -5.218   3.889  1.00  0.00     0.135 A 
ATOM     43  F   UNL     1       7.851  -7.607   6.071  1.00  0.00    -0.206 F 
ATOM     44  C   UNL     1      10.136  -7.292   5.659  1.00  0.00     0.059 A 
ATOM     45  C   UNL     1      10.849  -5.556   4.114  1.00  0.00     0.059 A 
ATOM     46  F   UNL     1       9.241  -4.193   3.066  1.00  0.00    -0.206 F 
ATOM     47  C   UNL     1      11.149  -6.577   5.021  1.00  0.00     0.060 A 
BRANCH  47  48
ATOM     48  S   UNL     1      12.857  -6.986   5.440  1.00  0.00     0.124 S 
ATOM     49  O   UNL     1      12.903  -6.664   6.863  1.00  0.00    -0.237 OA
ATOM     50  O   UNL     1      12.916  -8.405   5.106  1.00  0.00    -0.237 OA
ATOM     51  O   UNL     1      13.638  -6.107   4.574  1.00  0.00    -0.744 OA
ENDBRANCH  47  48
ENDBRANCH  26  40
BRANCH  27  52
ATOM     52  C   UNL     1       0.303  -9.736   5.665  1.00  0.00     0.058 A 
ATOM     53  C   UNL     1      -0.846 -10.056   4.914  1.00  0.00     0.135 A 
ATOM     54  C   UNL     1       1.063 -10.832   6.113  1.00  0.00     0.135 A 
ATOM     55  F   UNL     1      -1.717  -9.095   4.566  1.00  0.00    -0.206 F 
ATOM     56  C   UNL     1      -1.131 -11.355   4.496  1.00  0.00     0.059 A 
ATOM     57  C   UNL     1       0.817 -12.139   5.685  1.00  0.00     0.059 A 
ATOM     58  F   UNL     1       2.082 -10.664   6.967  1.00  0.00    -0.206 F 
ATOM     59  C   UNL     1      -0.263 -12.385   4.845  1.00  0.00     0.060 A 
BRANCH  59  60
ATOM     60  S   UNL     1      -0.532 -14.019   4.127  1.00  0.00     0.124 S 
ATOM     61  O   UNL     1      -1.820 -14.396   4.699  1.00  0.00    -0.237 OA
ATOM     62  O   UNL     1      -0.535 -13.717   2.698  1.00  0.00    -0.237 OA
ATOM     63  O   UNL     1       0.615 -14.790   4.595  1.00  0.00    -0.744 OA
ENDBRANCH  59  60
ENDBRANCH  27  52
BRANCH  39  64
ATOM     64  C   UNL     1       2.815  -4.328   8.443  1.00  0.00     0.058 A 
ATOM     65  C   UNL     1       2.497  -4.633   9.772  1.00  0.00     0.135 A 
ATOM     66  C   UNL     1       2.281  -3.150   7.892  1.00  0.00     0.135 A 
ATOM     67  F   UNL     1       2.983  -5.744  10.348  1.00  0.00    -0.206 F 
ATOM     68  C   UNL     1       1.728  -3.772  10.548  1.00  0.00     0.059 A 
ATOM     69  C   UNL     1       1.527  -2.264   8.657  1.00  0.00     0.059 A 
ATOM     70  F   UNL     1       2.533  -2.814   6.615  1.00  0.00    -0.206 F 
ATOM     71  C   UNL     1       1.272  -2.576   9.992  1.00  0.00     0.060 A 
BRANCH  71  72
ATOM     72  S   UNL     1       0.434  -1.393  11.068  1.00  0.00     0.124 S 
ATOM     73  O   UNL     1      -0.805  -2.093  11.388  1.00  0.00    -0.237 OA
ATOM     74  O   UNL     1       1.385  -1.253  12.168  1.00  0.00    -0.237 OA
ATOM     75  O   UNL     1       0.286  -0.208  10.228  1.00  0.00    -0.744 OA
ENDBRANCH  71  72
ENDBRANCH  39  64
ENDBRANCH  13  14
ENDBRANCH   6   8
ENDBRANCH   3   4
ENDBRANCH   2   3
ENDBRANCH   1   2
BRANCH   1  76
ATOM     76  C   UNL     1       4.566   4.088   0.208  1.00  0.00     0.002 C 
BRANCH  76  77
ATOM     77  C   UNL     1       6.075   4.222   0.415  1.00  0.00     0.021 C 
BRANCH  77  78
ATOM     78  C   UNL     1       6.839   4.833  -0.755  1.00  0.00     0.116 C 
BRANCH  78  79
ATOM     79  N   UNL     1       6.682   6.272  -0.856  1.00  0.00    -0.356 N 
ATOM     80  C   UNL     1       7.512   7.308  -1.121  1.00  0.00     0.223 C 
ATOM     81  H   UNL     1       5.756   6.564  -0.693  1.00  0.00     0.163 HD
ATOM     82  O   UNL     1       6.950   8.405  -1.252  1.00  0.00    -0.275 OA
BRANCH  80  83
ATOM     83  C   UNL     1       9.050   7.258  -1.197  1.00  0.00     0.081 C 
ATOM     84  C   UNL     1       9.529   8.191  -2.327  1.00  0.00     0.030 C 
ATOM     85  C   UNL     1       9.802   5.957  -1.406  1.00  0.00     0.030 C 
ATOM     86  C   UNL     1       9.178   7.610  -3.696  1.00  0.00     0.103 C 
ATOM     87  C   UNL     1       9.471   5.320  -2.746  1.00  0.00     0.103 C 
ATOM     88  N   UNL     1       9.748   6.228  -3.894  1.00  0.00    -0.198 NA
BRANCH  88  89
ATOM     89  S   UNL     1       9.197   5.590  -5.416  1.00  0.00     0.243 S 
ATOM     90  O   UNL     1       7.779   5.336  -5.295  1.00  0.00    -0.207 OA
ATOM     91  O   UNL     1       9.707   6.460  -6.459  1.00  0.00    -0.207 OA
BRANCH  89  92
ATOM     92  C   UNL     1       9.998   4.004  -5.587  1.00  0.00     0.084 A 
ATOM     93  C   UNL     1       9.461   2.897  -4.921  1.00  0.00     0.024 A 
ATOM     94  C   UNL     1      11.060   3.861  -6.488  1.00  0.00     0.043 A 
ATOM     95  C   UNL     1      10.026   1.630  -5.086  1.00  0.00     0.031 A 
ATOM     96  C   UNL     1      11.585   2.570  -6.677  1.00  0.00     0.059 A 
ATOM     97  C   UNL     1      11.097   1.456  -5.984  1.00  0.00     0.085 A 
ATOM     98  S   UNL     1      12.847   2.050  -7.734  1.00  0.00    -0.077 S 
ATOM     99  N   UNL     1      11.719   0.253  -6.272  1.00  0.00    -0.203 NA
ATOM    100  C   UNL     1      12.636   0.461  -7.177  1.00  0.00     0.271 A 
BRANCH 100 101
ATOM    101  O   UNL     1      13.347  -0.560  -7.614  1.00  0.00    -0.486 OA
ATOM    102  H   UNL     1      13.192  -1.419  -7.274  1.00  0.00     0.296 HD
ENDBRANCH 100 101
ENDBRANCH  89  92
ENDBRANCH  88  89
ENDBRANCH  80  83
ENDBRANCH  78  79
ENDBRANCH  77  78
ENDBRANCH  76  77
ENDBRANCH   1  76
TORSDOF 19
