REMARK SMILES CC1(C)[C@H](C(=O)NCCCCCCNC(=O)c2ccc(-c3c4nc(c(-c5c(F)cc(S(=O)(=O)[O-])cc5F)c5ccc([nH]5)c(-c5c(F)cc(S(=O)(=O)[O-])cc5F)c5nc(c(-c6c(F)cc(S(=O)(=O)[O-])cc6F)c6ccc3[nH]6)C=C5)C=C4)cc2)[C@@H]1c1nc2ccc(F)cc2s1
REMARK SMILES IDX 11 1 10 2 9 3 8 4 7 5 5 6 6 7 4 9 1 10 2 11 3 12 83 13 84 14
REMARK SMILES IDX 85 15 93 16 86 17 92 18 87 19 91 20 88 21 89 22 90 23 12 24
REMARK SMILES IDX 13 25 14 26 15 27 16 29 17 30 18 31 82 32 19 33 81 34 20 35
REMARK SMILES IDX 21 36 22 37 75 38 23 39 80 40 74 41 76 42 24 43 79 44 73 45
REMARK SMILES IDX 72 46 25 48 59 49 38 50 58 51 39 52 42 53 57 54 77 55 40 56
REMARK SMILES IDX 41 57 56 59 78 60 43 61 26 62 27 63 36 64 28 65 29 66 35 67
REMARK SMILES IDX 37 68 30 69 31 70 32 71 33 72 34 73 60 74 61 75 70 76 62 77
REMARK SMILES IDX 63 78 69 79 71 80 64 81 65 82 66 83 67 84 68 85 44 86 45 87
REMARK SMILES IDX 54 88 46 89 47 90 53 91 55 92 48 93 49 94 50 95 51 96 52 97
REMARK H PARENT 7 8 14 28 76 47 42 58
REMARK Flexibility Score: inf
ROOT
ATOM      1  C   UNL     1      -1.921   6.090  -1.091  1.00  0.00     0.002 C 
ENDROOT
BRANCH   1   2
ATOM      2  C   UNL     1      -0.968   5.280  -1.979  1.00  0.00     0.002 C 
BRANCH   2   3
ATOM      3  C   UNL     1      -0.250   4.120  -1.288  1.00  0.00     0.021 C 
BRANCH   3   4
ATOM      4  C   UNL     1      -1.174   3.092  -0.645  1.00  0.00     0.116 C 
BRANCH   4   5
ATOM      5  N   UNL     1      -1.622   2.087  -1.570  1.00  0.00    -0.356 N 
ATOM      6  C   UNL     1      -1.613   0.722  -1.552  1.00  0.00     0.224 C 
ATOM      7  O   UNL     1      -2.099   0.187  -2.553  1.00  0.00    -0.275 OA
ATOM      8  H   UNL     1      -2.019   2.462  -2.389  1.00  0.00     0.163 HD
BRANCH   6   9
ATOM      9  C   UNL     1      -1.094  -0.198  -0.503  1.00  0.00     0.095 C 
ATOM     10  C   UNL     1       0.989  -1.501   0.255  1.00  0.00     0.013 C 
ATOM     11  C   UNL     1       0.256  -0.172   0.230  1.00  0.00    -0.013 C 
ATOM     12  C   UNL     1       1.212   0.979   0.055  1.00  0.00     0.013 C 
ATOM     13  C   UNL     1      -1.063  -0.100   0.989  1.00  0.00     0.068 C 
BRANCH  13  14
ATOM     14  C   UNL     1      -1.740   1.016   1.762  1.00  0.00     0.098 A 
ATOM     15  N   UNL     1      -3.053   1.020   1.825  1.00  0.00    -0.241 NA
ATOM     16  S   UNL     1      -0.959   2.193   2.729  1.00  0.00    -0.118 S 
ATOM     17  C   UNL     1      -3.487   2.163   2.469  1.00  0.00     0.082 A 
ATOM     18  C   UNL     1      -2.473   2.987   2.966  1.00  0.00     0.057 A 
ATOM     19  C   UNL     1      -4.831   2.562   2.624  1.00  0.00     0.033 A 
ATOM     20  C   UNL     1      -2.751   4.233   3.549  1.00  0.00     0.060 A 
ATOM     21  C   UNL     1      -5.120   3.800   3.203  1.00  0.00     0.041 A 
ATOM     22  C   UNL     1      -4.087   4.621   3.635  1.00  0.00     0.124 A 
ATOM     23  F   UNL     1      -4.384   5.823   4.145  1.00  0.00    -0.207 F 
ENDBRANCH  13  14
ENDBRANCH   6   9
ENDBRANCH   4   5
ENDBRANCH   3   4
ENDBRANCH   2   3
ENDBRANCH   1   2
BRANCH   1  24
ATOM     24  C   UNL     1      -1.347   6.571   0.245  1.00  0.00     0.021 C 
BRANCH  24  25
ATOM     25  C   UNL     1      -0.076   7.412   0.148  1.00  0.00     0.116 C 
BRANCH  25  26
ATOM     26  N   UNL     1      -0.268   8.614  -0.644  1.00  0.00    -0.352 N 
ATOM     27  C   UNL     1       0.002   9.923  -0.334  1.00  0.00     0.251 C 
ATOM     28  H   UNL     1      -0.650   8.467  -1.540  1.00  0.00     0.163 HD
ATOM     29  O   UNL     1      -0.397  10.816  -1.075  1.00  0.00    -0.269 OA
BRANCH  27  30
ATOM     30  C   UNL     1       0.755  10.263   0.894  1.00  0.00     0.039 A 
ATOM     31  C   UNL     1       0.318  11.337   1.673  1.00  0.00     0.014 A 
ATOM     32  C   UNL     1       1.907   9.559   1.258  1.00  0.00     0.014 A 
ATOM     33  C   UNL     1       1.006  11.675   2.841  1.00  0.00     0.010 A 
ATOM     34  C   UNL     1       2.556   9.857   2.456  1.00  0.00     0.010 A 
ATOM     35  C   UNL     1       2.117  10.923   3.255  1.00  0.00    -0.014 A 
BRANCH  35  36
ATOM     36  C   UNL     1       2.834  11.247   4.515  1.00  0.00     0.031 A 
ATOM     37  C   UNL     1       4.259  11.729   4.474  1.00  0.00     0.074 A 
ATOM     38  C   UNL     1       2.219  11.057   5.699  1.00  0.00     0.049 A 
ATOM     39  N   UNL     1       5.066  12.007   5.465  1.00  0.00    -0.248 NA
ATOM     40  C   UNL     1       4.865  11.896   3.143  1.00  0.00     0.031 C 
ATOM     41  C   UNL     1       0.856  10.548   5.872  1.00  0.00     0.029 A 
ATOM     42  N   UNL     1       2.662  11.259   6.982  1.00  0.00    -0.354 N 
ATOM     43  C   UNL     1       6.276  12.365   4.882  1.00  0.00     0.074 A 
ATOM     44  C   UNL     1       6.112  12.225   3.451  1.00  0.00     0.031 C 
ATOM     45  C   UNL     1       0.569  10.495   7.183  1.00  0.00     0.029 A 
ATOM     46  C   UNL     1       1.734  10.935   7.944  1.00  0.00     0.049 A 
ATOM     47  H   UNL     1       3.559  11.603   7.194  1.00  0.00     0.167 HD
ATOM     48  C   UNL     1       7.413  12.793   5.482  1.00  0.00     0.037 A 
ATOM     49  C   UNL     1       1.814  10.984   9.288  1.00  0.00     0.037 A 
ATOM     50  C   UNL     1       7.561  12.961   6.904  1.00  0.00     0.049 A 
ATOM     51  C   UNL     1       3.079  11.485   9.930  1.00  0.00     0.074 A 
ATOM     52  C   UNL     1       8.653  13.444   7.606  1.00  0.00     0.029 A 
ATOM     53  N   UNL     1       6.586  12.658   7.843  1.00  0.00    -0.354 N 
ATOM     54  N   UNL     1       4.194  11.874   9.359  1.00  0.00    -0.248 NA
ATOM     55  C   UNL     1       3.094  11.564  11.397  1.00  0.00     0.031 C 
ATOM     56  C   UNL     1       8.350  13.399   8.971  1.00  0.00     0.029 A 
ATOM     57  C   UNL     1       7.055  12.930   9.118  1.00  0.00     0.049 A 
ATOM     58  H   UNL     1       5.693  12.301   7.635  1.00  0.00     0.167 HD
ATOM     59  C   UNL     1       5.033  12.270  10.395  1.00  0.00     0.074 A 
ATOM     60  C   UNL     1       4.293  12.084  11.626  1.00  0.00     0.031 C 
ATOM     61  C   UNL     1       6.301  12.746  10.333  1.00  0.00     0.037 A 
BRANCH  48  62
ATOM     62  C   UNL     1       8.589  13.116   4.600  1.00  0.00     0.058 A 
ATOM     63  C   UNL     1       8.599  14.251   3.773  1.00  0.00     0.135 A 
ATOM     64  C   UNL     1       9.734  12.303   4.608  1.00  0.00     0.135 A 
ATOM     65  F   UNL     1       7.524  15.054   3.715  1.00  0.00    -0.206 F 
ATOM     66  C   UNL     1       9.690  14.553   2.965  1.00  0.00     0.059 A 
ATOM     67  C   UNL     1      10.848  12.601   3.828  1.00  0.00     0.059 A 
ATOM     68  F   UNL     1       9.778  11.205   5.380  1.00  0.00    -0.206 F 
ATOM     69  C   UNL     1      10.810  13.721   2.999  1.00  0.00     0.060 A 
BRANCH  69  70
ATOM     70  S   UNL     1      12.221  14.130   1.949  1.00  0.00     0.124 S 
ATOM     71  O   UNL     1      11.724  13.742   0.632  1.00  0.00    -0.237 OA
ATOM     72  O   UNL     1      12.372  15.564   2.172  1.00  0.00    -0.237 OA
ATOM     73  O   UNL     1      13.295  13.299   2.484  1.00  0.00    -0.744 OA
ENDBRANCH  69  70
ENDBRANCH  48  62
BRANCH  49  74
ATOM     74  C   UNL     1       0.651  10.572  10.117  1.00  0.00     0.058 A 
ATOM     75  C   UNL     1      -0.108  11.521  10.818  1.00  0.00     0.135 A 
ATOM     76  C   UNL     1       0.268   9.225  10.216  1.00  0.00     0.135 A 
ATOM     77  F   UNL     1       0.223  12.820  10.758  1.00  0.00    -0.206 F 
ATOM     78  C   UNL     1      -1.194  11.150  11.604  1.00  0.00     0.059 A 
ATOM     79  C   UNL     1      -0.829   8.832  10.977  1.00  0.00     0.059 A 
ATOM     80  F   UNL     1       0.950   8.281   9.550  1.00  0.00    -0.206 F 
ATOM     81  C   UNL     1      -1.546   9.801  11.677  1.00  0.00     0.060 A 
BRANCH  81  82
ATOM     82  S   UNL     1      -2.983   9.332  12.666  1.00  0.00     0.124 S 
ATOM     83  O   UNL     1      -2.457   9.449  14.021  1.00  0.00    -0.237 OA
ATOM     84  O   UNL     1      -3.968  10.336  12.274  1.00  0.00    -0.237 OA
ATOM     85  O   UNL     1      -3.271   7.974  12.214  1.00  0.00    -0.744 OA
ENDBRANCH  81  82
ENDBRANCH  49  74
BRANCH  61  86
ATOM     86  C   UNL     1       6.956  13.134  11.629  1.00  0.00     0.058 A 
ATOM     87  C   UNL     1       7.405  12.172  12.546  1.00  0.00     0.135 A 
ATOM     88  C   UNL     1       7.172  14.487  11.938  1.00  0.00     0.135 A 
ATOM     89  F   UNL     1       7.218  10.866  12.300  1.00  0.00    -0.206 F 
ATOM     90  C   UNL     1       8.022  12.538  13.738  1.00  0.00     0.059 A 
ATOM     91  C   UNL     1       7.809  14.875  13.112  1.00  0.00     0.059 A 
ATOM     92  F   UNL     1       6.771  15.447  11.089  1.00  0.00    -0.206 F 
ATOM     93  C   UNL     1       8.218  13.893  14.013  1.00  0.00     0.060 A 
BRANCH  93  94
ATOM     94  S   UNL     1       9.041  14.356  15.552  1.00  0.00     0.124 S 
ATOM     95  O   UNL     1       7.975  14.151  16.527  1.00  0.00    -0.237 OA
ATOM     96  O   UNL     1      10.148  13.407  15.614  1.00  0.00    -0.237 OA
ATOM     97  O   UNL     1       9.427  15.745  15.325  1.00  0.00    -0.744 OA
ENDBRANCH  93  94
ENDBRANCH  61  86
ENDBRANCH  35  36
ENDBRANCH  27  30
ENDBRANCH  25  26
ENDBRANCH  24  25
ENDBRANCH   1  24
TORSDOF 17
