REMARK SMILES CN1C(=O)[C@@H]2CC=CC[C@]2(C(=O)NCCCCCCNC(=O)c2ccc(-c3c4nc(c(-c5c(F)cc(S(=O)(=O)[O-])cc5F)c5ccc([nH]5)c(-c5c(F)cc(S(=O)(=O)[O-])cc5F)c5nc(c(-c6c(F)cc(S(=O)(=O)[O-])cc6F)c6ccc3[nH]6)C=C5)C=C4)cc2)[C@H]1c1ccccc1
REMARK SMILES IDX 17 1 16 2 15 3 14 4 13 5 11 6 12 7 10 9 1 10 2 11 3 12 89 13
REMARK SMILES IDX 4 14 5 15 6 16 9 17 7 18 8 19 90 20 91 21 95 22 92 23 94 24
REMARK SMILES IDX 93 25 18 26 19 27 20 28 21 29 22 31 23 32 24 33 88 34 25 35
REMARK SMILES IDX 87 36 26 37 27 38 28 39 81 40 29 41 86 42 80 43 82 44 30 45
REMARK SMILES IDX 85 46 79 47 78 48 31 50 65 51 44 52 64 53 45 54 48 55 63 56
REMARK SMILES IDX 83 57 46 58 47 59 62 61 84 62 49 63 32 64 33 65 42 66 34 67
REMARK SMILES IDX 35 68 41 69 43 70 36 71 37 72 38 73 39 74 40 75 66 76 67 77
REMARK SMILES IDX 76 78 68 79 69 80 75 81 77 82 70 83 71 84 72 85 73 86 74 87
REMARK SMILES IDX 50 88 51 89 60 90 52 91 53 92 59 93 61 94 54 95 55 96 56 97
REMARK SMILES IDX 57 98 58 99
REMARK H PARENT 13 8 20 30 82 49 48 60
REMARK Flexibility Score: inf
ROOT
ATOM      1  C   UNL     1      -2.692   4.866   3.465  1.00  0.00     0.002 C 
ENDROOT
BRANCH   1   2
ATOM      2  C   UNL     1      -3.676   3.693   3.556  1.00  0.00     0.002 C 
BRANCH   2   3
ATOM      3  C   UNL     1      -3.207   2.341   3.022  1.00  0.00     0.021 C 
BRANCH   3   4
ATOM      4  C   UNL     1      -1.758   1.947   3.284  1.00  0.00     0.116 C 
BRANCH   4   5
ATOM      5  N   UNL     1      -1.360   1.211   4.482  1.00  0.00    -0.356 N 
ATOM      6  C   UNL     1      -0.471   0.136   4.600  1.00  0.00     0.229 C 
ATOM      7  O   UNL     1       0.063  -0.055   5.695  1.00  0.00    -0.274 OA
ATOM      8  H   UNL     1      -1.774   1.514   5.322  1.00  0.00     0.163 HD
BRANCH   6   9
ATOM      9  C   UNL     1      -0.279  -0.869   3.426  1.00  0.00     0.089 C 
ATOM     10  C   UNL     1       1.283  -0.860  -0.007  1.00  0.00     0.147 C 
ATOM     11  N   UNL     1       0.954  -1.093   1.384  1.00  0.00    -0.337 N 
ATOM     12  C   UNL     1       1.295  -2.207   2.111  1.00  0.00     0.227 C 
ATOM     13  C   UNL     1       0.312  -0.096   2.185  1.00  0.00     0.131 C 
ATOM     14  O   UNL     1       1.915  -3.160   1.678  1.00  0.00    -0.275 OA
ATOM     15  C   UNL     1       0.811  -2.003   3.554  1.00  0.00     0.101 C 
ATOM     16  C   UNL     1       0.482  -3.364   4.167  1.00  0.00     0.041 C 
ATOM     17  C   UNL     1      -1.705  -1.492   3.272  1.00  0.00     0.047 C 
ATOM     18  C   UNL     1      -0.962  -3.668   4.304  1.00  0.00    -0.030 C 
ATOM     19  C   UNL     1      -1.930  -2.842   3.903  1.00  0.00    -0.030 C 
BRANCH  13  20
ATOM     20  C   UNL     1       1.277   1.064   2.502  1.00  0.00    -0.024 A 
ATOM     21  C   UNL     1       2.319   0.956   3.438  1.00  0.00     0.006 A 
ATOM     22  C   UNL     1       1.053   2.332   1.941  1.00  0.00     0.006 A 
ATOM     23  C   UNL     1       2.968   2.085   3.942  1.00  0.00     0.000 A 
ATOM     24  C   UNL     1       1.696   3.467   2.450  1.00  0.00     0.000 A 
ATOM     25  C   UNL     1       2.626   3.346   3.478  1.00  0.00     0.000 A 
ENDBRANCH  13  20
ENDBRANCH   6   9
ENDBRANCH   4   5
ENDBRANCH   3   4
ENDBRANCH   2   3
ENDBRANCH   1   2
BRANCH   1  26
ATOM     26  C   UNL     1      -2.134   5.217   2.078  1.00  0.00     0.021 C 
BRANCH  26  27
ATOM     27  C   UNL     1      -3.161   5.610   1.019  1.00  0.00     0.116 C 
BRANCH  27  28
ATOM     28  N   UNL     1      -4.033   6.684   1.463  1.00  0.00    -0.352 N 
ATOM     29  C   UNL     1      -4.266   7.920   0.913  1.00  0.00     0.251 C 
ATOM     30  H   UNL     1      -4.535   6.496   2.289  1.00  0.00     0.163 HD
ATOM     31  O   UNL     1      -4.875   8.766   1.561  1.00  0.00    -0.269 OA
BRANCH  29  32
ATOM     32  C   UNL     1      -3.782   8.236  -0.448  1.00  0.00     0.039 A 
ATOM     33  C   UNL     1      -3.212   9.489  -0.692  1.00  0.00     0.014 A 
ATOM     34  C   UNL     1      -3.919   7.314  -1.489  1.00  0.00     0.014 A 
ATOM     35  C   UNL     1      -2.727   9.794  -1.966  1.00  0.00     0.010 A 
ATOM     36  C   UNL     1      -3.369   7.592  -2.737  1.00  0.00     0.010 A 
ATOM     37  C   UNL     1      -2.772   8.835  -2.991  1.00  0.00    -0.014 A 
BRANCH  37  38
ATOM     38  C   UNL     1      -2.199   9.110  -4.334  1.00  0.00     0.031 A 
ATOM     39  C   UNL     1      -3.092   9.123  -5.546  1.00  0.00     0.074 A 
ATOM     40  C   UNL     1      -0.868   9.274  -4.469  1.00  0.00     0.049 A 
ATOM     41  N   UNL     1      -2.770   9.251  -6.807  1.00  0.00    -0.248 NA
ATOM     42  C   UNL     1      -4.534   8.941  -5.310  1.00  0.00     0.031 C 
ATOM     43  C   UNL     1       0.103   9.241  -3.373  1.00  0.00     0.029 A 
ATOM     44  N   UNL     1      -0.099   9.486  -5.585  1.00  0.00    -0.354 N 
ATOM     45  C   UNL     1      -3.963   9.151  -7.515  1.00  0.00     0.074 A 
ATOM     46  C   UNL     1      -5.007   8.897  -6.547  1.00  0.00     0.031 C 
ATOM     47  C   UNL     1       1.334   9.444  -3.868  1.00  0.00     0.029 A 
ATOM     48  C   UNL     1       1.248   9.576  -5.319  1.00  0.00     0.049 A 
ATOM     49  H   UNL     1      -0.475   9.567  -6.491  1.00  0.00     0.167 HD
ATOM     50  C   UNL     1      -4.170   9.282  -8.847  1.00  0.00     0.037 A 
ATOM     51  C   UNL     1       2.297   9.733  -6.150  1.00  0.00     0.037 A 
ATOM     52  C   UNL     1      -3.124   9.555  -9.799  1.00  0.00     0.049 A 
ATOM     53  C   UNL     1       2.044   9.858  -7.629  1.00  0.00     0.074 A 
ATOM     54  C   UNL     1      -3.235   9.759 -11.162  1.00  0.00     0.029 A 
ATOM     55  N   UNL     1      -1.775   9.655  -9.488  1.00  0.00    -0.354 N 
ATOM     56  N   UNL     1       0.902   9.823  -8.275  1.00  0.00    -0.248 NA
ATOM     57  C   UNL     1       3.217  10.047  -8.492  1.00  0.00     0.031 C 
ATOM     58  C   UNL     1      -1.949   9.929 -11.685  1.00  0.00     0.029 A 
ATOM     59  C   UNL     1      -1.041   9.893 -10.638  1.00  0.00     0.049 A 
ATOM     60  H   UNL     1      -1.396   9.571  -8.583  1.00  0.00     0.167 HD
ATOM     61  C   UNL     1       1.217  10.019  -9.615  1.00  0.00     0.074 A 
ATOM     62  C   UNL     1       2.655  10.180  -9.685  1.00  0.00     0.031 C 
ATOM     63  C   UNL     1       0.391  10.063 -10.690  1.00  0.00     0.037 A 
BRANCH  50  64
ATOM     64  C   UNL     1      -5.578   9.131  -9.356  1.00  0.00     0.058 A 
ATOM     65  C   UNL     1      -6.573  10.082  -9.073  1.00  0.00     0.135 A 
ATOM     66  C   UNL     1      -5.930   8.042 -10.171  1.00  0.00     0.135 A 
ATOM     67  F   UNL     1      -6.298  11.135  -8.288  1.00  0.00    -0.206 F 
ATOM     68  C   UNL     1      -7.871   9.943  -9.553  1.00  0.00     0.059 A 
ATOM     69  C   UNL     1      -7.215   7.900 -10.689  1.00  0.00     0.059 A 
ATOM     70  F   UNL     1      -5.021   7.103 -10.475  1.00  0.00    -0.206 F 
ATOM     71  C   UNL     1      -8.182   8.848 -10.361  1.00  0.00     0.060 A 
BRANCH  71  72
ATOM     72  S   UNL     1      -9.871   8.688 -10.979  1.00  0.00     0.124 S 
ATOM     73  O   UNL     1     -10.594   8.334  -9.761  1.00  0.00    -0.237 OA
ATOM     74  O   UNL     1     -10.136  10.021 -11.509  1.00  0.00    -0.237 OA
ATOM     75  O   UNL     1      -9.769   7.628 -11.978  1.00  0.00    -0.744 OA
ENDBRANCH  71  72
ENDBRANCH  50  64
BRANCH  51  76
ATOM     76  C   UNL     1       3.679   9.793  -5.602  1.00  0.00     0.058 A 
ATOM     77  C   UNL     1       4.417  10.986  -5.634  1.00  0.00     0.135 A 
ATOM     78  C   UNL     1       4.285   8.667  -5.023  1.00  0.00     0.135 A 
ATOM     79  F   UNL     1       3.885  12.089  -6.182  1.00  0.00    -0.206 F 
ATOM     80  C   UNL     1       5.712  11.056  -5.131  1.00  0.00     0.059 A 
ATOM     81  C   UNL     1       5.567   8.720  -4.487  1.00  0.00     0.059 A 
ATOM     82  F   UNL     1       3.615   7.506  -4.950  1.00  0.00    -0.206 F 
ATOM     83  C   UNL     1       6.277   9.917  -4.555  1.00  0.00     0.060 A 
BRANCH  83  84
ATOM     84  S   UNL     1       7.941  10.033  -3.863  1.00  0.00     0.124 S 
ATOM     85  O   UNL     1       8.754  10.137  -5.069  1.00  0.00    -0.237 OA
ATOM     86  O   UNL     1       7.849  11.241  -3.048  1.00  0.00    -0.237 OA
ATOM     87  O   UNL     1       8.080   8.789  -3.113  1.00  0.00    -0.744 OA
ENDBRANCH  83  84
ENDBRANCH  51  76
BRANCH  63  88
ATOM     88  C   UNL     1       1.010  10.336 -12.033  1.00  0.00     0.058 A 
ATOM     89  C   UNL     1       1.789   9.378 -12.699  1.00  0.00     0.135 A 
ATOM     90  C   UNL     1       0.762  11.552 -12.692  1.00  0.00     0.135 A 
ATOM     91  F   UNL     1       2.064   8.202 -12.112  1.00  0.00    -0.206 F 
ATOM     92  C   UNL     1       2.316   9.622 -13.963  1.00  0.00     0.059 A 
ATOM     93  C   UNL     1       1.252  11.805 -13.969  1.00  0.00     0.059 A 
ATOM     94  F   UNL     1       0.015  12.500 -12.104  1.00  0.00    -0.206 F 
ATOM     95  C   UNL     1       2.037  10.837 -14.593  1.00  0.00     0.060 A 
BRANCH  95  96
ATOM     96  S   UNL     1       2.687  11.119 -16.253  1.00  0.00     0.124 S 
ATOM     97  O   UNL     1       4.109  11.307 -15.984  1.00  0.00    -0.237 OA
ATOM     98  O   UNL     1       2.329   9.883 -16.942  1.00  0.00    -0.237 OA
ATOM     99  O   UNL     1       1.970  12.310 -16.701  1.00  0.00    -0.744 OA
ENDBRANCH  95  96
ENDBRANCH  63  88
ENDBRANCH  37  38
ENDBRANCH  29  32
ENDBRANCH  27  28
ENDBRANCH  26  27
ENDBRANCH   1  26
TORSDOF 17
