REMARK SMILES CC[C@@H](NC(=O)N[C@H]1CCCCC[C@@H]1C(=O)NCCCCCCNC(=O)c1ccc(-c2c3nc(c(-c4c(F)cc(S(=O)(=O)[O-])cc4F)c4ccc([nH]4)c(-c4c(F)cc(S(=O)(=O)[O-])cc4F)c4nc(c(-c5c(F)cc(S(=O)(=O)[O-])cc5F)c5ccc2[nH]5)C=C4)C=C3)cc1)C(C)C
REMARK SMILES IDX 20 1 19 2 18 3 17 4 15 5 16 6 14 8 8 9 7 10 4 11 5 12 6 14
REMARK SMILES IDX 3 16 2 17 1 18 93 19 94 20 95 21 9 22 10 23 11 24 13 26
REMARK SMILES IDX 12 27 21 29 22 30 23 31 24 32 25 33 26 35 27 36 28 37 92 38
REMARK SMILES IDX 29 39 91 40 30 41 31 42 32 43 85 44 33 45 90 46 84 47 86 48
REMARK SMILES IDX 34 49 89 50 83 51 82 52 35 54 69 55 48 56 68 57 49 58 52 59
REMARK SMILES IDX 67 60 87 61 50 62 51 63 66 65 88 66 53 67 36 68 37 69 46 70
REMARK SMILES IDX 38 71 39 72 45 73 47 74 40 75 41 76 42 77 43 78 44 79 70 80
REMARK SMILES IDX 71 81 80 82 72 83 73 84 79 85 81 86 74 87 75 88 76 89 77 90
REMARK SMILES IDX 78 91 54 92 55 93 64 94 56 95 57 96 63 97 65 98 58 99 59 100
REMARK SMILES IDX 60 101 61 102 62 103
REMARK H PARENT 17 7 4 13 7 15 24 34 86 53 52 64
REMARK Flexibility Score: 100.00
ROOT
ATOM      1  C   UNL     1       1.852   2.738   4.797  1.00  0.00     0.002 C 
ENDROOT
BRANCH   1   2
ATOM      2  C   UNL     1       1.265   1.329   4.913  1.00  0.00     0.021 C 
BRANCH   2   3
ATOM      3  C   UNL     1       1.833   0.305   3.900  1.00  0.00     0.116 C 
BRANCH   3   4
ATOM      4  N   UNL     1       2.387  -0.931   4.539  1.00  0.00    -0.356 N 
ATOM      5  C   UNL     1       2.560  -2.282   4.510  1.00  0.00     0.225 C 
ATOM      6  O   UNL     1       3.259  -2.564   5.511  1.00  0.00    -0.275 OA
ATOM      7  H   UNL     1       2.832  -0.626   5.362  1.00  0.00     0.163 HD
BRANCH   5   8
ATOM      8  C   UNL     1       2.200  -3.554   3.481  1.00  0.00     0.101 C 
BRANCH   8   9
ATOM      9  C   UNL     1       0.730  -4.097   3.115  1.00  0.00     0.096 C 
BRANCH   9  10
ATOM     10  N   UNL     1       0.349  -4.237   1.651  1.00  0.00    -0.335 N 
ATOM     11  N   UNL     1      -0.438  -2.248   0.612  1.00  0.00    -0.335 N 
ATOM     12  C   UNL     1      -0.266  -3.576   0.652  1.00  0.00     0.315 C 
ATOM     13  H   UNL     1      -0.958  -1.903  -0.150  1.00  0.00     0.165 HD
ATOM     14  O   UNL     1      -0.664  -4.238  -0.309  1.00  0.00    -0.249 OA
ATOM     15  H   UNL     1       0.658  -5.110   1.318  1.00  0.00     0.165 HD
BRANCH  11  16
ATOM     16  C   UNL     1       0.047  -1.254   1.554  1.00  0.00     0.086 C 
BRANCH  16  17
ATOM     17  C   UNL     1       1.600  -1.363   1.371  1.00  0.00     0.022 C 
ATOM     18  C   UNL     1       2.241  -0.298   0.473  1.00  0.00     0.006 C 
ENDBRANCH  16  17
BRANCH  16  19
ATOM     19  C   UNL     1      -0.964  -1.398   2.810  1.00  0.00     0.005 C 
ATOM     20  C   UNL     1      -0.675  -1.405   4.326  1.00  0.00     0.009 C 
ATOM     21  C   UNL     1      -2.107  -0.379   2.651  1.00  0.00     0.009 C 
ENDBRANCH  16  19
ENDBRANCH  11  16
ENDBRANCH   9  10
BRANCH   9  22
ATOM     22  C   UNL     1       0.274  -5.444   3.781  1.00  0.00     0.026 C 
BRANCH  22  23
ATOM     23  C   UNL     1       0.842  -6.753   3.206  1.00  0.00     0.002 C 
BRANCH  23  24
ATOM     24  C   UNL     1       2.240  -7.075   3.687  1.00  0.00     0.000 CG0
ATOM     25  G   UNL     1       3.241  -5.990   3.331  1.00  0.00     0.000 G0
ENDBRANCH  23  24
ENDBRANCH  22  23
ENDBRANCH   9  22
ENDBRANCH   8   9
BRANCH   8  26
ATOM     26  C   UNL     1       3.043  -4.710   4.127  1.00  0.00     0.015 C 
BRANCH  26  27
ATOM     27  C   UNL     1       3.241  -5.990   3.331  1.00  0.00     0.001 CG0
ATOM     28  G   UNL     1       2.240  -7.075   3.687  1.00  0.00     0.000 G0
ENDBRANCH  26  27
ENDBRANCH   8  26
ENDBRANCH   5   8
ENDBRANCH   3   4
ENDBRANCH   2   3
ENDBRANCH   1   2
BRANCH   1  29
ATOM     29  C   UNL     1       1.421   3.535   3.556  1.00  0.00     0.002 C 
BRANCH  29  30
ATOM     30  C   UNL     1      -0.032   4.036   3.525  1.00  0.00     0.021 C 
BRANCH  30  31
ATOM     31  C   UNL     1      -0.503   4.825   4.746  1.00  0.00     0.116 C 
BRANCH  31  32
ATOM     32  N   UNL     1       0.398   5.910   5.095  1.00  0.00    -0.352 N 
ATOM     33  C   UNL     1       0.138   7.228   5.384  1.00  0.00     0.251 C 
ATOM     34  H   UNL     1       1.350   5.660   5.129  1.00  0.00     0.163 HD
ATOM     35  O   UNL     1       1.067   8.016   5.480  1.00  0.00    -0.269 OA
BRANCH  33  36
ATOM     36  C   UNL     1      -1.255   7.695   5.574  1.00  0.00     0.039 A 
ATOM     37  C   UNL     1      -1.612   8.953   5.080  1.00  0.00     0.014 A 
ATOM     38  C   UNL     1      -2.187   6.934   6.286  1.00  0.00     0.014 A 
ATOM     39  C   UNL     1      -2.908   9.434   5.278  1.00  0.00     0.010 A 
ATOM     40  C   UNL     1      -3.500   7.380   6.412  1.00  0.00     0.010 A 
ATOM     41  C   UNL     1      -3.867   8.646   5.934  1.00  0.00    -0.014 A 
BRANCH  41  42
ATOM     42  C   UNL     1      -5.242   9.158   6.168  1.00  0.00     0.031 A 
ATOM     43  C   UNL     1      -5.731   9.388   7.575  1.00  0.00     0.074 A 
ATOM     44  C   UNL     1      -6.054   9.391   5.119  1.00  0.00     0.049 A 
ATOM     45  N   UNL     1      -6.894   9.824   7.984  1.00  0.00    -0.248 NA
ATOM     46  C   UNL     1      -4.800   9.057   8.667  1.00  0.00     0.031 C 
ATOM     47  C   UNL     1      -5.709   9.155   3.715  1.00  0.00     0.029 A 
ATOM     48  N   UNL     1      -7.334   9.879   5.067  1.00  0.00    -0.354 N 
ATOM     49  C   UNL     1      -6.838   9.811   9.374  1.00  0.00     0.074 A 
ATOM     50  C   UNL     1      -5.552   9.261   9.738  1.00  0.00     0.031 C 
ATOM     51  C   UNL     1      -6.739   9.531   2.940  1.00  0.00     0.029 A 
ATOM     52  C   UNL     1      -7.827  10.003   3.790  1.00  0.00     0.049 A 
ATOM     53  H   UNL     1      -7.852  10.119   5.870  1.00  0.00     0.167 HD
ATOM     54  C   UNL     1      -7.761  10.246  10.265  1.00  0.00     0.037 A 
ATOM     55  C   UNL     1      -9.021  10.451   3.354  1.00  0.00     0.037 A 
ATOM     56  C   UNL     1      -9.029  10.815   9.890  1.00  0.00     0.049 A 
ATOM     57  C   UNL     1     -10.023  10.946   4.362  1.00  0.00     0.074 A 
ATOM     58  C   UNL     1     -10.020  11.329  10.708  1.00  0.00     0.029 A 
ATOM     59  N   UNL     1      -9.482  10.947   8.585  1.00  0.00    -0.354 N 
ATOM     60  N   UNL     1      -9.930  10.980   5.671  1.00  0.00    -0.248 NA
ATOM     61  C   UNL     1     -11.284  11.480   3.834  1.00  0.00     0.031 C 
ATOM     62  C   UNL     1     -11.090  11.730   9.901  1.00  0.00     0.029 A 
ATOM     63  C   UNL     1     -10.742  11.523   8.576  1.00  0.00     0.049 A 
ATOM     64  H   UNL     1      -8.981  10.673   7.783  1.00  0.00     0.167 HD
ATOM     65  C   UNL     1     -11.104  11.576   6.120  1.00  0.00     0.074 A 
ATOM     66  C   UNL     1     -11.884  11.894   4.941  1.00  0.00     0.031 C 
ATOM     67  C   UNL     1     -11.500  11.841   7.391  1.00  0.00     0.037 A 
BRANCH  54  68
ATOM     68  C   UNL     1      -7.429  10.127  11.729  1.00  0.00     0.058 A 
ATOM     69  C   UNL     1      -6.421  10.905  12.325  1.00  0.00     0.135 A 
ATOM     70  C   UNL     1      -8.144   9.246  12.556  1.00  0.00     0.135 A 
ATOM     71  F   UNL     1      -5.692  11.753  11.581  1.00  0.00    -0.206 F 
ATOM     72  C   UNL     1      -6.113  10.789  13.677  1.00  0.00     0.059 A 
ATOM     73  C   UNL     1      -7.875   9.137  13.918  1.00  0.00     0.059 A 
ATOM     74  F   UNL     1      -9.117   8.476  12.043  1.00  0.00    -0.206 F 
ATOM     75  C   UNL     1      -6.846   9.902  14.466  1.00  0.00     0.060 A 
BRANCH  75  76
ATOM     76  S   UNL     1      -6.437   9.768  16.219  1.00  0.00     0.124 S 
ATOM     77  O   UNL     1      -5.162   9.060  16.167  1.00  0.00    -0.237 OA
ATOM     78  O   UNL     1      -6.369  11.166  16.630  1.00  0.00    -0.237 OA
ATOM     79  O   UNL     1      -7.554   9.008  16.772  1.00  0.00    -0.744 OA
ENDBRANCH  75  76
ENDBRANCH  54  68
BRANCH  55  80
ATOM     80  C   UNL     1      -9.314  10.491   1.896  1.00  0.00     0.058 A 
ATOM     81  C   UNL     1      -9.421  11.711   1.211  1.00  0.00     0.135 A 
ATOM     82  C   UNL     1      -9.484   9.311   1.155  1.00  0.00     0.135 A 
ATOM     83  F   UNL     1      -9.268  12.868   1.875  1.00  0.00    -0.206 F 
ATOM     84  C   UNL     1      -9.709  11.763  -0.148  1.00  0.00     0.059 A 
ATOM     85  C   UNL     1      -9.744   9.336  -0.212  1.00  0.00     0.059 A 
ATOM     86  F   UNL     1      -9.371   8.117   1.757  1.00  0.00    -0.206 F 
ATOM     87  C   UNL     1      -9.868  10.568  -0.852  1.00  0.00     0.060 A 
BRANCH  87  88
ATOM     88  S   UNL     1     -10.202  10.645  -2.625  1.00  0.00     0.124 S 
ATOM     89  O   UNL     1     -11.582  11.115  -2.644  1.00  0.00    -0.237 OA
ATOM     90  O   UNL     1      -9.196  11.598  -3.085  1.00  0.00    -0.237 OA
ATOM     91  O   UNL     1      -9.997   9.268  -3.065  1.00  0.00    -0.744 OA
ENDBRANCH  87  88
ENDBRANCH  55  80
BRANCH  67  92
ATOM     92  C   UNL     1     -12.809  12.560   7.567  1.00  0.00     0.058 A 
ATOM     93  C   UNL     1     -14.041  11.945   7.296  1.00  0.00     0.135 A 
ATOM     94  C   UNL     1     -12.828  13.885   8.034  1.00  0.00     0.135 A 
ATOM     95  F   UNL     1     -14.082  10.680   6.847  1.00  0.00    -0.206 F 
ATOM     96  C   UNL     1     -15.243  12.633   7.436  1.00  0.00     0.059 A 
ATOM     97  C   UNL     1     -14.018  14.581   8.214  1.00  0.00     0.059 A 
ATOM     98  F   UNL     1     -11.679  14.517   8.325  1.00  0.00    -0.206 F 
ATOM     99  C   UNL     1     -15.220  13.953   7.891  1.00  0.00     0.060 A 
BRANCH  99 100
ATOM    100  S   UNL     1     -16.784  14.837   8.062  1.00  0.00     0.124 S 
ATOM    101  O   UNL     1     -17.120  15.110   6.668  1.00  0.00    -0.237 OA
ATOM    102  O   UNL     1     -17.626  13.856   8.738  1.00  0.00    -0.237 OA
ATOM    103  O   UNL     1     -16.427  16.005   8.862  1.00  0.00    -0.744 OA
ENDBRANCH  99 100
ENDBRANCH  67  92
ENDBRANCH  41  42
ENDBRANCH  33  36
ENDBRANCH  31  32
ENDBRANCH  30  31
ENDBRANCH  29  30
ENDBRANCH   1  29
TORSDOF 20
