REMARK SMILES Cc1cc2c(=O)cc(-c3ccc(F)cc3)oc2c(C(=O)NCCCCCCNC(=O)c2ccc(-c3c4nc(c(-c5c(F)cc(S(=O)(=O)[O-])cc5F)c5ccc([nH]5)c(-c5c(F)cc(S(=O)(=O)[O-])cc5F)c5nc(c(-c6c(F)cc(S(=O)(=O)[O-])cc6F)c6ccc3[nH]6)C=C5)C=C4)cc2)c1C
REMARK SMILES IDX 25 1 24 2 23 3 22 4 21 5 19 6 20 7 18 9 1 10 2 11 3 12 97 13
REMARK SMILES IDX 4 14 98 15 5 16 17 17 6 18 7 19 16 20 8 21 9 22 10 23 15 24
REMARK SMILES IDX 11 25 14 26 12 27 13 28 26 29 27 30 28 31 29 32 30 34 31 35
REMARK SMILES IDX 32 36 96 37 33 38 95 39 34 40 35 41 36 42 89 43 37 44 94 45
REMARK SMILES IDX 88 46 90 47 38 48 93 49 87 50 86 51 39 53 73 54 52 55 72 56
REMARK SMILES IDX 53 57 56 58 71 59 91 60 54 61 55 62 70 64 92 65 57 66 40 67
REMARK SMILES IDX 41 68 50 69 42 70 43 71 49 72 51 73 44 74 45 75 46 76 47 77
REMARK SMILES IDX 48 78 74 79 75 80 84 81 76 82 77 83 83 84 85 85 78 86 79 87
REMARK SMILES IDX 80 88 81 89 82 90 58 91 59 92 68 93 60 94 61 95 67 96 69 97
REMARK SMILES IDX 62 98 63 99 64 100 65 101 66 102
REMARK H PARENT 21 8 28 33 90 52 56 63
REMARK Flexibility Score: inf
ROOT
ATOM      1  C   UNL     1      -1.407   5.923   3.833  1.00  0.00     0.002 C 
ENDROOT
BRANCH   1   2
ATOM      2  C   UNL     1      -2.583   4.945   3.938  1.00  0.00     0.002 C 
BRANCH   2   3
ATOM      3  C   UNL     1      -2.592   3.686   3.060  1.00  0.00     0.021 C 
BRANCH   3   4
ATOM      4  C   UNL     1      -1.347   2.800   3.023  1.00  0.00     0.116 C 
BRANCH   4   5
ATOM      5  N   UNL     1      -1.096   1.980   4.190  1.00  0.00    -0.352 N 
ATOM      6  C   UNL     1      -0.435   0.774   4.360  1.00  0.00     0.255 C 
ATOM      7  O   UNL     1      -0.188   0.473   5.531  1.00  0.00    -0.269 OA
ATOM      8  H   UNL     1      -1.466   2.351   5.023  1.00  0.00     0.163 HD
BRANCH   6   9
ATOM      9  C   UNL     1      -0.057  -0.199   3.261  1.00  0.00     0.086 A 
ATOM     10  C   UNL     1       1.153  -0.519  -0.403  1.00  0.00     0.044 C 
ATOM     11  C   UNL     1       0.715  -0.847   1.004  1.00  0.00    -0.046 A 
ATOM     12  C   UNL     1       0.593  -2.193   1.340  1.00  0.00     0.019 A 
ATOM     13  C   UNL     1       0.503   0.154   1.997  1.00  0.00    -0.032 A 
ATOM     14  C   UNL     1       0.208  -2.554   2.624  1.00  0.00     0.066 A 
ATOM     15  C   UNL     1       1.013   1.533   1.665  1.00  0.00     0.045 C 
ATOM     16  C   UNL     1       0.238  -3.981   2.984  1.00  0.00     0.193 A 
ATOM     17  C   UNL     1      -0.161  -1.589   3.571  1.00  0.00     0.151 A 
ATOM     18  O   UNL     1       0.551  -4.862   2.194  1.00  0.00    -0.289 OA
ATOM     19  C   UNL     1      -0.090  -4.311   4.368  1.00  0.00     0.100 A 
ATOM     20  O   UNL     1      -0.611  -1.994   4.819  1.00  0.00    -0.455 OA
ATOM     21  C   UNL     1      -0.476  -3.326   5.188  1.00  0.00     0.138 A 
BRANCH  21  22
ATOM     22  C   UNL     1      -0.858  -3.660   6.571  1.00  0.00     0.018 A 
ATOM     23  C   UNL     1      -2.118  -3.291   7.062  1.00  0.00     0.015 A 
ATOM     24  C   UNL     1      -0.000  -4.411   7.397  1.00  0.00     0.015 A 
ATOM     25  C   UNL     1      -2.525  -3.691   8.338  1.00  0.00     0.040 A 
ATOM     26  C   UNL     1      -0.407  -4.808   8.673  1.00  0.00     0.040 A 
ATOM     27  C   UNL     1      -1.669  -4.450   9.128  1.00  0.00     0.123 A 
ATOM     28  F   UNL     1      -2.070  -4.848  10.343  1.00  0.00    -0.207 F 
ENDBRANCH  21  22
ENDBRANCH   6   9
ENDBRANCH   4   5
ENDBRANCH   3   4
ENDBRANCH   2   3
ENDBRANCH   1   2
BRANCH   1  29
ATOM     29  C   UNL     1      -0.935   6.343   2.441  1.00  0.00     0.021 C 
BRANCH  29  30
ATOM     30  C   UNL     1      -1.986   6.914   1.494  1.00  0.00     0.116 C 
BRANCH  30  31
ATOM     31  N   UNL     1      -2.604   8.139   1.969  1.00  0.00    -0.352 N 
ATOM     32  C   UNL     1      -2.733   9.368   1.350  1.00  0.00     0.251 C 
ATOM     33  H   UNL     1      -2.992   8.086   2.872  1.00  0.00     0.163 HD
ATOM     34  O   UNL     1      -3.216  10.308   1.958  1.00  0.00    -0.269 OA
BRANCH  32  35
ATOM     35  C   UNL     1      -2.247   9.554  -0.041  1.00  0.00     0.039 A 
ATOM     36  C   UNL     1      -2.539   8.624  -1.040  1.00  0.00     0.014 A 
ATOM     37  C   UNL     1      -1.473  10.679  -0.341  1.00  0.00     0.014 A 
ATOM     38  C   UNL     1      -1.916   8.726  -2.282  1.00  0.00     0.010 A 
ATOM     39  C   UNL     1      -0.911  10.821  -1.615  1.00  0.00     0.010 A 
ATOM     40  C   UNL     1      -1.083   9.817  -2.580  1.00  0.00    -0.014 A 
BRANCH  40  41
ATOM     41  C   UNL     1      -0.383   9.870  -3.893  1.00  0.00     0.031 A 
ATOM     42  C   UNL     1       1.120   9.775  -3.966  1.00  0.00     0.074 A 
ATOM     43  C   UNL     1      -1.107   9.935  -5.028  1.00  0.00     0.049 A 
ATOM     44  N   UNL     1       1.896   9.776  -5.021  1.00  0.00    -0.248 NA
ATOM     45  C   UNL     1       1.848   9.667  -2.692  1.00  0.00     0.031 C 
ATOM     46  C   UNL     1      -2.568  10.016  -5.090  1.00  0.00     0.029 A 
ATOM     47  N   UNL     1      -0.721   9.916  -6.344  1.00  0.00    -0.354 N 
ATOM     48  C   UNL     1       3.197   9.682  -4.541  1.00  0.00     0.074 A 
ATOM     49  C   UNL     1       3.111   9.658  -3.097  1.00  0.00     0.031 C 
ATOM     50  C   UNL     1      -2.957   9.985  -6.373  1.00  0.00     0.029 A 
ATOM     51  C   UNL     1      -1.774   9.941  -7.228  1.00  0.00     0.049 A 
ATOM     52  H   UNL     1       0.221   9.887  -6.629  1.00  0.00     0.167 HD
ATOM     53  C   UNL     1       4.357   9.608  -5.238  1.00  0.00     0.037 A 
ATOM     54  C   UNL     1      -1.790   9.938  -8.575  1.00  0.00     0.037 A 
ATOM     55  C   UNL     1       4.439   9.612  -6.676  1.00  0.00     0.049 A 
ATOM     56  C   UNL     1      -0.489   9.899  -9.325  1.00  0.00     0.074 A 
ATOM     57  C   UNL     1       5.567   9.527  -7.473  1.00  0.00     0.029 A 
ATOM     58  N   UNL     1       3.352   9.701  -7.533  1.00  0.00    -0.354 N 
ATOM     59  N   UNL     1       0.731   9.816  -8.850  1.00  0.00    -0.248 NA
ATOM     60  C   UNL     1      -0.564   9.966 -10.790  1.00  0.00     0.031 C 
ATOM     61  C   UNL     1       5.166   9.601  -8.811  1.00  0.00     0.029 A 
ATOM     62  C   UNL     1       3.784   9.691  -8.849  1.00  0.00     0.049 A 
ATOM     63  H   UNL     1       2.411   9.762  -7.248  1.00  0.00     0.167 HD
ATOM     64  C   UNL     1       1.569   9.815  -9.959  1.00  0.00     0.074 A 
ATOM     65  C   UNL     1       0.716   9.885 -11.128  1.00  0.00     0.031 C 
ATOM     66  C   UNL     1       2.923   9.767 -10.003  1.00  0.00     0.037 A 
BRANCH  53  67
ATOM     67  C   UNL     1       5.640   9.519  -4.458  1.00  0.00     0.058 A 
ATOM     68  C   UNL     1       6.018   8.340  -3.797  1.00  0.00     0.135 A 
ATOM     69  C   UNL     1       6.530  10.605  -4.419  1.00  0.00     0.135 A 
ATOM     70  F   UNL     1       5.197   7.277  -3.788  1.00  0.00    -0.206 F 
ATOM     71  C   UNL     1       7.223   8.247  -3.108  1.00  0.00     0.059 A 
ATOM     72  C   UNL     1       7.751  10.527  -3.756  1.00  0.00     0.059 A 
ATOM     73  F   UNL     1       6.218  11.756  -5.035  1.00  0.00    -0.206 F 
ATOM     74  C   UNL     1       8.084   9.346  -3.094  1.00  0.00     0.060 A 
BRANCH  74  75
ATOM     75  S   UNL     1       9.648   9.201  -2.204  1.00  0.00     0.124 S 
ATOM     76  O   UNL     1       9.194   9.205  -0.817  1.00  0.00    -0.237 OA
ATOM     77  O   UNL     1      10.170   7.930  -2.696  1.00  0.00    -0.237 OA
ATOM     78  O   UNL     1      10.391  10.385  -2.624  1.00  0.00    -0.744 OA
ENDBRANCH  74  75
ENDBRANCH  53  67
BRANCH  54  79
ATOM     79  C   UNL     1      -3.090   9.971  -9.294  1.00  0.00     0.058 A 
ATOM     80  C   UNL     1      -3.562   8.845  -9.982  1.00  0.00     0.135 A 
ATOM     81  C   UNL     1      -3.904  11.115  -9.272  1.00  0.00     0.135 A 
ATOM     82  F   UNL     1      -2.816   7.731 -10.039  1.00  0.00    -0.206 F 
ATOM     83  C   UNL     1      -4.797   8.849 -10.623  1.00  0.00     0.059 A 
ATOM     84  C   UNL     1      -5.152  11.135  -9.884  1.00  0.00     0.059 A 
ATOM     85  F   UNL     1      -3.501  12.214  -8.616  1.00  0.00    -0.206 F 
ATOM     86  C   UNL     1      -5.589   9.998 -10.561  1.00  0.00     0.060 A 
BRANCH  86  87
ATOM     87  S   UNL     1      -7.222   9.966 -11.332  1.00  0.00     0.124 S 
ATOM     88  O   UNL     1      -6.879  10.015 -12.748  1.00  0.00    -0.237 OA
ATOM     89  O   UNL     1      -7.763   8.699 -10.848  1.00  0.00    -0.237 OA
ATOM     90  O   UNL     1      -7.868  11.160 -10.796  1.00  0.00    -0.744 OA
ENDBRANCH  86  87
ENDBRANCH  54  79
BRANCH  66  91
ATOM     91  C   UNL     1       3.572   9.783 -11.357  1.00  0.00     0.058 A 
ATOM     92  C   UNL     1       3.654  10.962 -12.114  1.00  0.00     0.135 A 
ATOM     93  C   UNL     1       4.173   8.625 -11.876  1.00  0.00     0.135 A 
ATOM     94  F   UNL     1       3.087  12.093 -11.665  1.00  0.00    -0.206 F 
ATOM     95  C   UNL     1       4.299  10.990 -13.345  1.00  0.00     0.059 A 
ATOM     96  C   UNL     1       4.843   8.636 -13.095  1.00  0.00     0.059 A 
ATOM     97  F   UNL     1       4.128   7.474 -11.187  1.00  0.00    -0.206 F 
ATOM     98  C   UNL     1       4.895   9.822 -13.826  1.00  0.00     0.060 A 
BRANCH  98  99
ATOM     99  S   UNL     1       5.767   9.885 -15.405  1.00  0.00     0.124 S 
ATOM    100  O   UNL     1       4.659   9.973 -16.350  1.00  0.00    -0.237 OA
ATOM    101  O   UNL     1       6.579  11.090 -15.265  1.00  0.00    -0.237 OA
ATOM    102  O   UNL     1       6.515   8.632 -15.430  1.00  0.00    -0.744 OA
ENDBRANCH  98  99
ENDBRANCH  66  91
ENDBRANCH  40  41
ENDBRANCH  32  35
ENDBRANCH  30  31
ENDBRANCH  29  30
ENDBRANCH   1  29
TORSDOF 17
