REMARK SMILES CCN(C(=O)c1nc(C(C)(C)C)n[nH]1)[C@@H](C)CC(=O)NCCCCCCNC(=O)c1ccc(-c2c3nc(c(-c4c(F)cc(S(=O)(=O)[O-])cc4F)c4ccc([nH]4)c(-c4c(F)cc(S(=O)(=O)[O-])cc4F)c4nc(c(-c5c(F)cc(S(=O)(=O)[O-])cc5F)c5ccc2[nH]5)C=C4)C=C3)cc1
REMARK SMILES IDX 22 1 21 2 20 3 18 4 19 5 17 7 15 8 16 9 3 10 2 11 1 12 4 13
REMARK SMILES IDX 5 14 6 15 7 16 14 17 8 18 13 19 9 21 10 22 11 23 12 24 23 25
REMARK SMILES IDX 24 26 25 27 26 28 27 29 28 30 29 32 30 33 31 34 95 35 32 36
REMARK SMILES IDX 94 37 33 38 34 39 35 40 88 41 36 42 93 43 87 44 89 45 37 46
REMARK SMILES IDX 92 47 86 48 85 49 38 51 72 52 51 53 71 54 52 55 55 56 70 57
REMARK SMILES IDX 90 58 53 59 54 60 69 62 91 63 56 64 39 65 40 66 49 67 41 68
REMARK SMILES IDX 42 69 48 70 50 71 43 72 44 73 45 74 46 75 47 76 73 77 74 78
REMARK SMILES IDX 83 79 75 80 76 81 82 82 84 83 77 84 78 85 79 86 80 87 81 88
REMARK SMILES IDX 57 89 58 90 67 91 59 92 60 93 66 94 68 95 61 96 62 97 63 98
REMARK SMILES IDX 64 99 65 100
REMARK H PARENT 20 6 14 20 27 31 89 50 55 61
REMARK Flexibility Score: inf
ROOT
ATOM      1  C   UNL     1      -0.995  -2.770   1.321  1.00  0.00     0.021 C 
ENDROOT
BRANCH   1   2
ATOM      2  C   UNL     1       0.218  -1.968   1.806  1.00  0.00     0.116 C 
BRANCH   2   3
ATOM      3  N   UNL     1       1.385  -2.825   1.954  1.00  0.00    -0.356 N 
ATOM      4  C   UNL     1       2.558  -2.854   1.260  1.00  0.00     0.222 C 
ATOM      5  O   UNL     1       3.377  -3.735   1.535  1.00  0.00    -0.275 OA
ATOM      6  H   UNL     1       1.316  -3.494   2.673  1.00  0.00     0.163 HD
BRANCH   4   7
ATOM      7  C   UNL     1       2.876  -1.812   0.204  1.00  0.00     0.124 C 
BRANCH   7   8
ATOM      8  C   UNL     1       2.419  -2.237  -1.201  1.00  0.00     0.091 C 
ATOM      9  C   UNL     1       3.371  -1.790  -2.318  1.00  0.00     0.031 C 
BRANCH   8  10
ATOM     10  N   UNL     1       1.010  -1.895  -1.518  1.00  0.00    -0.333 N 
BRANCH  10  11
ATOM     11  C   UNL     1       0.587  -0.502  -1.792  1.00  0.00     0.117 C 
ATOM     12  C   UNL     1       1.312   0.665  -1.135  1.00  0.00     0.027 C 
ENDBRANCH  10  11
BRANCH  10  13
ATOM     13  C   UNL     1       0.141  -2.990  -1.780  1.00  0.00     0.291 C 
ATOM     14  O   UNL     1       0.513  -4.153  -1.595  1.00  0.00    -0.265 OA
BRANCH  13  15
ATOM     15  C   UNL     1      -1.231  -2.766  -2.192  1.00  0.00     0.214 A 
ATOM     16  N   UNL     1      -1.790  -1.677  -2.678  1.00  0.00    -0.207 NA
ATOM     17  N   UNL     1      -2.194  -3.726  -2.079  1.00  0.00    -0.255 N 
ATOM     18  C   UNL     1      -3.118  -2.003  -2.787  1.00  0.00     0.156 A 
ATOM     19  N   UNL     1      -3.413  -3.242  -2.364  1.00  0.00    -0.158 NA
ATOM     20  H   UNL     1      -2.017  -4.659  -1.819  1.00  0.00     0.192 HD
BRANCH  18  21
ATOM     21  C   UNL     1      -4.141  -1.023  -3.308  1.00  0.00     0.024 C 
ATOM     22  C   UNL     1      -5.341  -1.766  -3.921  1.00  0.00     0.019 C 
ATOM     23  C   UNL     1      -4.620  -0.101  -2.172  1.00  0.00     0.019 C 
ATOM     24  C   UNL     1      -3.525  -0.135  -4.405  1.00  0.00     0.019 C 
ENDBRANCH  18  21
ENDBRANCH  13  15
ENDBRANCH  10  13
ENDBRANCH   8  10
ENDBRANCH   7   8
ENDBRANCH   4   7
ENDBRANCH   2   3
ENDBRANCH   1   2
BRANCH   1  25
ATOM     25  C   UNL     1      -2.046  -3.061   2.397  1.00  0.00     0.002 C 
BRANCH  25  26
ATOM     26  C   UNL     1      -3.036  -1.914   2.660  1.00  0.00     0.002 C 
BRANCH  26  27
ATOM     27  C   UNL     1      -3.936  -1.503   1.479  1.00  0.00     0.021 C 
BRANCH  27  28
ATOM     28  C   UNL     1      -4.886  -2.587   0.961  1.00  0.00     0.116 C 
BRANCH  28  29
ATOM     29  N   UNL     1      -6.030  -2.801   1.833  1.00  0.00    -0.352 N 
ATOM     30  C   UNL     1      -7.321  -2.328   1.779  1.00  0.00     0.251 C 
ATOM     31  H   UNL     1      -5.848  -3.390   2.600  1.00  0.00     0.163 HD
ATOM     32  O   UNL     1      -8.064  -2.545   2.737  1.00  0.00    -0.269 OA
BRANCH  30  33
ATOM     33  C   UNL     1      -7.841  -1.535   0.634  1.00  0.00     0.039 A 
ATOM     34  C   UNL     1      -8.633  -0.412   0.908  1.00  0.00     0.014 A 
ATOM     35  C   UNL     1      -7.647  -1.907  -0.696  1.00  0.00     0.014 A 
ATOM     36  C   UNL     1      -9.134   0.383  -0.135  1.00  0.00     0.010 A 
ATOM     37  C   UNL     1      -8.108  -1.081  -1.735  1.00  0.00     0.010 A 
ATOM     38  C   UNL     1      -8.826   0.096  -1.475  1.00  0.00    -0.014 A 
BRANCH  38  39
ATOM     39  C   UNL     1      -9.172   1.050  -2.578  1.00  0.00     0.031 A 
ATOM     40  C   UNL     1     -10.008   0.636  -3.768  1.00  0.00     0.074 A 
ATOM     41  C   UNL     1      -8.653   2.299  -2.563  1.00  0.00     0.049 A 
ATOM     42  N   UNL     1     -10.334   1.336  -4.829  1.00  0.00    -0.248 NA
ATOM     43  C   UNL     1     -10.520  -0.742  -3.786  1.00  0.00     0.031 C 
ATOM     44  C   UNL     1      -7.753   2.831  -1.537  1.00  0.00     0.029 A 
ATOM     45  N   UNL     1      -8.794   3.348  -3.445  1.00  0.00    -0.354 N 
ATOM     46  C   UNL     1     -11.057   0.479  -5.652  1.00  0.00     0.074 A 
ATOM     47  C   UNL     1     -11.098  -0.803  -4.979  1.00  0.00     0.031 C 
ATOM     48  C   UNL     1      -7.447   4.104  -1.830  1.00  0.00     0.029 A 
ATOM     49  C   UNL     1      -8.090   4.475  -3.087  1.00  0.00     0.049 A 
ATOM     50  H   UNL     1      -9.347   3.295  -4.258  1.00  0.00     0.167 HD
ATOM     51  C   UNL     1     -11.648   0.734  -6.846  1.00  0.00     0.037 A 
ATOM     52  C   UNL     1      -7.956   5.672  -3.694  1.00  0.00     0.037 A 
ATOM     53  C   UNL     1     -11.678   2.022  -7.494  1.00  0.00     0.049 A 
ATOM     54  C   UNL     1      -8.659   5.944  -4.994  1.00  0.00     0.074 A 
ATOM     55  C   UNL     1     -12.382   2.392  -8.630  1.00  0.00     0.029 A 
ATOM     56  N   UNL     1     -10.977   3.142  -7.080  1.00  0.00    -0.354 N 
ATOM     57  N   UNL     1      -9.430   5.148  -5.694  1.00  0.00    -0.248 NA
ATOM     58  C   UNL     1      -8.471   7.276  -5.592  1.00  0.00     0.031 C 
ATOM     59  C   UNL     1     -12.072   3.723  -8.927  1.00  0.00     0.029 A 
ATOM     60  C   UNL     1     -11.204   4.192  -7.957  1.00  0.00     0.049 A 
ATOM     61  H   UNL     1     -10.403   3.186  -6.282  1.00  0.00     0.167 HD
ATOM     62  C   UNL     1      -9.822   5.884  -6.807  1.00  0.00     0.074 A 
ATOM     63  C   UNL     1      -9.223   7.194  -6.681  1.00  0.00     0.031 C 
ATOM     64  C   UNL     1     -10.606   5.497  -7.842  1.00  0.00     0.037 A 
BRANCH  51  65
ATOM     65  C   UNL     1     -12.347  -0.398  -7.547  1.00  0.00     0.058 A 
ATOM     66  C   UNL     1     -13.595  -0.872  -7.114  1.00  0.00     0.135 A 
ATOM     67  C   UNL     1     -11.810  -0.944  -8.724  1.00  0.00     0.135 A 
ATOM     68  F   UNL     1     -14.151  -0.384  -5.994  1.00  0.00    -0.206 F 
ATOM     69  C   UNL     1     -14.279  -1.860  -7.814  1.00  0.00     0.059 A 
ATOM     70  C   UNL     1     -12.486  -1.919  -9.452  1.00  0.00     0.059 A 
ATOM     71  F   UNL     1     -10.623  -0.519  -9.186  1.00  0.00    -0.206 F 
ATOM     72  C   UNL     1     -13.717  -2.377  -8.983  1.00  0.00     0.060 A 
BRANCH  72  73
ATOM     73  S   UNL     1     -14.631  -3.638  -9.897  1.00  0.00     0.124 S 
ATOM     74  O   UNL     1     -14.412  -4.816  -9.063  1.00  0.00    -0.237 OA
ATOM     75  O   UNL     1     -15.990  -3.105  -9.894  1.00  0.00    -0.237 OA
ATOM     76  O   UNL     1     -13.973  -3.659 -11.199  1.00  0.00    -0.744 OA
ENDBRANCH  72  73
ENDBRANCH  51  65
BRANCH  52  77
ATOM     77  C   UNL     1      -7.102   6.721  -3.077  1.00  0.00     0.058 A 
ATOM     78  C   UNL     1      -7.670   7.854  -2.477  1.00  0.00     0.135 A 
ATOM     79  C   UNL     1      -5.703   6.612  -3.084  1.00  0.00     0.135 A 
ATOM     80  F   UNL     1      -9.003   8.005  -2.457  1.00  0.00    -0.206 F 
ATOM     81  C   UNL     1      -6.880   8.854  -1.919  1.00  0.00     0.059 A 
ATOM     82  C   UNL     1      -4.893   7.588  -2.513  1.00  0.00     0.059 A 
ATOM     83  F   UNL     1      -5.115   5.538  -3.634  1.00  0.00    -0.206 F 
ATOM     84  C   UNL     1      -5.491   8.711  -1.944  1.00  0.00     0.060 A 
BRANCH  84  85
ATOM     85  S   UNL     1      -4.470   9.990  -1.181  1.00  0.00     0.124 S 
ATOM     86  O   UNL     1      -4.483  11.025  -2.208  1.00  0.00    -0.237 OA
ATOM     87  O   UNL     1      -5.209  10.292   0.041  1.00  0.00    -0.237 OA
ATOM     88  O   UNL     1      -3.191   9.315  -0.978  1.00  0.00    -0.744 OA
ENDBRANCH  84  85
ENDBRANCH  52  77
BRANCH  64  89
ATOM     89  C   UNL     1     -10.871   6.497  -8.933  1.00  0.00     0.058 A 
ATOM     90  C   UNL     1      -9.895   6.804  -9.892  1.00  0.00     0.135 A 
ATOM     91  C   UNL     1     -12.131   7.103  -9.062  1.00  0.00     0.135 A 
ATOM     92  F   UNL     1      -8.670   6.260  -9.808  1.00  0.00    -0.206 F 
ATOM     93  C   UNL     1     -10.155   7.683 -10.940  1.00  0.00     0.059 A 
ATOM     94  C   UNL     1     -12.420   7.969 -10.113  1.00  0.00     0.059 A 
ATOM     95  F   UNL     1     -13.102   6.840  -8.173  1.00  0.00    -0.206 F 
ATOM     96  C   UNL     1     -11.423   8.257 -11.045  1.00  0.00     0.060 A 
BRANCH  96  97
ATOM     97  S   UNL     1     -11.768   9.351 -12.440  1.00  0.00     0.124 S 
ATOM     98  O   UNL     1     -11.071  10.569 -12.039  1.00  0.00    -0.237 OA
ATOM     99  O   UNL     1     -11.179   8.625 -13.562  1.00  0.00    -0.237 OA
ATOM    100  O   UNL     1     -13.225   9.437 -12.453  1.00  0.00    -0.744 OA
ENDBRANCH  96  97
ENDBRANCH  64  89
ENDBRANCH  38  39
ENDBRANCH  30  33
ENDBRANCH  28  29
ENDBRANCH  27  28
ENDBRANCH  26  27
ENDBRANCH  25  26
ENDBRANCH   1  25
TORSDOF 22
