REMARK SMILES O=C(NCCCCCCNC(=O)c1ccc(-c2c3nc(c(-c4c(F)cc(S(=O)(=O)[O-])cc4F)c4ccc([nH]4)c(-c4c(F)cc(S(=O)(=O)[O-])cc4F)c4nc(c(-c5c(F)cc(S(=O)(=O)[O-])cc5F)c5ccc2[nH]5)C=C4)C=C3)cc1)C(=O)N1CC[N@@H+]2CCC[C@H]2C1
REMARK SMILES IDX 7 1 6 2 5 3 4 4 3 5 1 6 2 7 79 9 80 10 81 11 82 12 89 13
REMARK SMILES IDX 83 14 88 15 84 16 87 17 85 18 86 20 8 21 9 22 10 23 11 24
REMARK SMILES IDX 12 26 13 27 14 28 78 29 15 30 77 31 16 32 17 33 18 34 71 35
REMARK SMILES IDX 19 36 76 37 70 38 72 39 20 40 75 41 69 42 68 43 21 45 55 46
REMARK SMILES IDX 34 47 54 48 35 49 38 50 53 51 73 52 36 53 37 54 52 56 74 57
REMARK SMILES IDX 39 58 22 59 23 60 32 61 24 62 25 63 31 64 33 65 26 66 27 67
REMARK SMILES IDX 28 68 29 69 30 70 56 71 57 72 66 73 58 74 59 75 65 76 67 77
REMARK SMILES IDX 60 78 61 79 62 80 63 81 64 82 40 83 41 84 50 85 42 86 43 87
REMARK SMILES IDX 49 88 51 89 44 90 45 91 46 92 47 93 48 94
REMARK H PARENT 3 8 84 19 10 25 72 44 38 55
REMARK Flexibility Score: inf
ROOT
ATOM      1  C   UNL     1       4.677   2.519  -3.550  1.00  0.00     0.002 C 
ENDROOT
BRANCH   1   2
ATOM      2  C   UNL     1       4.004   1.180  -3.870  1.00  0.00     0.002 C 
BRANCH   2   3
ATOM      3  C   UNL     1       4.334   0.012  -2.949  1.00  0.00     0.021 C 
BRANCH   3   4
ATOM      4  C   UNL     1       4.232   0.287  -1.462  1.00  0.00     0.116 C 
BRANCH   4   5
ATOM      5  N   UNL     1       2.940   0.586  -0.909  1.00  0.00    -0.348 N 
ATOM      6  O   UNL     1       1.645   0.883   0.942  1.00  0.00    -0.264 OA
ATOM      7  C   UNL     1       2.565   0.287   0.394  1.00  0.00     0.309 C 
ATOM      8  H   UNL     1       2.280   1.029  -1.490  1.00  0.00     0.163 HD
BRANCH   7   9
ATOM      9  C   UNL     1       3.233  -0.916   1.090  1.00  0.00     0.312 C 
ATOM     10  O   UNL     1       2.559  -1.942   1.170  1.00  0.00    -0.263 OA
BRANCH   9  11
ATOM     11  N   UNL     1       4.565  -0.845   1.504  1.00  0.00    -0.323 N 
ATOM     12  C   UNL     1       5.432   0.349   1.559  1.00  0.00     0.181 C 
ATOM     13  C   UNL     1       5.273  -2.112   1.737  1.00  0.00     0.185 C 
ATOM     14  C   UNL     1       6.764   0.186   0.744  1.00  0.00     0.284 C 
ATOM     15  C   UNL     1       6.352  -2.221   0.659  1.00  0.00     0.204 C 
ATOM     16  N   UNL     1       7.350  -1.154   0.836  1.00  0.00    -0.330 N 
ATOM     17  C   UNL     1       7.216  -3.466   0.641  1.00  0.00     0.073 C 
ATOM     18  C   UNL     1       8.380  -1.468  -0.148  1.00  0.00     0.262 C 
ATOM     19  H   UNL     1       7.755  -1.125   1.772  1.00  0.00     0.348 HD
ATOM     20  C   UNL     1       8.549  -2.974   0.059  1.00  0.00     0.068 C 
ENDBRANCH   9  11
ENDBRANCH   7   9
ENDBRANCH   4   5
ENDBRANCH   3   4
ENDBRANCH   2   3
ENDBRANCH   1   2
BRANCH   1  21
ATOM     21  C   UNL     1       6.203   2.517  -3.415  1.00  0.00     0.021 C 
BRANCH  21  22
ATOM     22  C   UNL     1       6.979   1.903  -4.575  1.00  0.00     0.116 C 
BRANCH  22  23
ATOM     23  N   UNL     1       6.678   2.531  -5.849  1.00  0.00    -0.352 N 
ATOM     24  C   UNL     1       7.526   3.052  -6.793  1.00  0.00     0.251 C 
ATOM     25  H   UNL     1       5.720   2.593  -6.068  1.00  0.00     0.163 HD
ATOM     26  O   UNL     1       7.061   3.683  -7.742  1.00  0.00    -0.269 OA
BRANCH  24  27
ATOM     27  C   UNL     1       8.990   2.884  -6.663  1.00  0.00     0.039 A 
ATOM     28  C   UNL     1       9.818   3.978  -6.927  1.00  0.00     0.014 A 
ATOM     29  C   UNL     1       9.551   1.656  -6.301  1.00  0.00     0.014 A 
ATOM     30  C   UNL     1      11.201   3.858  -6.767  1.00  0.00     0.010 A 
ATOM     31  C   UNL     1      10.923   1.559  -6.070  1.00  0.00     0.010 A 
ATOM     32  C   UNL     1      11.763   2.658  -6.302  1.00  0.00    -0.014 A 
BRANCH  32  33
ATOM     33  C   UNL     1      13.224   2.541  -6.051  1.00  0.00     0.031 A 
ATOM     34  C   UNL     1      14.055   1.565  -6.841  1.00  0.00     0.074 A 
ATOM     35  C   UNL     1      13.793   3.275  -5.074  1.00  0.00     0.049 A 
ATOM     36  N   UNL     1      15.324   1.271  -6.718  1.00  0.00    -0.248 NA
ATOM     37  C   UNL     1      13.363   0.800  -7.891  1.00  0.00     0.031 C 
ATOM     38  C   UNL     1      13.087   4.222  -4.208  1.00  0.00     0.029 A 
ATOM     39  N   UNL     1      15.093   3.334  -4.635  1.00  0.00    -0.354 N 
ATOM     40  C   UNL     1      15.582   0.292  -7.670  1.00  0.00     0.074 A 
ATOM     41  C   UNL     1      14.324  -0.006  -8.319  1.00  0.00     0.031 C 
ATOM     42  C   UNL     1      13.962   4.776  -3.353  1.00  0.00     0.029 A 
ATOM     43  C   UNL     1      15.282   4.196  -3.580  1.00  0.00     0.049 A 
ATOM     44  H   UNL     1      15.822   2.808  -5.038  1.00  0.00     0.167 HD
ATOM     45  C   UNL     1      16.764  -0.285  -7.994  1.00  0.00     0.037 A 
ATOM     46  C   UNL     1      16.388   4.478  -2.864  1.00  0.00     0.037 A 
ATOM     47  C   UNL     1      18.016   0.024  -7.351  1.00  0.00     0.049 A 
ATOM     48  C   UNL     1      17.687   3.809  -3.229  1.00  0.00     0.074 A 
ATOM     49  C   UNL     1      19.274  -0.482  -7.629  1.00  0.00     0.029 A 
ATOM     50  N   UNL     1      18.170   0.919  -6.302  1.00  0.00    -0.354 N 
ATOM     51  N   UNL     1      17.922   2.924  -4.169  1.00  0.00    -0.248 NA
ATOM     52  C   UNL     1      18.872   4.181  -2.445  1.00  0.00     0.031 C 
ATOM     53  C   UNL     1      20.179   0.070  -6.718  1.00  0.00     0.029 A 
ATOM     54  C   UNL     1      19.497   0.965  -5.909  1.00  0.00     0.049 A 
ATOM     55  H   UNL     1      17.442   1.444  -5.896  1.00  0.00     0.167 HD
ATOM     56  C   UNL     1      19.285   2.656  -4.107  1.00  0.00     0.074 A 
ATOM     57  C   UNL     1      19.825   3.484  -3.049  1.00  0.00     0.031 C 
ATOM     58  C   UNL     1      20.023   1.802  -4.858  1.00  0.00     0.037 A 
BRANCH  45  59
ATOM     59  C   UNL     1      16.765  -1.304  -9.103  1.00  0.00     0.058 A 
ATOM     60  C   UNL     1      16.538  -0.934 -10.440  1.00  0.00     0.135 A 
ATOM     61  C   UNL     1      17.039  -2.655  -8.838  1.00  0.00     0.135 A 
ATOM     62  F   UNL     1      16.255   0.341 -10.750  1.00  0.00    -0.206 F 
ATOM     63  C   UNL     1      16.556  -1.871 -11.468  1.00  0.00     0.059 A 
ATOM     64  C   UNL     1      17.094  -3.604  -9.855  1.00  0.00     0.059 A 
ATOM     65  F   UNL     1      17.263  -3.066  -7.580  1.00  0.00    -0.206 F 
ATOM     66  C   UNL     1      16.838  -3.204 -11.166  1.00  0.00     0.060 A 
BRANCH  66  67
ATOM     67  S   UNL     1      16.869  -4.402 -12.515  1.00  0.00     0.124 S 
ATOM     68  O   UNL     1      15.452  -4.492 -12.857  1.00  0.00    -0.237 OA
ATOM     69  O   UNL     1      17.716  -3.739 -13.501  1.00  0.00    -0.237 OA
ATOM     70  O   UNL     1      17.442  -5.595 -11.900  1.00  0.00    -0.744 OA
ENDBRANCH  66  67
ENDBRANCH  45  59
BRANCH  46  71
ATOM     71  C   UNL     1      16.316   5.438  -1.728  1.00  0.00     0.058 A 
ATOM     72  C   UNL     1      16.950   6.688  -1.790  1.00  0.00     0.135 A 
ATOM     73  C   UNL     1      15.607   5.124  -0.558  1.00  0.00     0.135 A 
ATOM     74  F   UNL     1      17.645   7.034  -2.884  1.00  0.00    -0.206 F 
ATOM     75  C   UNL     1      16.904   7.582  -0.725  1.00  0.00     0.059 A 
ATOM     76  C   UNL     1      15.521   6.013   0.508  1.00  0.00     0.059 A 
ATOM     77  F   UNL     1      14.966   3.949  -0.454  1.00  0.00    -0.206 F 
ATOM     78  C   UNL     1      16.184   7.236   0.420  1.00  0.00     0.060 A 
BRANCH  78  79
ATOM     79  S   UNL     1      16.099   8.419   1.782  1.00  0.00     0.124 S 
ATOM     80  O   UNL     1      17.452   8.345   2.320  1.00  0.00    -0.237 OA
ATOM     81  O   UNL     1      15.751   9.656   1.090  1.00  0.00    -0.237 OA
ATOM     82  O   UNL     1      15.049   7.871   2.636  1.00  0.00    -0.744 OA
ENDBRANCH  78  79
ENDBRANCH  46  71
BRANCH  58  83
ATOM     83  C   UNL     1      21.503   1.743  -4.593  1.00  0.00     0.058 A 
ATOM     84  C   UNL     1      22.025   1.157  -3.429  1.00  0.00     0.135 A 
ATOM     85  C   UNL     1      22.414   2.235  -5.543  1.00  0.00     0.135 A 
ATOM     86  F   UNL     1      21.200   0.676  -2.486  1.00  0.00    -0.206 F 
ATOM     87  C   UNL     1      23.396   1.082  -3.206  1.00  0.00     0.059 A 
ATOM     88  C   UNL     1      23.789   2.143  -5.354  1.00  0.00     0.059 A 
ATOM     89  F   UNL     1      21.969   2.797  -6.678  1.00  0.00    -0.206 F 
ATOM     90  C   UNL     1      24.271   1.575  -4.176  1.00  0.00     0.060 A 
BRANCH  90  91
ATOM     91  S   UNL     1      26.048   1.439  -3.888  1.00  0.00     0.124 S 
ATOM     92  O   UNL     1      26.254   2.442  -2.848  1.00  0.00    -0.237 OA
ATOM     93  O   UNL     1      26.189   0.049  -3.466  1.00  0.00    -0.237 OA
ATOM     94  O   UNL     1      26.629   1.755  -5.189  1.00  0.00    -0.744 OA
ENDBRANCH  90  91
ENDBRANCH  58  83
ENDBRANCH  32  33
ENDBRANCH  24  27
ENDBRANCH  22  23
ENDBRANCH  21  22
ENDBRANCH   1  21
TORSDOF 17
