REMARK SMILES O=C(NCCCCCCNC(=O)[C@@H]1CCC(=O)N(CCCOC2CCCCC2)[C@H]1c1ccco1)c1ccc(-c2c3nc(c(-c4c(F)cc(S(=O)(=O)[O-])cc4F)c4ccc([nH]4)c(-c4c(F)cc(S(=O)(=O)[O-])cc4F)c4nc(c(-c5c(F)cc(S(=O)(=O)[O-])cc5F)c5ccc2[nH]5)C=C4)C=C3)cc1
REMARK SMILES IDX 7 1 6 2 5 3 4 4 3 5 1 6 2 7 35 9 36 10 100 11 37 12 99 13
REMARK SMILES IDX 38 14 39 15 40 16 93 17 41 18 98 19 92 20 94 21 42 22 97 23
REMARK SMILES IDX 91 24 90 25 43 27 77 28 56 29 76 30 57 31 60 32 75 33 95 34
REMARK SMILES IDX 58 35 59 36 74 38 96 39 61 40 44 41 45 42 54 43 46 44 47 45
REMARK SMILES IDX 53 46 55 47 48 48 49 49 50 50 51 51 52 52 78 53 79 54 88 55
REMARK SMILES IDX 80 56 81 57 87 58 89 59 82 60 83 61 84 62 85 63 86 64 62 65
REMARK SMILES IDX 63 66 72 67 64 68 65 69 71 70 73 71 66 72 67 73 68 74 69 75
REMARK SMILES IDX 70 76 8 77 9 78 10 79 11 80 12 82 13 83 14 84 29 85 15 86
REMARK SMILES IDX 18 87 16 88 17 89 30 90 31 91 34 92 32 93 33 94 19 95 20 96
REMARK SMILES IDX 21 97 22 98 23 99 24 100 28 101 25 102 27 103 26 104
REMARK H PARENT 3 8 94 26 60 37 10 81
REMARK Flexibility Score: inf
ROOT
ATOM      1  C   UNL     1       5.024  -2.454   3.576  1.00  0.00     0.002 C 
ENDROOT
BRANCH   1   2
ATOM      2  C   UNL     1       4.398  -1.059   3.687  1.00  0.00     0.002 C 
BRANCH   2   3
ATOM      3  C   UNL     1       4.762  -0.081   2.568  1.00  0.00     0.021 C 
BRANCH   3   4
ATOM      4  C   UNL     1       4.443  -0.565   1.156  1.00  0.00     0.116 C 
BRANCH   4   5
ATOM      5  N   UNL     1       3.013  -0.693   0.922  1.00  0.00    -0.352 N 
ATOM      6  O   UNL     1       1.008  -0.181   0.028  1.00  0.00    -0.269 OA
ATOM      7  C   UNL     1       2.234  -0.093  -0.037  1.00  0.00     0.251 C 
ATOM      8  H   UNL     1       2.537  -1.295   1.538  1.00  0.00     0.163 HD
BRANCH   7   9
ATOM      9  C   UNL     1       2.865   0.675  -1.132  1.00  0.00     0.039 A 
ATOM     10  C   UNL     1       3.959   0.159  -1.833  1.00  0.00     0.014 A 
ATOM     11  C   UNL     1       2.337   1.922  -1.477  1.00  0.00     0.014 A 
ATOM     12  C   UNL     1       4.598   0.937  -2.795  1.00  0.00     0.010 A 
ATOM     13  C   UNL     1       2.936   2.671  -2.493  1.00  0.00     0.010 A 
ATOM     14  C   UNL     1       4.085   2.196  -3.144  1.00  0.00    -0.014 A 
BRANCH  14  15
ATOM     15  C   UNL     1       4.712   2.986  -4.234  1.00  0.00     0.031 A 
ATOM     16  C   UNL     1       5.342   4.321  -3.953  1.00  0.00     0.074 A 
ATOM     17  C   UNL     1       4.666   2.512  -5.494  1.00  0.00     0.049 A 
ATOM     18  N   UNL     1       5.848   5.188  -4.792  1.00  0.00    -0.248 NA
ATOM     19  C   UNL     1       5.403   4.740  -2.545  1.00  0.00     0.031 C 
ATOM     20  C   UNL     1       4.072   1.234  -5.889  1.00  0.00     0.029 A 
ATOM     21  N   UNL     1       5.105   3.055  -6.675  1.00  0.00    -0.354 N 
ATOM     22  C   UNL     1       6.264   6.267  -4.021  1.00  0.00     0.074 A 
ATOM     23  C   UNL     1       5.929   5.953  -2.647  1.00  0.00     0.031 C 
ATOM     24  C   UNL     1       4.179   1.091  -7.217  1.00  0.00     0.029 A 
ATOM     25  C   UNL     1       4.789   2.294  -7.775  1.00  0.00     0.049 A 
ATOM     26  H   UNL     1       5.597   3.906  -6.730  1.00  0.00     0.167 HD
ATOM     27  C   UNL     1       6.868   7.412  -4.425  1.00  0.00     0.037 A 
ATOM     28  C   UNL     1       4.930   2.548  -9.091  1.00  0.00     0.037 A 
ATOM     29  C   UNL     1       7.187   7.710  -5.798  1.00  0.00     0.049 A 
ATOM     30  C   UNL     1       5.566   3.837  -9.523  1.00  0.00     0.074 A 
ATOM     31  C   UNL     1       7.838   8.821  -6.308  1.00  0.00     0.029 A 
ATOM     32  N   UNL     1       6.860   6.908  -6.883  1.00  0.00    -0.354 N 
ATOM     33  N   UNL     1       6.000   4.826  -8.780  1.00  0.00    -0.248 NA
ATOM     34  C   UNL     1       5.736   4.047 -10.966  1.00  0.00     0.031 C 
ATOM     35  C   UNL     1       7.849   8.719  -7.703  1.00  0.00     0.029 A 
ATOM     36  C   UNL     1       7.268   7.513  -8.062  1.00  0.00     0.049 A 
ATOM     37  H   UNL     1       6.406   6.037  -6.824  1.00  0.00     0.167 HD
ATOM     38  C   UNL     1       6.519   5.766  -9.662  1.00  0.00     0.074 A 
ATOM     39  C   UNL     1       6.343   5.227 -10.995  1.00  0.00     0.031 C 
ATOM     40  C   UNL     1       7.096   6.962  -9.386  1.00  0.00     0.037 A 
BRANCH  27  41
ATOM     41  C   UNL     1       7.180   8.443  -3.372  1.00  0.00     0.058 A 
ATOM     42  C   UNL     1       8.155   8.229  -2.384  1.00  0.00     0.135 A 
ATOM     43  C   UNL     1       6.490   9.667  -3.351  1.00  0.00     0.135 A 
ATOM     44  F   UNL     1       8.842   7.075  -2.349  1.00  0.00    -0.206 F 
ATOM     45  C   UNL     1       8.394   9.164  -1.381  1.00  0.00     0.059 A 
ATOM     46  C   UNL     1       6.736  10.631  -2.377  1.00  0.00     0.059 A 
ATOM     47  F   UNL     1       5.554   9.932  -4.276  1.00  0.00    -0.206 F 
ATOM     48  C   UNL     1       7.670  10.358  -1.380  1.00  0.00     0.060 A 
BRANCH  48  49
ATOM     49  S   UNL     1       7.950  11.534  -0.040  1.00  0.00     0.124 S 
ATOM     50  O   UNL     1       7.301  10.855   1.079  1.00  0.00    -0.237 OA
ATOM     51  O   UNL     1       9.407  11.600   0.020  1.00  0.00    -0.237 OA
ATOM     52  O   UNL     1       7.288  12.748  -0.507  1.00  0.00    -0.744 OA
ENDBRANCH  48  49
ENDBRANCH  27  41
BRANCH  28  53
ATOM     53  C   UNL     1       4.434   1.548 -10.071  1.00  0.00     0.058 A 
ATOM     54  C   UNL     1       5.322   0.745 -10.799  1.00  0.00     0.135 A 
ATOM     55  C   UNL     1       3.058   1.312 -10.224  1.00  0.00     0.135 A 
ATOM     56  F   UNL     1       6.645   0.936 -10.690  1.00  0.00    -0.206 F 
ATOM     57  C   UNL     1       4.864  -0.269 -11.636  1.00  0.00     0.059 A 
ATOM     58  C   UNL     1       2.577   0.288 -11.033  1.00  0.00     0.059 A 
ATOM     59  F   UNL     1       2.170   2.043  -9.533  1.00  0.00    -0.206 F 
ATOM     60  C   UNL     1       3.489  -0.498 -11.734  1.00  0.00     0.060 A 
BRANCH  60  61
ATOM     61  S   UNL     1       2.915  -1.885 -12.739  1.00  0.00     0.124 S 
ATOM     62  O   UNL     1       3.179  -1.399 -14.088  1.00  0.00    -0.237 OA
ATOM     63  O   UNL     1       3.769  -2.973 -12.272  1.00  0.00    -0.237 OA
ATOM     64  O   UNL     1       1.506  -2.004 -12.374  1.00  0.00    -0.744 OA
ENDBRANCH  60  61
ENDBRANCH  28  53
BRANCH  40  65
ATOM     65  C   UNL     1       7.630   7.767 -10.538  1.00  0.00     0.058 A 
ATOM     66  C   UNL     1       6.784   8.469 -11.409  1.00  0.00     0.135 A 
ATOM     67  C   UNL     1       9.017   7.925 -10.701  1.00  0.00     0.135 A 
ATOM     68  F   UNL     1       5.451   8.342 -11.306  1.00  0.00    -0.206 F 
ATOM     69  C   UNL     1       7.293   9.305 -12.398  1.00  0.00     0.059 A 
ATOM     70  C   UNL     1       9.547   8.775 -11.665  1.00  0.00     0.059 A 
ATOM     71  F   UNL     1       9.870   7.277  -9.891  1.00  0.00    -0.206 F 
ATOM     72  C   UNL     1       8.677   9.462 -12.509  1.00  0.00     0.060 A 
BRANCH  72  73
ATOM     73  S   UNL     1       9.322  10.621 -13.735  1.00  0.00     0.124 S 
ATOM     74  O   UNL     1       9.065   9.906 -14.980  1.00  0.00    -0.237 OA
ATOM     75  O   UNL     1       8.502  11.806 -13.503  1.00  0.00    -0.237 OA
ATOM     76  O   UNL     1      10.728  10.757 -13.368  1.00  0.00    -0.744 OA
ENDBRANCH  72  73
ENDBRANCH  40  65
ENDBRANCH  14  15
ENDBRANCH   7   9
ENDBRANCH   4   5
ENDBRANCH   3   4
ENDBRANCH   2   3
ENDBRANCH   1   2
BRANCH   1  77
ATOM     77  C   UNL     1       6.559  -2.499   3.482  1.00  0.00     0.021 C 
BRANCH  77  78
ATOM     78  C   UNL     1       7.303  -1.958   4.708  1.00  0.00     0.116 C 
BRANCH  78  79
ATOM     79  N   UNL     1       7.011  -2.753   5.886  1.00  0.00    -0.356 N 
ATOM     80  C   UNL     1       7.769  -3.608   6.623  1.00  0.00     0.225 C 
ATOM     81  H   UNL     1       6.089  -2.655   6.215  1.00  0.00     0.163 HD
ATOM     82  O   UNL     1       7.167  -4.272   7.468  1.00  0.00    -0.275 OA
BRANCH  80  83
ATOM     83  C   UNL     1       9.286  -3.702   6.435  1.00  0.00     0.109 C 
ATOM     84  C   UNL     1       9.818  -5.085   6.788  1.00  0.00     0.026 C 
ATOM     85  C   UNL     1      10.006  -2.647   7.294  1.00  0.00     0.164 C 
ATOM     86  C   UNL     1       9.707  -5.399   8.266  1.00  0.00     0.101 C 
ATOM     87  N   UNL     1      10.101  -2.961   8.738  1.00  0.00    -0.332 N 
ATOM     88  C   UNL     1       9.914  -4.251   9.231  1.00  0.00     0.223 C 
ATOM     89  O   UNL     1       9.886  -4.497  10.442  1.00  0.00    -0.275 OA
BRANCH  85  90
ATOM     90  C   UNL     1      11.353  -2.274   6.734  1.00  0.00     0.127 A 
ATOM     91  C   UNL     1      11.714  -1.537   5.621  1.00  0.00     0.048 A 
ATOM     92  O   UNL     1      12.467  -2.576   7.463  1.00  0.00    -0.467 OA
ATOM     93  C   UNL     1      13.107  -1.312   5.722  1.00  0.00     0.042 A 
ATOM     94  C   UNL     1      13.516  -1.954   6.866  1.00  0.00     0.195 A 
ENDBRANCH  85  90
BRANCH  87  95
ATOM     95  C   UNL     1      10.270  -1.914   9.778  1.00  0.00     0.122 C 
BRANCH  95  96
ATOM     96  C   UNL     1      10.981  -0.581   9.492  1.00  0.00     0.050 C 
BRANCH  96  97
ATOM     97  C   UNL     1      10.188   0.495   8.752  1.00  0.00     0.162 C 
BRANCH  97  98
ATOM     98  O   UNL     1       9.082   0.877   9.567  1.00  0.00    -0.378 OA
BRANCH  98  99
ATOM     99  C   UNL     1       7.789   0.926   8.934  1.00  0.00     0.118 C 
ATOM    100  C   UNL     1       7.382  -0.459   8.414  1.00  0.00     0.032 C 
ATOM    101  C   UNL     1       6.854   1.552   9.976  1.00  0.00     0.032 C 
ATOM    102  C   UNL     1       6.248  -1.240   9.058  1.00  0.00     0.003 C 
ATOM    103  C   UNL     1       5.531   0.830  10.171  1.00  0.00     0.003 C 
ATOM    104  C   UNL     1       5.777  -0.653  10.366  1.00  0.00     0.000 C 
ENDBRANCH  98  99
ENDBRANCH  97  98
ENDBRANCH  96  97
ENDBRANCH  95  96
ENDBRANCH  87  95
ENDBRANCH  80  83
ENDBRANCH  78  79
ENDBRANCH  77  78
ENDBRANCH   1  77
TORSDOF 22
