REMARK SMILES CC(C)Oc1ccc(-c2ccc(/C(=C\c3ccc(S(C)(=O)=O)cc3)C(=O)NCCCCCCNC(=O)c3ccc(-c4c5nc(c(-c6c(F)cc(S(=O)(=O)[O-])cc6F)c6ccc([nH]6)c(-c6c(F)cc(S(=O)(=O)[O-])cc6F)c6nc(c(-c7c(F)cc(S(=O)(=O)[O-])cc7F)c7ccc4[nH]7)C=C6)C=C5)cc3)cc2)cc1
REMARK SMILES IDX 30 1 29 2 28 3 27 4 25 5 26 6 13 8 14 9 12 10 9 11 10 12
REMARK SMILES IDX 104 13 11 14 103 15 8 16 5 17 6 18 106 19 7 20 105 21 4 22
REMARK SMILES IDX 2 23 1 24 3 25 15 26 16 27 24 28 17 29 23 30 18 31 19 32
REMARK SMILES IDX 20 33 21 34 22 35 31 36 32 37 33 38 34 39 35 40 36 42 37 43
REMARK SMILES IDX 38 44 102 45 39 46 101 47 40 48 41 49 42 50 95 51 43 52
REMARK SMILES IDX 100 53 94 54 96 55 44 56 99 57 93 58 92 59 45 61 79 62 58 63
REMARK SMILES IDX 78 64 59 65 62 66 77 67 97 68 60 69 61 70 76 72 98 73 63 74
REMARK SMILES IDX 46 75 47 76 56 77 48 78 49 79 55 80 57 81 50 82 51 83 52 84
REMARK SMILES IDX 53 85 54 86 80 87 81 88 90 89 82 90 83 91 89 92 91 93 84 94
REMARK SMILES IDX 85 95 86 96 87 97 88 98 64 99 65 100 74 101 66 102 67 103
REMARK SMILES IDX 73 104 75 105 68 106 69 107 70 108 71 109 72 110
REMARK H PARENT 27 7 34 41 96 60 62 71
REMARK Flexibility Score: inf
ROOT
ATOM      1  C   UNL     1      -6.778   9.378  -9.036  1.00  0.00     0.002 C 
ENDROOT
BRANCH   1   2
ATOM      2  C   UNL     1      -6.230   9.555  -7.612  1.00  0.00     0.021 C 
BRANCH   2   3
ATOM      3  C   UNL     1      -7.104   8.897  -6.538  1.00  0.00     0.116 C 
BRANCH   3   4
ATOM      4  N   UNL     1      -6.943   7.458  -6.596  1.00  0.00    -0.352 N 
ATOM      5  C   UNL     1      -6.231   6.539  -5.894  1.00  0.00     0.251 C 
ATOM      6  O   UNL     1      -6.326   5.389  -6.332  1.00  0.00    -0.269 OA
ATOM      7  H   UNL     1      -7.477   7.050  -7.315  1.00  0.00     0.163 HD
BRANCH   5   8
ATOM      8  C   UNL     1      -5.451   6.846  -4.620  1.00  0.00     0.047 C 
ATOM      9  C   UNL     1      -4.921   8.083  -4.451  1.00  0.00     0.022 C 
BRANCH   8  10
ATOM     10  C   UNL     1      -5.122   5.718  -3.673  1.00  0.00    -0.013 A 
ATOM     11  C   UNL     1      -3.958   3.694  -1.988  1.00  0.00    -0.018 A 
ATOM     12  C   UNL     1      -4.441   4.902  -1.466  1.00  0.00     0.009 A 
ATOM     13  C   UNL     1      -4.202   3.466  -3.347  1.00  0.00     0.009 A 
ATOM     14  C   UNL     1      -5.058   5.866  -2.282  1.00  0.00     0.009 A 
ATOM     15  C   UNL     1      -4.733   4.467  -4.173  1.00  0.00     0.009 A 
BRANCH  11  16
ATOM     16  C   UNL     1      -3.162   2.742  -1.177  1.00  0.00    -0.018 A 
ATOM     17  C   UNL     1      -1.500   1.033   0.357  1.00  0.00     0.119 A 
ATOM     18  C   UNL     1      -2.508   1.771   0.971  1.00  0.00     0.047 A 
ATOM     19  C   UNL     1      -1.352   1.090  -1.020  1.00  0.00     0.047 A 
ATOM     20  C   UNL     1      -3.328   2.616   0.212  1.00  0.00     0.012 A 
ATOM     21  C   UNL     1      -2.157   1.952  -1.772  1.00  0.00     0.012 A 
BRANCH  17  22
ATOM     22  O   UNL     1      -0.759   0.199   1.141  1.00  0.00    -0.491 OA
BRANCH  22  23
ATOM     23  C   UNL     1       0.649   0.480   1.254  1.00  0.00     0.167 C 
ATOM     24  C   UNL     1       1.460  -0.089   0.093  1.00  0.00     0.052 C 
ATOM     25  C   UNL     1       0.990   1.942   1.543  1.00  0.00     0.052 C 
ENDBRANCH  22  23
ENDBRANCH  17  22
ENDBRANCH  11  16
ENDBRANCH   8  10
BRANCH   9  26
ATOM     26  C   UNL     1      -4.351   8.669  -3.228  1.00  0.00    -0.025 A 
ATOM     27  C   UNL     1      -5.207   9.439  -2.417  1.00  0.00     0.009 A 
ATOM     28  C   UNL     1      -3.049   8.401  -2.797  1.00  0.00     0.009 A 
ATOM     29  C   UNL     1      -4.795   9.865  -1.154  1.00  0.00     0.021 A 
ATOM     30  C   UNL     1      -2.630   8.830  -1.533  1.00  0.00     0.021 A 
ATOM     31  C   UNL     1      -3.511   9.543  -0.711  1.00  0.00     0.067 A 
BRANCH  31  32
ATOM     32  S   UNL     1      -3.062   9.919   0.969  1.00  0.00     0.175 S 
ATOM     33  C   UNL     1      -2.797  11.670   0.970  1.00  0.00     0.163 C 
ATOM     34  O   UNL     1      -4.223   9.631   1.790  1.00  0.00    -0.224 OA
ATOM     35  O   UNL     1      -1.790   9.274   1.239  1.00  0.00    -0.224 OA
ENDBRANCH  31  32
ENDBRANCH   9  26
ENDBRANCH   5   8
ENDBRANCH   3   4
ENDBRANCH   2   3
ENDBRANCH   1   2
BRANCH   1  36
ATOM     36  C   UNL     1      -8.181   9.954  -9.261  1.00  0.00     0.002 C 
BRANCH  36  37
ATOM     37  C   UNL     1      -8.349  11.415  -8.837  1.00  0.00     0.021 C 
BRANCH  37  38
ATOM     38  C   UNL     1      -7.435  12.387  -9.576  1.00  0.00     0.116 C 
BRANCH  38  39
ATOM     39  N   UNL     1      -7.749  12.434 -10.994  1.00  0.00    -0.352 N 
ATOM     40  C   UNL     1      -8.098  13.509 -11.769  1.00  0.00     0.251 C 
ATOM     41  H   UNL     1      -7.704  11.571 -11.465  1.00  0.00     0.163 HD
ATOM     42  O   UNL     1      -8.581  13.324 -12.883  1.00  0.00    -0.269 OA
BRANCH  40  43
ATOM     43  C   UNL     1      -7.894  14.885 -11.266  1.00  0.00     0.039 A 
ATOM     44  C   UNL     1      -8.869  15.850 -11.528  1.00  0.00     0.014 A 
ATOM     45  C   UNL     1      -6.726  15.237 -10.582  1.00  0.00     0.014 A 
ATOM     46  C   UNL     1      -8.682  17.161 -11.085  1.00  0.00     0.010 A 
ATOM     47  C   UNL     1      -6.576  16.525 -10.075  1.00  0.00     0.010 A 
ATOM     48  C   UNL     1      -7.540  17.506 -10.343  1.00  0.00    -0.014 A 
BRANCH  48  49
ATOM     49  C   UNL     1      -7.325  18.902  -9.885  1.00  0.00     0.031 A 
ATOM     50  C   UNL     1      -6.169  19.703 -10.425  1.00  0.00     0.074 A 
ATOM     51  C   UNL     1      -8.150  19.438  -8.964  1.00  0.00     0.049 A 
ATOM     52  N   UNL     1      -5.806  20.927 -10.138  1.00  0.00    -0.248 NA
ATOM     53  C   UNL     1      -5.288  19.031 -11.395  1.00  0.00     0.031 C 
ATOM     54  C   UNL     1      -9.273  18.744  -8.330  1.00  0.00     0.029 A 
ATOM     55  N   UNL     1      -8.171  20.688  -8.400  1.00  0.00    -0.354 N 
ATOM     56  C   UNL     1      -4.656  21.166 -10.881  1.00  0.00     0.074 A 
ATOM     57  C   UNL     1      -4.345  19.941 -11.584  1.00  0.00     0.031 C 
ATOM     58  C   UNL     1      -9.891  19.587  -7.487  1.00  0.00     0.029 A 
ATOM     59  C   UNL     1      -9.192  20.868  -7.497  1.00  0.00     0.049 A 
ATOM     60  H   UNL     1      -7.518  21.390  -8.621  1.00  0.00     0.167 HD
ATOM     61  C   UNL     1      -3.939  22.310 -10.991  1.00  0.00     0.037 A 
ATOM     62  C   UNL     1      -9.527  21.946  -6.762  1.00  0.00     0.037 A 
ATOM     63  C   UNL     1      -4.272  23.535 -10.311  1.00  0.00     0.049 A 
ATOM     64  C   UNL     1      -8.726  23.211  -6.911  1.00  0.00     0.074 A 
ATOM     65  C   UNL     1      -3.646  24.766 -10.396  1.00  0.00     0.029 A 
ATOM     66  N   UNL     1      -5.326  23.684  -9.421  1.00  0.00    -0.354 N 
ATOM     67  N   UNL     1      -7.677  23.438  -7.668  1.00  0.00    -0.248 NA
ATOM     68  C   UNL     1      -9.158  24.369  -6.118  1.00  0.00     0.031 C 
ATOM     69  C   UNL     1      -4.294  25.648  -9.526  1.00  0.00     0.029 A 
ATOM     70  C   UNL     1      -5.356  24.981  -8.936  1.00  0.00     0.049 A 
ATOM     71  H   UNL     1      -5.959  22.973  -9.170  1.00  0.00     0.167 HD
ATOM     72  C   UNL     1      -7.343  24.772  -7.462  1.00  0.00     0.074 A 
ATOM     73  C   UNL     1      -8.309  25.303  -6.522  1.00  0.00     0.031 C 
ATOM     74  C   UNL     1      -6.329  25.494  -8.002  1.00  0.00     0.037 A 
BRANCH  61  75
ATOM     75  C   UNL     1      -2.728  22.292 -11.885  1.00  0.00     0.058 A 
ATOM     76  C   UNL     1      -2.844  22.198 -13.282  1.00  0.00     0.135 A 
ATOM     77  C   UNL     1      -1.437  22.398 -11.342  1.00  0.00     0.135 A 
ATOM     78  F   UNL     1      -4.052  22.079 -13.854  1.00  0.00    -0.206 F 
ATOM     79  C   UNL     1      -1.723  22.177 -14.106  1.00  0.00     0.059 A 
ATOM     80  C   UNL     1      -0.303  22.409 -12.150  1.00  0.00     0.059 A 
ATOM     81  F   UNL     1      -1.267  22.490 -10.014  1.00  0.00    -0.206 F 
ATOM     82  C   UNL     1      -0.456  22.282 -13.530  1.00  0.00     0.060 A 
BRANCH  82  83
ATOM     83  S   UNL     1       0.988  22.253 -14.613  1.00  0.00     0.124 S 
ATOM     84  O   UNL     1       1.030  20.847 -15.003  1.00  0.00    -0.237 OA
ATOM     85  O   UNL     1       0.608  23.191 -15.664  1.00  0.00    -0.237 OA
ATOM     86  O   UNL     1       2.074  22.696 -13.744  1.00  0.00    -0.744 OA
ENDBRANCH  82  83
ENDBRANCH  61  75
BRANCH  62  87
ATOM     87  C   UNL     1     -10.696  21.885  -5.844  1.00  0.00     0.058 A 
ATOM     88  C   UNL     1     -11.873  22.595  -6.123  1.00  0.00     0.135 A 
ATOM     89  C   UNL     1     -10.663  21.108  -4.676  1.00  0.00     0.135 A 
ATOM     90  F   UNL     1     -11.951  23.355  -7.226  1.00  0.00    -0.206 F 
ATOM     91  C   UNL     1     -12.970  22.553  -5.269  1.00  0.00     0.059 A 
ATOM     92  C   UNL     1     -11.757  21.029  -3.819  1.00  0.00     0.059 A 
ATOM     93  F   UNL     1      -9.568  20.395  -4.372  1.00  0.00    -0.206 F 
ATOM     94  C   UNL     1     -12.902  21.765  -4.119  1.00  0.00     0.060 A 
BRANCH  94  95
ATOM     95  S   UNL     1     -14.348  21.681  -3.040  1.00  0.00     0.124 S 
ATOM     96  O   UNL     1     -14.313  22.991  -2.401  1.00  0.00    -0.237 OA
ATOM     97  O   UNL     1     -15.431  21.462  -3.994  1.00  0.00    -0.237 OA
ATOM     98  O   UNL     1     -14.050  20.545  -2.171  1.00  0.00    -0.744 OA
ENDBRANCH  94  95
ENDBRANCH  62  87
BRANCH  74  99
ATOM     99  C   UNL     1      -6.232  26.944  -7.615  1.00  0.00     0.058 A 
ATOM    100  C   UNL     1      -5.818  27.340  -6.334  1.00  0.00     0.135 A 
ATOM    101  C   UNL     1      -6.525  27.949  -8.551  1.00  0.00     0.135 A 
ATOM    102  F   UNL     1      -5.531  26.419  -5.401  1.00  0.00    -0.206 F 
ATOM    103  C   UNL     1      -5.729  28.683  -5.984  1.00  0.00     0.059 A 
ATOM    104  C   UNL     1      -6.415  29.298  -8.231  1.00  0.00     0.059 A 
ATOM    105  F   UNL     1      -6.913  27.624  -9.794  1.00  0.00    -0.206 F 
ATOM    106  C   UNL     1      -6.031  29.655  -6.939  1.00  0.00     0.060 A 
BRANCH 106 107
ATOM    107  S   UNL     1      -5.897  31.395  -6.477  1.00  0.00     0.124 S 
ATOM    108  O   UNL     1      -7.083  31.570  -5.646  1.00  0.00    -0.237 OA
ATOM    109  O   UNL     1      -4.618  31.434  -5.773  1.00  0.00    -0.237 OA
ATOM    110  O   UNL     1      -5.920  32.090  -7.761  1.00  0.00    -0.744 OA
ENDBRANCH 106 107
ENDBRANCH  74  99
ENDBRANCH  48  49
ENDBRANCH  40  43
ENDBRANCH  38  39
ENDBRANCH  37  38
ENDBRANCH  36  37
ENDBRANCH   1  36
TORSDOF 22
