REMARK SMILES CCOc1ccccc1[C@H](C(=O)NCCCCCCNC(=O)c1ccc(-c2c3nc(c(-c4c(F)cc(S(=O)(=O)[O-])cc4F)c4ccc([nH]4)c(-c4c(F)cc(S(=O)(=O)[O-])cc4F)c4nc(c(-c5c(F)cc(S(=O)(=O)[O-])cc5F)c5ccc2[nH]5)C=C4)C=C3)cc1)[NH+]1CCC([NH+]2CCSCC2)CC1
REMARK SMILES IDX 16 1 15 2 14 3 13 4 11 5 12 6 10 8 9 9 4 10 5 11 6 12 8 13
REMARK SMILES IDX 7 14 3 15 2 16 1 17 89 18 90 19 100 20 91 22 99 23 92 24
REMARK SMILES IDX 93 25 94 26 98 27 95 29 97 30 96 31 17 32 18 33 19 34 20 35
REMARK SMILES IDX 21 36 22 38 23 39 24 40 88 41 25 42 87 43 26 44 27 45 28 46
REMARK SMILES IDX 81 47 29 48 86 49 80 50 82 51 30 52 85 53 79 54 78 55 31 57
REMARK SMILES IDX 65 58 44 59 64 60 45 61 48 62 63 63 83 64 46 65 47 66 62 68
REMARK SMILES IDX 84 69 49 70 32 71 33 72 42 73 34 74 35 75 41 76 43 77 36 78
REMARK SMILES IDX 37 79 38 80 39 81 40 82 66 83 67 84 76 85 68 86 69 87 75 88
REMARK SMILES IDX 77 89 70 90 71 91 72 92 73 93 74 94 50 95 51 96 60 97 52 98
REMARK SMILES IDX 53 99 59 100 61 101 54 102 55 103 56 104 57 105 58 106
REMARK H PARENT 13 7 89 21 93 28 20 37 82 56 48 67
REMARK Flexibility Score: inf
ROOT
ATOM      1  C   UNL     1       6.562   0.818  -3.899  1.00  0.00     0.002 C 
ENDROOT
BRANCH   1   2
ATOM      2  C   UNL     1       5.277   0.060  -3.594  1.00  0.00     0.021 C 
BRANCH   2   3
ATOM      3  C   UNL     1       5.076  -0.195  -2.114  1.00  0.00     0.116 C 
BRANCH   3   4
ATOM      4  N   UNL     1       4.681   0.977  -1.348  1.00  0.00    -0.351 N 
ATOM      5  C   UNL     1       3.648   1.139  -0.447  1.00  0.00     0.283 C 
ATOM      6  O   UNL     1       3.664   2.171   0.237  1.00  0.00    -0.268 OA
ATOM      7  H   UNL     1       5.235   1.777  -1.494  1.00  0.00     0.163 HD
BRANCH   5   8
ATOM      8  C   UNL     1       2.546   0.033  -0.218  1.00  0.00     0.309 C 
BRANCH   8   9
ATOM      9  C   UNL     1       2.040  -0.560  -1.546  1.00  0.00     0.061 A 
ATOM     10  C   UNL     1       1.828   0.306  -2.650  1.00  0.00     0.128 A 
ATOM     11  C   UNL     1       1.673  -0.217  -3.935  1.00  0.00     0.047 A 
ATOM     12  C   UNL     1       1.681  -1.602  -4.128  1.00  0.00     0.004 A 
ATOM     13  C   UNL     1       1.913  -1.946  -1.745  1.00  0.00     0.014 A 
ATOM     14  C   UNL     1       1.759  -2.463  -3.033  1.00  0.00     0.001 A 
BRANCH  10  15
ATOM     15  O   UNL     1       1.768   1.649  -2.371  1.00  0.00    -0.493 OA
BRANCH  15  16
ATOM     16  C   UNL     1       2.410   2.551  -3.276  1.00  0.00     0.226 C 
ATOM     17  C   UNL     1       2.865   3.780  -2.499  1.00  0.00     0.049 C 
ENDBRANCH  15  16
ENDBRANCH  10  15
ENDBRANCH   8   9
BRANCH   8  18
ATOM     18  N   UNL     1       3.006  -0.940   0.860  1.00  0.00    -0.320 N 
ATOM     19  C   UNL     1       4.347  -1.465   0.582  1.00  0.00     0.269 C 
ATOM     20  C   UNL     1       2.955  -0.275   2.183  1.00  0.00     0.269 C 
ATOM     21  H   UNL     1       2.372  -1.739   0.865  1.00  0.00     0.349 HD
ATOM     22  C   UNL     1       4.968  -2.304   1.675  1.00  0.00     0.126 C 
ATOM     23  C   UNL     1       3.592  -1.082   3.328  1.00  0.00     0.126 C 
ATOM     24  C   UNL     1       5.032  -1.492   2.972  1.00  0.00     0.195 C 
BRANCH  24  25
ATOM     25  N   UNL     1       5.763  -2.170   4.077  1.00  0.00    -0.331 N 
ATOM     26  C   UNL     1       7.216  -2.223   3.770  1.00  0.00     0.273 C 
ATOM     27  C   UNL     1       5.225  -3.517   4.360  1.00  0.00     0.273 C 
ATOM     28  H   UNL     1       5.627  -1.620   4.925  1.00  0.00     0.348 HD
ATOM     29  C   UNL     1       8.106  -2.835   4.858  1.00  0.00     0.131 C 
ATOM     30  C   UNL     1       5.886  -4.245   5.533  1.00  0.00     0.131 C 
ATOM     31  S   UNL     1       7.650  -4.549   5.240  1.00  0.00    -0.150 SA
ENDBRANCH  24  25
ENDBRANCH   8  18
ENDBRANCH   5   8
ENDBRANCH   3   4
ENDBRANCH   2   3
ENDBRANCH   1   2
BRANCH   1  32
ATOM     32  C   UNL     1       7.828   0.031  -3.547  1.00  0.00     0.002 C 
BRANCH  32  33
ATOM     33  C   UNL     1       7.858  -1.401  -4.092  1.00  0.00     0.021 C 
BRANCH  33  34
ATOM     34  C   UNL     1       7.556  -1.506  -5.584  1.00  0.00     0.116 C 
BRANCH  34  35
ATOM     35  N   UNL     1       8.508  -0.738  -6.366  1.00  0.00    -0.352 N 
ATOM     36  C   UNL     1       9.400  -1.193  -7.301  1.00  0.00     0.251 C 
ATOM     37  H   UNL     1       8.513   0.233  -6.203  1.00  0.00     0.163 HD
ATOM     38  O   UNL     1      10.325  -0.484  -7.675  1.00  0.00    -0.269 OA
BRANCH  36  39
ATOM     39  C   UNL     1       9.225  -2.555  -7.839  1.00  0.00     0.039 A 
ATOM     40  C   UNL     1      10.321  -3.416  -7.876  1.00  0.00     0.014 A 
ATOM     41  C   UNL     1       7.967  -2.977  -8.285  1.00  0.00     0.014 A 
ATOM     42  C   UNL     1      10.147  -4.722  -8.332  1.00  0.00     0.010 A 
ATOM     43  C   UNL     1       7.782  -4.300  -8.669  1.00  0.00     0.010 A 
ATOM     44  C   UNL     1       8.873  -5.181  -8.709  1.00  0.00    -0.014 A 
BRANCH  44  45
ATOM     45  C   UNL     1       8.670  -6.580  -9.157  1.00  0.00     0.031 A 
ATOM     46  C   UNL     1       8.226  -6.862 -10.566  1.00  0.00     0.074 A 
ATOM     47  C   UNL     1       8.837  -7.588  -8.278  1.00  0.00     0.049 A 
ATOM     48  N   UNL     1       7.960  -8.011 -11.131  1.00  0.00    -0.248 NA
ATOM     49  C   UNL     1       8.029  -5.701 -11.450  1.00  0.00     0.031 C 
ATOM     50  C   UNL     1       9.209  -7.428  -6.870  1.00  0.00     0.029 A 
ATOM     51  N   UNL     1       8.706  -8.944  -8.434  1.00  0.00    -0.354 N 
ATOM     52  C   UNL     1       7.553  -7.712 -12.426  1.00  0.00     0.074 A 
ATOM     53  C   UNL     1       7.557  -6.271 -12.549  1.00  0.00     0.031 C 
ATOM     54  C   UNL     1       9.297  -8.640  -6.298  1.00  0.00     0.029 A 
ATOM     55  C   UNL     1       8.951  -9.658  -7.284  1.00  0.00     0.049 A 
ATOM     56  H   UNL     1       8.460  -9.367  -9.288  1.00  0.00     0.167 HD
ATOM     57  C   UNL     1       7.227  -8.563 -13.427  1.00  0.00     0.037 A 
ATOM     58  C   UNL     1       8.895 -10.984  -7.050  1.00  0.00     0.037 A 
ATOM     59  C   UNL     1       7.256  -9.997 -13.301  1.00  0.00     0.049 A 
ATOM     60  C   UNL     1       8.543 -11.909  -8.184  1.00  0.00     0.074 A 
ATOM     61  C   UNL     1       7.017 -10.950 -14.276  1.00  0.00     0.029 A 
ATOM     62  N   UNL     1       7.537 -10.685 -12.129  1.00  0.00    -0.354 N 
ATOM     63  N   UNL     1       8.241 -11.613  -9.426  1.00  0.00    -0.248 NA
ATOM     64  C   UNL     1       8.533 -13.348  -7.889  1.00  0.00     0.031 C 
ATOM     65  C   UNL     1       7.099 -12.213 -13.681  1.00  0.00     0.029 A 
ATOM     66  C   UNL     1       7.449 -12.050 -12.350  1.00  0.00     0.049 A 
ATOM     67  H   UNL     1       7.764 -10.266 -11.268  1.00  0.00     0.167 HD
ATOM     68  C   UNL     1       8.031 -12.829 -10.067  1.00  0.00     0.074 A 
ATOM     69  C   UNL     1       8.256 -13.864  -9.079  1.00  0.00     0.031 C 
ATOM     70  C   UNL     1       7.683 -13.067 -11.356  1.00  0.00     0.037 A 
BRANCH  57  71
ATOM     71  C   UNL     1       6.815  -7.974 -14.748  1.00  0.00     0.058 A 
ATOM     72  C   UNL     1       7.734  -7.324 -15.588  1.00  0.00     0.135 A 
ATOM     73  C   UNL     1       5.495  -8.112 -15.208  1.00  0.00     0.135 A 
ATOM     74  F   UNL     1       9.005  -7.148 -15.192  1.00  0.00    -0.206 F 
ATOM     75  C   UNL     1       7.356  -6.815 -16.826  1.00  0.00     0.059 A 
ATOM     76  C   UNL     1       5.101  -7.637 -16.455  1.00  0.00     0.059 A 
ATOM     77  F   UNL     1       4.574  -8.722 -14.445  1.00  0.00    -0.206 F 
ATOM     78  C   UNL     1       6.037  -6.981 -17.253  1.00  0.00     0.060 A 
BRANCH  78  79
ATOM     79  S   UNL     1       5.570  -6.338 -18.874  1.00  0.00     0.124 S 
ATOM     80  O   UNL     1       5.582  -4.899 -18.631  1.00  0.00    -0.237 OA
ATOM     81  O   UNL     1       6.638  -6.845 -19.729  1.00  0.00    -0.237 OA
ATOM     82  O   UNL     1       4.253  -6.923 -19.106  1.00  0.00    -0.744 OA
ENDBRANCH  78  79
ENDBRANCH  57  71
BRANCH  58  83
ATOM     83  C   UNL     1       9.188 -11.513  -5.691  1.00  0.00     0.058 A 
ATOM     84  C   UNL     1      10.343 -12.267  -5.439  1.00  0.00     0.135 A 
ATOM     85  C   UNL     1       8.318 -11.271  -4.616  1.00  0.00     0.135 A 
ATOM     86  F   UNL     1      11.204 -12.529  -6.434  1.00  0.00    -0.206 F 
ATOM     87  C   UNL     1      10.616 -12.784  -4.176  1.00  0.00     0.059 A 
ATOM     88  C   UNL     1       8.584 -11.752  -3.338  1.00  0.00     0.059 A 
ATOM     89  F   UNL     1       7.209 -10.538  -4.799  1.00  0.00    -0.206 F 
ATOM     90  C   UNL     1       9.729 -12.519  -3.131  1.00  0.00     0.060 A 
BRANCH  90  91
ATOM     91  S   UNL     1      10.109 -13.165  -1.488  1.00  0.00     0.124 S 
ATOM     92  O   UNL     1       9.839 -14.587  -1.662  1.00  0.00    -0.237 OA
ATOM     93  O   UNL     1      11.511 -12.793  -1.331  1.00  0.00    -0.237 OA
ATOM     94  O   UNL     1       9.177 -12.446  -0.623  1.00  0.00    -0.744 OA
ENDBRANCH  90  91
ENDBRANCH  58  83
BRANCH  70  95
ATOM     95  C   UNL     1       7.557 -14.503 -11.785  1.00  0.00     0.058 A 
ATOM     96  C   UNL     1       6.489 -15.310 -11.363  1.00  0.00     0.135 A 
ATOM     97  C   UNL     1       8.489 -15.062 -12.675  1.00  0.00     0.135 A 
ATOM     98  F   UNL     1       5.573 -14.827 -10.508  1.00  0.00    -0.206 F 
ATOM     99  C   UNL     1       6.363 -16.628 -11.788  1.00  0.00     0.059 A 
ATOM    100  C   UNL     1       8.366 -16.367 -13.137  1.00  0.00     0.059 A 
ATOM    101  F   UNL     1       9.523 -14.329 -13.119  1.00  0.00    -0.206 F 
ATOM    102  C   UNL     1       7.306 -17.147 -12.678  1.00  0.00     0.060 A 
BRANCH 102 103
ATOM    103  S   UNL     1       7.111 -18.849 -13.248  1.00  0.00     0.124 S 
ATOM    104  O   UNL     1       7.492 -19.602 -12.057  1.00  0.00    -0.237 OA
ATOM    105  O   UNL     1       5.697 -18.899 -13.604  1.00  0.00    -0.237 OA
ATOM    106  O   UNL     1       8.039 -18.939 -14.371  1.00  0.00    -0.744 OA
ENDBRANCH 102 103
ENDBRANCH  70  95
ENDBRANCH  44  45
ENDBRANCH  36  39
ENDBRANCH  34  35
ENDBRANCH  33  34
ENDBRANCH  32  33
ENDBRANCH   1  32
TORSDOF 21
