REMARK SMILES CC(C)(C)OC(=O)Nc1ccc(-c2cccc(Cl)c2C(=O)NCCCCCCNC(=O)c2ccc(-c3c4nc(c(-c5c(F)cc(S(=O)(=O)[O-])cc5F)c5ccc([nH]5)c(-c5c(F)cc(S(=O)(=O)[O-])cc5F)c5nc(c(-c6c(F)cc(S(=O)(=O)[O-])cc6F)c6ccc3[nH]6)C=C5)C=C4)cc2)cc1
REMARK SMILES IDX 25 1 24 2 23 3 22 4 20 5 21 6 19 8 13 9 14 10 15 11 17 12
REMARK SMILES IDX 16 13 18 14 12 15 9 16 10 17 99 18 11 19 98 20 8 21 6 22
REMARK SMILES IDX 7 23 5 25 2 26 1 27 3 28 4 29 26 30 27 31 28 32 29 33 30 34
REMARK SMILES IDX 31 36 32 37 33 38 97 39 34 40 96 41 35 42 36 43 37 44 90 45
REMARK SMILES IDX 38 46 95 47 89 48 91 49 39 50 94 51 88 52 87 53 40 55 74 56
REMARK SMILES IDX 53 57 73 58 54 59 57 60 72 61 92 62 55 63 56 64 71 66 93 67
REMARK SMILES IDX 58 68 41 69 42 70 51 71 43 72 44 73 50 74 52 75 45 76 46 77
REMARK SMILES IDX 47 78 48 79 49 80 75 81 76 82 85 83 77 84 78 85 84 86 86 87
REMARK SMILES IDX 79 88 80 89 81 90 82 91 83 92 59 93 60 94 69 95 61 96 62 97
REMARK SMILES IDX 68 98 70 99 63 100 64 101 65 102 66 103 67 104
REMARK H PARENT 22 7 8 24 29 35 91 54 57 65
REMARK Flexibility Score: inf
ROOT
ATOM      1  C   UNL     1       4.714  -6.011   2.316  1.00  0.00     0.002 C 
ENDROOT
BRANCH   1   2
ATOM      2  C   UNL     1       4.341  -6.603   0.955  1.00  0.00     0.021 C 
BRANCH   2   3
ATOM      3  C   UNL     1       4.600  -5.789  -0.304  1.00  0.00     0.116 C 
BRANCH   3   4
ATOM      4  N   UNL     1       5.952  -5.596  -0.752  1.00  0.00    -0.352 N 
ATOM      5  C   UNL     1       6.398  -5.210  -2.005  1.00  0.00     0.253 C 
ATOM      6  O   UNL     1       7.462  -4.580  -2.007  1.00  0.00    -0.269 OA
ATOM      7  H   UNL     1       6.652  -5.759  -0.080  1.00  0.00     0.163 HD
BRANCH   5   8
ATOM      8  C   UNL     1       5.766  -5.529  -3.347  1.00  0.00     0.066 A 
ATOM      9  C   UNL     1       4.416  -5.308  -3.748  1.00  0.00    -0.004 A 
ATOM     10  C   UNL     1       4.056  -5.484  -5.113  1.00  0.00     0.009 A 
ATOM     11  C   UNL     1       4.967  -5.867  -6.083  1.00  0.00     0.002 A 
ATOM     12  C   UNL     1       6.668  -5.968  -4.361  1.00  0.00     0.054 A 
ATOM     13  C   UNL     1       6.272  -6.118  -5.703  1.00  0.00     0.021 A 
ATOM     14  Cl  UNL     1       8.316  -6.441  -4.058  1.00  0.00    -0.083 Cl
BRANCH   9  15
ATOM     15  C   UNL     1       3.287  -4.928  -2.894  1.00  0.00    -0.017 A 
ATOM     16  C   UNL     1       1.158  -4.332  -1.127  1.00  0.00     0.044 A 
ATOM     17  C   UNL     1       1.229  -5.581  -1.744  1.00  0.00     0.027 A 
ATOM     18  C   UNL     1       2.111  -3.364  -1.468  1.00  0.00     0.027 A 
ATOM     19  C   UNL     1       2.267  -5.868  -2.633  1.00  0.00     0.011 A 
ATOM     20  C   UNL     1       3.164  -3.654  -2.346  1.00  0.00     0.011 A 
BRANCH  16  21
ATOM     21  N   UNL     1       0.163  -4.176  -0.143  1.00  0.00    -0.291 N 
ATOM     22  C   UNL     1      -0.154  -3.113   0.659  1.00  0.00     0.412 C 
ATOM     23  O   UNL     1      -0.968  -3.245   1.568  1.00  0.00    -0.224 OA
ATOM     24  H   UNL     1      -0.404  -4.970  -0.009  1.00  0.00     0.173 HD
BRANCH  22  25
ATOM     25  O   UNL     1       0.492  -1.975   0.355  1.00  0.00    -0.444 OA
BRANCH  25  26
ATOM     26  C   UNL     1       0.202  -0.715   1.002  1.00  0.00     0.106 C 
ATOM     27  C   UNL     1       0.895   0.317   0.102  1.00  0.00     0.056 C 
ATOM     28  C   UNL     1       0.826  -0.678   2.398  1.00  0.00     0.056 C 
ATOM     29  C   UNL     1      -1.298  -0.414   1.036  1.00  0.00     0.056 C 
ENDBRANCH  25  26
ENDBRANCH  22  25
ENDBRANCH  16  21
ENDBRANCH   9  15
ENDBRANCH   5   8
ENDBRANCH   3   4
ENDBRANCH   2   3
ENDBRANCH   1   2
BRANCH   1  30
ATOM     30  C   UNL     1       4.174  -4.627   2.696  1.00  0.00     0.002 C 
BRANCH  30  31
ATOM     31  C   UNL     1       2.689  -4.342   2.459  1.00  0.00     0.021 C 
BRANCH  31  32
ATOM     32  C   UNL     1       1.679  -5.318   3.062  1.00  0.00     0.116 C 
BRANCH  32  33
ATOM     33  N   UNL     1       1.596  -5.218   4.506  1.00  0.00    -0.352 N 
ATOM     34  C   UNL     1       0.532  -4.913   5.321  1.00  0.00     0.251 C 
ATOM     35  H   UNL     1       2.440  -5.399   4.980  1.00  0.00     0.163 HD
ATOM     36  O   UNL     1       0.753  -4.706   6.514  1.00  0.00    -0.269 OA
BRANCH  34  37
ATOM     37  C   UNL     1      -0.865  -4.821   4.816  1.00  0.00     0.039 A 
ATOM     38  C   UNL     1      -1.704  -3.846   5.371  1.00  0.00     0.014 A 
ATOM     39  C   UNL     1      -1.396  -5.722   3.888  1.00  0.00     0.014 A 
ATOM     40  C   UNL     1      -3.045  -3.752   4.976  1.00  0.00     0.010 A 
ATOM     41  C   UNL     1      -2.720  -5.585   3.446  1.00  0.00     0.010 A 
ATOM     42  C   UNL     1      -3.566  -4.605   3.991  1.00  0.00    -0.014 A 
BRANCH  42  43
ATOM     43  C   UNL     1      -4.985  -4.476   3.541  1.00  0.00     0.031 A 
ATOM     44  C   UNL     1      -5.971  -5.596   3.756  1.00  0.00     0.074 A 
ATOM     45  C   UNL     1      -5.395  -3.357   2.910  1.00  0.00     0.049 A 
ATOM     46  N   UNL     1      -7.234  -5.664   3.415  1.00  0.00    -0.248 NA
ATOM     47  C   UNL     1      -5.467  -6.803   4.425  1.00  0.00     0.031 C 
ATOM     48  C   UNL     1      -4.540  -2.213   2.598  1.00  0.00     0.029 A 
ATOM     49  N   UNL     1      -6.623  -2.997   2.407  1.00  0.00    -0.354 N 
ATOM     50  C   UNL     1      -7.673  -6.920   3.820  1.00  0.00     0.074 A 
ATOM     51  C   UNL     1      -6.525  -7.601   4.380  1.00  0.00     0.031 C 
ATOM     52  C   UNL     1      -5.266  -1.276   1.969  1.00  0.00     0.029 A 
ATOM     53  C   UNL     1      -6.631  -1.766   1.794  1.00  0.00     0.049 A 
ATOM     54  H   UNL     1      -7.423  -3.568   2.479  1.00  0.00     0.167 HD
ATOM     55  C   UNL     1      -8.920  -7.452   3.751  1.00  0.00     0.037 A 
ATOM     56  C   UNL     1      -7.613  -1.106   1.147  1.00  0.00     0.037 A 
ATOM     57  C   UNL     1     -10.064  -6.771   3.196  1.00  0.00     0.049 A 
ATOM     58  C   UNL     1      -8.985  -1.719   1.062  1.00  0.00     0.074 A 
ATOM     59  C   UNL     1     -11.376  -7.208   3.131  1.00  0.00     0.029 A 
ATOM     60  N   UNL     1     -10.033  -5.521   2.594  1.00  0.00    -0.354 N 
ATOM     61  N   UNL     1      -9.399  -2.878   1.516  1.00  0.00    -0.248 NA
ATOM     62  C   UNL     1     -10.028  -0.932   0.389  1.00  0.00     0.031 C 
ATOM     63  C   UNL     1     -12.124  -6.253   2.435  1.00  0.00     0.029 A 
ATOM     64  C   UNL     1     -11.295  -5.186   2.125  1.00  0.00     0.049 A 
ATOM     65  H   UNL     1      -9.232  -4.954   2.512  1.00  0.00     0.167 HD
ATOM     66  C   UNL     1     -10.752  -2.951   1.203  1.00  0.00     0.074 A 
ATOM     67  C   UNL     1     -11.091  -1.712   0.534  1.00  0.00     0.031 C 
ATOM     68  C   UNL     1     -11.631  -3.954   1.452  1.00  0.00     0.037 A 
BRANCH  55  69
ATOM     69  C   UNL     1      -9.106  -8.853   4.276  1.00  0.00     0.058 A 
ATOM     70  C   UNL     1      -8.982  -9.158   5.642  1.00  0.00     0.135 A 
ATOM     71  C   UNL     1      -9.423  -9.906   3.402  1.00  0.00     0.135 A 
ATOM     72  F   UNL     1      -8.675  -8.195   6.526  1.00  0.00    -0.206 F 
ATOM     73  C   UNL     1      -9.110 -10.461   6.114  1.00  0.00     0.059 A 
ATOM     74  C   UNL     1      -9.592 -11.211   3.856  1.00  0.00     0.059 A 
ATOM     75  F   UNL     1      -9.565  -9.675   2.087  1.00  0.00    -0.206 F 
ATOM     76  C   UNL     1      -9.409 -11.483   5.211  1.00  0.00     0.060 A 
BRANCH  76  77
ATOM     77  S   UNL     1      -9.534 -13.173   5.832  1.00  0.00     0.124 S 
ATOM     78  O   UNL     1      -8.137 -13.480   6.122  1.00  0.00    -0.237 OA
ATOM     79  O   UNL     1     -10.402 -13.015   6.994  1.00  0.00    -0.237 OA
ATOM     80  O   UNL     1     -10.117 -13.906   4.712  1.00  0.00    -0.744 OA
ENDBRANCH  76  77
ENDBRANCH  55  69
BRANCH  56  81
ATOM     81  C   UNL     1      -7.321   0.214   0.524  1.00  0.00     0.058 A 
ATOM     82  C   UNL     1      -7.848   1.404   1.048  1.00  0.00     0.135 A 
ATOM     83  C   UNL     1      -6.471   0.313  -0.590  1.00  0.00     0.135 A 
ATOM     84  F   UNL     1      -8.677   1.364   2.102  1.00  0.00    -0.206 F 
ATOM     85  C   UNL     1      -7.544   2.643   0.491  1.00  0.00     0.059 A 
ATOM     86  C   UNL     1      -6.130   1.541  -1.145  1.00  0.00     0.059 A 
ATOM     87  F   UNL     1      -5.932  -0.794  -1.125  1.00  0.00    -0.206 F 
ATOM     88  C   UNL     1      -6.675   2.702  -0.599  1.00  0.00     0.060 A 
BRANCH  88  89
ATOM     89  S   UNL     1      -6.221   4.320  -1.261  1.00  0.00     0.124 S 
ATOM     90  O   UNL     1      -7.462   4.736  -1.903  1.00  0.00    -0.237 OA
ATOM     91  O   UNL     1      -5.850   5.050  -0.053  1.00  0.00    -0.237 OA
ATOM     92  O   UNL     1      -5.114   4.016  -2.164  1.00  0.00    -0.744 OA
ENDBRANCH  88  89
ENDBRANCH  56  81
BRANCH  68  93
ATOM     93  C   UNL     1     -13.063  -3.751   1.025  1.00  0.00     0.058 A 
ATOM     94  C   UNL     1     -13.443  -3.751  -0.327  1.00  0.00     0.135 A 
ATOM     95  C   UNL     1     -14.077  -3.607   1.987  1.00  0.00     0.135 A 
ATOM     96  F   UNL     1     -12.516  -3.878  -1.290  1.00  0.00    -0.206 F 
ATOM     97  C   UNL     1     -14.772  -3.593  -0.710  1.00  0.00     0.059 A 
ATOM     98  C   UNL     1     -15.416  -3.480   1.627  1.00  0.00     0.059 A 
ATOM     99  F   UNL     1     -13.775  -3.609   3.295  1.00  0.00    -0.206 F 
ATOM    100  C   UNL     1     -15.753  -3.462   0.275  1.00  0.00     0.060 A 
BRANCH 100 101
ATOM    101  S   UNL     1     -17.476  -3.293  -0.236  1.00  0.00     0.124 S 
ATOM    102  O   UNL     1     -17.489  -1.943  -0.788  1.00  0.00    -0.237 OA
ATOM    103  O   UNL     1     -17.621  -4.376  -1.204  1.00  0.00    -0.237 OA
ATOM    104  O   UNL     1     -18.220  -3.469   1.008  1.00  0.00    -0.744 OA
ENDBRANCH 100 101
ENDBRANCH  68  93
ENDBRANCH  42  43
ENDBRANCH  34  37
ENDBRANCH  32  33
ENDBRANCH  31  32
ENDBRANCH  30  31
ENDBRANCH   1  30
TORSDOF 20
