REMARK SMILES CC(C)C[C@H](NC(=O)[C@H]1N2C(=O)c3ccccc3[C@@H]2SC1(C)C)C(=O)N[C@@H](C)C(=O)NCCCCCCNC(=O)c1ccc(-c2c3nc(c(-c4c(F)cc(S(=O)(=O)[O-])cc4F)c4ccc([nH]4)c(-c4c(F)cc(S(=O)(=O)[O-])cc4F)c4nc(c(-c5c(F)cc(S(=O)(=O)[O-])cc5F)c5ccc2[nH]5)C=C4)C=C3)cc1
REMARK SMILES IDX 34 1 33 2 32 3 31 4 29 5 30 6 27 8 28 9 26 10 24 11 25 12
REMARK SMILES IDX 5 14 4 15 2 16 1 17 3 18 6 19 7 20 8 22 9 23 10 24 21 25
REMARK SMILES IDX 11 26 19 27 20 28 22 29 23 30 12 31 13 32 18 33 14 34 17 35
REMARK SMILES IDX 15 36 16 37 35 38 36 39 37 40 38 41 39 42 40 44 41 45 42 46
REMARK SMILES IDX 106 47 43 48 105 49 44 50 45 51 46 52 99 53 47 54 104 55
REMARK SMILES IDX 98 56 100 57 48 58 103 59 97 60 96 61 49 63 83 64 62 65
REMARK SMILES IDX 82 66 63 67 66 68 81 69 101 70 64 71 65 72 80 74 102 75
REMARK SMILES IDX 67 76 50 77 51 78 60 79 52 80 53 81 59 82 61 83 54 84 55 85
REMARK SMILES IDX 56 86 57 87 58 88 84 89 85 90 94 91 86 92 87 93 93 94 95 95
REMARK SMILES IDX 88 96 89 97 90 98 91 99 92 100 68 101 69 102 78 103 70 104
REMARK SMILES IDX 71 105 77 106 79 107 72 108 73 109 74 110 75 111 76 112
REMARK H PARENT 31 7 26 13 6 21 38 43 100 62 66 73
REMARK Flexibility Score: inf
ROOT
ATOM      1  C   UNL     1      -7.477   0.027  -5.568  1.00  0.00     0.002 C 
ENDROOT
BRANCH   1   2
ATOM      2  C   UNL     1      -6.876  -0.336  -4.204  1.00  0.00     0.021 C 
BRANCH   2   3
ATOM      3  C   UNL     1      -5.935  -1.540  -4.208  1.00  0.00     0.116 C 
BRANCH   3   4
ATOM      4  N   UNL     1      -4.723  -1.290  -4.970  1.00  0.00    -0.354 N 
ATOM      5  C   UNL     1      -3.405  -1.336  -4.626  1.00  0.00     0.242 C 
ATOM      6  O   UNL     1      -2.576  -1.207  -5.533  1.00  0.00    -0.273 OA
ATOM      7  H   UNL     1      -4.885  -1.042  -5.908  1.00  0.00     0.163 HD
BRANCH   5   8
ATOM      8  C   UNL     1      -2.933  -1.600  -3.180  1.00  0.00     0.168 C 
ATOM      9  C   UNL     1      -3.216  -3.027  -2.733  1.00  0.00     0.041 C 
BRANCH   8  10
ATOM     10  N   UNL     1      -3.508  -0.598  -2.286  1.00  0.00    -0.343 N 
ATOM     11  C   UNL     1      -2.942   0.557  -1.837  1.00  0.00     0.243 C 
ATOM     12  O   UNL     1      -3.707   1.513  -1.688  1.00  0.00    -0.273 OA
ATOM     13  H   UNL     1      -4.421  -0.781  -1.967  1.00  0.00     0.164 HD
BRANCH  11  14
ATOM     14  C   UNL     1      -1.420   0.711  -1.624  1.00  0.00     0.171 C 
BRANCH  14  15
ATOM     15  C   UNL     1      -0.735   1.156  -2.928  1.00  0.00     0.038 C 
BRANCH  15  16
ATOM     16  C   UNL     1      -0.746   2.694  -3.086  1.00  0.00    -0.015 C 
ATOM     17  C   UNL     1       0.296   3.361  -2.183  1.00  0.00     0.007 C 
ATOM     18  C   UNL     1      -0.487   3.085  -4.541  1.00  0.00     0.007 C 
ENDBRANCH  15  16
ENDBRANCH  14  15
BRANCH  14  19
ATOM     19  N   UNL     1      -0.808  -0.491  -1.058  1.00  0.00    -0.342 N 
ATOM     20  C   UNL     1      -0.643  -0.884   0.240  1.00  0.00     0.244 C 
ATOM     21  H   UNL     1      -0.457  -1.125  -1.725  1.00  0.00     0.164 HD
ATOM     22  O   UNL     1       0.088  -1.871   0.378  1.00  0.00    -0.273 OA
BRANCH  20  23
ATOM     23  C   UNL     1      -1.114  -0.035   1.467  1.00  0.00     0.191 C 
ATOM     24  N   UNL     1      -2.310   0.753   1.225  1.00  0.00    -0.309 N 
ATOM     25  C   UNL     1      -1.424  -0.818   2.792  1.00  0.00     0.042 C 
ATOM     26  C   UNL     1      -2.415   2.130   1.247  1.00  0.00     0.256 C 
ATOM     27  C   UNL     1      -3.566   0.092   1.449  1.00  0.00     0.176 C 
ATOM     28  S   UNL     1      -3.288  -0.844   2.949  1.00  0.00    -0.123 SA
ATOM     29  C   UNL     1      -0.955  -2.271   2.889  1.00  0.00     0.026 C 
ATOM     30  C   UNL     1      -0.882  -0.037   4.002  1.00  0.00     0.026 C 
ATOM     31  O   UNL     1      -1.513   2.946   1.227  1.00  0.00    -0.269 OA
ATOM     32  C   UNL     1      -3.850   2.431   1.325  1.00  0.00     0.046 A 
ATOM     33  C   UNL     1      -4.533   1.222   1.496  1.00  0.00    -0.002 A 
ATOM     34  C   UNL     1      -4.491   3.646   1.189  1.00  0.00     0.014 A 
ATOM     35  C   UNL     1      -5.916   1.210   1.544  1.00  0.00     0.007 A 
ATOM     36  C   UNL     1      -5.887   3.635   1.221  1.00  0.00     0.001 A 
ATOM     37  C   UNL     1      -6.591   2.429   1.403  1.00  0.00     0.000 A 
ENDBRANCH  20  23
ENDBRANCH  14  19
ENDBRANCH  11  14
ENDBRANCH   8  10
ENDBRANCH   5   8
ENDBRANCH   3   4
ENDBRANCH   2   3
ENDBRANCH   1   2
BRANCH   1  38
ATOM     38  C   UNL     1      -8.199  -1.105  -6.307  1.00  0.00     0.002 C 
BRANCH  38  39
ATOM     39  C   UNL     1      -9.278  -1.840  -5.510  1.00  0.00     0.021 C 
BRANCH  39  40
ATOM     40  C   UNL     1     -10.414  -0.967  -4.990  1.00  0.00     0.116 C 
BRANCH  40  41
ATOM     41  N   UNL     1     -11.232  -0.398  -6.050  1.00  0.00    -0.352 N 
ATOM     42  C   UNL     1     -12.604  -0.321  -6.137  1.00  0.00     0.251 C 
ATOM     43  H   UNL     1     -10.736  -0.017  -6.810  1.00  0.00     0.163 HD
ATOM     44  O   UNL     1     -13.135   0.086  -7.166  1.00  0.00    -0.269 OA
BRANCH  42  45
ATOM     45  C   UNL     1     -13.436  -0.773  -4.998  1.00  0.00     0.039 A 
ATOM     46  C   UNL     1     -13.118  -0.398  -3.691  1.00  0.00     0.014 A 
ATOM     47  C   UNL     1     -14.523  -1.619  -5.238  1.00  0.00     0.014 A 
ATOM     48  C   UNL     1     -13.764  -1.011  -2.623  1.00  0.00     0.010 A 
ATOM     49  C   UNL     1     -15.227  -2.169  -4.161  1.00  0.00     0.010 A 
ATOM     50  C   UNL     1     -14.815  -1.918  -2.844  1.00  0.00    -0.014 A 
BRANCH  50  51
ATOM     51  C   UNL     1     -15.434  -2.604  -1.678  1.00  0.00     0.031 A 
ATOM     52  C   UNL     1     -15.302  -4.095  -1.500  1.00  0.00     0.074 A 
ATOM     53  C   UNL     1     -16.055  -1.870  -0.735  1.00  0.00     0.049 A 
ATOM     54  N   UNL     1     -15.693  -4.841  -0.497  1.00  0.00    -0.248 NA
ATOM     55  C   UNL     1     -14.655  -4.849  -2.585  1.00  0.00     0.031 C 
ATOM     56  C   UNL     1     -16.259  -0.421  -0.799  1.00  0.00     0.029 A 
ATOM     57  N   UNL     1     -16.598  -2.229   0.473  1.00  0.00    -0.354 N 
ATOM     58  C   UNL     1     -15.361  -6.147  -0.838  1.00  0.00     0.074 A 
ATOM     59  C   UNL     1     -14.762  -6.098  -2.154  1.00  0.00     0.031 C 
ATOM     60  C   UNL     1     -16.828  -0.007   0.343  1.00  0.00     0.029 A 
ATOM     61  C   UNL     1     -17.074  -1.164   1.200  1.00  0.00     0.049 A 
ATOM     62  H   UNL     1     -16.642  -3.161   0.789  1.00  0.00     0.167 HD
ATOM     63  C   UNL     1     -15.525  -7.281  -0.116  1.00  0.00     0.037 A 
ATOM     64  C   UNL     1     -17.647  -1.117   2.418  1.00  0.00     0.037 A 
ATOM     65  C   UNL     1     -16.087  -7.323   1.209  1.00  0.00     0.049 A 
ATOM     66  C   UNL     1     -17.830  -2.387   3.197  1.00  0.00     0.074 A 
ATOM     67  C   UNL     1     -16.222  -8.413   2.050  1.00  0.00     0.029 A 
ATOM     68  N   UNL     1     -16.613  -6.231   1.882  1.00  0.00    -0.354 N 
ATOM     69  N   UNL     1     -17.457  -3.603   2.880  1.00  0.00    -0.248 NA
ATOM     70  C   UNL     1     -18.523  -2.284   4.488  1.00  0.00     0.031 C 
ATOM     71  C   UNL     1     -16.872  -7.989   3.214  1.00  0.00     0.029 A 
ATOM     72  C   UNL     1     -17.108  -6.627   3.113  1.00  0.00     0.049 A 
ATOM     73  H   UNL     1     -16.633  -5.309   1.535  1.00  0.00     0.167 HD
ATOM     74  C   UNL     1     -17.877  -4.414   3.928  1.00  0.00     0.074 A 
ATOM     75  C   UNL     1     -18.511  -3.546   4.900  1.00  0.00     0.031 C 
ATOM     76  C   UNL     1     -17.754  -5.756   4.064  1.00  0.00     0.037 A 
BRANCH  63  77
ATOM     77  C   UNL     1     -15.096  -8.578  -0.744  1.00  0.00     0.058 A 
ATOM     78  C   UNL     1     -13.742  -8.916  -0.887  1.00  0.00     0.135 A 
ATOM     79  C   UNL     1     -16.054  -9.509  -1.178  1.00  0.00     0.135 A 
ATOM     80  F   UNL     1     -12.785  -8.057  -0.501  1.00  0.00    -0.206 F 
ATOM     81  C   UNL     1     -13.351 -10.120  -1.465  1.00  0.00     0.059 A 
ATOM     82  C   UNL     1     -15.686 -10.729  -1.739  1.00  0.00     0.059 A 
ATOM     83  F   UNL     1     -17.363  -9.235  -1.062  1.00  0.00    -0.206 F 
ATOM     84  C   UNL     1     -14.331 -11.018  -1.892  1.00  0.00     0.060 A 
BRANCH  84  85
ATOM     85  S   UNL     1     -13.805 -12.567  -2.655  1.00  0.00     0.124 S 
ATOM     86  O   UNL     1     -13.329 -12.103  -3.954  1.00  0.00    -0.237 OA
ATOM     87  O   UNL     1     -12.773 -13.034  -1.734  1.00  0.00    -0.237 OA
ATOM     88  O   UNL     1     -15.026 -13.366  -2.683  1.00  0.00    -0.744 OA
ENDBRANCH  84  85
ENDBRANCH  63  77
BRANCH  64  89
ATOM     89  C   UNL     1     -18.075   0.197   2.963  1.00  0.00     0.058 A 
ATOM     90  C   UNL     1     -17.346   0.828   3.979  1.00  0.00     0.135 A 
ATOM     91  C   UNL     1     -19.170   0.883   2.414  1.00  0.00     0.135 A 
ATOM     92  F   UNL     1     -16.297   0.207   4.538  1.00  0.00    -0.206 F 
ATOM     93  C   UNL     1     -17.675   2.106   4.421  1.00  0.00     0.059 A 
ATOM     94  C   UNL     1     -19.505   2.169   2.824  1.00  0.00     0.059 A 
ATOM     95  F   UNL     1     -19.889   0.323   1.429  1.00  0.00    -0.206 F 
ATOM     96  C   UNL     1     -18.748   2.773   3.827  1.00  0.00     0.060 A 
BRANCH  96  97
ATOM     97  S   UNL     1     -19.094   4.474   4.328  1.00  0.00     0.124 S 
ATOM     98  O   UNL     1     -19.680   4.278   5.649  1.00  0.00    -0.237 OA
ATOM     99  O   UNL     1     -17.764   5.076   4.302  1.00  0.00    -0.237 OA
ATOM    100  O   UNL     1     -20.008   4.949   3.294  1.00  0.00    -0.744 OA
ENDBRANCH  96  97
ENDBRANCH  64  89
BRANCH  76 101
ATOM    101  C   UNL     1     -18.340  -6.391   5.292  1.00  0.00     0.058 A 
ATOM    102  C   UNL     1     -19.722  -6.609   5.402  1.00  0.00     0.135 A 
ATOM    103  C   UNL     1     -17.512  -6.880   6.314  1.00  0.00     0.135 A 
ATOM    104  F   UNL     1     -20.556  -6.150   4.455  1.00  0.00    -0.206 F 
ATOM    105  C   UNL     1     -20.263  -7.298   6.481  1.00  0.00     0.059 A 
ATOM    106  C   UNL     1     -18.030  -7.590   7.393  1.00  0.00     0.059 A 
ATOM    107  F   UNL     1     -16.183  -6.701   6.250  1.00  0.00    -0.206 F 
ATOM    108  C   UNL     1     -19.407  -7.795   7.467  1.00  0.00     0.060 A 
BRANCH 108 109
ATOM    109  S   UNL     1     -20.117  -8.760   8.818  1.00  0.00     0.124 S 
ATOM    110  O   UNL     1     -20.789  -7.725   9.598  1.00  0.00    -0.237 OA
ATOM    111  O   UNL     1     -20.992  -9.689   8.111  1.00  0.00    -0.237 OA
ATOM    112  O   UNL     1     -18.951  -9.366   9.453  1.00  0.00    -0.744 OA
ENDBRANCH 108 109
ENDBRANCH  76 101
ENDBRANCH  50  51
ENDBRANCH  42  45
ENDBRANCH  40  41
ENDBRANCH  39  40
ENDBRANCH  38  39
ENDBRANCH   1  38
TORSDOF 22
