REMARK SMILES COc1ccc(C(=O)Nc2cccc(C(=O)NCCCCCCNC(=O)c3ccc(-c4c5nc(c(-c6c(F)cc(S(=O)(=O)[O-])cc6F)c6ccc([nH]6)c(-c6c(F)cc(S(=O)(=O)[O-])cc6F)c6nc(c(-c7c(F)cc(S(=O)(=O)[O-])cc7F)c7ccc4[nH]7)C=C6)C=C5)cc3)c2)cc1
REMARK SMILES IDX 20 1 19 2 18 3 17 4 15 5 16 6 14 8 10 9 11 10 93 11 12 12
REMARK SMILES IDX 13 13 9 14 7 15 8 16 6 18 3 19 4 20 95 21 5 22 94 23 2 24
REMARK SMILES IDX 1 25 21 26 22 27 23 28 24 29 25 30 26 32 27 33 28 34 92 35
REMARK SMILES IDX 29 36 91 37 30 38 31 39 32 40 85 41 33 42 90 43 84 44 86 45
REMARK SMILES IDX 34 46 89 47 83 48 82 49 35 51 69 52 48 53 68 54 49 55 52 56
REMARK SMILES IDX 67 57 87 58 50 59 51 60 66 62 88 63 53 64 36 65 37 66 46 67
REMARK SMILES IDX 38 68 39 69 45 70 47 71 40 72 41 73 42 74 43 75 44 76 70 77
REMARK SMILES IDX 71 78 80 79 72 80 73 81 79 82 81 83 74 84 75 85 76 86 77 87
REMARK SMILES IDX 78 88 54 89 55 90 64 91 56 92 57 93 63 94 65 95 58 96 59 97
REMARK SMILES IDX 60 98 61 99 62 100
REMARK H PARENT 17 7 9 17 24 31 86 50 52 61
REMARK Flexibility Score: inf
ROOT
ATOM      1  C   UNL     1       3.824   3.238  -5.412  1.00  0.00     0.002 C 
ENDROOT
BRANCH   1   2
ATOM      2  C   UNL     1       3.893   4.027  -4.099  1.00  0.00     0.021 C 
BRANCH   2   3
ATOM      3  C   UNL     1       3.829   3.123  -2.868  1.00  0.00     0.116 C 
BRANCH   3   4
ATOM      4  N   UNL     1       5.154   2.643  -2.523  1.00  0.00    -0.352 N 
ATOM      5  C   UNL     1       6.081   3.018  -1.586  1.00  0.00     0.251 C 
ATOM      6  O   UNL     1       7.141   2.388  -1.569  1.00  0.00    -0.269 OA
ATOM      7  H   UNL     1       5.450   1.888  -3.081  1.00  0.00     0.163 HD
BRANCH   5   8
ATOM      8  C   UNL     1       5.861   4.076  -0.556  1.00  0.00     0.041 A 
ATOM      9  C   UNL     1       4.636   5.896   0.477  1.00  0.00     0.042 A 
ATOM     10  C   UNL     1       5.493   5.886   1.574  1.00  0.00     0.026 A 
ATOM     11  C   UNL     1       4.894   5.077  -0.627  1.00  0.00     0.040 A 
ATOM     12  C   UNL     1       6.514   4.942   1.633  1.00  0.00     0.003 A 
ATOM     13  C   UNL     1       6.674   4.024   0.590  1.00  0.00     0.014 A 
BRANCH   9  14
ATOM     14  N   UNL     1       3.475   6.676   0.550  1.00  0.00    -0.322 N 
ATOM     15  C   UNL     1       2.187   6.363   0.150  1.00  0.00     0.255 C 
ATOM     16  O   UNL     1       1.364   7.271   0.040  1.00  0.00    -0.269 OA
ATOM     17  H   UNL     1       3.591   7.573   0.940  1.00  0.00     0.170 HD
BRANCH  15  18
ATOM     18  C   UNL     1       1.729   4.947  -0.039  1.00  0.00     0.040 A 
ATOM     19  C   UNL     1       0.782   2.314  -0.454  1.00  0.00     0.118 A 
ATOM     20  C   UNL     1       0.152   3.402  -1.062  1.00  0.00     0.047 A 
ATOM     21  C   UNL     1       1.861   2.547   0.395  1.00  0.00     0.047 A 
ATOM     22  C   UNL     1       0.620   4.708  -0.860  1.00  0.00     0.017 A 
ATOM     23  C   UNL     1       2.304   3.856   0.629  1.00  0.00     0.017 A 
BRANCH  19  24
ATOM     24  O   UNL     1       0.255   1.091  -0.762  1.00  0.00    -0.497 OA
ATOM     25  C   UNL     1       0.799  -0.036  -0.085  1.00  0.00     0.278 C 
ENDBRANCH  19  24
ENDBRANCH  15  18
ENDBRANCH   9  14
ENDBRANCH   5   8
ENDBRANCH   3   4
ENDBRANCH   2   3
ENDBRANCH   1   2
BRANCH   1  26
ATOM     26  C   UNL     1       2.500   2.497  -5.638  1.00  0.00     0.002 C 
BRANCH  26  27
ATOM     27  C   UNL     1       1.246   3.376  -5.585  1.00  0.00     0.021 C 
BRANCH  27  28
ATOM     28  C   UNL     1       1.220   4.499  -6.617  1.00  0.00     0.116 C 
BRANCH  28  29
ATOM     29  N   UNL     1       1.242   3.979  -7.975  1.00  0.00    -0.352 N 
ATOM     30  C   UNL     1       0.362   4.197  -9.005  1.00  0.00     0.251 C 
ATOM     31  H   UNL     1       1.998   3.385  -8.186  1.00  0.00     0.163 HD
ATOM     32  O   UNL     1       0.408   3.491 -10.008  1.00  0.00    -0.269 OA
BRANCH  30  33
ATOM     33  C   UNL     1      -0.643   5.276  -8.900  1.00  0.00     0.039 A 
ATOM     34  C   UNL     1      -1.956   5.019  -9.303  1.00  0.00     0.014 A 
ATOM     35  C   UNL     1      -0.286   6.543  -8.429  1.00  0.00     0.014 A 
ATOM     36  C   UNL     1      -2.924   6.019  -9.185  1.00  0.00     0.010 A 
ATOM     37  C   UNL     1      -1.265   7.518  -8.254  1.00  0.00     0.010 A 
ATOM     38  C   UNL     1      -2.592   7.268  -8.634  1.00  0.00    -0.014 A 
BRANCH  38  39
ATOM     39  C   UNL     1      -3.621   8.322  -8.444  1.00  0.00     0.031 A 
ATOM     40  C   UNL     1      -3.525   9.619  -9.202  1.00  0.00     0.074 A 
ATOM     41  C   UNL     1      -4.601   8.136  -7.537  1.00  0.00     0.049 A 
ATOM     42  N   UNL     1      -4.281  10.683  -9.114  1.00  0.00    -0.248 NA
ATOM     43  C   UNL     1      -2.418   9.750 -10.165  1.00  0.00     0.031 C 
ATOM     44  C   UNL     1      -4.762   6.945  -6.698  1.00  0.00     0.029 A 
ATOM     45  N   UNL     1      -5.634   8.953  -7.152  1.00  0.00    -0.354 N 
ATOM     46  C   UNL     1      -3.732  11.614  -9.988  1.00  0.00     0.074 A 
ATOM     47  C   UNL     1      -2.558  11.005 -10.572  1.00  0.00     0.031 C 
ATOM     48  C   UNL     1      -5.832   7.107  -5.903  1.00  0.00     0.029 A 
ATOM     49  C   UNL     1      -6.414   8.423  -6.149  1.00  0.00     0.049 A 
ATOM     50  H   UNL     1      -5.802   9.835  -7.554  1.00  0.00     0.167 HD
ATOM     51  C   UNL     1      -4.178  12.857 -10.287  1.00  0.00     0.037 A 
ATOM     52  C   UNL     1      -7.469   8.944  -5.493  1.00  0.00     0.037 A 
ATOM     53  C   UNL     1      -5.374  13.438  -9.736  1.00  0.00     0.049 A 
ATOM     54  C   UNL     1      -7.962  10.315  -5.872  1.00  0.00     0.074 A 
ATOM     55  C   UNL     1      -5.959  14.653 -10.047  1.00  0.00     0.029 A 
ATOM     56  N   UNL     1      -6.167  12.850  -8.762  1.00  0.00    -0.354 N 
ATOM     57  N   UNL     1      -7.482  11.145  -6.767  1.00  0.00    -0.248 NA
ATOM     58  C   UNL     1      -9.146  10.818  -5.160  1.00  0.00     0.031 C 
ATOM     59  C   UNL     1      -7.081  14.820  -9.229  1.00  0.00     0.029 A 
ATOM     60  C   UNL     1      -7.223  13.688  -8.444  1.00  0.00     0.049 A 
ATOM     61  H   UNL     1      -6.003  11.968  -8.357  1.00  0.00     0.167 HD
ATOM     62  C   UNL     1      -8.319  12.255  -6.744  1.00  0.00     0.074 A 
ATOM     63  C   UNL     1      -9.345  11.984  -5.759  1.00  0.00     0.031 C 
ATOM     64  C   UNL     1      -8.245  13.396  -7.472  1.00  0.00     0.037 A 
BRANCH  51  65
ATOM     65  C   UNL     1      -3.385  13.681 -11.264  1.00  0.00     0.058 A 
ATOM     66  C   UNL     1      -3.382  13.394 -12.637  1.00  0.00     0.135 A 
ATOM     67  C   UNL     1      -2.694  14.825 -10.831  1.00  0.00     0.135 A 
ATOM     68  F   UNL     1      -4.013  12.305 -13.103  1.00  0.00    -0.206 F 
ATOM     69  C   UNL     1      -2.717  14.209 -13.548  1.00  0.00     0.059 A 
ATOM     70  C   UNL     1      -2.043  15.667 -11.727  1.00  0.00     0.059 A 
ATOM     71  F   UNL     1      -2.663  15.142  -9.527  1.00  0.00    -0.206 F 
ATOM     72  C   UNL     1      -2.056  15.348 -13.084  1.00  0.00     0.060 A 
BRANCH  72  73
ATOM     73  S   UNL     1      -1.243  16.423 -14.285  1.00  0.00     0.124 S 
ATOM     74  O   UNL     1      -0.083  15.618 -14.657  1.00  0.00    -0.237 OA
ATOM     75  O   UNL     1      -2.267  16.570 -15.315  1.00  0.00    -0.237 OA
ATOM     76  O   UNL     1      -0.949  17.630 -13.519  1.00  0.00    -0.744 OA
ENDBRANCH  72  73
ENDBRANCH  51  65
BRANCH  52  77
ATOM     77  C   UNL     1      -8.133   8.171  -4.409  1.00  0.00     0.058 A 
ATOM     78  C   UNL     1      -9.430   7.662  -4.571  1.00  0.00     0.135 A 
ATOM     79  C   UNL     1      -7.492   7.945  -3.181  1.00  0.00     0.135 A 
ATOM     80  F   UNL     1     -10.087   7.854  -5.725  1.00  0.00    -0.206 F 
ATOM     81  C   UNL     1     -10.082   6.986  -3.544  1.00  0.00     0.059 A 
ATOM     82  C   UNL     1      -8.112   7.248  -2.149  1.00  0.00     0.059 A 
ATOM     83  F   UNL     1      -6.243   8.393  -2.982  1.00  0.00    -0.206 F 
ATOM     84  C   UNL     1      -9.415   6.788  -2.334  1.00  0.00     0.060 A 
BRANCH  84  85
ATOM     85  S   UNL     1     -10.262   5.899  -1.010  1.00  0.00     0.124 S 
ATOM     86  O   UNL     1     -11.197   6.910  -0.530  1.00  0.00    -0.237 OA
ATOM     87  O   UNL     1     -10.853   4.771  -1.725  1.00  0.00    -0.237 OA
ATOM     88  O   UNL     1      -9.180   5.551  -0.094  1.00  0.00    -0.744 OA
ENDBRANCH  84  85
ENDBRANCH  52  77
BRANCH  64  89
ATOM     89  C   UNL     1      -9.323  14.423  -7.263  1.00  0.00     0.058 A 
ATOM     90  C   UNL     1      -9.375  15.211  -6.103  1.00  0.00     0.135 A 
ATOM     91  C   UNL     1     -10.282  14.658  -8.261  1.00  0.00     0.135 A 
ATOM     92  F   UNL     1      -8.485  15.022  -5.116  1.00  0.00    -0.206 F 
ATOM     93  C   UNL     1     -10.356  16.182  -5.930  1.00  0.00     0.059 A 
ATOM     94  C   UNL     1     -11.255  15.642  -8.121  1.00  0.00     0.059 A 
ATOM     95  F   UNL     1     -10.268  13.938  -9.395  1.00  0.00    -0.206 F 
ATOM     96  C   UNL     1     -11.291  16.391  -6.946  1.00  0.00     0.060 A 
BRANCH  96  97
ATOM     97  S   UNL     1     -12.538  17.677  -6.725  1.00  0.00     0.124 S 
ATOM     98  O   UNL     1     -13.445  17.046  -5.772  1.00  0.00    -0.237 OA
ATOM     99  O   UNL     1     -11.751  18.792  -6.208  1.00  0.00    -0.237 OA
ATOM    100  O   UNL     1     -13.073  17.866  -8.070  1.00  0.00    -0.744 OA
ENDBRANCH  96  97
ENDBRANCH  64  89
ENDBRANCH  38  39
ENDBRANCH  30  33
ENDBRANCH  28  29
ENDBRANCH  27  28
ENDBRANCH  26  27
ENDBRANCH   1  26
TORSDOF 19
