REMARK SMILES CC1(C)CCC[C@@H]1Nc1nc2c(cc1C(=O)NCCCCCCNC(=O)c1ccc(-c3c4nc(c(-c5c(F)cc(S(=O)(=O)[O-])cc5F)c5ccc([nH]5)c(-c5c(F)cc(S(=O)(=O)[O-])cc5F)c5nc(c(-c6c(F)cc(S(=O)(=O)[O-])cc6F)c6ccc3[nH]6)C=C5)C=C4)cc1)CCC2
REMARK SMILES IDX 21 1 20 2 19 3 18 4 17 5 15 6 16 7 14 9 9 10 10 11 11 12
REMARK SMILES IDX 13 13 12 14 95 15 93 16 94 17 8 18 7 20 1 21 2 22 3 23 4 24
REMARK SMILES IDX 5 25 6 26 22 27 23 28 24 29 25 30 26 32 27 33 28 34 92 35
REMARK SMILES IDX 29 36 91 37 30 38 31 39 32 40 85 41 33 42 90 43 84 44 86 45
REMARK SMILES IDX 34 46 89 47 83 48 82 49 35 51 69 52 48 53 68 54 49 55 52 56
REMARK SMILES IDX 67 57 87 58 50 59 51 60 66 62 88 63 53 64 36 65 37 66 46 67
REMARK SMILES IDX 38 68 39 69 45 70 47 71 40 72 41 73 42 74 43 75 44 76 70 77
REMARK SMILES IDX 71 78 80 79 72 80 73 81 79 82 81 83 74 84 75 85 76 86 77 87
REMARK SMILES IDX 78 88 54 89 55 90 64 91 56 92 57 93 63 94 65 95 58 96 59 97
REMARK SMILES IDX 60 98 61 99 62 100
REMARK H PARENT 17 8 8 19 24 31 86 50 52 61
REMARK Flexibility Score: inf
ROOT
ATOM      1  C   UNL     1       2.576  -0.312   3.116  1.00  0.00     0.002 C 
ENDROOT
BRANCH   1   2
ATOM      2  C   UNL     1       3.277   1.058   3.079  1.00  0.00     0.002 C 
BRANCH   2   3
ATOM      3  C   UNL     1       3.026   2.076   1.948  1.00  0.00     0.021 C 
BRANCH   3   4
ATOM      4  C   UNL     1       1.595   2.308   1.468  1.00  0.00     0.116 C 
BRANCH   4   5
ATOM      5  N   UNL     1       0.723   3.118   2.278  1.00  0.00    -0.352 N 
ATOM      6  C   UNL     1      -0.462   3.747   1.941  1.00  0.00     0.255 C 
ATOM      7  O   UNL     1      -1.179   4.069   2.898  1.00  0.00    -0.269 OA
ATOM      8  H   UNL     1       1.014   3.244   3.210  1.00  0.00     0.163 HD
BRANCH   6   9
ATOM      9  C   UNL     1      -0.890   4.204   0.573  1.00  0.00     0.082 A 
ATOM     10  C   UNL     1      -0.810   3.582  -0.685  1.00  0.00     0.139 A 
ATOM     11  N   UNL     1      -1.194   4.210  -1.835  1.00  0.00    -0.235 NA
ATOM     12  C   UNL     1      -1.738   5.425  -1.748  1.00  0.00     0.046 A 
ATOM     13  C   UNL     1      -1.495   5.495   0.604  1.00  0.00     0.023 A 
ATOM     14  C   UNL     1      -1.925   6.098  -0.565  1.00  0.00    -0.025 A 
ATOM     15  C   UNL     1      -2.299   6.180  -2.916  1.00  0.00     0.057 C 
ATOM     16  C   UNL     1      -2.649   7.383  -0.792  1.00  0.00     0.038 C 
ATOM     17  C   UNL     1      -2.451   7.580  -2.307  1.00  0.00     0.011 C 
BRANCH  10  18
ATOM     18  N   UNL     1      -0.403   2.338  -1.051  1.00  0.00    -0.366 N 
ATOM     19  H   UNL     1       0.204   2.300  -1.825  1.00  0.00     0.162 HD
BRANCH  18  20
ATOM     20  C   UNL     1      -0.737   1.073  -0.461  1.00  0.00     0.086 C 
ATOM     21  C   UNL     1       1.569   0.017  -0.955  1.00  0.00     0.013 C 
ATOM     22  C   UNL     1       0.056  -0.077  -1.147  1.00  0.00    -0.015 C 
ATOM     23  C   UNL     1      -0.157  -0.200  -2.673  1.00  0.00     0.013 C 
ATOM     24  C   UNL     1      -0.605  -1.266  -0.435  1.00  0.00     0.008 C 
ATOM     25  C   UNL     1      -2.102  -0.907  -0.419  1.00  0.00     0.003 C 
ATOM     26  C   UNL     1      -2.185   0.621  -0.602  1.00  0.00     0.025 C 
ENDBRANCH  18  20
ENDBRANCH  10  18
ENDBRANCH   6   9
ENDBRANCH   4   5
ENDBRANCH   3   4
ENDBRANCH   2   3
ENDBRANCH   1   2
BRANCH   1  27
ATOM     27  C   UNL     1       2.812  -1.401   2.054  1.00  0.00     0.021 C 
BRANCH  27  28
ATOM     28  C   UNL     1       4.122  -1.418   1.267  1.00  0.00     0.116 C 
BRANCH  28  29
ATOM     29  N   UNL     1       5.131  -2.220   1.937  1.00  0.00    -0.352 N 
ATOM     30  C   UNL     1       5.715  -3.395   1.525  1.00  0.00     0.251 C 
ATOM     31  H   UNL     1       5.439  -1.875   2.806  1.00  0.00     0.163 HD
ATOM     32  O   UNL     1       6.324  -4.086   2.340  1.00  0.00    -0.269 OA
BRANCH  30  33
ATOM     33  C   UNL     1       5.631  -3.840   0.111  1.00  0.00     0.039 A 
ATOM     34  C   UNL     1       5.315  -5.175  -0.167  1.00  0.00     0.014 A 
ATOM     35  C   UNL     1       5.964  -2.975  -0.938  1.00  0.00     0.014 A 
ATOM     36  C   UNL     1       5.308  -5.636  -1.490  1.00  0.00     0.010 A 
ATOM     37  C   UNL     1       5.934  -3.432  -2.261  1.00  0.00     0.010 A 
ATOM     38  C   UNL     1       5.617  -4.769  -2.550  1.00  0.00    -0.014 A 
BRANCH  38  39
ATOM     39  C   UNL     1       5.652  -5.265  -3.954  1.00  0.00     0.031 A 
ATOM     40  C   UNL     1       6.971  -5.463  -4.654  1.00  0.00     0.074 A 
ATOM     41  C   UNL     1       4.503  -5.533  -4.605  1.00  0.00     0.049 A 
ATOM     42  N   UNL     1       7.205  -5.885  -5.871  1.00  0.00    -0.248 NA
ATOM     43  C   UNL     1       8.184  -5.136  -3.889  1.00  0.00     0.031 C 
ATOM     44  C   UNL     1       3.160  -5.376  -4.045  1.00  0.00     0.029 A 
ATOM     45  N   UNL     1       4.279  -5.994  -5.880  1.00  0.00    -0.354 N 
ATOM     46  C   UNL     1       8.588  -5.891  -6.013  1.00  0.00     0.074 A 
ATOM     47  C   UNL     1       9.139  -5.378  -4.777  1.00  0.00     0.031 C 
ATOM     48  C   UNL     1       2.254  -5.752  -4.965  1.00  0.00     0.029 A 
ATOM     49  C   UNL     1       2.948  -6.155  -6.186  1.00  0.00     0.049 A 
ATOM     50  H   UNL     1       5.005  -6.191  -6.516  1.00  0.00     0.167 HD
ATOM     51  C   UNL     1       9.333  -6.312  -7.064  1.00  0.00     0.037 A 
ATOM     52  C   UNL     1       2.354  -6.582  -7.319  1.00  0.00     0.037 A 
ATOM     53  C   UNL     1       8.787  -6.826  -8.294  1.00  0.00     0.049 A 
ATOM     54  C   UNL     1       3.202  -6.992  -8.495  1.00  0.00     0.074 A 
ATOM     55  C   UNL     1       9.465  -7.287  -9.409  1.00  0.00     0.029 A 
ATOM     56  N   UNL     1       7.434  -6.950  -8.571  1.00  0.00    -0.354 N 
ATOM     57  N   UNL     1       4.509  -7.022  -8.596  1.00  0.00    -0.248 NA
ATOM     58  C   UNL     1       2.496  -7.430  -9.708  1.00  0.00     0.031 C 
ATOM     59  C   UNL     1       8.523  -7.659 -10.373  1.00  0.00     0.029 A 
ATOM     60  C   UNL     1       7.258  -7.468  -9.843  1.00  0.00     0.049 A 
ATOM     61  H   UNL     1       6.706  -6.706  -7.954  1.00  0.00     0.167 HD
ATOM     62  C   UNL     1       4.781  -7.513  -9.869  1.00  0.00     0.074 A 
ATOM     63  C   UNL     1       3.504  -7.769 -10.502  1.00  0.00     0.031 C 
ATOM     64  C   UNL     1       5.981  -7.735 -10.457  1.00  0.00     0.037 A 
BRANCH  51  65
ATOM     65  C   UNL     1      10.829  -6.258  -6.928  1.00  0.00     0.058 A 
ATOM     66  C   UNL     1      11.517  -7.173  -6.114  1.00  0.00     0.135 A 
ATOM     67  C   UNL     1      11.590  -5.337  -7.666  1.00  0.00     0.135 A 
ATOM     68  F   UNL     1      10.836  -8.066  -5.378  1.00  0.00    -0.206 F 
ATOM     69  C   UNL     1      12.904  -7.166  -6.024  1.00  0.00     0.059 A 
ATOM     70  C   UNL     1      12.981  -5.328  -7.610  1.00  0.00     0.059 A 
ATOM     71  F   UNL     1      10.982  -4.442  -8.461  1.00  0.00    -0.206 F 
ATOM     72  C   UNL     1      13.629  -6.242  -6.779  1.00  0.00     0.060 A 
BRANCH  72  73
ATOM     73  S   UNL     1      15.431  -6.264  -6.668  1.00  0.00     0.124 S 
ATOM     74  O   UNL     1      15.645  -5.741  -5.321  1.00  0.00    -0.237 OA
ATOM     75  O   UNL     1      15.735  -7.682  -6.850  1.00  0.00    -0.237 OA
ATOM     76  O   UNL     1      15.851  -5.391  -7.754  1.00  0.00    -0.744 OA
ENDBRANCH  72  73
ENDBRANCH  51  65
BRANCH  52  77
ATOM     77  C   UNL     1       0.871  -6.681  -7.391  1.00  0.00     0.058 A 
ATOM     78  C   UNL     1       0.236  -7.931  -7.411  1.00  0.00     0.135 A 
ATOM     79  C   UNL     1       0.062  -5.535  -7.441  1.00  0.00     0.135 A 
ATOM     80  F   UNL     1       0.968  -9.055  -7.375  1.00  0.00    -0.206 F 
ATOM     81  C   UNL     1      -1.148  -8.045  -7.491  1.00  0.00     0.059 A 
ATOM     82  C   UNL     1      -1.325  -5.623  -7.500  1.00  0.00     0.059 A 
ATOM     83  F   UNL     1       0.621  -4.315  -7.413  1.00  0.00    -0.206 F 
ATOM     84  C   UNL     1      -1.921  -6.883  -7.534  1.00  0.00     0.060 A 
BRANCH  84  85
ATOM     85  S   UNL     1      -3.719  -7.044  -7.594  1.00  0.00     0.124 S 
ATOM     86  O   UNL     1      -3.926  -7.515  -8.958  1.00  0.00    -0.237 OA
ATOM     87  O   UNL     1      -3.975  -8.016  -6.535  1.00  0.00    -0.237 OA
ATOM     88  O   UNL     1      -4.186  -5.689  -7.316  1.00  0.00    -0.744 OA
ENDBRANCH  84  85
ENDBRANCH  52  77
BRANCH  64  89
ATOM     89  C   UNL     1       5.989  -8.312 -11.846  1.00  0.00     0.058 A 
ATOM     90  C   UNL     1       5.681  -7.530 -12.968  1.00  0.00     0.135 A 
ATOM     91  C   UNL     1       6.401  -9.638 -12.061  1.00  0.00     0.135 A 
ATOM     92  F   UNL     1       5.277  -6.259 -12.816  1.00  0.00    -0.206 F 
ATOM     93  C   UNL     1       5.778  -8.042 -14.258  1.00  0.00     0.059 A 
ATOM     94  C   UNL     1       6.525 -10.165 -13.343  1.00  0.00     0.059 A 
ATOM     95  F   UNL     1       6.714 -10.426 -11.020  1.00  0.00    -0.206 F 
ATOM     96  C   UNL     1       6.209  -9.359 -14.436  1.00  0.00     0.060 A 
BRANCH  96  97
ATOM     97  S   UNL     1       6.393  -9.987 -16.119  1.00  0.00     0.124 S 
ATOM     98  O   UNL     1       5.002 -10.145 -16.529  1.00  0.00    -0.237 OA
ATOM     99  O   UNL     1       7.128  -8.910 -16.775  1.00  0.00    -0.237 OA
ATOM    100  O   UNL     1       7.140 -11.229 -15.940  1.00  0.00    -0.744 OA
ENDBRANCH  96  97
ENDBRANCH  64  89
ENDBRANCH  38  39
ENDBRANCH  30  33
ENDBRANCH  28  29
ENDBRANCH  27  28
ENDBRANCH   1  27
TORSDOF 18
