REMARK SMILES CS(=O)(=O)c1ccc(/C=C(/C(=O)NCCCCCCNC(=O)c2ccc(-c3c4nc(c(-c5c(F)cc(S(=O)(=O)[O-])cc5F)c5ccc([nH]5)c(-c5c(F)cc(S(=O)(=O)[O-])cc5F)c5nc(c(-c6c(F)cc(S(=O)(=O)[O-])cc6F)c6ccc3[nH]6)C=C5)C=C4)cc2)c2ccc(-c3ccc(F)cc3F)cc2)cc1
REMARK SMILES IDX 17 1 16 2 15 3 14 4 13 5 11 6 12 7 10 9 9 10 8 11 5 12 6 13
REMARK SMILES IDX 104 14 7 15 103 16 2 17 1 18 3 19 4 20 89 21 90 22 102 23
REMARK SMILES IDX 91 24 101 25 92 26 93 27 94 28 99 29 95 30 98 31 100 32
REMARK SMILES IDX 96 33 97 34 18 35 19 36 20 37 21 38 22 40 23 41 24 42 88 43
REMARK SMILES IDX 25 44 87 45 26 46 27 47 28 48 81 49 29 50 86 51 80 52 82 53
REMARK SMILES IDX 30 54 85 55 79 56 78 57 31 59 65 60 44 61 64 62 45 63 48 64
REMARK SMILES IDX 63 65 83 66 46 67 47 68 62 70 84 71 49 72 32 73 33 74 42 75
REMARK SMILES IDX 34 76 35 77 41 78 43 79 36 80 37 81 38 82 39 83 40 84 66 85
REMARK SMILES IDX 67 86 76 87 68 88 69 89 75 90 77 91 70 92 71 93 72 94 73 95
REMARK SMILES IDX 74 96 50 97 51 98 60 99 52 100 53 101 59 102 61 103 54 104
REMARK SMILES IDX 55 105 56 106 57 107 58 108
REMARK H PARENT 13 8 20 39 82 58 48 69
REMARK Flexibility Score: inf
ROOT
ATOM      1  C   UNL     1       4.608  -6.099  -9.217  1.00  0.00     0.002 C 
ENDROOT
BRANCH   1   2
ATOM      2  C   UNL     1       5.012  -6.657  -7.847  1.00  0.00     0.002 C 
BRANCH   2   3
ATOM      3  C   UNL     1       4.481  -5.856  -6.647  1.00  0.00     0.021 C 
BRANCH   3   4
ATOM      4  C   UNL     1       2.953  -5.763  -6.617  1.00  0.00     0.116 C 
BRANCH   4   5
ATOM      5  N   UNL     1       2.411  -7.055  -6.255  1.00  0.00    -0.352 N 
ATOM      6  C   UNL     1       1.917  -7.580  -5.108  1.00  0.00     0.251 C 
ATOM      7  O   UNL     1       1.688  -8.793  -5.133  1.00  0.00    -0.269 OA
ATOM      8  H   UNL     1       2.400  -7.691  -7.006  1.00  0.00     0.163 HD
BRANCH   6   9
ATOM      9  C   UNL     1       1.548  -6.753  -3.896  1.00  0.00     0.047 C 
ATOM     10  C   UNL     1       2.234  -5.651  -3.508  1.00  0.00     0.022 C 
BRANCH  10  11
ATOM     11  C   UNL     1       1.894  -4.661  -2.455  1.00  0.00    -0.025 A 
ATOM     12  C   UNL     1       1.008  -2.667  -0.676  1.00  0.00     0.067 A 
ATOM     13  C   UNL     1       0.975  -4.012  -0.299  1.00  0.00     0.021 A 
ATOM     14  C   UNL     1       1.552  -2.299  -1.905  1.00  0.00     0.021 A 
ATOM     15  C   UNL     1       1.445  -4.997  -1.174  1.00  0.00     0.009 A 
ATOM     16  C   UNL     1       1.988  -3.297  -2.788  1.00  0.00     0.009 A 
BRANCH  12  17
ATOM     17  S   UNL     1       0.321  -1.480   0.454  1.00  0.00     0.175 S 
ATOM     18  C   UNL     1       0.987   0.104   0.035  1.00  0.00     0.163 C 
ATOM     19  O   UNL     1       0.826  -1.822   1.770  1.00  0.00    -0.224 OA
ATOM     20  O   UNL     1      -1.107  -1.448   0.190  1.00  0.00    -0.224 OA
ENDBRANCH  12  17
ENDBRANCH  10  11
BRANCH   9  21
ATOM     21  C   UNL     1       0.495  -7.329  -3.023  1.00  0.00    -0.013 A 
ATOM     22  C   UNL     1       0.794  -8.519  -2.346  1.00  0.00     0.009 A 
ATOM     23  C   UNL     1      -0.727  -6.700  -2.771  1.00  0.00     0.009 A 
ATOM     24  C   UNL     1      -0.081  -9.041  -1.398  1.00  0.00     0.009 A 
ATOM     25  C   UNL     1      -1.589  -7.211  -1.790  1.00  0.00     0.009 A 
ATOM     26  C   UNL     1      -1.271  -8.377  -1.068  1.00  0.00    -0.015 A 
BRANCH  26  27
ATOM     27  C   UNL     1      -2.120  -8.889   0.025  1.00  0.00     0.018 A 
ATOM     28  C   UNL     1      -1.534  -9.366   1.218  1.00  0.00     0.015 A 
ATOM     29  C   UNL     1      -3.521  -8.943  -0.068  1.00  0.00     0.133 A 
ATOM     30  C   UNL     1      -2.312  -9.896   2.248  1.00  0.00     0.040 A 
ATOM     31  C   UNL     1      -4.306  -9.463   0.958  1.00  0.00     0.079 A 
ATOM     32  F   UNL     1      -4.146  -8.507  -1.173  1.00  0.00    -0.206 F 
ATOM     33  C   UNL     1      -3.692  -9.942   2.105  1.00  0.00     0.126 A 
ATOM     34  F   UNL     1      -4.438 -10.460   3.089  1.00  0.00    -0.207 F 
ENDBRANCH  26  27
ENDBRANCH   9  21
ENDBRANCH   6   9
ENDBRANCH   4   5
ENDBRANCH   3   4
ENDBRANCH   2   3
ENDBRANCH   1   2
BRANCH   1  35
ATOM     35  C   UNL     1       4.935  -4.618  -9.418  1.00  0.00     0.021 C 
BRANCH  35  36
ATOM     36  C   UNL     1       6.420  -4.295  -9.303  1.00  0.00     0.116 C 
BRANCH  36  37
ATOM     37  N   UNL     1       7.186  -4.929 -10.364  1.00  0.00    -0.352 N 
ATOM     38  C   UNL     1       8.009  -4.349 -11.295  1.00  0.00     0.251 C 
ATOM     39  H   UNL     1       7.102  -5.908 -10.421  1.00  0.00     0.163 HD
ATOM     40  O   UNL     1       8.378  -4.990 -12.274  1.00  0.00    -0.269 OA
BRANCH  38  41
ATOM     41  C   UNL     1       8.437  -2.947 -11.114  1.00  0.00     0.039 A 
ATOM     42  C   UNL     1       8.429  -2.085 -12.212  1.00  0.00     0.014 A 
ATOM     43  C   UNL     1       8.854  -2.489  -9.860  1.00  0.00     0.014 A 
ATOM     44  C   UNL     1       8.802  -0.750 -12.043  1.00  0.00     0.010 A 
ATOM     45  C   UNL     1       9.146  -1.141  -9.677  1.00  0.00     0.010 A 
ATOM     46  C   UNL     1       9.140  -0.262 -10.770  1.00  0.00    -0.014 A 
BRANCH  46  47
ATOM     47  C   UNL     1       9.517   1.160 -10.566  1.00  0.00     0.031 A 
ATOM     48  C   UNL     1      10.901   1.508 -10.087  1.00  0.00     0.074 A 
ATOM     49  C   UNL     1       8.601   2.129 -10.760  1.00  0.00     0.049 A 
ATOM     50  N   UNL     1      11.403   2.679  -9.793  1.00  0.00    -0.248 NA
ATOM     51  C   UNL     1      11.836   0.388  -9.886  1.00  0.00     0.031 C 
ATOM     52  C   UNL     1       7.215   1.912 -11.181  1.00  0.00     0.029 A 
ATOM     53  N   UNL     1       8.695   3.491 -10.622  1.00  0.00    -0.354 N 
ATOM     54  C   UNL     1      12.702   2.437  -9.362  1.00  0.00     0.074 A 
ATOM     55  C   UNL     1      12.891   1.003  -9.373  1.00  0.00     0.031 C 
ATOM     56  C   UNL     1       6.598   3.099 -11.291  1.00  0.00     0.029 A 
ATOM     57  C   UNL     1       7.528   4.158 -10.911  1.00  0.00     0.049 A 
ATOM     58  H   UNL     1       9.521   3.948 -10.342  1.00  0.00     0.167 HD
ATOM     59  C   UNL     1      13.660   3.329  -9.015  1.00  0.00     0.037 A 
ATOM     60  C   UNL     1       7.238   5.473 -10.868  1.00  0.00     0.037 A 
ATOM     61  C   UNL     1      13.470   4.756  -9.030  1.00  0.00     0.049 A 
ATOM     62  C   UNL     1       8.316   6.445 -10.470  1.00  0.00     0.074 A 
ATOM     63  C   UNL     1      14.391   5.749  -8.747  1.00  0.00     0.029 A 
ATOM     64  N   UNL     1      12.278   5.394  -9.343  1.00  0.00    -0.354 N 
ATOM     65  N   UNL     1       9.558   6.203 -10.123  1.00  0.00    -0.248 NA
ATOM     66  C   UNL     1       7.957   7.870 -10.464  1.00  0.00     0.031 C 
ATOM     67  C   UNL     1      13.742   6.985  -8.838  1.00  0.00     0.029 A 
ATOM     68  C   UNL     1      12.433   6.766  -9.237  1.00  0.00     0.049 A 
ATOM     69  H   UNL     1      11.445   4.938  -9.602  1.00  0.00     0.167 HD
ATOM     70  C   UNL     1      10.137   7.446  -9.890  1.00  0.00     0.074 A 
ATOM     71  C   UNL     1       9.112   8.437 -10.145  1.00  0.00     0.031 C 
ATOM     72  C   UNL     1      11.403   7.740  -9.502  1.00  0.00     0.037 A 
BRANCH  59  73
ATOM     73  C   UNL     1      15.000   2.788  -8.593  1.00  0.00     0.058 A 
ATOM     74  C   UNL     1      15.863   2.155  -9.503  1.00  0.00     0.135 A 
ATOM     75  C   UNL     1      15.442   2.930  -7.267  1.00  0.00     0.135 A 
ATOM     76  F   UNL     1      15.486   1.977 -10.780  1.00  0.00    -0.206 F 
ATOM     77  C   UNL     1      17.098   1.653  -9.108  1.00  0.00     0.059 A 
ATOM     78  C   UNL     1      16.688   2.465  -6.857  1.00  0.00     0.059 A 
ATOM     79  F   UNL     1      14.659   3.525  -6.353  1.00  0.00    -0.206 F 
ATOM     80  C   UNL     1      17.503   1.813  -7.782  1.00  0.00     0.060 A 
BRANCH  80  81
ATOM     81  S   UNL     1      19.110   1.158  -7.288  1.00  0.00     0.124 S 
ATOM     82  O   UNL     1      18.856  -0.279  -7.308  1.00  0.00    -0.237 OA
ATOM     83  O   UNL     1      19.988   1.661  -8.339  1.00  0.00    -0.237 OA
ATOM     84  O   UNL     1      19.322   1.739  -5.965  1.00  0.00    -0.744 OA
ENDBRANCH  80  81
ENDBRANCH  59  73
BRANCH  60  85
ATOM     85  C   UNL     1       5.876   5.947 -11.233  1.00  0.00     0.058 A 
ATOM     86  C   UNL     1       5.657   6.683 -12.407  1.00  0.00     0.135 A 
ATOM     87  C   UNL     1       4.765   5.665 -10.423  1.00  0.00     0.135 A 
ATOM     88  F   UNL     1       6.688   6.983 -13.212  1.00  0.00    -0.206 F 
ATOM     89  C   UNL     1       4.391   7.140 -12.757  1.00  0.00     0.059 A 
ATOM     90  C   UNL     1       3.484   6.086 -10.765  1.00  0.00     0.059 A 
ATOM     91  F   UNL     1       4.916   4.949  -9.298  1.00  0.00    -0.206 F 
ATOM     92  C   UNL     1       3.309   6.833 -11.930  1.00  0.00     0.060 A 
BRANCH  92  93
ATOM     93  S   UNL     1       1.662   7.392 -12.415  1.00  0.00     0.124 S 
ATOM     94  O   UNL     1       1.756   8.827 -12.175  1.00  0.00    -0.237 OA
ATOM     95  O   UNL     1       1.600   6.979 -13.814  1.00  0.00    -0.237 OA
ATOM     96  O   UNL     1       0.780   6.657 -11.513  1.00  0.00    -0.744 OA
ENDBRANCH  92  93
ENDBRANCH  60  85
BRANCH  72  97
ATOM     97  C   UNL     1      11.768   9.194  -9.368  1.00  0.00     0.058 A 
ATOM     98  C   UNL     1      11.277   9.989  -8.322  1.00  0.00     0.135 A 
ATOM     99  C   UNL     1      12.668   9.784 -10.272  1.00  0.00     0.135 A 
ATOM    100  F   UNL     1      10.409   9.477  -7.434  1.00  0.00    -0.206 F 
ATOM    101  C   UNL     1      11.645  11.324  -8.189  1.00  0.00     0.059 A 
ATOM    102  C   UNL     1      13.074  11.107 -10.140  1.00  0.00     0.059 A 
ATOM    103  F   UNL     1      13.178   9.065 -11.286  1.00  0.00    -0.206 F 
ATOM    104  C   UNL     1      12.547  11.873  -9.102  1.00  0.00     0.060 A 
BRANCH 104 105
ATOM    105  S   UNL     1      13.042  13.597  -8.897  1.00  0.00     0.124 S 
ATOM    106  O   UNL     1      11.834  14.301  -9.313  1.00  0.00    -0.237 OA
ATOM    107  O   UNL     1      13.357  13.663  -7.473  1.00  0.00    -0.237 OA
ATOM    108  O   UNL     1      14.187  13.731  -9.792  1.00  0.00    -0.744 OA
ENDBRANCH 104 105
ENDBRANCH  72  97
ENDBRANCH  46  47
ENDBRANCH  38  41
ENDBRANCH  36  37
ENDBRANCH  35  36
ENDBRANCH   1  35
TORSDOF 20
