REMARK SMILES O=C(NCCCCCCNC(=O)c1cc(N2CCN(c3ccc(F)cc3)CC2)ccc1NC(=O)C1CCCC1)c1ccc(-c2c3nc(c(-c4c(F)cc(S(=O)(=O)[O-])cc4F)c4ccc([nH]4)c(-c4c(F)cc(S(=O)(=O)[O-])cc4F)c4nc(c(-c5c(F)cc(S(=O)(=O)[O-])cc5F)c5ccc2[nH]5)C=C4)C=C3)cc1
REMARK SMILES IDX 6 1 5 2 4 3 3 4 1 5 2 6 40 8 41 9 105 10 42 11 104 12 43 13
REMARK SMILES IDX 44 14 45 15 98 16 46 17 103 18 97 19 99 20 47 21 102 22
REMARK SMILES IDX 96 23 95 24 48 26 82 27 61 28 81 29 62 30 65 31 80 32 100 33
REMARK SMILES IDX 63 34 64 35 79 37 101 38 66 39 49 40 50 41 59 42 51 43 52 44
REMARK SMILES IDX 58 45 60 46 53 47 54 48 55 49 56 50 57 51 83 52 84 53 93 54
REMARK SMILES IDX 85 55 86 56 92 57 94 58 87 59 88 60 89 61 90 62 91 63 67 64
REMARK SMILES IDX 68 65 77 66 69 67 70 68 76 69 78 70 71 71 72 72 73 73 74 74
REMARK SMILES IDX 75 75 7 76 8 77 9 78 10 79 11 80 12 82 13 83 14 84 31 85
REMARK SMILES IDX 15 86 30 87 29 88 32 89 33 90 34 92 35 93 36 94 39 95 37 96
REMARK SMILES IDX 38 97 16 98 17 99 28 100 18 101 27 102 19 103 20 104 21 105
REMARK SMILES IDX 26 106 22 107 25 108 23 109 24 110
REMARK H PARENT 3 7 99 25 65 36 10 81 32 91
REMARK Flexibility Score: inf
ROOT
ATOM      1  C   UNL     1       4.162  -3.012  -2.484  1.00  0.00     0.002 C 
ENDROOT
BRANCH   1   2
ATOM      2  C   UNL     1       4.625  -2.477  -1.130  1.00  0.00     0.021 C 
BRANCH   2   3
ATOM      3  C   UNL     1       4.362  -0.998  -0.878  1.00  0.00     0.116 C 
BRANCH   3   4
ATOM      4  N   UNL     1       2.949  -0.655  -0.862  1.00  0.00    -0.352 N 
ATOM      5  O   UNL     1       1.027   0.191  -0.033  1.00  0.00    -0.269 OA
ATOM      6  C   UNL     1       2.247   0.087   0.061  1.00  0.00     0.251 C 
ATOM      7  H   UNL     1       2.420  -1.001  -1.617  1.00  0.00     0.163 HD
BRANCH   6   8
ATOM      8  C   UNL     1       2.963   0.728   1.188  1.00  0.00     0.039 A 
ATOM      9  C   UNL     1       4.156   1.421   0.975  1.00  0.00     0.014 A 
ATOM     10  C   UNL     1       2.444   0.613   2.481  1.00  0.00     0.014 A 
ATOM     11  C   UNL     1       4.909   1.850   2.063  1.00  0.00     0.010 A 
ATOM     12  C   UNL     1       3.160   1.127   3.567  1.00  0.00     0.010 A 
ATOM     13  C   UNL     1       4.420   1.712   3.373  1.00  0.00    -0.014 A 
BRANCH  13  14
ATOM     14  C   UNL     1       5.235   2.220   4.509  1.00  0.00     0.031 A 
ATOM     15  C   UNL     1       5.784   1.287   5.556  1.00  0.00     0.074 A 
ATOM     16  C   UNL     1       5.517   3.537   4.564  1.00  0.00     0.049 A 
ATOM     17  N   UNL     1       6.556   1.561   6.578  1.00  0.00    -0.248 NA
ATOM     18  C   UNL     1       5.413  -0.133   5.453  1.00  0.00     0.031 C 
ATOM     19  C   UNL     1       5.029   4.541   3.615  1.00  0.00     0.029 A 
ATOM     20  N   UNL     1       6.299   4.255   5.432  1.00  0.00    -0.354 N 
ATOM     21  C   UNL     1       6.742   0.360   7.253  1.00  0.00     0.074 A 
ATOM     22  C   UNL     1       5.984  -0.644   6.536  1.00  0.00     0.031 C 
ATOM     23  C   UNL     1       5.570   5.731   3.916  1.00  0.00     0.029 A 
ATOM     24  C   UNL     1       6.394   5.588   5.111  1.00  0.00     0.049 A 
ATOM     25  H   UNL     1       6.749   3.854   6.210  1.00  0.00     0.167 HD
ATOM     26  C   UNL     1       7.481   0.116   8.364  1.00  0.00     0.037 A 
ATOM     27  C   UNL     1       7.064   6.589   5.711  1.00  0.00     0.037 A 
ATOM     28  C   UNL     1       8.255   1.116   9.057  1.00  0.00     0.049 A 
ATOM     29  C   UNL     1       7.877   6.291   6.938  1.00  0.00     0.074 A 
ATOM     30  C   UNL     1       9.076   0.957  10.161  1.00  0.00     0.029 A 
ATOM     31  N   UNL     1       8.303   2.460   8.717  1.00  0.00    -0.354 N 
ATOM     32  N   UNL     1       8.070   5.141   7.537  1.00  0.00    -0.248 NA
ATOM     33  C   UNL     1       8.560   7.426   7.570  1.00  0.00     0.031 C 
ATOM     34  C   UNL     1       9.586   2.212  10.513  1.00  0.00     0.029 A 
ATOM     35  C   UNL     1       9.121   3.146   9.602  1.00  0.00     0.049 A 
ATOM     36  H   UNL     1       7.825   2.868   7.959  1.00  0.00     0.167 HD
ATOM     37  C   UNL     1       8.914   5.410   8.608  1.00  0.00     0.074 A 
ATOM     38  C   UNL     1       9.206   6.829   8.563  1.00  0.00     0.031 C 
ATOM     39  C   UNL     1       9.403   4.559   9.544  1.00  0.00     0.037 A 
BRANCH  26  40
ATOM     40  C   UNL     1       7.473  -1.284   8.918  1.00  0.00     0.058 A 
ATOM     41  C   UNL     1       8.138  -2.341   8.277  1.00  0.00     0.135 A 
ATOM     42  C   UNL     1       6.822  -1.563  10.132  1.00  0.00     0.135 A 
ATOM     43  F   UNL     1       8.768  -2.135   7.109  1.00  0.00    -0.206 F 
ATOM     44  C   UNL     1       8.133  -3.630   8.803  1.00  0.00     0.059 A 
ATOM     45  C   UNL     1       6.825  -2.839  10.689  1.00  0.00     0.059 A 
ATOM     46  F   UNL     1       6.174  -0.589  10.790  1.00  0.00    -0.206 F 
ATOM     47  C   UNL     1       7.470  -3.870  10.008  1.00  0.00     0.060 A 
BRANCH  47  48
ATOM     48  S   UNL     1       7.469  -5.547  10.678  1.00  0.00     0.124 S 
ATOM     49  O   UNL     1       6.514  -6.211   9.796  1.00  0.00    -0.237 OA
ATOM     50  O   UNL     1       8.863  -5.950  10.519  1.00  0.00    -0.237 OA
ATOM     51  O   UNL     1       7.027  -5.363  12.056  1.00  0.00    -0.744 OA
ENDBRANCH  47  48
ENDBRANCH  26  40
BRANCH  27  52
ATOM     52  C   UNL     1       7.002   7.961   5.145  1.00  0.00     0.058 A 
ATOM     53  C   UNL     1       8.119   8.535   4.522  1.00  0.00     0.135 A 
ATOM     54  C   UNL     1       5.817   8.712   5.186  1.00  0.00     0.135 A 
ATOM     55  F   UNL     1       9.275   7.856   4.461  1.00  0.00    -0.206 F 
ATOM     56  C   UNL     1       8.069   9.809   3.968  1.00  0.00     0.059 A 
ATOM     57  C   UNL     1       5.734   9.977   4.615  1.00  0.00     0.059 A 
ATOM     58  F   UNL     1       4.715   8.199   5.755  1.00  0.00    -0.206 F 
ATOM     59  C   UNL     1       6.869  10.522   4.016  1.00  0.00     0.060 A 
BRANCH  59  60
ATOM     60  S   UNL     1       6.796  12.151   3.242  1.00  0.00     0.124 S 
ATOM     61  O   UNL     1       7.517  12.968   4.211  1.00  0.00    -0.237 OA
ATOM     62  O   UNL     1       7.474  11.919   1.971  1.00  0.00    -0.237 OA
ATOM     63  O   UNL     1       5.362  12.408   3.140  1.00  0.00    -0.744 OA
ENDBRANCH  59  60
ENDBRANCH  27  52
BRANCH  39  64
ATOM     64  C   UNL     1      10.331   5.137  10.574  1.00  0.00     0.058 A 
ATOM     65  C   UNL     1       9.864   5.963  11.609  1.00  0.00     0.135 A 
ATOM     66  C   UNL     1      11.704   4.845  10.536  1.00  0.00     0.135 A 
ATOM     67  F   UNL     1       8.561   6.279  11.685  1.00  0.00    -0.206 F 
ATOM     68  C   UNL     1      10.730   6.505  12.552  1.00  0.00     0.059 A 
ATOM     69  C   UNL     1      12.585   5.356  11.484  1.00  0.00     0.059 A 
ATOM     70  F   UNL     1      12.201   4.053   9.573  1.00  0.00    -0.206 F 
ATOM     71  C   UNL     1      12.091   6.199  12.479  1.00  0.00     0.060 A 
BRANCH  71  72
ATOM     72  S   UNL     1      13.206   6.898  13.714  1.00  0.00     0.124 S 
ATOM     73  O   UNL     1      13.337   8.273  13.245  1.00  0.00    -0.237 OA
ATOM     74  O   UNL     1      12.456   6.719  14.953  1.00  0.00    -0.237 OA
ATOM     75  O   UNL     1      14.406   6.075  13.591  1.00  0.00    -0.744 OA
ENDBRANCH  71  72
ENDBRANCH  39  64
ENDBRANCH  13  14
ENDBRANCH   6   8
ENDBRANCH   3   4
ENDBRANCH   2   3
ENDBRANCH   1   2
BRANCH   1  76
ATOM     76  C   UNL     1       4.651  -2.244  -3.715  1.00  0.00     0.002 C 
BRANCH  76  77
ATOM     77  C   UNL     1       6.165  -2.028  -3.833  1.00  0.00     0.021 C 
BRANCH  77  78
ATOM     78  C   UNL     1       7.028  -3.284  -3.736  1.00  0.00     0.116 C 
BRANCH  78  79
ATOM     79  N   UNL     1       6.705  -4.263  -4.762  1.00  0.00    -0.352 N 
ATOM     80  C   UNL     1       7.518  -4.966  -5.613  1.00  0.00     0.253 C 
ATOM     81  H   UNL     1       5.744  -4.451  -4.861  1.00  0.00     0.163 HD
ATOM     82  O   UNL     1       7.007  -5.625  -6.516  1.00  0.00    -0.269 OA
BRANCH  80  83
ATOM     83  C   UNL     1       8.995  -4.961  -5.468  1.00  0.00     0.065 A 
ATOM     84  C   UNL     1       9.725  -4.769  -6.666  1.00  0.00     0.042 A 
ATOM     85  C   UNL     1       9.660  -5.268  -4.261  1.00  0.00     0.054 A 
ATOM     86  C   UNL     1      11.116  -4.872  -6.694  1.00  0.00     0.038 A 
ATOM     87  C   UNL     1      11.043  -5.301  -4.304  1.00  0.00     0.029 A 
ATOM     88  C   UNL     1      11.759  -5.093  -5.483  1.00  0.00     0.028 A 
BRANCH  85  89
ATOM     89  N   UNL     1       8.924  -5.588  -3.101  1.00  0.00    -0.325 N 
ATOM     90  C   UNL     1       9.159  -5.780  -1.778  1.00  0.00     0.227 C 
ATOM     91  H   UNL     1       7.969  -5.705  -3.311  1.00  0.00     0.169 HD
ATOM     92  O   UNL     1       8.149  -6.059  -1.113  1.00  0.00    -0.274 OA
BRANCH  90  93
ATOM     93  C   UNL     1      10.493  -5.686  -1.042  1.00  0.00     0.079 C 
ATOM     94  C   UNL     1      11.440  -6.844  -1.329  1.00  0.00     0.013 C 
ATOM     95  C   UNL     1      11.271  -4.383  -1.190  1.00  0.00     0.013 C 
ATOM     96  C   UNL     1      12.851  -6.277  -1.242  1.00  0.00     0.001 C 
ATOM     97  C   UNL     1      12.747  -4.756  -1.297  1.00  0.00     0.001 C 
ENDBRANCH  90  93
ENDBRANCH  85  89
BRANCH  86  98
ATOM     98  N   UNL     1      11.807  -4.867  -7.890  1.00  0.00    -0.368 N 
ATOM     99  C   UNL     1      12.132  -3.586  -8.547  1.00  0.00     0.138 C 
ATOM    100  C   UNL     1      12.750  -5.971  -8.159  1.00  0.00     0.138 C 
ATOM    101  C   UNL     1      13.614  -3.176  -8.312  1.00  0.00     0.138 C 
ATOM    102  C   UNL     1      14.215  -5.554  -7.912  1.00  0.00     0.138 C 
ATOM    103  N   UNL     1      14.533  -4.299  -8.608  1.00  0.00    -0.368 N 
BRANCH 103 104
ATOM    104  C   UNL     1      15.297  -4.301  -9.758  1.00  0.00     0.037 A 
ATOM    105  C   UNL     1      16.203  -3.259 -10.009  1.00  0.00     0.029 A 
ATOM    106  C   UNL     1      15.242  -5.351 -10.690  1.00  0.00     0.029 A 
ATOM    107  C   UNL     1      17.037  -3.275 -11.132  1.00  0.00     0.041 A 
ATOM    108  C   UNL     1      16.060  -5.367 -11.822  1.00  0.00     0.041 A 
ATOM    109  C   UNL     1      16.956  -4.330 -12.028  1.00  0.00     0.123 A 
ATOM    110  F   UNL     1      17.755  -4.353 -13.102  1.00  0.00    -0.207 F 
ENDBRANCH 103 104
ENDBRANCH  86  98
ENDBRANCH  80  83
ENDBRANCH  78  79
ENDBRANCH  77  78
ENDBRANCH  76  77
ENDBRANCH   1  76
TORSDOF 20
