REMARK SMILES Cc1ccc2[nH]c3c(=O)n(CC(=O)NCCCCCCNC(=O)c4ccc(-c5c6nc(c(-c7c(F)cc(S(=O)(=O)[O-])cc7F)c7ccc([nH]7)c(-c7c(F)cc(S(=O)(=O)[O-])cc7F)c7nc(c(-c8c(F)cc(S(=O)(=O)[O-])cc8F)c8ccc5[nH]8)C=C7)C=C6)cc4)cnc3c2c1
REMARK SMILES IDX 18 1 17 2 16 3 15 4 14 5 12 6 13 7 11 9 10 10 1 11 2 12 3 13
REMARK SMILES IDX 94 14 4 15 93 16 5 17 92 18 6 19 7 20 91 21 8 23 90 24 9 25
REMARK SMILES IDX 19 26 20 27 21 28 22 29 23 31 24 32 25 33 89 34 26 35 88 36
REMARK SMILES IDX 27 37 28 38 29 39 82 40 30 41 87 42 81 43 83 44 31 45 86 46
REMARK SMILES IDX 80 47 79 48 32 50 66 51 45 52 65 53 46 54 49 55 64 56 84 57
REMARK SMILES IDX 47 58 48 59 63 61 85 62 50 63 33 64 34 65 43 66 35 67 36 68
REMARK SMILES IDX 42 69 44 70 37 71 38 72 39 73 40 74 41 75 67 76 68 77 77 78
REMARK SMILES IDX 69 79 70 80 76 81 78 82 71 83 72 84 73 85 74 86 75 87 51 88
REMARK SMILES IDX 52 89 61 90 53 91 54 92 60 93 62 94 55 95 56 96 57 97 58 98
REMARK SMILES IDX 59 99
REMARK H PARENT 14 8 6 22 21 30 83 49 49 60
REMARK Flexibility Score: inf
ROOT
ATOM      1  C   UNL     1      -0.757   4.398   9.121  1.00  0.00     0.002 C 
ENDROOT
BRANCH   1   2
ATOM      2  C   UNL     1      -0.464   4.908   7.704  1.00  0.00     0.002 C 
BRANCH   2   3
ATOM      3  C   UNL     1      -1.416   4.387   6.618  1.00  0.00     0.021 C 
BRANCH   3   4
ATOM      4  C   UNL     1      -2.872   4.783   6.845  1.00  0.00     0.116 C 
BRANCH   4   5
ATOM      5  N   UNL     1      -3.077   6.199   6.619  1.00  0.00    -0.355 N 
ATOM      6  C   UNL     1      -3.758   6.842   5.630  1.00  0.00     0.240 C 
ATOM      7  O   UNL     1      -3.928   8.058   5.751  1.00  0.00    -0.273 OA
ATOM      8  H   UNL     1      -2.658   6.790   7.286  1.00  0.00     0.163 HD
BRANCH   6   9
ATOM      9  C   UNL     1      -4.422   6.067   4.487  1.00  0.00     0.226 C 
BRANCH   9  10
ATOM     10  N   UNL     1      -3.499   5.240   3.724  1.00  0.00    -0.288 N 
ATOM     11  C   UNL     1       0.968   0.009   0.033  1.00  0.00     0.044 C 
ATOM     12  C   UNL     1       0.603   1.417   0.405  1.00  0.00    -0.050 A 
ATOM     13  C   UNL     1       1.334   2.488  -0.122  1.00  0.00     0.005 A 
ATOM     14  C   UNL     1      -0.501   1.668   1.239  1.00  0.00     0.016 A 
ATOM     15  C   UNL     1       1.014   3.815   0.183  1.00  0.00     0.027 A 
ATOM     16  C   UNL     1      -0.846   2.996   1.559  1.00  0.00     0.026 A 
ATOM     17  C   UNL     1      -0.076   4.039   1.028  1.00  0.00     0.048 A 
ATOM     18  C   UNL     1      -1.852   3.613   2.334  1.00  0.00     0.103 A 
ATOM     19  N   UNL     1      -0.609   5.226   1.492  1.00  0.00    -0.349 N 
ATOM     20  C   UNL     1      -1.690   4.964   2.283  1.00  0.00     0.132 A 
ATOM     21  N   UNL     1      -2.890   3.008   3.046  1.00  0.00    -0.236 NA
ATOM     22  H   UNL     1      -0.262   6.124   1.284  1.00  0.00     0.167 HD
ATOM     23  C   UNL     1      -2.535   5.890   2.958  1.00  0.00     0.278 A 
ATOM     24  C   UNL     1      -3.640   3.860   3.678  1.00  0.00     0.203 A 
ATOM     25  O   UNL     1      -2.419   7.099   2.857  1.00  0.00    -0.267 OA
ENDBRANCH   9  10
ENDBRANCH   6   9
ENDBRANCH   4   5
ENDBRANCH   3   4
ENDBRANCH   2   3
ENDBRANCH   1   2
BRANCH   1  26
ATOM     26  C   UNL     1      -0.790   2.872   9.271  1.00  0.00     0.021 C 
BRANCH  26  27
ATOM     27  C   UNL     1       0.479   2.173   8.783  1.00  0.00     0.116 C 
BRANCH  27  28
ATOM     28  N   UNL     1       1.676   2.603   9.473  1.00  0.00    -0.352 N 
ATOM     29  C   UNL     1       2.316   2.220  10.618  1.00  0.00     0.251 C 
ATOM     30  H   UNL     1       2.136   3.341   9.011  1.00  0.00     0.163 HD
ATOM     31  O   UNL     1       3.410   2.749  10.828  1.00  0.00    -0.269 OA
BRANCH  29  32
ATOM     32  C   UNL     1       1.752   1.301  11.642  1.00  0.00     0.039 A 
ATOM     33  C   UNL     1       0.593   0.536  11.505  1.00  0.00     0.014 A 
ATOM     34  C   UNL     1       2.431   1.282  12.875  1.00  0.00     0.014 A 
ATOM     35  C   UNL     1       0.043  -0.105  12.609  1.00  0.00     0.010 A 
ATOM     36  C   UNL     1       1.902   0.619  13.973  1.00  0.00     0.010 A 
ATOM     37  C   UNL     1       0.671  -0.013  13.852  1.00  0.00    -0.014 A 
BRANCH  37  38
ATOM     38  C   UNL     1       0.078  -0.721  14.983  1.00  0.00     0.031 A 
ATOM     39  C   UNL     1      -0.007  -2.197  14.773  1.00  0.00     0.074 A 
ATOM     40  C   UNL     1      -0.236  -0.102  16.142  1.00  0.00     0.049 A 
ATOM     41  N   UNL     1      -1.064  -2.941  14.729  1.00  0.00    -0.248 NA
ATOM     42  C   UNL     1       1.232  -2.905  14.392  1.00  0.00     0.031 C 
ATOM     43  C   UNL     1       0.027   1.292  16.517  1.00  0.00     0.029 A 
ATOM     44  N   UNL     1      -0.782  -0.611  17.283  1.00  0.00    -0.354 N 
ATOM     45  C   UNL     1      -0.601  -4.243  14.554  1.00  0.00     0.074 A 
ATOM     46  C   UNL     1       0.783  -4.141  14.172  1.00  0.00     0.031 C 
ATOM     47  C   UNL     1      -0.129   1.441  17.852  1.00  0.00     0.029 A 
ATOM     48  C   UNL     1      -0.638   0.201  18.409  1.00  0.00     0.049 A 
ATOM     49  H   UNL     1      -1.240  -1.482  17.311  1.00  0.00     0.167 HD
ATOM     50  C   UNL     1      -1.315  -5.319  14.985  1.00  0.00     0.037 A 
ATOM     51  C   UNL     1      -0.875  -0.148  19.703  1.00  0.00     0.037 A 
ATOM     52  C   UNL     1      -2.700  -4.989  15.178  1.00  0.00     0.049 A 
ATOM     53  C   UNL     1      -1.760  -1.341  19.666  1.00  0.00     0.074 A 
ATOM     54  C   UNL     1      -3.722  -4.568  14.351  1.00  0.00     0.029 A 
ATOM     55  N   UNL     1      -3.105  -4.699  16.457  1.00  0.00    -0.354 N 
ATOM     56  N   UNL     1      -2.985  -1.322  19.217  1.00  0.00    -0.248 NA
ATOM     57  C   UNL     1      -1.120  -2.646  19.688  1.00  0.00     0.031 C 
ATOM     58  C   UNL     1      -4.465  -3.631  15.127  1.00  0.00     0.029 A 
ATOM     59  C   UNL     1      -3.907  -3.587  16.405  1.00  0.00     0.049 A 
ATOM     60  H   UNL     1      -2.862  -5.200  17.268  1.00  0.00     0.167 HD
ATOM     61  C   UNL     1      -3.118  -2.505  18.506  1.00  0.00     0.074 A 
ATOM     62  C   UNL     1      -1.959  -3.310  18.890  1.00  0.00     0.031 C 
ATOM     63  C   UNL     1      -3.998  -2.607  17.466  1.00  0.00     0.037 A 
BRANCH  50  64
ATOM     64  C   UNL     1      -0.671  -6.545  15.584  1.00  0.00     0.058 A 
ATOM     65  C   UNL     1      -1.423  -7.718  15.784  1.00  0.00     0.135 A 
ATOM     66  C   UNL     1       0.597  -6.519  16.210  1.00  0.00     0.135 A 
ATOM     67  F   UNL     1      -2.660  -7.830  15.273  1.00  0.00    -0.206 F 
ATOM     68  C   UNL     1      -0.955  -8.779  16.564  1.00  0.00     0.059 A 
ATOM     69  C   UNL     1       1.104  -7.583  16.944  1.00  0.00     0.059 A 
ATOM     70  F   UNL     1       1.363  -5.420  16.218  1.00  0.00    -0.206 F 
ATOM     71  C   UNL     1       0.312  -8.701  17.138  1.00  0.00     0.060 A 
BRANCH  71  72
ATOM     72  S   UNL     1       0.901 -10.049  18.178  1.00  0.00     0.124 S 
ATOM     73  O   UNL     1      -0.012  -9.967  19.312  1.00  0.00    -0.237 OA
ATOM     74  O   UNL     1       0.730 -11.201  17.299  1.00  0.00    -0.237 OA
ATOM     75  O   UNL     1       2.287  -9.680  18.454  1.00  0.00    -0.744 OA
ENDBRANCH  71  72
ENDBRANCH  50  64
BRANCH  51  76
ATOM     76  C   UNL     1      -0.071   0.192  20.917  1.00  0.00     0.058 A 
ATOM     77  C   UNL     1      -0.531  -0.127  22.211  1.00  0.00     0.135 A 
ATOM     78  C   UNL     1       1.290   0.547  20.823  1.00  0.00     0.135 A 
ATOM     79  F   UNL     1      -1.808  -0.495  22.400  1.00  0.00    -0.206 F 
ATOM     80  C   UNL     1       0.317  -0.153  23.327  1.00  0.00     0.059 A 
ATOM     81  C   UNL     1       2.152   0.534  21.921  1.00  0.00     0.059 A 
ATOM     82  F   UNL     1       1.850   0.825  19.637  1.00  0.00    -0.206 F 
ATOM     83  C   UNL     1       1.666   0.154  23.166  1.00  0.00     0.060 A 
BRANCH  83  84
ATOM     84  S   UNL     1       2.803  -0.056  24.560  1.00  0.00     0.124 S 
ATOM     85  O   UNL     1       2.349   0.979  25.482  1.00  0.00    -0.237 OA
ATOM     86  O   UNL     1       2.539  -1.432  24.967  1.00  0.00    -0.237 OA
ATOM     87  O   UNL     1       4.117   0.174  23.965  1.00  0.00    -0.744 OA
ENDBRANCH  83  84
ENDBRANCH  51  76
BRANCH  63  88
ATOM     88  C   UNL     1      -5.026  -1.514  17.293  1.00  0.00     0.058 A 
ATOM     89  C   UNL     1      -4.735  -0.178  16.957  1.00  0.00     0.135 A 
ATOM     90  C   UNL     1      -6.379  -1.883  17.319  1.00  0.00     0.135 A 
ATOM     91  F   UNL     1      -3.468   0.238  16.820  1.00  0.00    -0.206 F 
ATOM     92  C   UNL     1      -5.746   0.750  16.686  1.00  0.00     0.059 A 
ATOM     93  C   UNL     1      -7.399  -0.985  17.022  1.00  0.00     0.059 A 
ATOM     94  F   UNL     1      -6.721  -3.156  17.579  1.00  0.00    -0.206 F 
ATOM     95  C   UNL     1      -7.077   0.334  16.715  1.00  0.00     0.060 A 
BRANCH  95  96
ATOM     96  S   UNL     1      -8.382   1.509  16.287  1.00  0.00     0.124 S 
ATOM     97  O   UNL     1      -8.326   2.452  17.399  1.00  0.00    -0.237 OA
ATOM     98  O   UNL     1      -7.933   2.023  14.996  1.00  0.00    -0.237 OA
ATOM     99  O   UNL     1      -9.584   0.680  16.233  1.00  0.00    -0.744 OA
ENDBRANCH  95  96
ENDBRANCH  63  88
ENDBRANCH  37  38
ENDBRANCH  29  32
ENDBRANCH  27  28
ENDBRANCH  26  27
ENDBRANCH   1  26
TORSDOF 17
