REMARK SMILES CC(C)(C)c1cc(Nc2ccccc2C(=O)NCCCCCCNC(=O)c2ccc(-c3c4nc(c(-c5c(F)cc(S(=O)(=O)[O-])cc5F)c5ccc([nH]5)c(-c5c(F)cc(S(=O)(=O)[O-])cc5F)c5nc(c(-c6c(F)cc(S(=O)(=O)[O-])cc6F)c6ccc3[nH]6)C=C5)C=C4)cc2)cc2c1OCC2(C)C
REMARK SMILES IDX 20 1 19 2 18 3 17 4 15 5 16 6 14 8 9 9 10 10 11 11 13 12
REMARK SMILES IDX 12 13 8 14 7 16 5 17 6 18 95 19 94 20 96 21 93 22 98 23
REMARK SMILES IDX 97 24 99 25 100 26 2 27 1 28 3 29 4 30 21 31 22 32 23 33
REMARK SMILES IDX 24 34 25 35 26 37 27 38 28 39 92 40 29 41 91 42 30 43 31 44
REMARK SMILES IDX 32 45 85 46 33 47 90 48 84 49 86 50 34 51 89 52 83 53 82 54
REMARK SMILES IDX 35 56 69 57 48 58 68 59 49 60 52 61 67 62 87 63 50 64 51 65
REMARK SMILES IDX 66 67 88 68 53 69 36 70 37 71 46 72 38 73 39 74 45 75 47 76
REMARK SMILES IDX 40 77 41 78 42 79 43 80 44 81 70 82 71 83 80 84 72 85 73 86
REMARK SMILES IDX 79 87 81 88 74 89 75 90 76 91 77 92 78 93 54 94 55 95 64 96
REMARK SMILES IDX 56 97 57 98 63 99 65 100 58 101 59 102 60 103 61 104 62 105
REMARK H PARENT 17 7 8 15 24 36 86 55 52 66
REMARK Flexibility Score: inf
ROOT
ATOM      1  C   UNL     1      -1.004   1.658   5.773  1.00  0.00     0.002 C 
ENDROOT
BRANCH   1   2
ATOM      2  C   UNL     1      -0.522   0.239   5.470  1.00  0.00     0.021 C 
BRANCH   2   3
ATOM      3  C   UNL     1       0.858  -0.221   5.932  1.00  0.00     0.116 C 
BRANCH   3   4
ATOM      4  N   UNL     1       1.150  -0.171   7.340  1.00  0.00    -0.352 N 
ATOM      5  C   UNL     1       1.977  -0.958   8.111  1.00  0.00     0.253 C 
ATOM      6  O   UNL     1       2.084  -0.612   9.295  1.00  0.00    -0.269 OA
ATOM      7  H   UNL     1       0.683   0.542   7.832  1.00  0.00     0.163 HD
BRANCH   5   8
ATOM      8  C   UNL     1       2.702  -2.215   7.690  1.00  0.00     0.063 A 
ATOM      9  C   UNL     1       3.325  -2.541   6.467  1.00  0.00     0.051 A 
ATOM     10  C   UNL     1       4.050  -3.759   6.369  1.00  0.00     0.027 A 
ATOM     11  C   UNL     1       4.102  -4.684   7.405  1.00  0.00     0.002 A 
ATOM     12  C   UNL     1       2.786  -3.174   8.735  1.00  0.00     0.016 A 
ATOM     13  C   UNL     1       3.455  -4.396   8.592  1.00  0.00     0.001 A 
BRANCH   9  14
ATOM     14  N   UNL     1       3.246  -1.789   5.278  1.00  0.00    -0.355 N 
ATOM     15  H   UNL     1       3.678  -0.904   5.276  1.00  0.00     0.167 HD
BRANCH  14  16
ATOM     16  C   UNL     1       2.597  -2.196   4.084  1.00  0.00     0.039 A 
ATOM     17  C   UNL     1       1.608  -1.569   1.907  1.00  0.00     0.002 A 
ATOM     18  C   UNL     1       2.426  -1.280   3.025  1.00  0.00     0.034 A 
ATOM     19  C   UNL     1       1.038  -2.841   1.868  1.00  0.00     0.127 A 
ATOM     20  C   UNL     1       1.213  -3.761   2.877  1.00  0.00     0.006 A 
ATOM     21  O   UNL     1       0.221  -3.293   0.867  1.00  0.00    -0.492 OA
ATOM     22  C   UNL     1       1.972  -3.448   3.988  1.00  0.00     0.034 A 
ATOM     23  C   UNL     1       0.501  -5.029   2.560  1.00  0.00     0.028 C 
ATOM     24  C   UNL     1      -0.206  -4.613   1.256  1.00  0.00     0.240 C 
ATOM     25  C   UNL     1       1.520  -6.144   2.317  1.00  0.00     0.020 C 
ATOM     26  C   UNL     1      -0.513  -5.433   3.633  1.00  0.00     0.020 C 
BRANCH  17  27
ATOM     27  C   UNL     1       1.209  -0.515   0.869  1.00  0.00    -0.009 C 
ATOM     28  C   UNL     1       1.476  -0.978  -0.577  1.00  0.00     0.016 C 
ATOM     29  C   UNL     1       1.963   0.822   1.028  1.00  0.00     0.016 C 
ATOM     30  C   UNL     1      -0.305  -0.281   1.064  1.00  0.00     0.016 C 
ENDBRANCH  17  27
ENDBRANCH  14  16
ENDBRANCH   9  14
ENDBRANCH   5   8
ENDBRANCH   3   4
ENDBRANCH   2   3
ENDBRANCH   1   2
BRANCH   1  31
ATOM     31  C   UNL     1      -0.172   2.857   5.301  1.00  0.00     0.002 C 
BRANCH  31  32
ATOM     32  C   UNL     1       0.322   2.887   3.850  1.00  0.00     0.021 C 
BRANCH  32  33
ATOM     33  C   UNL     1      -0.703   2.737   2.716  1.00  0.00     0.116 C 
BRANCH  33  34
ATOM     34  N   UNL     1      -1.401   3.958   2.348  1.00  0.00    -0.352 N 
ATOM     35  C   UNL     1      -1.506   4.592   1.121  1.00  0.00     0.251 C 
ATOM     36  H   UNL     1      -1.874   4.404   3.087  1.00  0.00     0.163 HD
ATOM     37  O   UNL     1      -2.133   5.646   1.044  1.00  0.00    -0.269 OA
BRANCH  35  38
ATOM     38  C   UNL     1      -0.854   4.054  -0.105  1.00  0.00     0.039 A 
ATOM     39  C   UNL     1      -1.138   2.782  -0.590  1.00  0.00     0.014 A 
ATOM     40  C   UNL     1       0.015   4.863  -0.841  1.00  0.00     0.014 A 
ATOM     41  C   UNL     1      -0.411   2.254  -1.677  1.00  0.00     0.010 A 
ATOM     42  C   UNL     1       0.677   4.359  -1.980  1.00  0.00     0.010 A 
ATOM     43  C   UNL     1       0.536   3.019  -2.383  1.00  0.00    -0.014 A 
BRANCH  43  44
ATOM     44  C   UNL     1       1.400   2.432  -3.481  1.00  0.00     0.031 A 
ATOM     45  C   UNL     1       2.915   2.599  -3.455  1.00  0.00     0.074 A 
ATOM     46  C   UNL     1       0.879   1.723  -4.510  1.00  0.00     0.049 A 
ATOM     47  N   UNL     1       3.805   2.315  -4.379  1.00  0.00    -0.248 NA
ATOM     48  C   UNL     1       3.505   3.166  -2.232  1.00  0.00     0.031 C 
ATOM     49  C   UNL     1      -0.537   1.406  -4.698  1.00  0.00     0.029 A 
ATOM     50  N   UNL     1       1.488   1.129  -5.599  1.00  0.00    -0.354 N 
ATOM     51  C   UNL     1       5.042   2.710  -3.870  1.00  0.00     0.074 A 
ATOM     52  C   UNL     1       4.785   3.277  -2.563  1.00  0.00     0.031 C 
ATOM     53  C   UNL     1      -0.681   0.639  -5.790  1.00  0.00     0.029 A 
ATOM     54  C   UNL     1       0.614   0.484  -6.447  1.00  0.00     0.049 A 
ATOM     55  H   UNL     1       2.459   1.163  -5.754  1.00  0.00     0.167 HD
ATOM     56  C   UNL     1       6.280   2.603  -4.419  1.00  0.00     0.037 A 
ATOM     57  C   UNL     1       0.802  -0.131  -7.636  1.00  0.00     0.037 A 
ATOM     58  C   UNL     1       6.572   1.988  -5.692  1.00  0.00     0.049 A 
ATOM     59  C   UNL     1       2.171  -0.174  -8.263  1.00  0.00     0.074 A 
ATOM     60  C   UNL     1       7.806   1.836  -6.308  1.00  0.00     0.029 A 
ATOM     61  N   UNL     1       5.639   1.407  -6.534  1.00  0.00    -0.354 N 
ATOM     62  N   UNL     1       3.311   0.264  -7.789  1.00  0.00    -0.248 NA
ATOM     63  C   UNL     1       2.274  -0.781  -9.601  1.00  0.00     0.031 C 
ATOM     64  C   UNL     1       7.613   1.205  -7.540  1.00  0.00     0.029 A 
ATOM     65  C   UNL     1       6.267   0.911  -7.669  1.00  0.00     0.049 A 
ATOM     66  H   UNL     1       4.673   1.353  -6.355  1.00  0.00     0.167 HD
ATOM     67  C   UNL     1       4.266  -0.034  -8.758  1.00  0.00     0.074 A 
ATOM     68  C   UNL     1       3.577  -0.705  -9.838  1.00  0.00     0.031 C 
ATOM     69  C   UNL     1       5.596   0.232  -8.748  1.00  0.00     0.037 A 
BRANCH  56  70
ATOM     70  C   UNL     1       7.451   3.167  -3.650  1.00  0.00     0.058 A 
ATOM     71  C   UNL     1       7.949   2.544  -2.496  1.00  0.00     0.135 A 
ATOM     72  C   UNL     1       8.142   4.294  -4.131  1.00  0.00     0.135 A 
ATOM     73  F   UNL     1       7.325   1.471  -1.984  1.00  0.00    -0.206 F 
ATOM     74  C   UNL     1       9.076   3.026  -1.836  1.00  0.00     0.059 A 
ATOM     75  C   UNL     1       9.289   4.776  -3.505  1.00  0.00     0.059 A 
ATOM     76  F   UNL     1       7.717   4.925  -5.237  1.00  0.00    -0.206 F 
ATOM     77  C   UNL     1       9.742   4.140  -2.351  1.00  0.00     0.060 A 
BRANCH  77  78
ATOM     78  S   UNL     1      11.213   4.736  -1.488  1.00  0.00     0.124 S 
ATOM     79  O   UNL     1      10.636   5.250  -0.251  1.00  0.00    -0.237 OA
ATOM     80  O   UNL     1      12.010   3.522  -1.360  1.00  0.00    -0.237 OA
ATOM     81  O   UNL     1      11.754   5.747  -2.394  1.00  0.00    -0.744 OA
ENDBRANCH  77  78
ENDBRANCH  56  70
BRANCH  57  82
ATOM     82  C   UNL     1      -0.357  -0.748  -8.347  1.00  0.00     0.058 A 
ATOM     83  C   UNL     1      -0.442  -2.138  -8.517  1.00  0.00     0.135 A 
ATOM     84  C   UNL     1      -1.395   0.037  -8.873  1.00  0.00     0.135 A 
ATOM     85  F   UNL     1       0.538  -2.932  -8.057  1.00  0.00    -0.206 F 
ATOM     86  C   UNL     1      -1.512  -2.728  -9.183  1.00  0.00     0.059 A 
ATOM     87  C   UNL     1      -2.492  -0.532  -9.513  1.00  0.00     0.059 A 
ATOM     88  F   UNL     1      -1.364   1.372  -8.741  1.00  0.00    -0.206 F 
ATOM     89  C   UNL     1      -2.538  -1.917  -9.669  1.00  0.00     0.060 A 
BRANCH  89  90
ATOM     90  S   UNL     1      -3.954  -2.700 -10.470  1.00  0.00     0.124 S 
ATOM     91  O   UNL     1      -3.364  -3.171 -11.718  1.00  0.00    -0.237 OA
ATOM     92  O   UNL     1      -4.317  -3.732  -9.505  1.00  0.00    -0.237 OA
ATOM     93  O   UNL     1      -4.915  -1.608 -10.599  1.00  0.00    -0.744 OA
ENDBRANCH  89  90
ENDBRANCH  57  82
BRANCH  69  94
ATOM     94  C   UNL     1       6.421  -0.231  -9.921  1.00  0.00     0.058 A 
ATOM     95  C   UNL     1       6.328   0.382 -11.181  1.00  0.00     0.135 A 
ATOM     96  C   UNL     1       7.357  -1.269  -9.772  1.00  0.00     0.135 A 
ATOM     97  F   UNL     1       5.448   1.376 -11.385  1.00  0.00    -0.206 F 
ATOM     98  C   UNL     1       7.114  -0.031 -12.254  1.00  0.00     0.059 A 
ATOM     99  C   UNL     1       8.173  -1.680 -10.823  1.00  0.00     0.059 A 
ATOM    100  F   UNL     1       7.498  -1.887  -8.588  1.00  0.00    -0.206 F 
ATOM    101  C   UNL     1       8.036  -1.062 -12.065  1.00  0.00     0.060 A 
BRANCH 101 102
ATOM    102  S   UNL     1       9.065  -1.568 -13.461  1.00  0.00     0.124 S 
ATOM    103  O   UNL     1       8.086  -2.210 -14.332  1.00  0.00    -0.237 OA
ATOM    104  O   UNL     1       9.594  -0.293 -13.935  1.00  0.00    -0.237 OA
ATOM    105  O   UNL     1      10.047  -2.462 -12.855  1.00  0.00    -0.744 OA
ENDBRANCH 101 102
ENDBRANCH  69  94
ENDBRANCH  43  44
ENDBRANCH  35  38
ENDBRANCH  33  34
ENDBRANCH  32  33
ENDBRANCH  31  32
ENDBRANCH   1  31
TORSDOF 19
