REMARK SMILES Cn1cc(Cl)cc1C(=O)N[C@H]1C=C[C@H](C(=O)NCCCCCCNC(=O)c2ccc(-c3c4nc(c(-c5c(F)cc(S(=O)(=O)[O-])cc5F)c5ccc([nH]5)c(-c5c(F)cc(S(=O)(=O)[O-])cc5F)c5nc(c(-c6c(F)cc(S(=O)(=O)[O-])cc6F)c6ccc3[nH]6)C=C5)C=C4)cc2)C1
REMARK SMILES IDX 21 1 20 2 19 3 18 4 17 5 15 6 16 7 14 9 11 10 12 11 93 12
REMARK SMILES IDX 13 13 10 14 8 15 9 16 7 18 1 19 2 20 3 21 4 22 6 23 5 24
REMARK SMILES IDX 22 25 23 26 24 27 25 28 26 30 27 31 28 32 92 33 29 34 91 35
REMARK SMILES IDX 30 36 31 37 32 38 85 39 33 40 90 41 84 42 86 43 34 44 89 45
REMARK SMILES IDX 83 46 82 47 35 49 69 50 48 51 68 52 49 53 52 54 67 55 87 56
REMARK SMILES IDX 50 57 51 58 66 60 88 61 53 62 36 63 37 64 46 65 38 66 39 67
REMARK SMILES IDX 45 68 47 69 40 70 41 71 42 72 43 73 44 74 70 75 71 76 80 77
REMARK SMILES IDX 72 78 73 79 79 80 81 81 74 82 75 83 76 84 77 85 78 86 54 87
REMARK SMILES IDX 55 88 64 89 56 90 57 91 63 92 65 93 58 94 59 95 60 96 61 97
REMARK SMILES IDX 62 98
REMARK H PARENT 17 8 10 17 24 29 86 48 52 59
REMARK Flexibility Score: inf
ROOT
ATOM      1  C   UNL     1       2.073  -1.163   6.753  1.00  0.00     0.002 C 
ENDROOT
BRANCH   1   2
ATOM      2  C   UNL     1       0.878  -1.715   5.966  1.00  0.00     0.002 C 
BRANCH   2   3
ATOM      3  C   UNL     1       0.491  -0.960   4.697  1.00  0.00     0.021 C 
BRANCH   3   4
ATOM      4  C   UNL     1       1.643  -0.636   3.761  1.00  0.00     0.116 C 
BRANCH   4   5
ATOM      5  N   UNL     1       2.175  -1.789   3.078  1.00  0.00    -0.356 N 
ATOM      6  C   UNL     1       2.438  -1.962   1.756  1.00  0.00     0.227 C 
ATOM      7  O   UNL     1       2.978  -3.022   1.421  1.00  0.00    -0.274 OA
ATOM      8  H   UNL     1       2.377  -2.562   3.652  1.00  0.00     0.163 HD
BRANCH   6   9
ATOM      9  C   UNL     1       2.079  -0.916   0.694  1.00  0.00     0.103 C 
ATOM     10  C   UNL     1       1.375   1.439   0.845  1.00  0.00     0.106 C 
ATOM     11  C   UNL     1       0.235   0.547   0.517  1.00  0.00    -0.006 C 
ATOM     12  C   UNL     1       2.606   0.513   0.900  1.00  0.00     0.047 C 
ATOM     13  C   UNL     1       0.606  -0.739   0.476  1.00  0.00    -0.016 C 
BRANCH  10  14
ATOM     14  N   UNL     1       1.533   2.609   0.010  1.00  0.00    -0.345 N 
ATOM     15  C   UNL     1       1.268   2.973  -1.280  1.00  0.00     0.268 C 
ATOM     16  O   UNL     1       1.583   4.124  -1.585  1.00  0.00    -0.268 OA
ATOM     17  H   UNL     1       1.947   3.349   0.510  1.00  0.00     0.164 HD
BRANCH  15  18
ATOM     18  C   UNL     1       0.593   2.101  -2.208  1.00  0.00     0.108 A 
ATOM     19  C   UNL     1       2.320   0.301  -2.594  1.00  0.00     0.150 C 
ATOM     20  N   UNL     1       1.000   0.876  -2.690  1.00  0.00    -0.345 N 
ATOM     21  C   UNL     1       0.036   0.346  -3.513  1.00  0.00     0.106 A 
ATOM     22  C   UNL     1      -0.874   1.339  -3.771  1.00  0.00     0.059 A 
ATOM     23  C   UNL     1      -0.525   2.442  -2.965  1.00  0.00     0.054 A 
ATOM     24  Cl  UNL     1      -2.151   1.289  -4.882  1.00  0.00    -0.083 Cl
ENDBRANCH  15  18
ENDBRANCH  10  14
ENDBRANCH   6   9
ENDBRANCH   4   5
ENDBRANCH   3   4
ENDBRANCH   2   3
ENDBRANCH   1   2
BRANCH   1  25
ATOM     25  C   UNL     1       2.103   0.347   7.039  1.00  0.00     0.021 C 
BRANCH  25  26
ATOM     26  C   UNL     1       0.952   0.873   7.883  1.00  0.00     0.116 C 
BRANCH  26  27
ATOM     27  N   UNL     1       0.893   0.229   9.186  1.00  0.00    -0.352 N 
ATOM     28  C   UNL     1      -0.150   0.181  10.083  1.00  0.00     0.251 C 
ATOM     29  H   UNL     1       1.714  -0.237   9.466  1.00  0.00     0.163 HD
ATOM     30  O   UNL     1       0.055  -0.138  11.249  1.00  0.00    -0.269 OA
BRANCH  28  31
ATOM     31  C   UNL     1      -1.505   0.549   9.634  1.00  0.00     0.039 A 
ATOM     32  C   UNL     1      -2.283   1.415  10.405  1.00  0.00     0.014 A 
ATOM     33  C   UNL     1      -1.982   0.059   8.421  1.00  0.00     0.014 A 
ATOM     34  C   UNL     1      -3.507   1.854   9.904  1.00  0.00     0.010 A 
ATOM     35  C   UNL     1      -3.140   0.578   7.878  1.00  0.00     0.010 A 
ATOM     36  C   UNL     1      -3.926   1.456   8.625  1.00  0.00    -0.014 A 
BRANCH  36  37
ATOM     37  C   UNL     1      -5.125   2.060   8.032  1.00  0.00     0.031 A 
ATOM     38  C   UNL     1      -5.130   3.551   7.967  1.00  0.00     0.074 A 
ATOM     39  C   UNL     1      -6.066   1.364   7.355  1.00  0.00     0.049 A 
ATOM     40  N   UNL     1      -5.956   4.378   8.521  1.00  0.00    -0.248 NA
ATOM     41  C   UNL     1      -4.024   4.210   7.252  1.00  0.00     0.031 C 
ATOM     42  C   UNL     1      -6.024  -0.061   7.006  1.00  0.00     0.029 A 
ATOM     43  N   UNL     1      -7.193   1.803   6.716  1.00  0.00    -0.354 N 
ATOM     44  C   UNL     1      -5.616   5.641   8.034  1.00  0.00     0.074 A 
ATOM     45  C   UNL     1      -4.325   5.499   7.414  1.00  0.00     0.031 C 
ATOM     46  C   UNL     1      -6.914  -0.308   6.024  1.00  0.00     0.029 A 
ATOM     47  C   UNL     1      -7.718   0.883   5.819  1.00  0.00     0.049 A 
ATOM     48  H   UNL     1      -7.594   2.688   6.877  1.00  0.00     0.167 HD
ATOM     49  C   UNL     1      -6.544   6.633   7.937  1.00  0.00     0.037 A 
ATOM     50  C   UNL     1      -8.742   1.050   4.951  1.00  0.00     0.037 A 
ATOM     51  C   UNL     1      -7.742   6.304   8.664  1.00  0.00     0.049 A 
ATOM     52  C   UNL     1      -9.602   2.151   5.438  1.00  0.00     0.074 A 
ATOM     53  C   UNL     1      -8.185   6.340   9.966  1.00  0.00     0.029 A 
ATOM     54  N   UNL     1      -8.636   5.556   7.948  1.00  0.00    -0.354 N 
ATOM     55  N   UNL     1     -10.260   2.109   6.566  1.00  0.00    -0.248 NA
ATOM     56  C   UNL     1      -9.528   3.466   4.809  1.00  0.00     0.031 C 
ATOM     57  C   UNL     1      -9.307   5.460  10.035  1.00  0.00     0.029 A 
ATOM     58  C   UNL     1      -9.521   4.915   8.773  1.00  0.00     0.049 A 
ATOM     59  H   UNL     1      -8.642   5.488   6.966  1.00  0.00     0.167 HD
ATOM     60  C   UNL     1     -10.312   3.423   6.980  1.00  0.00     0.074 A 
ATOM     61  C   UNL     1     -10.017   4.218   5.797  1.00  0.00     0.031 C 
ATOM     62  C   UNL     1     -10.235   3.749   8.300  1.00  0.00     0.037 A 
BRANCH  49  63
ATOM     63  C   UNL     1      -6.605   7.680   6.835  1.00  0.00     0.058 A 
ATOM     64  C   UNL     1      -7.572   8.708   6.924  1.00  0.00     0.135 A 
ATOM     65  C   UNL     1      -6.003   7.528   5.567  1.00  0.00     0.135 A 
ATOM     66  F   UNL     1      -8.200   8.958   8.084  1.00  0.00    -0.206 F 
ATOM     67  C   UNL     1      -7.982   9.454   5.816  1.00  0.00     0.059 A 
ATOM     68  C   UNL     1      -6.359   8.297   4.462  1.00  0.00     0.059 A 
ATOM     69  F   UNL     1      -5.117   6.560   5.307  1.00  0.00    -0.206 F 
ATOM     70  C   UNL     1      -7.386   9.220   4.582  1.00  0.00     0.060 A 
BRANCH  70  71
ATOM     71  S   UNL     1      -8.005  10.073   3.120  1.00  0.00     0.124 S 
ATOM     72  O   UNL     1      -9.280   9.398   2.910  1.00  0.00    -0.237 OA
ATOM     73  O   UNL     1      -8.078  11.455   3.579  1.00  0.00    -0.237 OA
ATOM     74  O   UNL     1      -6.974   9.806   2.119  1.00  0.00    -0.744 OA
ENDBRANCH  70  71
ENDBRANCH  49  63
BRANCH  50  75
ATOM     75  C   UNL     1      -8.916   0.407   3.629  1.00  0.00     0.058 A 
ATOM     76  C   UNL     1     -10.176   0.304   3.020  1.00  0.00     0.135 A 
ATOM     77  C   UNL     1      -7.800   0.095   2.824  1.00  0.00     0.135 A 
ATOM     78  F   UNL     1     -11.285   0.604   3.711  1.00  0.00    -0.206 F 
ATOM     79  C   UNL     1     -10.322  -0.053   1.678  1.00  0.00     0.059 A 
ATOM     80  C   UNL     1      -7.921  -0.274   1.487  1.00  0.00     0.059 A 
ATOM     81  F   UNL     1      -6.551   0.223   3.299  1.00  0.00    -0.206 F 
ATOM     82  C   UNL     1      -9.186  -0.323   0.914  1.00  0.00     0.060 A 
BRANCH  82  83
ATOM     83  S   UNL     1      -9.365  -0.625  -0.859  1.00  0.00     0.124 S 
ATOM     84  O   UNL     1     -10.028  -1.924  -0.876  1.00  0.00    -0.237 OA
ATOM     85  O   UNL     1     -10.177   0.511  -1.282  1.00  0.00    -0.237 OA
ATOM     86  O   UNL     1      -7.987  -0.620  -1.343  1.00  0.00    -0.744 OA
ENDBRANCH  82  83
ENDBRANCH  50  75
BRANCH  62  87
ATOM     87  C   UNL     1     -10.736   2.759   9.304  1.00  0.00     0.058 A 
ATOM     88  C   UNL     1     -10.120   1.534   9.599  1.00  0.00     0.135 A 
ATOM     89  C   UNL     1     -11.861   3.117  10.064  1.00  0.00     0.135 A 
ATOM     90  F   UNL     1      -8.999   1.157   8.966  1.00  0.00    -0.206 F 
ATOM     91  C   UNL     1     -10.618   0.686  10.590  1.00  0.00     0.059 A 
ATOM     92  C   UNL     1     -12.359   2.302  11.074  1.00  0.00     0.059 A 
ATOM     93  F   UNL     1     -12.465   4.298   9.855  1.00  0.00    -0.206 F 
ATOM     94  C   UNL     1     -11.738   1.081  11.325  1.00  0.00     0.060 A 
BRANCH  94  95
ATOM     95  S   UNL     1     -12.333   0.026  12.665  1.00  0.00     0.124 S 
ATOM     96  O   UNL     1     -12.973  -1.064  11.936  1.00  0.00    -0.237 OA
ATOM     97  O   UNL     1     -11.101  -0.319  13.370  1.00  0.00    -0.237 OA
ATOM     98  O   UNL     1     -13.240   0.898  13.408  1.00  0.00    -0.744 OA
ENDBRANCH  94  95
ENDBRANCH  62  87
ENDBRANCH  36  37
ENDBRANCH  28  31
ENDBRANCH  26  27
ENDBRANCH  25  26
ENDBRANCH   1  25
TORSDOF 18
