REMARK SMILES C[C@H](C(=O)NCCCCCCNC(=O)c1ccc(-c2c3nc(c(-c4c(F)cc(S(=O)(=O)[O-])cc4F)c4ccc([nH]4)c(-c4c(F)cc(S(=O)(=O)[O-])cc4F)c4nc(c(-c5c(F)cc(S(=O)(=O)[O-])cc5F)c5ccc2[nH]5)C=C4)C=C3)cc1)N1C(=O)C[C@@H](N2C(=O)/C(=C/c3ccccc3)SC2=S)C1=O
REMARK SMILES IDX 8 1 7 2 6 3 5 4 3 5 4 6 2 8 1 9 81 10 82 11 100 12 83 13
REMARK SMILES IDX 84 14 85 15 101 16 86 17 87 18 98 19 88 20 89 21 97 22 99 23
REMARK SMILES IDX 90 24 91 25 92 26 96 27 93 28 95 29 94 30 9 31 10 32 11 33
REMARK SMILES IDX 12 34 13 35 14 37 15 38 16 39 80 40 17 41 79 42 18 43 19 44
REMARK SMILES IDX 20 45 73 46 21 47 78 48 72 49 74 50 22 51 77 52 71 53 70 54
REMARK SMILES IDX 23 56 57 57 36 58 56 59 37 60 40 61 55 62 75 63 38 64 39 65
REMARK SMILES IDX 54 67 76 68 41 69 24 70 25 71 34 72 26 73 27 74 33 75 35 76
REMARK SMILES IDX 28 77 29 78 30 79 31 80 32 81 58 82 59 83 68 84 60 85 61 86
REMARK SMILES IDX 67 87 69 88 62 89 63 90 64 91 65 92 66 93 42 94 43 95 52 96
REMARK SMILES IDX 44 97 45 98 51 99 53 100 46 101 47 102 48 103 49 104 50 105
REMARK H PARENT 5 7 12 36 74 55 40 66
REMARK Flexibility Score: inf
ROOT
ATOM      1  C   UNL     1      -1.191   3.604   0.684  1.00  0.00     0.002 C 
ENDROOT
BRANCH   1   2
ATOM      2  C   UNL     1      -1.169   2.390  -0.242  1.00  0.00     0.021 C 
BRANCH   2   3
ATOM      3  C   UNL     1       0.239   2.014  -0.720  1.00  0.00     0.116 C 
BRANCH   3   4
ATOM      4  N   UNL     1       0.812   1.045   0.196  1.00  0.00    -0.354 N 
ATOM      5  C   UNL     1       0.762  -0.320   0.161  1.00  0.00     0.243 C 
ATOM      6  O   UNL     1       1.022  -0.908   1.215  1.00  0.00    -0.273 OA
ATOM      7  H   UNL     1       1.310   1.428   0.955  1.00  0.00     0.163 HD
BRANCH   5   8
ATOM      8  C   UNL     1       0.361  -1.079  -1.129  1.00  0.00     0.179 C 
ATOM      9  C   UNL     1       1.192  -2.367  -1.173  1.00  0.00     0.042 C 
BRANCH   8  10
ATOM     10  N   UNL     1      -1.097  -1.277  -1.189  1.00  0.00    -0.268 N 
ATOM     11  C   UNL     1      -1.931  -0.342  -1.740  1.00  0.00     0.232 C 
ATOM     12  C   UNL     1      -1.798  -2.434  -0.952  1.00  0.00     0.253 C 
ATOM     13  O   UNL     1      -1.640   0.599  -2.456  1.00  0.00    -0.274 OA
ATOM     14  C   UNL     1      -3.335  -0.666  -1.352  1.00  0.00     0.136 C 
ATOM     15  C   UNL     1      -3.270  -2.175  -1.272  1.00  0.00     0.191 C 
ATOM     16  O   UNL     1      -1.364  -3.542  -0.670  1.00  0.00    -0.272 OA
BRANCH  15  17
ATOM     17  N   UNL     1      -3.768  -2.820  -2.505  1.00  0.00    -0.280 N 
ATOM     18  C   UNL     1      -3.138  -2.569  -3.712  1.00  0.00     0.266 C 
ATOM     19  C   UNL     1      -4.948  -3.534  -2.588  1.00  0.00     0.149 C 
ATOM     20  O   UNL     1      -2.033  -2.065  -3.854  1.00  0.00    -0.268 OA
ATOM     21  C   UNL     1      -3.986  -2.989  -4.851  1.00  0.00     0.081 C 
ATOM     22  S   UNL     1      -5.320  -3.892  -4.274  1.00  0.00    -0.054 SA
ATOM     23  S   UNL     1      -5.967  -3.989  -1.349  1.00  0.00    -0.052 S 
ATOM     24  C   UNL     1      -3.676  -2.630  -6.103  1.00  0.00     0.029 C 
BRANCH  24  25
ATOM     25  C   UNL     1      -4.422  -2.972  -7.316  1.00  0.00    -0.024 A 
ATOM     26  C   UNL     1      -3.772  -3.702  -8.318  1.00  0.00     0.008 A 
ATOM     27  C   UNL     1      -5.745  -2.561  -7.515  1.00  0.00     0.008 A 
ATOM     28  C   UNL     1      -4.450  -4.056  -9.484  1.00  0.00     0.001 A 
ATOM     29  C   UNL     1      -6.422  -2.918  -8.683  1.00  0.00     0.001 A 
ATOM     30  C   UNL     1      -5.777  -3.671  -9.662  1.00  0.00     0.000 A 
ENDBRANCH  24  25
ENDBRANCH  15  17
ENDBRANCH   8  10
ENDBRANCH   5   8
ENDBRANCH   3   4
ENDBRANCH   2   3
ENDBRANCH   1   2
BRANCH   1  31
ATOM     31  C   UNL     1      -0.857   4.922  -0.022  1.00  0.00     0.002 C 
BRANCH  31  32
ATOM     32  C   UNL     1      -1.753   5.264  -1.218  1.00  0.00     0.021 C 
BRANCH  32  33
ATOM     33  C   UNL     1      -3.242   5.335  -0.891  1.00  0.00     0.116 C 
BRANCH  33  34
ATOM     34  N   UNL     1      -3.516   6.363   0.102  1.00  0.00    -0.352 N 
ATOM     35  C   UNL     1      -4.234   7.524  -0.031  1.00  0.00     0.251 C 
ATOM     36  H   UNL     1      -3.131   6.203   0.994  1.00  0.00     0.163 HD
ATOM     37  O   UNL     1      -4.122   8.415   0.806  1.00  0.00    -0.269 OA
BRANCH  35  38
ATOM     38  C   UNL     1      -5.144   7.691  -1.183  1.00  0.00     0.039 A 
ATOM     39  C   UNL     1      -5.171   8.912  -1.861  1.00  0.00     0.014 A 
ATOM     40  C   UNL     1      -5.985   6.646  -1.577  1.00  0.00     0.014 A 
ATOM     41  C   UNL     1      -6.011   9.068  -2.966  1.00  0.00     0.010 A 
ATOM     42  C   UNL     1      -6.763   6.778  -2.721  1.00  0.00     0.010 A 
ATOM     43  C   UNL     1      -6.794   7.994  -3.421  1.00  0.00    -0.014 A 
BRANCH  43  44
ATOM     44  C   UNL     1      -7.666   8.124  -4.616  1.00  0.00     0.031 A 
ATOM     45  C   UNL     1      -9.158   7.985  -4.476  1.00  0.00     0.074 A 
ATOM     46  C   UNL     1      -7.111   8.299  -5.831  1.00  0.00     0.049 A 
ATOM     47  N   UNL     1     -10.078   7.984  -5.405  1.00  0.00    -0.248 NA
ATOM     48  C   UNL     1      -9.682   7.791  -3.114  1.00  0.00     0.031 C 
ATOM     49  C   UNL     1      -5.674   8.404  -6.097  1.00  0.00     0.029 A 
ATOM     50  N   UNL     1      -7.686   8.407  -7.072  1.00  0.00    -0.354 N 
ATOM     51  C   UNL     1     -11.284   7.778  -4.745  1.00  0.00     0.074 A 
ATOM     52  C   UNL     1     -10.972   7.599  -3.344  1.00  0.00     0.031 C 
ATOM     53  C   UNL     1      -5.483   8.582  -7.414  1.00  0.00     0.029 A 
ATOM     54  C   UNL     1      -6.776   8.560  -8.091  1.00  0.00     0.049 A 
ATOM     55  H   UNL     1      -8.659   8.377  -7.219  1.00  0.00     0.167 HD
ATOM     56  C   UNL     1     -12.538   7.762  -5.256  1.00  0.00     0.037 A 
ATOM     57  C   UNL     1      -6.961   8.660  -9.422  1.00  0.00     0.037 A 
ATOM     58  C   UNL     1     -12.839   7.962  -6.651  1.00  0.00     0.049 A 
ATOM     59  C   UNL     1      -8.363   8.630  -9.969  1.00  0.00     0.074 A 
ATOM     60  C   UNL     1     -14.078   8.020  -7.263  1.00  0.00     0.029 A 
ATOM     61  N   UNL     1     -11.891   8.133  -7.650  1.00  0.00    -0.354 N 
ATOM     62  N   UNL     1      -9.497   8.495  -9.323  1.00  0.00    -0.248 NA
ATOM     63  C   UNL     1      -8.512   8.773 -11.423  1.00  0.00     0.031 C 
ATOM     64  C   UNL     1     -13.878   8.172  -8.639  1.00  0.00     0.029 A 
ATOM     65  C   UNL     1     -12.517   8.272  -8.878  1.00  0.00     0.049 A 
ATOM     66  H   UNL     1     -10.917   8.154  -7.507  1.00  0.00     0.167 HD
ATOM     67  C   UNL     1     -10.496   8.568 -10.288  1.00  0.00     0.074 A 
ATOM     68  C   UNL     1      -9.831   8.768 -11.560  1.00  0.00     0.031 C 
ATOM     69  C   UNL     1     -11.841   8.479 -10.135  1.00  0.00     0.037 A 
BRANCH  56  70
ATOM     70  C   UNL     1     -13.679   7.519  -4.304  1.00  0.00     0.058 A 
ATOM     71  C   UNL     1     -14.044   8.464  -3.331  1.00  0.00     0.135 A 
ATOM     72  C   UNL     1     -14.436   6.339  -4.384  1.00  0.00     0.135 A 
ATOM     73  F   UNL     1     -13.347   9.603  -3.198  1.00  0.00    -0.206 F 
ATOM     74  C   UNL     1     -15.095   8.232  -2.449  1.00  0.00     0.059 A 
ATOM     75  C   UNL     1     -15.513   6.101  -3.534  1.00  0.00     0.059 A 
ATOM     76  F   UNL     1     -14.133   5.401  -5.295  1.00  0.00    -0.206 F 
ATOM     77  C   UNL     1     -15.824   7.047  -2.558  1.00  0.00     0.060 A 
BRANCH  77  78
ATOM     78  S   UNL     1     -17.183   6.763  -1.406  1.00  0.00     0.124 S 
ATOM     79  O   UNL     1     -16.462   6.506  -0.163  1.00  0.00    -0.237 OA
ATOM     80  O   UNL     1     -17.912   8.026  -1.466  1.00  0.00    -0.237 OA
ATOM     81  O   UNL     1     -17.879   5.613  -1.976  1.00  0.00    -0.744 OA
ENDBRANCH  77  78
ENDBRANCH  56  70
BRANCH  57  82
ATOM     82  C   UNL     1      -5.789   8.819 -10.324  1.00  0.00     0.058 A 
ATOM     83  C   UNL     1      -5.551  10.029 -10.993  1.00  0.00     0.135 A 
ATOM     84  C   UNL     1      -4.872   7.774 -10.521  1.00  0.00     0.135 A 
ATOM     85  F   UNL     1      -6.401  11.056 -10.843  1.00  0.00    -0.206 F 
ATOM     86  C   UNL     1      -4.457  10.194 -11.837  1.00  0.00     0.059 A 
ATOM     87  C   UNL     1      -3.756   7.923 -11.337  1.00  0.00     0.059 A 
ATOM     88  F   UNL     1      -5.044   6.601  -9.891  1.00  0.00    -0.206 F 
ATOM     89  C   UNL     1      -3.562   9.135 -11.999  1.00  0.00     0.060 A 
BRANCH  89  90
ATOM     90  S   UNL     1      -2.118   9.378 -13.056  1.00  0.00     0.124 S 
ATOM     91  O   UNL     1      -2.724   9.396 -14.382  1.00  0.00    -0.237 OA
ATOM     92  O   UNL     1      -1.597  10.653 -12.573  1.00  0.00    -0.237 OA
ATOM     93  O   UNL     1      -1.285   8.216 -12.758  1.00  0.00    -0.744 OA
ENDBRANCH  89  90
ENDBRANCH  57  82
BRANCH  69  94
ATOM     94  C   UNL     1     -12.692   8.640 -11.365  1.00  0.00     0.058 A 
ATOM     95  C   UNL     1     -12.757   7.649 -12.357  1.00  0.00     0.135 A 
ATOM     96  C   UNL     1     -13.500   9.778 -11.523  1.00  0.00     0.135 A 
ATOM     97  F   UNL     1     -12.001   6.544 -12.259  1.00  0.00    -0.206 F 
ATOM     98  C   UNL     1     -13.575   7.792 -13.473  1.00  0.00     0.059 A 
ATOM     99  C   UNL     1     -14.348   9.928 -12.615  1.00  0.00     0.059 A 
ATOM    100  F   UNL     1     -13.485  10.752 -10.599  1.00  0.00    -0.206 F 
ATOM    101  C   UNL     1     -14.370   8.933 -13.591  1.00  0.00     0.060 A 
BRANCH 101 102
ATOM    102  S   UNL     1     -15.456   9.086 -15.026  1.00  0.00     0.124 S 
ATOM    103  O   UNL     1     -14.497   9.360 -16.092  1.00  0.00    -0.237 OA
ATOM    104  O   UNL     1     -16.098   7.777 -15.071  1.00  0.00    -0.237 OA
ATOM    105  O   UNL     1     -16.334  10.197 -14.671  1.00  0.00    -0.744 OA
ENDBRANCH 101 102
ENDBRANCH  69  94
ENDBRANCH  43  44
ENDBRANCH  35  38
ENDBRANCH  33  34
ENDBRANCH  32  33
ENDBRANCH  31  32
ENDBRANCH   1  31
TORSDOF 19
