REMARK SMILES CC1(C)CSC[C@H]([NH2+][C@H](C(=O)NCCCCCCNC(=O)c2ccc(-c3c4nc(c(-c5c(F)cc(S(=O)(=O)[O-])cc5F)c5ccc([nH]5)c(-c5c(F)cc(S(=O)(=O)[O-])cc5F)c5nc(c(-c6c(F)cc(S(=O)(=O)[O-])cc6F)c6ccc3[nH]6)C=C5)C=C4)cc2)c2ccccc2)C1
REMARK SMILES IDX 16 1 15 2 14 3 13 4 12 5 10 6 11 7 9 9 8 10 7 13 1 14 2 15
REMARK SMILES IDX 3 16 4 17 94 18 5 19 6 20 88 21 89 22 93 23 90 24 92 25
REMARK SMILES IDX 91 26 17 27 18 28 19 29 20 30 21 32 22 33 23 34 87 35 24 36
REMARK SMILES IDX 86 37 25 38 26 39 27 40 80 41 28 42 85 43 79 44 81 45 29 46
REMARK SMILES IDX 84 47 78 48 77 49 30 51 64 52 43 53 63 54 44 55 47 56 62 57
REMARK SMILES IDX 82 58 45 59 46 60 61 62 83 63 48 64 31 65 32 66 41 67 33 68
REMARK SMILES IDX 34 69 40 70 42 71 35 72 36 73 37 74 38 75 39 76 65 77 66 78
REMARK SMILES IDX 75 79 67 80 68 81 74 82 76 83 69 84 70 85 71 86 72 87 73 88
REMARK SMILES IDX 49 89 50 90 59 91 51 92 52 93 58 94 60 95 53 96 54 97 55 98
REMARK SMILES IDX 56 99 57 100
REMARK H PARENT 12 8 8 11 8 12 19 31 81 50 47 61
REMARK Flexibility Score: inf
ROOT
ATOM      1  C   UNL     1       1.759   6.287  -4.376  1.00  0.00     0.002 C 
ENDROOT
BRANCH   1   2
ATOM      2  C   UNL     1       1.776   7.076  -3.066  1.00  0.00     0.002 C 
BRANCH   2   3
ATOM      3  C   UNL     1       1.002   6.446  -1.898  1.00  0.00     0.021 C 
BRANCH   3   4
ATOM      4  C   UNL     1       1.512   5.081  -1.441  1.00  0.00     0.116 C 
BRANCH   4   5
ATOM      5  N   UNL     1       2.898   5.144  -1.026  1.00  0.00    -0.351 N 
ATOM      6  C   UNL     1       3.656   4.219  -0.368  1.00  0.00     0.283 C 
ATOM      7  O   UNL     1       4.855   4.484  -0.232  1.00  0.00    -0.268 OA
ATOM      8  H   UNL     1       3.364   5.981  -1.252  1.00  0.00     0.163 HD
BRANCH   6   9
ATOM      9  C   UNL     1       3.006   2.926   0.172  1.00  0.00     0.304 C 
BRANCH   9  10
ATOM     10  N   UNL     1       2.713   1.898  -0.859  1.00  0.00    -0.329 N 
ATOM     11  H   UNL     1       2.502   1.038  -0.352  1.00  0.00     0.347 HD
ATOM     12  H   UNL     1       1.978   2.348  -1.404  1.00  0.00     0.347 HD
BRANCH  10  13
ATOM     13  C   UNL     1       3.693   1.528  -1.911  1.00  0.00     0.193 C 
ATOM     14  C   UNL     1       6.221   1.988  -3.870  1.00  0.00     0.012 C 
ATOM     15  C   UNL     1       4.759   2.347  -4.202  1.00  0.00    -0.021 C 
ATOM     16  C   UNL     1       4.785   3.634  -5.061  1.00  0.00     0.012 C 
ATOM     17  C   UNL     1       4.070   1.237  -5.008  1.00  0.00     0.076 C 
ATOM     18  C   UNL     1       3.958   2.666  -2.920  1.00  0.00     0.073 C 
ATOM     19  S   UNL     1       3.963  -0.320  -4.082  1.00  0.00    -0.155 SA
ATOM     20  C   UNL     1       3.069   0.296  -2.624  1.00  0.00     0.134 C 
ENDBRANCH  10  13
ENDBRANCH   9  10
BRANCH   9  21
ATOM     21  C   UNL     1       3.684   2.475   1.463  1.00  0.00     0.019 A 
ATOM     22  C   UNL     1       3.691   3.386   2.545  1.00  0.00     0.010 A 
ATOM     23  C   UNL     1       4.320   1.243   1.640  1.00  0.00     0.010 A 
ATOM     24  C   UNL     1       4.344   3.097   3.741  1.00  0.00     0.001 A 
ATOM     25  C   UNL     1       4.972   0.950   2.845  1.00  0.00     0.001 A 
ATOM     26  C   UNL     1       4.991   1.877   3.889  1.00  0.00     0.000 A 
ENDBRANCH   9  21
ENDBRANCH   6   9
ENDBRANCH   4   5
ENDBRANCH   3   4
ENDBRANCH   2   3
ENDBRANCH   1   2
BRANCH   1  27
ATOM     27  C   UNL     1       0.376   6.013  -4.964  1.00  0.00     0.021 C 
BRANCH  27  28
ATOM     28  C   UNL     1      -0.532   7.231  -5.088  1.00  0.00     0.116 C 
BRANCH  28  29
ATOM     29  N   UNL     1      -0.004   8.262  -5.966  1.00  0.00    -0.352 N 
ATOM     30  C   UNL     1      -0.706   9.084  -6.824  1.00  0.00     0.251 C 
ATOM     31  H   UNL     1       0.972   8.389  -5.946  1.00  0.00     0.163 HD
ATOM     32  O   UNL     1      -0.123   9.846  -7.575  1.00  0.00    -0.269 OA
BRANCH  30  33
ATOM     33  C   UNL     1      -2.184   8.988  -6.840  1.00  0.00     0.039 A 
ATOM     34  C   UNL     1      -2.837   8.779  -8.056  1.00  0.00     0.014 A 
ATOM     35  C   UNL     1      -2.907   9.040  -5.646  1.00  0.00     0.014 A 
ATOM     36  C   UNL     1      -4.215   8.547  -8.067  1.00  0.00     0.010 A 
ATOM     37  C   UNL     1      -4.264   8.736  -5.652  1.00  0.00     0.010 A 
ATOM     38  C   UNL     1      -4.933   8.487  -6.861  1.00  0.00    -0.014 A 
BRANCH  38  39
ATOM     39  C   UNL     1      -6.388   8.190  -6.827  1.00  0.00     0.031 A 
ATOM     40  C   UNL     1      -7.340   9.225  -6.292  1.00  0.00     0.074 A 
ATOM     41  C   UNL     1      -6.839   6.971  -7.183  1.00  0.00     0.049 A 
ATOM     42  N   UNL     1      -8.615   9.116  -6.025  1.00  0.00    -0.248 NA
ATOM     43  C   UNL     1      -6.771  10.546  -5.980  1.00  0.00     0.031 C 
ATOM     44  C   UNL     1      -6.012   5.870  -7.679  1.00  0.00     0.029 A 
ATOM     45  N   UNL     1      -8.108   6.447  -7.161  1.00  0.00    -0.354 N 
ATOM     46  C   UNL     1      -8.992  10.340  -5.485  1.00  0.00     0.074 A 
ATOM     47  C   UNL     1      -7.802  11.160  -5.420  1.00  0.00     0.031 C 
ATOM     48  C   UNL     1      -6.795   4.807  -7.926  1.00  0.00     0.029 A 
ATOM     49  C   UNL     1      -8.172   5.136  -7.571  1.00  0.00     0.049 A 
ATOM     50  H   UNL     1      -8.898   6.962  -6.879  1.00  0.00     0.167 HD
ATOM     51  C   UNL     1     -10.223  10.752  -5.097  1.00  0.00     0.037 A 
ATOM     52  C   UNL     1      -9.221   4.292  -7.639  1.00  0.00     0.037 A 
ATOM     53  C   UNL     1     -11.411   9.948  -5.208  1.00  0.00     0.049 A 
ATOM     54  C   UNL     1     -10.585   4.780  -7.231  1.00  0.00     0.074 A 
ATOM     55  C   UNL     1     -12.715  10.291  -4.896  1.00  0.00     0.029 A 
ATOM     56  N   UNL     1     -11.442   8.645  -5.681  1.00  0.00    -0.354 N 
ATOM     57  N   UNL     1     -10.931   5.953  -6.757  1.00  0.00    -0.248 NA
ATOM     58  C   UNL     1     -11.701   3.835  -7.370  1.00  0.00     0.031 C 
ATOM     59  C   UNL     1     -13.531   9.185  -5.154  1.00  0.00     0.029 A 
ATOM     60  C   UNL     1     -12.741   8.167  -5.665  1.00  0.00     0.049 A 
ATOM     61  H   UNL     1     -10.656   8.134  -5.983  1.00  0.00     0.167 HD
ATOM     62  C   UNL     1     -12.308   5.898  -6.573  1.00  0.00     0.074 A 
ATOM     63  C   UNL     1     -12.732   4.577  -6.989  1.00  0.00     0.031 C 
ATOM     64  C   UNL     1     -13.146   6.856  -6.106  1.00  0.00     0.037 A 
BRANCH  51  65
ATOM     65  C   UNL     1     -10.342  12.136  -4.523  1.00  0.00     0.058 A 
ATOM     66  C   UNL     1     -10.200  13.280  -5.325  1.00  0.00     0.135 A 
ATOM     67  C   UNL     1     -10.617  12.322  -3.159  1.00  0.00     0.135 A 
ATOM     68  F   UNL     1      -9.920  13.158  -6.633  1.00  0.00    -0.206 F 
ATOM     69  C   UNL     1     -10.289  14.559  -4.789  1.00  0.00     0.059 A 
ATOM     70  C   UNL     1     -10.738  13.594  -2.606  1.00  0.00     0.059 A 
ATOM     71  F   UNL     1     -10.761  11.263  -2.347  1.00  0.00    -0.206 F 
ATOM     72  C   UNL     1     -10.555  14.706  -3.427  1.00  0.00     0.060 A 
BRANCH  72  73
ATOM     73  S   UNL     1     -10.660  16.373  -2.742  1.00  0.00     0.124 S 
ATOM     74  O   UNL     1      -9.251  16.753  -2.688  1.00  0.00    -0.237 OA
ATOM     75  O   UNL     1     -11.465  17.072  -3.739  1.00  0.00    -0.237 OA
ATOM     76  O   UNL     1     -11.306  16.169  -1.450  1.00  0.00    -0.744 OA
ENDBRANCH  72  73
ENDBRANCH  51  65
BRANCH  52  77
ATOM     77  C   UNL     1      -9.028   2.905  -8.139  1.00  0.00     0.058 A 
ATOM     78  C   UNL     1      -9.507   2.523  -9.401  1.00  0.00     0.135 A 
ATOM     79  C   UNL     1      -8.354   1.938  -7.376  1.00  0.00     0.135 A 
ATOM     80  F   UNL     1     -10.163   3.411 -10.165  1.00  0.00    -0.206 F 
ATOM     81  C   UNL     1      -9.341   1.230  -9.885  1.00  0.00     0.059 A 
ATOM     82  C   UNL     1      -8.156   0.644  -7.848  1.00  0.00     0.059 A 
ATOM     83  F   UNL     1      -7.862   2.258  -6.170  1.00  0.00    -0.206 F 
ATOM     84  C   UNL     1      -8.662   0.297  -9.100  1.00  0.00     0.060 A 
BRANCH  84  85
ATOM     85  S   UNL     1      -8.408  -1.367  -9.756  1.00  0.00     0.124 S 
ATOM     86  O   UNL     1      -9.737  -1.947  -9.609  1.00  0.00    -0.237 OA
ATOM     87  O   UNL     1      -7.976  -1.095 -11.124  1.00  0.00    -0.237 OA
ATOM     88  O   UNL     1      -7.377  -1.917  -8.881  1.00  0.00    -0.744 OA
ENDBRANCH  84  85
ENDBRANCH  52  77
BRANCH  64  89
ATOM     89  C   UNL     1     -14.613   6.536  -6.064  1.00  0.00     0.058 A 
ATOM     90  C   UNL     1     -15.159   5.698  -5.081  1.00  0.00     0.135 A 
ATOM     91  C   UNL     1     -15.492   7.139  -6.979  1.00  0.00     0.135 A 
ATOM     92  F   UNL     1     -14.359   5.093  -4.189  1.00  0.00    -0.206 F 
ATOM     93  C   UNL     1     -16.527   5.458  -5.013  1.00  0.00     0.059 A 
ATOM     94  C   UNL     1     -16.866   6.931  -6.915  1.00  0.00     0.059 A 
ATOM     95  F   UNL     1     -15.019   7.957  -7.933  1.00  0.00    -0.206 F 
ATOM     96  C   UNL     1     -17.373   6.082  -5.932  1.00  0.00     0.060 A 
BRANCH  96  97
ATOM     97  S   UNL     1     -19.152   5.806  -5.800  1.00  0.00     0.124 S 
ATOM     98  O   UNL     1     -19.282   4.462  -6.352  1.00  0.00    -0.237 OA
ATOM     99  O   UNL     1     -19.383   5.926  -4.363  1.00  0.00    -0.237 OA
ATOM    100  O   UNL     1     -19.723   6.877  -6.611  1.00  0.00    -0.744 OA
ENDBRANCH  96  97
ENDBRANCH  64  89
ENDBRANCH  38  39
ENDBRANCH  30  33
ENDBRANCH  28  29
ENDBRANCH  27  28
ENDBRANCH   1  27
TORSDOF 19
