REMARK SMILES CC1=C(C(=O)NCCCCCCNC(=O)c2ccc(-c3c4nc(c(-c5c(F)cc(S(=O)(=O)[O-])cc5F)c5ccc([nH]5)c(-c5c(F)cc(S(=O)(=O)[O-])cc5F)c5nc(c(-c6c(F)cc(S(=O)(=O)[O-])cc6F)c6ccc3[nH]6)C=C5)C=C4)cc2)N2C(=O)[C@H](NC(=O)c3c(Cl)c(C(F)(F)F)nn3C)[C@@H]2SC1
REMARK SMILES IDX 9 1 8 2 7 3 6 4 4 5 5 6 3 8 1 9 2 10 102 11 82 12 101 13
REMARK SMILES IDX 83 14 100 15 84 16 85 17 86 18 87 19 88 21 89 22 90 23 98 24
REMARK SMILES IDX 91 25 92 26 97 27 99 28 93 29 94 30 95 31 96 32 10 33 11 34
REMARK SMILES IDX 12 35 13 36 14 37 15 39 16 40 17 41 81 42 18 43 80 44 19 45
REMARK SMILES IDX 20 46 21 47 74 48 22 49 79 50 73 51 75 52 23 53 78 54 72 55
REMARK SMILES IDX 71 56 24 58 58 59 37 60 57 61 38 62 41 63 56 64 76 65 39 66
REMARK SMILES IDX 40 67 55 69 77 70 42 71 25 72 26 73 35 74 27 75 28 76 34 77
REMARK SMILES IDX 36 78 29 79 30 80 31 81 32 82 33 83 59 84 60 85 69 86 61 87
REMARK SMILES IDX 62 88 68 89 70 90 63 91 64 92 65 93 66 94 67 95 43 96 44 97
REMARK SMILES IDX 53 98 45 99 46 100 52 101 54 102 47 103 48 104 49 105 50 106
REMARK SMILES IDX 51 107
REMARK H PARENT 6 7 86 20 13 38 75 57 41 68
REMARK Flexibility Score: inf
ROOT
ATOM      1  C   UNL     1      -1.192  -3.682  -0.400  1.00  0.00     0.002 C 
ENDROOT
BRANCH   1   2
ATOM      2  C   UNL     1      -1.118  -2.426   0.477  1.00  0.00     0.021 C 
BRANCH   2   3
ATOM      3  C   UNL     1      -0.387  -1.210  -0.089  1.00  0.00     0.116 C 
BRANCH   3   4
ATOM      4  N   UNL     1      -0.880  -0.694  -1.353  1.00  0.00    -0.351 N 
ATOM      5  C   UNL     1      -0.662   0.521  -1.961  1.00  0.00     0.268 C 
ATOM      6  O   UNL     1      -0.954   0.630  -3.149  1.00  0.00    -0.268 OA
ATOM      7  H   UNL     1      -1.462  -1.310  -1.854  1.00  0.00     0.163 HD
BRANCH   5   8
ATOM      8  C   UNL     1      -0.158   1.710  -1.162  1.00  0.00     0.110 C 
ATOM      9  C   UNL     1       2.057   0.607  -0.596  1.00  0.00     0.043 C 
ATOM     10  C   UNL     1       1.014   1.690  -0.474  1.00  0.00    -0.034 C 
ATOM     11  C   UNL     1       1.485   2.821   0.414  1.00  0.00     0.104 C 
ATOM     12  N   UNL     1      -0.851   2.892  -1.273  1.00  0.00    -0.290 N 
ATOM     13  S   UNL     1       1.099   4.440  -0.276  1.00  0.00    -0.129 SA
ATOM     14  C   UNL     1      -1.699   3.470  -2.159  1.00  0.00     0.253 C 
ATOM     15  C   UNL     1      -0.664   4.057  -0.437  1.00  0.00     0.181 C 
ATOM     16  O   UNL     1      -2.317   3.093  -3.124  1.00  0.00    -0.272 OA
ATOM     17  C   UNL     1      -1.449   4.878  -1.510  1.00  0.00     0.206 C 
BRANCH  17  18
ATOM     18  N   UNL     1      -0.642   5.838  -2.321  1.00  0.00    -0.336 N 
ATOM     19  C   UNL     1      -0.711   7.206  -2.407  1.00  0.00     0.271 C 
ATOM     20  H   UNL     1       0.050   5.422  -2.885  1.00  0.00     0.164 HD
ATOM     21  O   UNL     1       0.099   7.787  -3.124  1.00  0.00    -0.267 OA
BRANCH  19  22
ATOM     22  C   UNL     1      -1.739   7.902  -1.686  1.00  0.00     0.145 A 
ATOM     23  C   UNL     1      -2.691   8.767  -2.192  1.00  0.00     0.104 A 
ATOM     24  N   UNL     1      -1.899   7.970  -0.328  1.00  0.00    -0.261 N 
ATOM     25  Cl  UNL     1      -2.927   9.223  -3.812  1.00  0.00    -0.079 Cl
ATOM     26  C   UNL     1      -3.468   9.193  -1.088  1.00  0.00     0.185 A 
ATOM     27  N   UNL     1      -2.994   8.656   0.056  1.00  0.00    -0.166 NA
ATOM     28  C   UNL     1      -1.029   7.450   0.702  1.00  0.00     0.174 C 
BRANCH  26  29
ATOM     29  C   UNL     1      -4.650  10.114  -1.136  1.00  0.00     0.436 C 
ATOM     30  F   UNL     1      -4.291  11.385  -1.466  1.00  0.00    -0.164 F 
ATOM     31  F   UNL     1      -5.570   9.719  -2.058  1.00  0.00    -0.164 F 
ATOM     32  F   UNL     1      -5.316  10.199   0.048  1.00  0.00    -0.164 F 
ENDBRANCH  26  29
ENDBRANCH  19  22
ENDBRANCH  17  18
ENDBRANCH   5   8
ENDBRANCH   3   4
ENDBRANCH   2   3
ENDBRANCH   1   2
BRANCH   1  33
ATOM     33  C   UNL     1       0.082  -4.156  -1.106  1.00  0.00     0.002 C 
BRANCH  33  34
ATOM     34  C   UNL     1       1.334  -4.383  -0.256  1.00  0.00     0.021 C 
BRANCH  34  35
ATOM     35  C   UNL     1       1.186  -5.261   0.981  1.00  0.00     0.116 C 
BRANCH  35  36
ATOM     36  N   UNL     1       0.721  -6.605   0.690  1.00  0.00    -0.352 N 
ATOM     37  C   UNL     1       1.204  -7.820   1.119  1.00  0.00     0.251 C 
ATOM     38  H   UNL     1      -0.060  -6.655   0.094  1.00  0.00     0.163 HD
ATOM     39  O   UNL     1       0.706  -8.853   0.677  1.00  0.00    -0.269 OA
BRANCH  37  40
ATOM     40  C   UNL     1       2.335  -7.901   2.075  1.00  0.00     0.039 A 
ATOM     41  C   UNL     1       3.340  -8.846   1.842  1.00  0.00     0.014 A 
ATOM     42  C   UNL     1       2.408  -7.080   3.204  1.00  0.00     0.014 A 
ATOM     43  C   UNL     1       4.445  -8.921   2.697  1.00  0.00     0.010 A 
ATOM     44  C   UNL     1       3.542  -7.109   4.018  1.00  0.00     0.010 A 
ATOM     45  C   UNL     1       4.574  -8.029   3.773  1.00  0.00    -0.014 A 
BRANCH  45  46
ATOM     46  C   UNL     1       5.783  -8.036   4.640  1.00  0.00     0.031 A 
ATOM     47  C   UNL     1       5.674  -8.388   6.099  1.00  0.00     0.074 A 
ATOM     48  C   UNL     1       6.972  -7.659   4.129  1.00  0.00     0.049 A 
ATOM     49  N   UNL     1       6.601  -8.381   7.023  1.00  0.00    -0.248 NA
ATOM     50  C   UNL     1       4.341  -8.773   6.590  1.00  0.00     0.031 C 
ATOM     51  C   UNL     1       7.203  -7.247   2.743  1.00  0.00     0.029 A 
ATOM     52  N   UNL     1       8.207  -7.547   4.717  1.00  0.00    -0.354 N 
ATOM     53  C   UNL     1       5.964  -8.742   8.204  1.00  0.00     0.074 A 
ATOM     54  C   UNL     1       4.562  -8.916   7.889  1.00  0.00     0.031 C 
ATOM     55  C   UNL     1       8.501  -6.943   2.585  1.00  0.00     0.029 A 
ATOM     56  C   UNL     1       9.189  -7.104   3.862  1.00  0.00     0.049 A 
ATOM     57  H   UNL     1       8.375  -7.764   5.663  1.00  0.00     0.167 HD
ATOM     58  C   UNL     1       6.500  -8.930   9.435  1.00  0.00     0.037 A 
ATOM     59  C   UNL     1      10.494  -6.847   4.081  1.00  0.00     0.037 A 
ATOM     60  C   UNL     1       7.900  -8.782   9.739  1.00  0.00     0.049 A 
ATOM     61  C   UNL     1      11.071  -7.075   5.451  1.00  0.00     0.074 A 
ATOM     62  C   UNL     1       8.549  -9.017  10.939  1.00  0.00     0.029 A 
ATOM     63  N   UNL     1       8.867  -8.359   8.839  1.00  0.00    -0.354 N 
ATOM     64  N   UNL     1      10.465  -7.480   6.542  1.00  0.00    -0.248 NA
ATOM     65  C   UNL     1      12.508  -6.821   5.619  1.00  0.00     0.031 C 
ATOM     66  C   UNL     1       9.902  -8.695  10.775  1.00  0.00     0.029 A 
ATOM     67  C   UNL     1      10.104  -8.305   9.461  1.00  0.00     0.049 A 
ATOM     68  H   UNL     1       8.699  -8.131   7.896  1.00  0.00     0.167 HD
ATOM     69  C   UNL     1      11.450  -7.550   7.520  1.00  0.00     0.074 A 
ATOM     70  C   UNL     1      12.694  -7.156   6.889  1.00  0.00     0.031 C 
ATOM     71  C   UNL     1      11.335  -7.910   8.822  1.00  0.00     0.037 A 
BRANCH  58  72
ATOM     72  C   UNL     1       5.562  -9.313  10.549  1.00  0.00     0.058 A 
ATOM     73  C   UNL     1       4.956 -10.579  10.601  1.00  0.00     0.135 A 
ATOM     74  C   UNL     1       5.279  -8.410  11.586  1.00  0.00     0.135 A 
ATOM     75  F   UNL     1       5.182 -11.477   9.629  1.00  0.00    -0.206 F 
ATOM     76  C   UNL     1       4.071 -10.921  11.618  1.00  0.00     0.059 A 
ATOM     77  C   UNL     1       4.419  -8.741  12.630  1.00  0.00     0.059 A 
ATOM     78  F   UNL     1       5.834  -7.188  11.589  1.00  0.00    -0.206 F 
ATOM     79  C   UNL     1       3.804  -9.992  12.625  1.00  0.00     0.060 A 
BRANCH  79  80
ATOM     80  S   UNL     1       2.636 -10.441  13.927  1.00  0.00     0.124 S 
ATOM     81  O   UNL     1       1.363 -10.333  13.222  1.00  0.00    -0.237 OA
ATOM     82  O   UNL     1       3.057 -11.795  14.273  1.00  0.00    -0.237 OA
ATOM     83  O   UNL     1       2.871  -9.432  14.956  1.00  0.00    -0.744 OA
ENDBRANCH  79  80
ENDBRANCH  58  72
BRANCH  59  84
ATOM     84  C   UNL     1      11.346  -6.367   2.962  1.00  0.00     0.058 A 
ATOM     85  C   UNL     1      12.297  -7.209   2.367  1.00  0.00     0.135 A 
ATOM     86  C   UNL     1      11.201  -5.072   2.440  1.00  0.00     0.135 A 
ATOM     87  F   UNL     1      12.477  -8.453   2.836  1.00  0.00    -0.206 F 
ATOM     88  C   UNL     1      13.078  -6.784   1.297  1.00  0.00     0.059 A 
ATOM     89  C   UNL     1      11.954  -4.632   1.357  1.00  0.00     0.059 A 
ATOM     90  F   UNL     1      10.293  -4.234   2.964  1.00  0.00    -0.206 F 
ATOM     91  C   UNL     1      12.895  -5.495   0.795  1.00  0.00     0.060 A 
BRANCH  91  92
ATOM     92  S   UNL     1      13.861  -4.978  -0.641  1.00  0.00     0.124 S 
ATOM     93  O   UNL     1      15.176  -4.767  -0.049  1.00  0.00    -0.237 OA
ATOM     94  O   UNL     1      13.735  -6.132  -1.526  1.00  0.00    -0.237 OA
ATOM     95  O   UNL     1      13.169  -3.774  -1.093  1.00  0.00    -0.744 OA
ENDBRANCH  91  92
ENDBRANCH  59  84
BRANCH  71  96
ATOM     96  C   UNL     1      12.589  -7.920   9.652  1.00  0.00     0.058 A 
ATOM     97  C   UNL     1      13.198  -6.731  10.081  1.00  0.00     0.135 A 
ATOM     98  C   UNL     1      13.159  -9.136  10.065  1.00  0.00     0.135 A 
ATOM     99  F   UNL     1      12.697  -5.543   9.708  1.00  0.00    -0.206 F 
ATOM    100  C   UNL     1      14.340  -6.746  10.876  1.00  0.00     0.059 A 
ATOM    101  C   UNL     1      14.286  -9.174  10.880  1.00  0.00     0.059 A 
ATOM    102  F   UNL     1      12.610 -10.302   9.689  1.00  0.00    -0.206 F 
ATOM    103  C   UNL     1      14.876  -7.973  11.271  1.00  0.00     0.060 A 
BRANCH 103 104
ATOM    104  S   UNL     1      16.337  -7.980  12.333  1.00  0.00     0.124 S 
ATOM    105  O   UNL     1      17.388  -7.624  11.386  1.00  0.00    -0.237 OA
ATOM    106  O   UNL     1      16.007  -6.962  13.326  1.00  0.00    -0.237 OA
ATOM    107  O   UNL     1      16.382  -9.348  12.839  1.00  0.00    -0.744 OA
ENDBRANCH 103 104
ENDBRANCH  71  96
ENDBRANCH  45  46
ENDBRANCH  37  40
ENDBRANCH  35  36
ENDBRANCH  34  35
ENDBRANCH  33  34
ENDBRANCH   1  33
TORSDOF 19
