REMARK SMILES C=CC[N@@H+](CC(=O)NCCCCCCNC(=O)c1ccc(-c2c3nc(c(-c4c(F)cc(S(=O)(=O)[O-])cc4F)c4ccc([nH]4)c(-c4c(F)cc(S(=O)(=O)[O-])cc4F)c4nc(c(-c5c(F)cc(S(=O)(=O)[O-])cc5F)c5ccc2[nH]5)C=C4)C=C3)cc1)C[C@H]1CNC(=O)O1
REMARK SMILES IDX 11 1 10 2 9 3 8 4 6 5 7 6 5 8 4 9 3 11 2 12 1 13 84 14 85 15
REMARK SMILES IDX 86 16 90 17 87 18 88 19 89 21 12 22 13 23 14 24 15 25 16 26
REMARK SMILES IDX 17 28 18 29 19 30 83 31 20 32 82 33 21 34 22 35 23 36 76 37
REMARK SMILES IDX 24 38 81 39 75 40 77 41 25 42 80 43 74 44 73 45 26 47 60 48
REMARK SMILES IDX 39 49 59 50 40 51 43 52 58 53 78 54 41 55 42 56 57 58 79 59
REMARK SMILES IDX 44 60 27 61 28 62 37 63 29 64 30 65 36 66 38 67 31 68 32 69
REMARK SMILES IDX 33 70 34 71 35 72 61 73 62 74 71 75 63 76 64 77 70 78 72 79
REMARK SMILES IDX 65 80 66 81 67 82 68 83 69 84 45 85 46 86 55 87 47 88 48 89
REMARK SMILES IDX 54 90 56 91 49 92 50 93 51 94 52 95 53 96
REMARK H PARENT 8 7 4 10 87 20 15 27 77 46 43 57
REMARK Flexibility Score: inf
ROOT
ATOM      1  C   UNL     1       2.266  -2.357   2.350  1.00  0.00     0.002 C 
ENDROOT
BRANCH   1   2
ATOM      2  C   UNL     1       1.617  -1.348   1.405  1.00  0.00     0.021 C 
BRANCH   2   3
ATOM      3  C   UNL     1       1.143  -1.859   0.034  1.00  0.00     0.116 C 
BRANCH   3   4
ATOM      4  N   UNL     1      -0.112  -2.582   0.085  1.00  0.00    -0.351 N 
ATOM      5  C   UNL     1      -1.401  -2.214  -0.177  1.00  0.00     0.275 C 
ATOM      6  O   UNL     1      -2.267  -3.095  -0.081  1.00  0.00    -0.269 OA
ATOM      7  H   UNL     1      -0.017  -3.522   0.364  1.00  0.00     0.163 HD
BRANCH   5   8
ATOM      8  C   UNL     1      -1.810  -0.813  -0.642  1.00  0.00     0.363 C 
BRANCH   8   9
ATOM      9  N   UNL     1      -1.804   0.293   0.344  1.00  0.00    -0.321 N 
ATOM     10  H   UNL     1      -2.482   0.978   0.010  1.00  0.00     0.348 HD
BRANCH   9  11
ATOM     11  C   UNL     1      -0.576   1.062   0.316  1.00  0.00     0.290 C 
BRANCH  11  12
ATOM     12  C   UNL     1      -0.556   2.365   1.051  1.00  0.00     0.025 C 
ATOM     13  C   UNL     1       0.267   2.607   2.082  1.00  0.00     0.010 C 
ENDBRANCH  11  12
ENDBRANCH   9  11
BRANCH   9  14
ATOM     14  C   UNL     1      -2.494   0.054   1.622  1.00  0.00     0.310 C 
BRANCH  14  15
ATOM     15  C   UNL     1      -1.750  -0.609   2.804  1.00  0.00     0.252 C 
ATOM     16  C   UNL     1      -2.607  -0.778   4.051  1.00  0.00     0.170 C 
ATOM     17  O   UNL     1      -1.351  -1.951   2.487  1.00  0.00    -0.438 OA
ATOM     18  N   UNL     1      -2.343  -2.119   4.454  1.00  0.00    -0.318 N 
ATOM     19  C   UNL     1      -1.656  -2.793   3.498  1.00  0.00     0.407 C 
ATOM     20  H   UNL     1      -2.624  -2.506   5.315  1.00  0.00     0.167 HD
ATOM     21  O   UNL     1      -1.345  -3.974   3.545  1.00  0.00    -0.225 OA
ENDBRANCH  14  15
ENDBRANCH   9  14
ENDBRANCH   8   9
ENDBRANCH   5   8
ENDBRANCH   3   4
ENDBRANCH   2   3
ENDBRANCH   1   2
BRANCH   1  22
ATOM     22  C   UNL     1       3.569  -2.973   1.848  1.00  0.00     0.002 C 
BRANCH  22  23
ATOM     23  C   UNL     1       4.594  -1.976   1.302  1.00  0.00     0.021 C 
BRANCH  23  24
ATOM     24  C   UNL     1       5.033  -0.901   2.294  1.00  0.00     0.116 C 
BRANCH  24  25
ATOM     25  N   UNL     1       5.791  -1.462   3.401  1.00  0.00    -0.352 N 
ATOM     26  C   UNL     1       7.127  -1.319   3.693  1.00  0.00     0.251 C 
ATOM     27  H   UNL     1       5.277  -2.020   4.028  1.00  0.00     0.163 HD
ATOM     28  O   UNL     1       7.662  -2.050   4.520  1.00  0.00    -0.269 OA
BRANCH  26  29
ATOM     29  C   UNL     1       7.915  -0.283   2.993  1.00  0.00     0.039 A 
ATOM     30  C   UNL     1       9.152  -0.618   2.435  1.00  0.00     0.014 A 
ATOM     31  C   UNL     1       7.421   1.019   2.883  1.00  0.00     0.014 A 
ATOM     32  C   UNL     1       9.864   0.341   1.710  1.00  0.00     0.010 A 
ATOM     33  C   UNL     1       8.093   1.947   2.096  1.00  0.00     0.010 A 
ATOM     34  C   UNL     1       9.325   1.622   1.506  1.00  0.00    -0.014 A 
BRANCH  34  35
ATOM     35  C   UNL     1      10.030   2.656   0.705  1.00  0.00     0.031 A 
ATOM     36  C   UNL     1      10.455   3.941   1.364  1.00  0.00     0.074 A 
ATOM     37  C   UNL     1      10.204   2.485  -0.620  1.00  0.00     0.049 A 
ATOM     38  N   UNL     1      10.939   5.029   0.824  1.00  0.00    -0.248 NA
ATOM     39  C   UNL     1      10.281   4.022   2.824  1.00  0.00     0.031 C 
ATOM     40  C   UNL     1       9.815   1.295  -1.380  1.00  0.00     0.029 A 
ATOM     41  N   UNL     1      10.736   3.323  -1.570  1.00  0.00    -0.354 N 
ATOM     42  C   UNL     1      11.108   5.928   1.871  1.00  0.00     0.074 A 
ATOM     43  C   UNL     1      10.622   5.279   3.068  1.00  0.00     0.031 C 
ATOM     44  C   UNL     1      10.132   1.475  -2.672  1.00  0.00     0.029 A 
ATOM     45  C   UNL     1      10.698   2.809  -2.845  1.00  0.00     0.049 A 
ATOM     46  H   UNL     1      11.108   4.209  -1.357  1.00  0.00     0.167 HD
ATOM     47  C   UNL     1      11.640   7.173   1.841  1.00  0.00     0.037 A 
ATOM     48  C   UNL     1      11.060   3.358  -4.022  1.00  0.00     0.037 A 
ATOM     49  C   UNL     1      12.140   7.802   0.646  1.00  0.00     0.049 A 
ATOM     50  C   UNL     1      11.619   4.758  -4.037  1.00  0.00     0.074 A 
ATOM     51  C   UNL     1      12.735   9.044   0.514  1.00  0.00     0.029 A 
ATOM     52  N   UNL     1      12.102   7.240  -0.622  1.00  0.00    -0.354 N 
ATOM     53  N   UNL     1      11.809   5.580  -3.033  1.00  0.00    -0.248 NA
ATOM     54  C   UNL     1      12.015   5.304  -5.343  1.00  0.00     0.031 C 
ATOM     55  C   UNL     1      13.008   9.255  -0.841  1.00  0.00     0.029 A 
ATOM     56  C   UNL     1      12.645   8.118  -1.544  1.00  0.00     0.049 A 
ATOM     57  H   UNL     1      11.742   6.348  -0.834  1.00  0.00     0.167 HD
ATOM     58  C   UNL     1      12.388   6.721  -3.579  1.00  0.00     0.074 A 
ATOM     59  C   UNL     1      12.513   6.485  -5.002  1.00  0.00     0.031 C 
ATOM     60  C   UNL     1      12.787   7.857  -2.956  1.00  0.00     0.037 A 
BRANCH  47  61
ATOM     61  C   UNL     1      11.704   7.938   3.135  1.00  0.00     0.058 A 
ATOM     62  C   UNL     1      12.555   7.549   4.183  1.00  0.00     0.135 A 
ATOM     63  C   UNL     1      10.927   9.092   3.321  1.00  0.00     0.135 A 
ATOM     64  F   UNL     1      13.311   6.445   4.068  1.00  0.00    -0.206 F 
ATOM     65  C   UNL     1      12.605   8.255   5.381  1.00  0.00     0.059 A 
ATOM     66  C   UNL     1      10.986   9.834   4.498  1.00  0.00     0.059 A 
ATOM     67  F   UNL     1      10.095   9.512   2.354  1.00  0.00    -0.206 F 
ATOM     68  C   UNL     1      11.816   9.397   5.528  1.00  0.00     0.060 A 
BRANCH  68  69
ATOM     69  S   UNL     1      11.893  10.299   7.090  1.00  0.00     0.124 S 
ATOM     70  O   UNL     1      11.205   9.379   7.990  1.00  0.00    -0.237 OA
ATOM     71  O   UNL     1      13.330  10.435   7.301  1.00  0.00    -0.237 OA
ATOM     72  O   UNL     1      11.183  11.541   6.801  1.00  0.00    -0.744 OA
ENDBRANCH  68  69
ENDBRANCH  47  61
BRANCH  48  73
ATOM     73  C   UNL     1      10.920   2.579  -5.283  1.00  0.00     0.058 A 
ATOM     74  C   UNL     1      12.052   2.137  -5.985  1.00  0.00     0.135 A 
ATOM     75  C   UNL     1       9.659   2.256  -5.809  1.00  0.00     0.135 A 
ATOM     76  F   UNL     1      13.280   2.427  -5.529  1.00  0.00    -0.206 F 
ATOM     77  C   UNL     1      11.941   1.418  -7.171  1.00  0.00     0.059 A 
ATOM     78  C   UNL     1       9.522   1.513  -6.978  1.00  0.00     0.059 A 
ATOM     79  F   UNL     1       8.544   2.641  -5.170  1.00  0.00    -0.206 F 
ATOM     80  C   UNL     1      10.670   1.108  -7.658  1.00  0.00     0.060 A 
BRANCH  80  81
ATOM     81  S   UNL     1      10.539   0.138  -9.176  1.00  0.00     0.124 S 
ATOM     82  O   UNL     1      10.982   1.100 -10.178  1.00  0.00    -0.237 OA
ATOM     83  O   UNL     1      11.448  -0.971  -8.908  1.00  0.00    -0.237 OA
ATOM     84  O   UNL     1       9.124  -0.218  -9.226  1.00  0.00    -0.744 OA
ENDBRANCH  80  81
ENDBRANCH  48  73
BRANCH  60  85
ATOM     85  C   UNL     1      13.462   8.916  -3.786  1.00  0.00     0.058 A 
ATOM     86  C   UNL     1      12.754   9.720  -4.691  1.00  0.00     0.135 A 
ATOM     87  C   UNL     1      14.829   9.188  -3.598  1.00  0.00     0.135 A 
ATOM     88  F   UNL     1      11.448   9.498  -4.914  1.00  0.00    -0.206 F 
ATOM     89  C   UNL     1      13.377  10.751  -5.388  1.00  0.00     0.059 A 
ATOM     90  C   UNL     1      15.465  10.232  -4.261  1.00  0.00     0.059 A 
ATOM     91  F   UNL     1      15.552   8.454  -2.737  1.00  0.00    -0.206 F 
ATOM     92  C   UNL     1      14.731  11.005  -5.158  1.00  0.00     0.060 A 
BRANCH  92  93
ATOM     93  S   UNL     1      15.508  12.390  -6.017  1.00  0.00     0.124 S 
ATOM     94  O   UNL     1      15.577  11.887  -7.385  1.00  0.00    -0.237 OA
ATOM     95  O   UNL     1      14.557  13.472  -5.786  1.00  0.00    -0.237 OA
ATOM     96  O   UNL     1      16.792  12.536  -5.337  1.00  0.00    -0.744 OA
ENDBRANCH  92  93
ENDBRANCH  60  85
ENDBRANCH  34  35
ENDBRANCH  26  29
ENDBRANCH  24  25
ENDBRANCH  23  24
ENDBRANCH  22  23
ENDBRANCH   1  22
TORSDOF 21
