REMARK SMILES COc1ccc(C(=O)/C=C/c2c(F)cccc2F)cc1CC(=O)NCCCCCCNC(=O)c1ccc(-c2c3nc(c(-c4c(F)cc(S(=O)(=O)[O-])cc4F)c4ccc([nH]4)c(-c4c(F)cc(S(=O)(=O)[O-])cc4F)c4nc(c(-c5c(F)cc(S(=O)(=O)[O-])cc5F)c5ccc2[nH]5)C=C4)C=C3)cc1
REMARK SMILES IDX 27 1 26 2 25 3 24 4 22 5 23 6 21 8 20 9 3 10 4 11 5 12 19 13
REMARK SMILES IDX 6 14 2 15 1 16 7 17 8 18 9 19 10 20 11 21 12 22 17 23 13 24
REMARK SMILES IDX 14 25 16 26 18 27 15 28 28 29 29 30 30 31 31 32 32 33 33 35
REMARK SMILES IDX 34 36 35 37 99 38 36 39 98 40 37 41 38 42 39 43 92 44 40 45
REMARK SMILES IDX 97 46 91 47 93 48 41 49 96 50 90 51 89 52 42 54 76 55 55 56
REMARK SMILES IDX 75 57 56 58 59 59 74 60 94 61 57 62 58 63 73 65 95 66 60 67
REMARK SMILES IDX 43 68 44 69 53 70 45 71 46 72 52 73 54 74 47 75 48 76 49 77
REMARK SMILES IDX 50 78 51 79 77 80 78 81 87 82 79 83 80 84 86 85 88 86 81 87
REMARK SMILES IDX 82 88 83 89 84 90 85 91 61 92 62 93 71 94 63 95 64 96 70 97
REMARK SMILES IDX 72 98 65 99 66 100 67 101 68 102 69 103
REMARK H PARENT 24 7 31 34 93 53 59 64
REMARK Flexibility Score: inf
ROOT
ATOM      1  C   UNL     1       3.237  -5.885  -0.493  1.00  0.00     0.002 C 
ENDROOT
BRANCH   1   2
ATOM      2  C   UNL     1       2.388  -4.636  -0.746  1.00  0.00     0.021 C 
BRANCH   2   3
ATOM      3  C   UNL     1       2.814  -3.447   0.113  1.00  0.00     0.116 C 
BRANCH   3   4
ATOM      4  N   UNL     1       4.087  -2.920  -0.338  1.00  0.00    -0.356 N 
ATOM      5  C   UNL     1       4.311  -1.758  -1.015  1.00  0.00     0.224 C 
ATOM      6  O   UNL     1       5.442  -1.506  -1.433  1.00  0.00    -0.275 OA
ATOM      7  H   UNL     1       4.881  -3.464  -0.132  1.00  0.00     0.163 HD
BRANCH   5   8
ATOM      8  C   UNL     1       3.163  -0.787  -1.191  1.00  0.00     0.139 C 
BRANCH   8   9
ATOM      9  C   UNL     1       2.083  -1.241  -2.147  1.00  0.00     0.004 A 
ATOM     10  C   UNL     1       0.718  -1.188  -1.836  1.00  0.00     0.122 A 
ATOM     11  C   UNL     1      -0.234  -1.614  -2.765  1.00  0.00     0.047 A 
ATOM     12  C   UNL     1       0.161  -2.041  -4.038  1.00  0.00     0.016 A 
ATOM     13  C   UNL     1       2.461  -1.738  -3.408  1.00  0.00     0.020 A 
ATOM     14  C   UNL     1       1.518  -2.095  -4.381  1.00  0.00     0.022 A 
BRANCH  10  15
ATOM     15  O   UNL     1       0.273  -0.928  -0.567  1.00  0.00    -0.496 OA
ATOM     16  C   UNL     1       0.234   0.462  -0.258  1.00  0.00     0.278 C 
ENDBRANCH  10  15
BRANCH  14  17
ATOM     17  C   UNL     1       1.895  -2.589  -5.743  1.00  0.00     0.185 C 
ATOM     18  O   UNL     1       1.055  -3.152  -6.443  1.00  0.00    -0.289 OA
BRANCH  17  19
ATOM     19  C   UNL     1       3.284  -2.462  -6.282  1.00  0.00     0.053 C 
ATOM     20  C   UNL     1       4.139  -1.472  -5.989  1.00  0.00     0.018 C 
BRANCH  20  21
ATOM     21  C   UNL     1       5.525  -1.412  -6.457  1.00  0.00     0.046 A 
ATOM     22  C   UNL     1       6.570  -1.859  -5.640  1.00  0.00     0.133 A 
ATOM     23  C   UNL     1       5.853  -0.808  -7.669  1.00  0.00     0.133 A 
ATOM     24  F   UNL     1       6.303  -2.456  -4.469  1.00  0.00    -0.206 F 
ATOM     25  C   UNL     1       7.904  -1.673  -6.001  1.00  0.00     0.040 A 
ATOM     26  C   UNL     1       7.183  -0.617  -8.045  1.00  0.00     0.040 A 
ATOM     27  F   UNL     1       4.886  -0.360  -8.483  1.00  0.00    -0.206 F 
ATOM     28  C   UNL     1       8.213  -1.039  -7.204  1.00  0.00     0.006 A 
ENDBRANCH  20  21
ENDBRANCH  17  19
ENDBRANCH  14  17
ENDBRANCH   8   9
ENDBRANCH   5   8
ENDBRANCH   3   4
ENDBRANCH   2   3
ENDBRANCH   1   2
BRANCH   1  29
ATOM     29  C   UNL     1       3.267  -6.340   0.970  1.00  0.00     0.002 C 
BRANCH  29  30
ATOM     30  C   UNL     1       1.886  -6.588   1.583  1.00  0.00     0.021 C 
BRANCH  30  31
ATOM     31  C   UNL     1       1.084  -7.676   0.877  1.00  0.00     0.116 C 
BRANCH  31  32
ATOM     32  N   UNL     1       1.763  -8.961   0.943  1.00  0.00    -0.352 N 
ATOM     33  C   UNL     1       1.310 -10.156   1.441  1.00  0.00     0.251 C 
ATOM     34  H   UNL     1       2.677  -8.975   0.577  1.00  0.00     0.163 HD
ATOM     35  O   UNL     1       2.096 -11.073   1.647  1.00  0.00    -0.269 OA
BRANCH  33  36
ATOM     36  C   UNL     1      -0.129 -10.321   1.737  1.00  0.00     0.039 A 
ATOM     37  C   UNL     1      -0.508 -10.946   2.927  1.00  0.00     0.014 A 
ATOM     38  C   UNL     1      -1.098  -9.866   0.838  1.00  0.00     0.014 A 
ATOM     39  C   UNL     1      -1.863 -11.066   3.239  1.00  0.00     0.010 A 
ATOM     40  C   UNL     1      -2.444  -9.920   1.186  1.00  0.00     0.010 A 
ATOM     41  C   UNL     1      -2.841 -10.527   2.387  1.00  0.00    -0.014 A 
BRANCH  41  42
ATOM     42  C   UNL     1      -4.283 -10.587   2.736  1.00  0.00     0.031 A 
ATOM     43  C   UNL     1      -5.239 -11.357   1.865  1.00  0.00     0.074 A 
ATOM     44  C   UNL     1      -4.738  -9.899   3.803  1.00  0.00     0.049 A 
ATOM     45  N   UNL     1      -6.538 -11.475   1.970  1.00  0.00    -0.248 NA
ATOM     46  C   UNL     1      -4.668 -12.069   0.709  1.00  0.00     0.031 C 
ATOM     47  C   UNL     1      -3.914  -9.078   4.695  1.00  0.00     0.029 A 
ATOM     48  N   UNL     1      -6.005  -9.768   4.314  1.00  0.00    -0.354 N 
ATOM     49  C   UNL     1      -6.939 -12.252   0.890  1.00  0.00     0.074 A 
ATOM     50  C   UNL     1      -5.753 -12.546   0.116  1.00  0.00     0.031 C 
ATOM     51  C   UNL     1      -4.692  -8.550   5.654  1.00  0.00     0.029 A 
ATOM     52  C   UNL     1      -6.074  -8.956   5.423  1.00  0.00     0.049 A 
ATOM     53  H   UNL     1      -6.791 -10.215   3.925  1.00  0.00     0.167 HD
ATOM     54  C   UNL     1      -8.181 -12.696   0.584  1.00  0.00     0.037 A 
ATOM     55  C   UNL     1      -7.134  -8.572   6.161  1.00  0.00     0.037 A 
ATOM     56  C   UNL     1      -9.349 -12.432   1.383  1.00  0.00     0.049 A 
ATOM     57  C   UNL     1      -8.503  -9.082   5.793  1.00  0.00     0.074 A 
ATOM     58  C   UNL     1     -10.636 -12.906   1.201  1.00  0.00     0.029 A 
ATOM     59  N   UNL     1      -9.376 -11.623   2.508  1.00  0.00    -0.354 N 
ATOM     60  N   UNL     1      -8.849  -9.887   4.816  1.00  0.00    -0.248 NA
ATOM     61  C   UNL     1      -9.627  -8.636   6.629  1.00  0.00     0.031 C 
ATOM     62  C   UNL     1     -11.454 -12.338   2.182  1.00  0.00     0.029 A 
ATOM     63  C   UNL     1     -10.664 -11.559   3.013  1.00  0.00     0.049 A 
ATOM     64  H   UNL     1      -8.595 -11.162   2.892  1.00  0.00     0.167 HD
ATOM     65  C   UNL     1     -10.222 -10.072   4.946  1.00  0.00     0.074 A 
ATOM     66  C   UNL     1     -10.640  -9.306   6.101  1.00  0.00     0.031 C 
ATOM     67  C   UNL     1     -11.061 -10.810   4.177  1.00  0.00     0.037 A 
BRANCH  54  68
ATOM     68  C   UNL     1      -8.357 -13.519  -0.662  1.00  0.00     0.058 A 
ATOM     69  C   UNL     1      -7.890 -14.840  -0.748  1.00  0.00     0.135 A 
ATOM     70  C   UNL     1      -9.085 -13.010  -1.750  1.00  0.00     0.135 A 
ATOM     71  F   UNL     1      -7.173 -15.371   0.254  1.00  0.00    -0.206 F 
ATOM     72  C   UNL     1      -8.136 -15.626  -1.870  1.00  0.00     0.059 A 
ATOM     73  C   UNL     1      -9.367 -13.787  -2.870  1.00  0.00     0.059 A 
ATOM     74  F   UNL     1      -9.551 -11.751  -1.722  1.00  0.00    -0.206 F 
ATOM     75  C   UNL     1      -8.885 -15.094  -2.921  1.00  0.00     0.060 A 
BRANCH  75  76
ATOM     76  S   UNL     1      -9.244 -16.148  -4.342  1.00  0.00     0.124 S 
ATOM     77  O   UNL     1      -7.930 -16.247  -4.971  1.00  0.00    -0.237 OA
ATOM     78  O   UNL     1      -9.735 -17.367  -3.708  1.00  0.00    -0.237 OA
ATOM     79  O   UNL     1     -10.240 -15.388  -5.089  1.00  0.00    -0.744 OA
ENDBRANCH  75  76
ENDBRANCH  54  68
BRANCH  55  80
ATOM     80  C   UNL     1      -6.957  -7.660   7.325  1.00  0.00     0.058 A 
ATOM     81  C   UNL     1      -7.203  -8.102   8.634  1.00  0.00     0.135 A 
ATOM     82  C   UNL     1      -6.577  -6.320   7.151  1.00  0.00     0.135 A 
ATOM     83  F   UNL     1      -7.571  -9.373   8.854  1.00  0.00    -0.206 F 
ATOM     84  C   UNL     1      -7.124  -7.240   9.723  1.00  0.00     0.059 A 
ATOM     85  C   UNL     1      -6.459  -5.447   8.228  1.00  0.00     0.059 A 
ATOM     86  F   UNL     1      -6.309  -5.849   5.923  1.00  0.00    -0.206 F 
ATOM     87  C   UNL     1      -6.756  -5.911   9.508  1.00  0.00     0.060 A 
BRANCH  87  88
ATOM     88  S   UNL     1      -6.660  -4.797  10.926  1.00  0.00     0.124 S 
ATOM     89  O   UNL     1      -8.071  -4.592  11.232  1.00  0.00    -0.237 OA
ATOM     90  O   UNL     1      -5.906  -5.591  11.890  1.00  0.00    -0.237 OA
ATOM     91  O   UNL     1      -5.954  -3.636  10.393  1.00  0.00    -0.744 OA
ENDBRANCH  87  88
ENDBRANCH  55  80
BRANCH  67  92
ATOM     92  C   UNL     1     -12.507 -10.871   4.588  1.00  0.00     0.058 A 
ATOM     93  C   UNL     1     -13.366  -9.770   4.447  1.00  0.00     0.135 A 
ATOM     94  C   UNL     1     -13.053 -12.069   5.079  1.00  0.00     0.135 A 
ATOM     95  F   UNL     1     -12.895  -8.599   3.989  1.00  0.00    -0.206 F 
ATOM     96  C   UNL     1     -14.708  -9.846   4.804  1.00  0.00     0.059 A 
ATOM     97  C   UNL     1     -14.399 -12.177   5.411  1.00  0.00     0.059 A 
ATOM     98  F   UNL     1     -12.278 -13.156   5.222  1.00  0.00    -0.206 F 
ATOM     99  C   UNL     1     -15.216 -11.055   5.282  1.00  0.00     0.060 A 
BRANCH  99 100
ATOM    100  S   UNL     1     -16.967 -11.149   5.709  1.00  0.00     0.124 S 
ATOM    101  O   UNL     1     -17.009 -10.381   6.949  1.00  0.00    -0.237 OA
ATOM    102  O   UNL     1     -17.604 -10.524   4.554  1.00  0.00    -0.237 OA
ATOM    103  O   UNL     1     -17.207 -12.582   5.851  1.00  0.00    -0.744 OA
ENDBRANCH  99 100
ENDBRANCH  67  92
ENDBRANCH  41  42
ENDBRANCH  33  36
ENDBRANCH  31  32
ENDBRANCH  30  31
ENDBRANCH  29  30
ENDBRANCH   1  29
TORSDOF 21
