REMARK SMILES COc1ccc([C@@H]2CC[NH2+][C@H]2C(=O)NCCCCCCNC(=O)c2ccc(-c3c4nc(c(-c5c(F)cc(S(=O)(=O)[O-])cc5F)c5ccc([nH]5)c(-c5c(F)cc(S(=O)(=O)[O-])cc5F)c5nc(c(-c6c(F)cc(S(=O)(=O)[O-])cc6F)c6ccc3[nH]6)C=C5)C=C4)cc2)c2ccccc12
REMARK SMILES IDX 18 1 17 2 16 3 15 4 14 5 12 6 13 7 11 9 7 10 8 11 9 12 10 13
REMARK SMILES IDX 6 16 3 17 4 18 95 19 5 20 90 21 94 22 91 23 93 24 92 25 2 26
REMARK SMILES IDX 1 27 19 28 20 29 21 30 22 31 23 33 24 34 25 35 89 36 26 37
REMARK SMILES IDX 88 38 27 39 28 40 29 41 82 42 30 43 87 44 81 45 83 46 31 47
REMARK SMILES IDX 86 48 80 49 79 50 32 52 66 53 45 54 65 55 46 56 49 57 64 58
REMARK SMILES IDX 84 59 47 60 48 61 63 63 85 64 50 65 33 66 34 67 43 68 35 69
REMARK SMILES IDX 36 70 42 71 44 72 37 73 38 74 39 75 40 76 41 77 67 78 68 79
REMARK SMILES IDX 77 80 69 81 70 82 76 83 78 84 71 85 72 86 73 87 74 88 75 89
REMARK SMILES IDX 51 90 52 91 61 92 53 93 54 94 60 95 62 96 55 97 56 98 57 99
REMARK SMILES IDX 58 100 59 101
REMARK H PARENT 14 8 10 14 10 15 21 32 83 51 49 62
REMARK Flexibility Score: inf
ROOT
ATOM      1  C   UNL     1      -1.588 -11.303   1.422  1.00  0.00     0.002 C 
ENDROOT
BRANCH   1   2
ATOM      2  C   UNL     1      -1.559  -9.806   1.739  1.00  0.00     0.002 C 
BRANCH   2   3
ATOM      3  C   UNL     1      -0.158  -9.193   1.770  1.00  0.00     0.021 C 
BRANCH   3   4
ATOM      4  C   UNL     1       0.608  -9.308   0.452  1.00  0.00     0.116 C 
BRANCH   4   5
ATOM      5  N   UNL     1       0.001  -8.526  -0.611  1.00  0.00    -0.351 N 
ATOM      6  C   UNL     1       0.412  -7.396  -1.260  1.00  0.00     0.278 C 
ATOM      7  O   UNL     1      -0.339  -6.943  -2.129  1.00  0.00    -0.268 OA
ATOM      8  H   UNL     1      -0.867  -8.874  -0.921  1.00  0.00     0.163 HD
BRANCH   6   9
ATOM      9  C   UNL     1       1.752  -6.712  -0.932  1.00  0.00     0.280 C 
ATOM     10  C   UNL     1       1.887  -6.262   0.530  1.00  0.00     0.094 C 
ATOM     11  C   UNL     1       3.294  -6.720   0.945  1.00  0.00     0.076 C 
ATOM     12  C   UNL     1       3.958  -7.249  -0.316  1.00  0.00     0.262 C 
ATOM     13  N   UNL     1       2.891  -7.614  -1.242  1.00  0.00    -0.335 N 
ATOM     14  H   UNL     1       2.619  -8.588  -1.104  1.00  0.00     0.346 HD
ATOM     15  H   UNL     1       3.189  -7.518  -2.212  1.00  0.00     0.346 HD
BRANCH  10  16
ATOM     16  C   UNL     1       1.532  -4.785   0.710  1.00  0.00    -0.030 A 
ATOM     17  C   UNL     1       0.959  -2.049   1.009  1.00  0.00     0.126 A 
ATOM     18  C   UNL     1       2.251  -2.462   0.691  1.00  0.00     0.047 A 
ATOM     19  C   UNL     1      -0.078  -2.984   1.204  1.00  0.00     0.024 A 
ATOM     20  C   UNL     1       2.530  -3.813   0.528  1.00  0.00     0.009 A 
ATOM     21  C   UNL     1       0.195  -4.367   1.031  1.00  0.00    -0.011 A 
ATOM     22  C   UNL     1      -1.385  -2.567   1.549  1.00  0.00     0.012 A 
ATOM     23  C   UNL     1      -0.901  -5.253   1.188  1.00  0.00     0.009 A 
ATOM     24  C   UNL     1      -2.428  -3.475   1.716  1.00  0.00     0.001 A 
ATOM     25  C   UNL     1      -2.186  -4.823   1.529  1.00  0.00     0.001 A 
BRANCH  17  26
ATOM     26  O   UNL     1       0.683  -0.712   1.193  1.00  0.00    -0.496 OA
ATOM     27  C   UNL     1       1.019   0.070   0.048  1.00  0.00     0.278 C 
ENDBRANCH  17  26
ENDBRANCH  10  16
ENDBRANCH   6   9
ENDBRANCH   4   5
ENDBRANCH   3   4
ENDBRANCH   2   3
ENDBRANCH   1   2
BRANCH   1  28
ATOM     28  C   UNL     1      -0.676 -12.164   2.300  1.00  0.00     0.021 C 
BRANCH  28  29
ATOM     29  C   UNL     1      -0.930 -12.033   3.799  1.00  0.00     0.116 C 
BRANCH  29  30
ATOM     30  N   UNL     1      -2.265 -12.480   4.159  1.00  0.00    -0.352 N 
ATOM     31  C   UNL     1      -2.636 -13.433   5.071  1.00  0.00     0.251 C 
ATOM     32  H   UNL     1      -3.004 -12.039   3.682  1.00  0.00     0.163 HD
ATOM     33  O   UNL     1      -3.795 -13.852   5.083  1.00  0.00    -0.269 OA
BRANCH  31  34
ATOM     34  C   UNL     1      -1.643 -13.964   6.026  1.00  0.00     0.039 A 
ATOM     35  C   UNL     1      -1.591 -15.341   6.253  1.00  0.00     0.014 A 
ATOM     36  C   UNL     1      -0.772 -13.104   6.704  1.00  0.00     0.014 A 
ATOM     37  C   UNL     1      -0.633 -15.860   7.127  1.00  0.00     0.010 A 
ATOM     38  C   UNL     1       0.228 -13.630   7.516  1.00  0.00     0.010 A 
ATOM     39  C   UNL     1       0.302 -15.012   7.745  1.00  0.00    -0.014 A 
BRANCH  39  40
ATOM     40  C   UNL     1       1.359 -15.560   8.630  1.00  0.00     0.031 A 
ATOM     41  C   UNL     1       1.385 -15.211  10.093  1.00  0.00     0.074 A 
ATOM     42  C   UNL     1       2.323 -16.341   8.105  1.00  0.00     0.049 A 
ATOM     43  N   UNL     1       2.229 -15.590  11.019  1.00  0.00    -0.248 NA
ATOM     44  C   UNL     1       0.340 -14.295  10.574  1.00  0.00     0.031 C 
ATOM     45  C   UNL     1       2.434 -16.712   6.693  1.00  0.00     0.029 A 
ATOM     46  N   UNL     1       3.391 -16.967   8.697  1.00  0.00    -0.354 N 
ATOM     47  C   UNL     1       1.821 -14.956  12.187  1.00  0.00     0.074 A 
ATOM     48  C   UNL     1       0.695 -14.117  11.837  1.00  0.00     0.031 C 
ATOM     49  C   UNL     1       3.483 -17.533   6.535  1.00  0.00     0.029 A 
ATOM     50  C   UNL     1       4.141 -17.719   7.825  1.00  0.00     0.049 A 
ATOM     51  H   UNL     1       3.600 -16.886   9.656  1.00  0.00     0.167 HD
ATOM     52  C   UNL     1       2.322 -15.081  13.440  1.00  0.00     0.037 A 
ATOM     53  C   UNL     1       5.232 -18.479   8.041  1.00  0.00     0.037 A 
ATOM     54  C   UNL     1       3.440 -15.923  13.780  1.00  0.00     0.049 A 
ATOM     55  C   UNL     1       5.780 -18.593   9.436  1.00  0.00     0.074 A 
ATOM     56  C   UNL     1       3.994 -16.160  15.025  1.00  0.00     0.029 A 
ATOM     57  N   UNL     1       4.181 -16.662  12.867  1.00  0.00    -0.354 N 
ATOM     58  N   UNL     1       5.344 -18.038  10.542  1.00  0.00    -0.248 NA
ATOM     59  C   UNL     1       6.965 -19.442   9.612  1.00  0.00     0.031 C 
ATOM     60  C   UNL     1       5.101 -17.002  14.859  1.00  0.00     0.029 A 
ATOM     61  C   UNL     1       5.204 -17.334  13.517  1.00  0.00     0.049 A 
ATOM     62  H   UNL     1       4.006 -16.702  11.899  1.00  0.00     0.167 HD
ATOM     63  C   UNL     1       6.187 -18.490  11.551  1.00  0.00     0.074 A 
ATOM     64  C   UNL     1       7.149 -19.374  10.924  1.00  0.00     0.031 C 
ATOM     65  C   UNL     1       6.164 -18.201  12.877  1.00  0.00     0.037 A 
BRANCH  52  66
ATOM     66  C   UNL     1       1.660 -14.274  14.527  1.00  0.00     0.058 A 
ATOM     67  C   UNL     1       0.348 -14.544  14.953  1.00  0.00     0.135 A 
ATOM     68  C   UNL     1       2.337 -13.208  15.141  1.00  0.00     0.135 A 
ATOM     69  F   UNL     1      -0.352 -15.544  14.394  1.00  0.00    -0.206 F 
ATOM     70  C   UNL     1      -0.288 -13.752  15.903  1.00  0.00     0.059 A 
ATOM     71  C   UNL     1       1.732 -12.423  16.119  1.00  0.00     0.059 A 
ATOM     72  F   UNL     1       3.595 -12.907  14.780  1.00  0.00    -0.206 F 
ATOM     73  C   UNL     1       0.410 -12.686  16.473  1.00  0.00     0.060 A 
BRANCH  73  74
ATOM     74  S   UNL     1      -0.442 -11.639  17.672  1.00  0.00     0.124 S 
ATOM     75  O   UNL     1      -1.328 -10.868  16.804  1.00  0.00    -0.237 OA
ATOM     76  O   UNL     1      -1.097 -12.617  18.535  1.00  0.00    -0.237 OA
ATOM     77  O   UNL     1       0.640 -10.884  18.294  1.00  0.00    -0.744 OA
ENDBRANCH  73  74
ENDBRANCH  52  66
BRANCH  53  78
ATOM     78  C   UNL     1       5.837 -19.231   6.911  1.00  0.00     0.058 A 
ATOM     79  C   UNL     1       5.699 -20.624   6.824  1.00  0.00     0.135 A 
ATOM     80  C   UNL     1       6.517 -18.574   5.874  1.00  0.00     0.135 A 
ATOM     81  F   UNL     1       5.063 -21.297   7.795  1.00  0.00    -0.206 F 
ATOM     82  C   UNL     1       6.213 -21.341   5.749  1.00  0.00     0.059 A 
ATOM     83  C   UNL     1       7.020 -19.267   4.777  1.00  0.00     0.059 A 
ATOM     84  F   UNL     1       6.661 -17.240   5.903  1.00  0.00    -0.206 F 
ATOM     85  C   UNL     1       6.864 -20.652   4.725  1.00  0.00     0.060 A 
BRANCH  85  86
ATOM     86  S   UNL     1       7.452 -21.584   3.294  1.00  0.00     0.124 S 
ATOM     87  O   UNL     1       8.589 -22.303   3.857  1.00  0.00    -0.237 OA
ATOM     88  O   UNL     1       6.285 -22.394   2.957  1.00  0.00    -0.237 OA
ATOM     89  O   UNL     1       7.781 -20.541   2.326  1.00  0.00    -0.744 OA
ENDBRANCH  85  86
ENDBRANCH  53  78
BRANCH  65  90
ATOM     90  C   UNL     1       7.201 -18.866  13.742  1.00  0.00     0.058 A 
ATOM     91  C   UNL     1       8.555 -18.499  13.685  1.00  0.00     0.135 A 
ATOM     92  C   UNL     1       6.832 -19.865  14.657  1.00  0.00     0.135 A 
ATOM     93  F   UNL     1       8.964 -17.554  12.823  1.00  0.00    -0.206 F 
ATOM     94  C   UNL     1       9.511 -19.123  14.480  1.00  0.00     0.059 A 
ATOM     95  C   UNL     1       7.766 -20.482  15.482  1.00  0.00     0.059 A 
ATOM     96  F   UNL     1       5.549 -20.246  14.761  1.00  0.00    -0.206 F 
ATOM     97  C   UNL     1       9.107 -20.115  15.375  1.00  0.00     0.060 A 
BRANCH  97  98
ATOM     98  S   UNL     1      10.355 -20.909  16.409  1.00  0.00     0.124 S 
ATOM     99  O   UNL     1      11.028 -21.774  15.446  1.00  0.00    -0.237 OA
ATOM    100  O   UNL     1      11.133 -19.771  16.891  1.00  0.00    -0.237 OA
ATOM    101  O   UNL     1       9.566 -21.596  17.427  1.00  0.00    -0.744 OA
ENDBRANCH  97  98
ENDBRANCH  65  90
ENDBRANCH  39  40
ENDBRANCH  31  34
ENDBRANCH  29  30
ENDBRANCH  28  29
ENDBRANCH   1  28
TORSDOF 18
