REMARK SMILES CC(C)[NH2+][C@]1(C(=O)NCCCCCCNC(=O)c2ccc(-c3c4nc(c(-c5c(F)cc(S(=O)(=O)[O-])cc5F)c5ccc([nH]5)c(-c5c(F)cc(S(=O)(=O)[O-])cc5F)c5nc(c(-c6c(F)cc(S(=O)(=O)[O-])cc6F)c6ccc3[nH]6)C=C5)C=C4)cc2)CCC[C@@H]1CCN1C(=O)CCC1=O
REMARK SMILES IDX 11 1 10 2 9 3 8 4 6 5 7 6 5 8 84 9 87 10 85 11 86 12 4 13
REMARK SMILES IDX 2 16 1 17 3 18 88 19 89 20 90 21 91 22 95 23 92 24 93 25
REMARK SMILES IDX 94 26 96 27 12 28 13 29 14 30 15 31 16 32 17 34 18 35 19 36
REMARK SMILES IDX 83 37 20 38 82 39 21 40 22 41 23 42 76 43 24 44 81 45 75 46
REMARK SMILES IDX 77 47 25 48 80 49 74 50 73 51 26 53 60 54 39 55 59 56 40 57
REMARK SMILES IDX 43 58 58 59 78 60 41 61 42 62 57 64 79 65 44 66 27 67 28 68
REMARK SMILES IDX 37 69 29 70 30 71 36 72 38 73 31 74 32 75 33 76 34 77 35 78
REMARK SMILES IDX 61 79 62 80 71 81 63 82 64 83 70 84 72 85 65 86 66 87 67 88
REMARK SMILES IDX 68 89 69 90 45 91 46 92 55 93 47 94 48 95 54 96 56 97 49 98
REMARK SMILES IDX 50 99 51 100 52 101 53 102
REMARK H PARENT 8 7 4 14 4 15 15 33 77 52 43 63
REMARK Flexibility Score: inf
ROOT
ATOM      1  C   UNL     1       3.380   1.665   2.157  1.00  0.00     0.002 C 
ENDROOT
BRANCH   1   2
ATOM      2  C   UNL     1       1.980   2.178   2.428  1.00  0.00     0.021 C 
BRANCH   2   3
ATOM      3  C   UNL     1       1.272   2.831   1.249  1.00  0.00     0.116 C 
BRANCH   3   4
ATOM      4  N   UNL     1       0.699   1.961   0.224  1.00  0.00    -0.351 N 
ATOM      5  C   UNL     1      -0.632   1.876  -0.209  1.00  0.00     0.281 C 
ATOM      6  O   UNL     1      -0.905   1.139  -1.155  1.00  0.00    -0.268 OA
ATOM      7  H   UNL     1       1.332   1.352  -0.222  1.00  0.00     0.163 HD
BRANCH   5   8
ATOM      8  C   UNL     1      -1.723   2.698   0.601  1.00  0.00     0.178 C 
ATOM      9  C   UNL     1      -1.228   4.161   0.231  1.00  0.00     0.079 C 
ATOM     10  C   UNL     1      -3.227   2.810   0.073  1.00  0.00     0.062 C 
ATOM     11  C   UNL     1      -2.372   5.103   0.381  1.00  0.00     0.008 C 
ATOM     12  C   UNL     1      -3.463   4.323  -0.293  1.00  0.00     0.011 C 
BRANCH   8  13
ATOM     13  N   UNL     1      -1.723   2.186   2.008  1.00  0.00    -0.331 N 
ATOM     14  H   UNL     1      -1.092   2.774   2.551  1.00  0.00     0.347 HD
ATOM     15  H   UNL     1      -2.699   2.219   2.303  1.00  0.00     0.347 HD
BRANCH  13  16
ATOM     16  C   UNL     1      -1.300   0.760   2.209  1.00  0.00     0.176 C 
ATOM     17  C   UNL     1      -1.058   0.447   3.694  1.00  0.00     0.075 C 
ATOM     18  C   UNL     1      -2.167  -0.336   1.578  1.00  0.00     0.075 C 
ENDBRANCH  13  16
ENDBRANCH   8  13
BRANCH  10  19
ATOM     19  C   UNL     1      -4.550   2.372   0.802  1.00  0.00     0.033 C 
BRANCH  19  20
ATOM     20  C   UNL     1      -4.766   1.662   2.138  1.00  0.00     0.129 C 
BRANCH  20  21
ATOM     21  N   UNL     1      -4.196   2.154   3.373  1.00  0.00    -0.283 N 
ATOM     22  C   UNL     1      -3.902   3.449   3.686  1.00  0.00     0.229 C 
ATOM     23  C   UNL     1      -4.089   1.341   4.468  1.00  0.00     0.229 C 
ATOM     24  O   UNL     1      -4.173   4.450   3.054  1.00  0.00    -0.274 OA
ATOM     25  C   UNL     1      -3.157   3.453   4.994  1.00  0.00     0.110 C 
ATOM     26  C   UNL     1      -3.522   2.122   5.614  1.00  0.00     0.110 C 
ATOM     27  O   UNL     1      -4.448   0.174   4.555  1.00  0.00    -0.274 OA
ENDBRANCH  20  21
ENDBRANCH  19  20
ENDBRANCH  10  19
ENDBRANCH   5   8
ENDBRANCH   3   4
ENDBRANCH   2   3
ENDBRANCH   1   2
BRANCH   1  28
ATOM     28  C   UNL     1       4.295   2.655   1.437  1.00  0.00     0.002 C 
BRANCH  28  29
ATOM     29  C   UNL     1       4.363   4.065   2.036  1.00  0.00     0.021 C 
BRANCH  29  30
ATOM     30  C   UNL     1       4.694   4.124   3.522  1.00  0.00     0.116 C 
BRANCH  30  31
ATOM     31  N   UNL     1       5.947   3.454   3.817  1.00  0.00    -0.352 N 
ATOM     32  C   UNL     1       7.130   3.995   4.247  1.00  0.00     0.251 C 
ATOM     33  H   UNL     1       5.947   2.477   3.692  1.00  0.00     0.163 HD
ATOM     34  O   UNL     1       8.166   3.341   4.192  1.00  0.00    -0.269 OA
BRANCH  32  35
ATOM     35  C   UNL     1       7.141   5.378   4.763  1.00  0.00     0.039 A 
ATOM     36  C   UNL     1       8.108   6.270   4.297  1.00  0.00     0.014 A 
ATOM     37  C   UNL     1       6.184   5.790   5.696  1.00  0.00     0.014 A 
ATOM     38  C   UNL     1       8.079   7.597   4.726  1.00  0.00     0.010 A 
ATOM     39  C   UNL     1       6.113   7.128   6.065  1.00  0.00     0.010 A 
ATOM     40  C   UNL     1       7.061   8.044   5.585  1.00  0.00    -0.014 A 
BRANCH  40  41
ATOM     41  C   UNL     1       6.965   9.470   5.986  1.00  0.00     0.031 A 
ATOM     42  C   UNL     1       7.131   9.860   7.428  1.00  0.00     0.074 A 
ATOM     43  C   UNL     1       6.662  10.399   5.058  1.00  0.00     0.049 A 
ATOM     44  N   UNL     1       7.008  11.037   7.983  1.00  0.00    -0.248 NA
ATOM     45  C   UNL     1       7.452   8.780   8.376  1.00  0.00     0.031 C 
ATOM     46  C   UNL     1       6.436  10.132   3.636  1.00  0.00     0.029 A 
ATOM     47  N   UNL     1       6.479  11.754   5.173  1.00  0.00    -0.354 N 
ATOM     48  C   UNL     1       7.228  10.840   9.341  1.00  0.00     0.074 A 
ATOM     49  C   UNL     1       7.437   9.422   9.535  1.00  0.00     0.031 C 
ATOM     50  C   UNL     1       6.165  11.287   3.008  1.00  0.00     0.029 A 
ATOM     51  C   UNL     1       6.153  12.369   3.987  1.00  0.00     0.049 A 
ATOM     52  H   UNL     1       6.574  12.240   6.024  1.00  0.00     0.167 HD
ATOM     53  C   UNL     1       7.273  11.762  10.332  1.00  0.00     0.037 A 
ATOM     54  C   UNL     1       5.861  13.657   3.721  1.00  0.00     0.037 A 
ATOM     55  C   UNL     1       7.078  13.174  10.125  1.00  0.00     0.049 A 
ATOM     56  C   UNL     1       5.892  14.659   4.844  1.00  0.00     0.074 A 
ATOM     57  C   UNL     1       7.161  14.198  11.051  1.00  0.00     0.029 A 
ATOM     58  N   UNL     1       6.753  13.761   8.910  1.00  0.00    -0.354 N 
ATOM     59  N   UNL     1       6.171  14.466   6.112  1.00  0.00    -0.248 NA
ATOM     60  C   UNL     1       5.571  16.051   4.502  1.00  0.00     0.031 C 
ATOM     61  C   UNL     1       6.832  15.396  10.409  1.00  0.00     0.029 A 
ATOM     62  C   UNL     1       6.600  15.128   9.069  1.00  0.00     0.049 A 
ATOM     63  H   UNL     1       6.648  13.276   8.059  1.00  0.00     0.167 HD
ATOM     64  C   UNL     1       6.079  15.716   6.715  1.00  0.00     0.074 A 
ATOM     65  C   UNL     1       5.738  16.659   5.669  1.00  0.00     0.031 C 
ATOM     66  C   UNL     1       6.258  16.053   8.016  1.00  0.00     0.037 A 
BRANCH  53  67
ATOM     67  C   UNL     1       7.541  11.275  11.730  1.00  0.00     0.058 A 
ATOM     68  C   UNL     1       8.795  10.768  12.109  1.00  0.00     0.135 A 
ATOM     69  C   UNL     1       6.543  11.350  12.716  1.00  0.00     0.135 A 
ATOM     70  F   UNL     1       9.781  10.658  11.204  1.00  0.00    -0.206 F 
ATOM     71  C   UNL     1       9.041  10.327  13.405  1.00  0.00     0.059 A 
ATOM     72  C   UNL     1       6.777  10.943  14.027  1.00  0.00     0.059 A 
ATOM     73  F   UNL     1       5.325  11.824  12.411  1.00  0.00    -0.206 F 
ATOM     74  C   UNL     1       8.025  10.420  14.358  1.00  0.00     0.060 A 
BRANCH  74  75
ATOM     75  S   UNL     1       8.365   9.849  16.036  1.00  0.00     0.124 S 
ATOM     76  O   UNL     1       8.416   8.402  15.846  1.00  0.00    -0.237 OA
ATOM     77  O   UNL     1       9.640  10.494  16.332  1.00  0.00    -0.237 OA
ATOM     78  O   UNL     1       7.224  10.341  16.801  1.00  0.00    -0.744 OA
ENDBRANCH  74  75
ENDBRANCH  53  67
BRANCH  54  79
ATOM     79  C   UNL     1       5.520  14.072   2.334  1.00  0.00     0.058 A 
ATOM     80  C   UNL     1       6.388  14.883   1.588  1.00  0.00     0.135 A 
ATOM     81  C   UNL     1       4.327  13.656   1.721  1.00  0.00     0.135 A 
ATOM     82  F   UNL     1       7.537  15.311   2.131  1.00  0.00    -0.206 F 
ATOM     83  C   UNL     1       6.080  15.281   0.291  1.00  0.00     0.059 A 
ATOM     84  C   UNL     1       4.010  14.018   0.416  1.00  0.00     0.059 A 
ATOM     85  F   UNL     1       3.469  12.865   2.385  1.00  0.00    -0.206 F 
ATOM     86  C   UNL     1       4.888  14.840  -0.288  1.00  0.00     0.060 A 
BRANCH  86  87
ATOM     87  S   UNL     1       4.522  15.324  -1.988  1.00  0.00     0.124 S 
ATOM     88  O   UNL     1       4.206  16.738  -1.830  1.00  0.00    -0.237 OA
ATOM     89  O   UNL     1       5.777  15.021  -2.669  1.00  0.00    -0.237 OA
ATOM     90  O   UNL     1       3.399  14.462  -2.347  1.00  0.00    -0.744 OA
ENDBRANCH  86  87
ENDBRANCH  54  79
BRANCH  66  91
ATOM     91  C   UNL     1       6.106  17.504   8.383  1.00  0.00     0.058 A 
ATOM     92  C   UNL     1       4.851  18.131   8.405  1.00  0.00     0.135 A 
ATOM     93  C   UNL     1       7.224  18.261   8.771  1.00  0.00     0.135 A 
ATOM     94  F   UNL     1       3.751  17.455   8.035  1.00  0.00    -0.206 F 
ATOM     95  C   UNL     1       4.711  19.463   8.778  1.00  0.00     0.059 A 
ATOM     96  C   UNL     1       7.103  19.586   9.178  1.00  0.00     0.059 A 
ATOM     97  F   UNL     1       8.447  17.708   8.777  1.00  0.00    -0.206 F 
ATOM     98  C   UNL     1       5.843  20.182   9.168  1.00  0.00     0.060 A 
BRANCH  98  99
ATOM     99  S   UNL     1       5.639  21.898   9.689  1.00  0.00     0.124 S 
ATOM    100  O   UNL     1       5.362  22.560   8.419  1.00  0.00    -0.237 OA
ATOM    101  O   UNL     1       4.516  21.810  10.617  1.00  0.00    -0.237 OA
ATOM    102  O   UNL     1       6.925  22.223  10.299  1.00  0.00    -0.744 OA
ENDBRANCH  98  99
ENDBRANCH  66  91
ENDBRANCH  40  41
ENDBRANCH  32  35
ENDBRANCH  30  31
ENDBRANCH  29  30
ENDBRANCH  28  29
ENDBRANCH   1  28
TORSDOF 21
