REMARK SMILES C[NH2+][C@]1(C(=O)NCCCCCCNC(=O)c2ccc(-c3c4nc(c(-c5c(F)cc(S(=O)(=O)[O-])cc5F)c5ccc([nH]5)c(-c5c(F)cc(S(=O)(=O)[O-])cc5F)c5nc(c(-c6c(F)cc(S(=O)(=O)[O-])cc6F)c6ccc3[nH]6)C=C5)C=C4)cc2)CCC[C@@H]1CCOC[C@@H]1CCCO1
REMARK SMILES IDX 8 1 7 2 6 3 4 4 5 5 3 7 82 8 85 9 83 10 84 11 2 12 1 13
REMARK SMILES IDX 86 16 87 17 88 18 89 19 90 20 91 21 94 22 92 23 93 24 9 25
REMARK SMILES IDX 10 26 11 27 12 28 13 29 14 30 15 32 16 33 17 34 81 35 18 36
REMARK SMILES IDX 80 37 19 38 20 39 21 40 74 41 22 42 79 43 73 44 75 45 23 46
REMARK SMILES IDX 78 47 72 48 71 49 24 51 58 52 37 53 57 54 38 55 41 56 56 57
REMARK SMILES IDX 76 58 39 59 40 60 55 62 77 63 42 64 25 65 26 66 35 67 27 68
REMARK SMILES IDX 28 69 34 70 36 71 29 72 30 73 31 74 32 75 33 76 59 77 60 78
REMARK SMILES IDX 69 79 61 80 62 81 68 82 70 83 63 84 64 85 65 86 66 87 67 88
REMARK SMILES IDX 43 89 44 90 53 91 45 92 46 93 52 94 54 95 47 96 48 97 49 98
REMARK SMILES IDX 50 99 51 100
REMARK H PARENT 6 6 2 14 2 15 13 31 75 50 41 61
REMARK Flexibility Score: inf
ROOT
ATOM      1  C   UNL     1       1.332   1.125  -4.974  1.00  0.00     0.021 C 
ENDROOT
BRANCH   1   2
ATOM      2  C   UNL     1       0.638   0.148  -4.031  1.00  0.00     0.116 C 
BRANCH   2   3
ATOM      3  N   UNL     1       1.235   0.155  -2.710  1.00  0.00    -0.351 N 
ATOM      4  C   UNL     1       0.764   0.251  -1.438  1.00  0.00     0.281 C 
ATOM      5  O   UNL     1       1.662   0.166  -0.592  1.00  0.00    -0.268 OA
ATOM      6  H   UNL     1       2.215   0.069  -2.742  1.00  0.00     0.163 HD
BRANCH   4   7
ATOM      7  C   UNL     1      -0.760   0.394  -1.078  1.00  0.00     0.178 C 
ATOM      8  C   UNL     1      -1.428   1.603  -1.776  1.00  0.00     0.079 C 
ATOM      9  C   UNL     1      -1.597  -0.795  -1.646  1.00  0.00     0.063 C 
ATOM     10  C   UNL     1      -2.896   1.215  -2.010  1.00  0.00     0.008 C 
ATOM     11  C   UNL     1      -3.036  -0.250  -1.593  1.00  0.00     0.011 C 
BRANCH   7  12
ATOM     12  N   UNL     1      -1.093   0.606   0.371  1.00  0.00    -0.336 N 
ATOM     13  C   UNL     1      -0.038   0.573   1.360  1.00  0.00     0.331 C 
ATOM     14  H   UNL     1      -1.536   1.522   0.442  1.00  0.00     0.346 HD
ATOM     15  H   UNL     1      -1.663  -0.207   0.604  1.00  0.00     0.346 HD
ENDBRANCH   7  12
BRANCH   9  16
ATOM     16  C   UNL     1      -1.379  -2.146  -0.942  1.00  0.00     0.039 C 
BRANCH  16  17
ATOM     17  C   UNL     1      -1.921  -3.380  -1.682  1.00  0.00     0.161 C 
BRANCH  17  18
ATOM     18  O   UNL     1      -1.006  -3.983  -2.585  1.00  0.00    -0.379 OA
BRANCH  18  19
ATOM     19  C   UNL     1      -0.811  -3.444  -3.889  1.00  0.00     0.192 C 
BRANCH  19  20
ATOM     20  C   UNL     1      -2.002  -3.405  -4.865  1.00  0.00     0.144 C 
ATOM     21  C   UNL     1      -2.927  -2.213  -4.718  1.00  0.00     0.037 C 
ATOM     22  O   UNL     1      -2.808  -4.585  -4.765  1.00  0.00    -0.376 OA
ATOM     23  C   UNL     1      -4.277  -2.755  -5.099  1.00  0.00     0.031 C 
ATOM     24  C   UNL     1      -4.183  -4.201  -4.667  1.00  0.00     0.160 C 
ENDBRANCH  19  20
ENDBRANCH  18  19
ENDBRANCH  17  18
ENDBRANCH  16  17
ENDBRANCH   9  16
ENDBRANCH   4   7
ENDBRANCH   2   3
ENDBRANCH   1   2
BRANCH   1  25
ATOM     25  C   UNL     1       2.819   0.831  -5.215  1.00  0.00     0.002 C 
BRANCH  25  26
ATOM     26  C   UNL     1       3.155  -0.594  -5.671  1.00  0.00     0.002 C 
BRANCH  26  27
ATOM     27  C   UNL     1       2.410  -1.081  -6.915  1.00  0.00     0.021 C 
BRANCH  27  28
ATOM     28  C   UNL     1       2.538  -0.178  -8.135  1.00  0.00     0.116 C 
BRANCH  28  29
ATOM     29  N   UNL     1       3.915  -0.021  -8.568  1.00  0.00    -0.352 N 
ATOM     30  C   UNL     1       4.449  -0.155  -9.827  1.00  0.00     0.251 C 
ATOM     31  H   UNL     1       4.557   0.214  -7.860  1.00  0.00     0.163 HD
ATOM     32  O   UNL     1       5.664  -0.151  -9.982  1.00  0.00    -0.269 OA
BRANCH  30  33
ATOM     33  C   UNL     1       3.549  -0.329 -10.989  1.00  0.00     0.039 A 
ATOM     34  C   UNL     1       3.853  -1.310 -11.936  1.00  0.00     0.014 A 
ATOM     35  C   UNL     1       2.409   0.465 -11.140  1.00  0.00     0.014 A 
ATOM     36  C   UNL     1       2.982  -1.532 -13.004  1.00  0.00     0.010 A 
ATOM     37  C   UNL     1       1.502   0.188 -12.159  1.00  0.00     0.010 A 
ATOM     38  C   UNL     1       1.781  -0.809 -13.105  1.00  0.00    -0.014 A 
BRANCH  38  39
ATOM     39  C   UNL     1       0.807  -1.085 -14.193  1.00  0.00     0.031 A 
ATOM     40  C   UNL     1       0.475  -0.017 -15.200  1.00  0.00     0.074 A 
ATOM     41  C   UNL     1       0.176  -2.275 -14.236  1.00  0.00     0.049 A 
ATOM     42  N   UNL     1      -0.390  -0.047 -16.181  1.00  0.00    -0.248 NA
ATOM     43  C   UNL     1       1.189   1.264 -15.070  1.00  0.00     0.031 C 
ATOM     44  C   UNL     1       0.375  -3.371 -13.285  1.00  0.00     0.029 A 
ATOM     45  N   UNL     1      -0.768  -2.759 -15.105  1.00  0.00    -0.354 N 
ATOM     46  C   UNL     1      -0.334   1.208 -16.775  1.00  0.00     0.074 A 
ATOM     47  C   UNL     1       0.607   1.996 -16.009  1.00  0.00     0.031 C 
ATOM     48  C   UNL     1      -0.408  -4.404 -13.634  1.00  0.00     0.029 A 
ATOM     49  C   UNL     1      -1.195  -4.032 -14.806  1.00  0.00     0.049 A 
ATOM     50  H   UNL     1      -1.109  -2.244 -15.872  1.00  0.00     0.167 HD
ATOM     51  C   UNL     1      -0.990   1.656 -17.873  1.00  0.00     0.037 A 
ATOM     52  C   UNL     1      -2.123  -4.808 -15.398  1.00  0.00     0.037 A 
ATOM     53  C   UNL     1      -1.911   0.858 -18.640  1.00  0.00     0.049 A 
ATOM     54  C   UNL     1      -2.843  -4.288 -16.614  1.00  0.00     0.074 A 
ATOM     55  C   UNL     1      -2.580   1.196 -19.803  1.00  0.00     0.029 A 
ATOM     56  N   UNL     1      -2.301  -0.435 -18.317  1.00  0.00    -0.354 N 
ATOM     57  N   UNL     1      -2.723  -3.124 -17.207  1.00  0.00    -0.248 NA
ATOM     58  C   UNL     1      -3.818  -5.188 -17.245  1.00  0.00     0.031 C 
ATOM     59  C   UNL     1      -3.417   0.132 -20.152  1.00  0.00     0.029 A 
ATOM     60  C   UNL     1      -3.224  -0.896 -19.242  1.00  0.00     0.049 A 
ATOM     61  H   UNL     1      -1.971  -0.948 -17.545  1.00  0.00     0.167 HD
ATOM     62  C   UNL     1      -3.586  -3.162 -18.297  1.00  0.00     0.074 A 
ATOM     63  C   UNL     1      -4.211  -4.469 -18.288  1.00  0.00     0.031 C 
ATOM     64  C   UNL     1      -3.837  -2.202 -19.223  1.00  0.00     0.037 A 
BRANCH  51  65
ATOM     65  C   UNL     1      -0.738   3.076 -18.307  1.00  0.00     0.058 A 
ATOM     66  C   UNL     1       0.502   3.484 -18.827  1.00  0.00     0.135 A 
ATOM     67  C   UNL     1      -1.759   4.037 -18.230  1.00  0.00     0.135 A 
ATOM     68  F   UNL     1       1.520   2.612 -18.912  1.00  0.00    -0.206 F 
ATOM     69  C   UNL     1       0.732   4.799 -19.217  1.00  0.00     0.059 A 
ATOM     70  C   UNL     1      -1.562   5.351 -18.646  1.00  0.00     0.059 A 
ATOM     71  F   UNL     1      -2.965   3.705 -17.743  1.00  0.00    -0.206 F 
ATOM     72  C   UNL     1      -0.307   5.726 -19.122  1.00  0.00     0.060 A 
BRANCH  72  73
ATOM     73  S   UNL     1       0.009   7.430 -19.628  1.00  0.00     0.124 S 
ATOM     74  O   UNL     1       0.875   7.897 -18.549  1.00  0.00    -0.237 OA
ATOM     75  O   UNL     1       0.653   7.254 -20.926  1.00  0.00    -0.237 OA
ATOM     76  O   UNL     1      -1.322   8.027 -19.667  1.00  0.00    -0.744 OA
ENDBRANCH  72  73
ENDBRANCH  51  65
BRANCH  52  77
ATOM     77  C   UNL     1      -2.414  -6.162 -14.854  1.00  0.00     0.058 A 
ATOM     78  C   UNL     1      -2.050  -7.320 -15.557  1.00  0.00     0.135 A 
ATOM     79  C   UNL     1      -3.043  -6.325 -13.610  1.00  0.00     0.135 A 
ATOM     80  F   UNL     1      -1.452  -7.218 -16.754  1.00  0.00    -0.206 F 
ATOM     81  C   UNL     1      -2.313  -8.591 -15.056  1.00  0.00     0.059 A 
ATOM     82  C   UNL     1      -3.290  -7.585 -13.073  1.00  0.00     0.059 A 
ATOM     83  F   UNL     1      -3.396  -5.250 -12.888  1.00  0.00    -0.206 F 
ATOM     84  C   UNL     1      -2.930  -8.713 -13.809  1.00  0.00     0.060 A 
BRANCH  84  85
ATOM     85  S   UNL     1      -3.221 -10.367 -13.146  1.00  0.00     0.124 S 
ATOM     86  O   UNL     1      -4.295 -10.844 -14.008  1.00  0.00    -0.237 OA
ATOM     87  O   UNL     1      -1.921 -11.003 -13.332  1.00  0.00    -0.237 OA
ATOM     88  O   UNL     1      -3.592 -10.111 -11.757  1.00  0.00    -0.744 OA
ENDBRANCH  84  85
ENDBRANCH  52  77
BRANCH  64  89
ATOM     89  C   UNL     1      -4.804  -2.537 -20.326  1.00  0.00     0.058 A 
ATOM     90  C   UNL     1      -6.183  -2.658 -20.092  1.00  0.00     0.135 A 
ATOM     91  C   UNL     1      -4.349  -2.682 -21.648  1.00  0.00     0.135 A 
ATOM     92  F   UNL     1      -6.671  -2.536 -18.848  1.00  0.00    -0.206 F 
ATOM     93  C   UNL     1      -7.073  -2.936 -21.125  1.00  0.00     0.059 A 
ATOM     94  C   UNL     1      -5.225  -2.927 -22.700  1.00  0.00     0.059 A 
ATOM     95  F   UNL     1      -3.042  -2.564 -21.930  1.00  0.00    -0.206 F 
ATOM     96  C   UNL     1      -6.585  -3.065 -22.427  1.00  0.00     0.060 A 
BRANCH  96  97
ATOM     97  S   UNL     1      -7.756  -3.388 -23.761  1.00  0.00     0.124 S 
ATOM     98  O   UNL     1      -8.120  -4.777 -23.504  1.00  0.00    -0.237 OA
ATOM     99  O   UNL     1      -8.801  -2.401 -23.504  1.00  0.00    -0.237 OA
ATOM    100  O   UNL     1      -6.969  -3.158 -24.969  1.00  0.00    -0.744 OA
ENDBRANCH  96  97
ENDBRANCH  64  89
ENDBRANCH  38  39
ENDBRANCH  30  33
ENDBRANCH  28  29
ENDBRANCH  27  28
ENDBRANCH  26  27
ENDBRANCH  25  26
ENDBRANCH   1  25
TORSDOF 22
