REMARK SMILES O=C(NCCCCCCNC(=O)c1ccc(-c2c3nc(c(-c4c(F)cc(S(=O)(=O)[O-])cc4F)c4ccc([nH]4)c(-c4c(F)cc(S(=O)(=O)[O-])cc4F)c4nc(c(-c5c(F)cc(S(=O)(=O)[O-])cc5F)c5ccc2[nH]5)C=C4)C=C3)cc1)C1=Cc2c(ccc(Cl)c2Sc2ccccc2)O[C@H]1C(F)(F)F
REMARK SMILES IDX 7 1 6 2 5 3 4 4 3 5 1 6 2 7 79 9 80 10 96 11 81 12 95 13
REMARK SMILES IDX 82 14 87 15 83 16 85 17 84 18 86 19 97 20 98 21 99 22 100 23
REMARK SMILES IDX 88 24 89 25 90 26 94 27 91 28 93 29 92 30 8 31 9 32 10 33
REMARK SMILES IDX 11 34 12 36 13 37 14 38 78 39 15 40 77 41 16 42 17 43 18 44
REMARK SMILES IDX 71 45 19 46 76 47 70 48 72 49 20 50 75 51 69 52 68 53 21 55
REMARK SMILES IDX 55 56 34 57 54 58 35 59 38 60 53 61 73 62 36 63 37 64 52 66
REMARK SMILES IDX 74 67 39 68 22 69 23 70 32 71 24 72 25 73 31 74 33 75 26 76
REMARK SMILES IDX 27 77 28 78 29 79 30 80 56 81 57 82 66 83 58 84 59 85 65 86
REMARK SMILES IDX 67 87 60 88 61 89 62 90 63 91 64 92 40 93 41 94 50 95 42 96
REMARK SMILES IDX 43 97 49 98 51 99 44 100 45 101 46 102 47 103 48 104
REMARK H PARENT 3 8 10 35 72 54 38 65
REMARK Flexibility Score: inf
ROOT
ATOM      1  C   UNL     1       4.307   3.973  -2.648  1.00  0.00     0.002 C 
ENDROOT
BRANCH   1   2
ATOM      2  C   UNL     1       3.664   2.895  -3.530  1.00  0.00     0.002 C 
BRANCH   2   3
ATOM      3  C   UNL     1       4.025   1.443  -3.213  1.00  0.00     0.021 C 
BRANCH   3   4
ATOM      4  C   UNL     1       3.680   0.976  -1.802  1.00  0.00     0.116 C 
BRANCH   4   5
ATOM      5  N   UNL     1       2.464   0.181  -1.744  1.00  0.00    -0.352 N 
ATOM      6  O   UNL     1       1.121  -1.502  -1.073  1.00  0.00    -0.270 OA
ATOM      7  C   UNL     1       2.187  -0.912  -0.970  1.00  0.00     0.251 C 
ATOM      8  H   UNL     1       1.740   0.470  -2.346  1.00  0.00     0.163 HD
BRANCH   7   9
ATOM      9  C   UNL     1       3.192  -1.377   0.006  1.00  0.00     0.067 C 
ATOM     10  C   UNL     1       3.335  -0.654   1.122  1.00  0.00     0.026 C 
ATOM     11  C   UNL     1       4.271  -2.306  -0.446  1.00  0.00     0.314 C 
ATOM     12  C   UNL     1       4.667  -0.016   1.242  1.00  0.00     0.033 A 
ATOM     13  O   UNL     1       5.610  -1.806  -0.159  1.00  0.00    -0.475 OA
ATOM     14  C   UNL     1       5.733  -0.638   0.557  1.00  0.00     0.129 A 
ATOM     15  C   UNL     1       4.847   1.232   1.895  1.00  0.00     0.042 A 
ATOM     16  C   UNL     1       6.978  -0.026   0.491  1.00  0.00     0.049 A 
ATOM     17  C   UNL     1       6.112   1.849   1.768  1.00  0.00     0.055 A 
ATOM     18  C   UNL     1       7.161   1.224   1.076  1.00  0.00     0.025 A 
ATOM     19  Cl  UNL     1       6.454   3.432   2.391  1.00  0.00    -0.083 Cl
BRANCH  11  20
ATOM     20  C   UNL     1       4.090  -3.699   0.177  1.00  0.00     0.429 C 
ATOM     21  F   UNL     1       2.825  -4.160   0.038  1.00  0.00    -0.167 F 
ATOM     22  F   UNL     1       4.903  -4.608  -0.412  1.00  0.00    -0.167 F 
ATOM     23  F   UNL     1       4.373  -3.703   1.502  1.00  0.00    -0.167 F 
ENDBRANCH  11  20
BRANCH  15  24
ATOM     24  S   UNL     1       3.511   2.132   2.738  1.00  0.00    -0.088 SA
BRANCH  24  25
ATOM     25  C   UNL     1       2.522   0.875   3.522  1.00  0.00     0.012 A 
ATOM     26  C   UNL     1       1.216   0.657   3.059  1.00  0.00     0.015 A 
ATOM     27  C   UNL     1       3.043   0.042   4.518  1.00  0.00     0.015 A 
ATOM     28  C   UNL     1       0.473  -0.430   3.523  1.00  0.00     0.001 A 
ATOM     29  C   UNL     1       2.293  -1.039   4.990  1.00  0.00     0.001 A 
ATOM     30  C   UNL     1       1.018  -1.285   4.480  1.00  0.00     0.000 A 
ENDBRANCH  24  25
ENDBRANCH  15  24
ENDBRANCH   7   9
ENDBRANCH   4   5
ENDBRANCH   3   4
ENDBRANCH   2   3
ENDBRANCH   1   2
BRANCH   1  31
ATOM     31  C   UNL     1       5.818   3.875  -2.411  1.00  0.00     0.021 C 
BRANCH  31  32
ATOM     32  C   UNL     1       6.707   3.811  -3.653  1.00  0.00     0.116 C 
BRANCH  32  33
ATOM     33  N   UNL     1       6.550   4.955  -4.530  1.00  0.00    -0.352 N 
ATOM     34  C   UNL     1       7.488   5.780  -5.103  1.00  0.00     0.251 C 
ATOM     35  H   UNL     1       5.617   5.179  -4.751  1.00  0.00     0.163 HD
ATOM     36  O   UNL     1       7.103   6.760  -5.739  1.00  0.00    -0.269 OA
BRANCH  34  37
ATOM     37  C   UNL     1       8.944   5.534  -4.953  1.00  0.00     0.039 A 
ATOM     38  C   UNL     1       9.784   6.638  -4.766  1.00  0.00     0.014 A 
ATOM     39  C   UNL     1       9.503   4.256  -5.056  1.00  0.00     0.014 A 
ATOM     40  C   UNL     1      11.165   6.461  -4.630  1.00  0.00     0.010 A 
ATOM     41  C   UNL     1      10.877   4.074  -4.867  1.00  0.00     0.010 A 
ATOM     42  C   UNL     1      11.723   5.174  -4.654  1.00  0.00    -0.014 A 
BRANCH  42  43
ATOM     43  C   UNL     1      13.184   4.967  -4.470  1.00  0.00     0.031 A 
ATOM     44  C   UNL     1      14.029   4.449  -5.603  1.00  0.00     0.074 A 
ATOM     45  C   UNL     1      13.748   5.201  -3.268  1.00  0.00     0.049 A 
ATOM     46  N   UNL     1      15.297   4.125  -5.607  1.00  0.00    -0.248 NA
ATOM     47  C   UNL     1      13.354   4.248  -6.894  1.00  0.00     0.031 C 
ATOM     48  C   UNL     1      13.038   5.671  -2.077  1.00  0.00     0.029 A 
ATOM     49  N   UNL     1      15.048   5.062  -2.846  1.00  0.00    -0.354 N 
ATOM     50  C   UNL     1      15.569   3.664  -6.890  1.00  0.00     0.074 A 
ATOM     51  C   UNL     1      14.325   3.721  -7.628  1.00  0.00     0.031 C 
ATOM     52  C   UNL     1      13.911   5.789  -1.062  1.00  0.00     0.029 A 
ATOM     53  C   UNL     1      15.236   5.380  -1.522  1.00  0.00     0.049 A 
ATOM     54  H   UNL     1      15.776   4.763  -3.437  1.00  0.00     0.167 HD
ATOM     55  C   UNL     1      16.748   3.245  -7.411  1.00  0.00     0.037 A 
ATOM     56  C   UNL     1      16.346   5.340  -0.760  1.00  0.00     0.037 A 
ATOM     57  C   UNL     1      17.994   3.221  -6.691  1.00  0.00     0.049 A 
ATOM     58  C   UNL     1      17.650   4.908  -1.371  1.00  0.00     0.074 A 
ATOM     59  C   UNL     1      19.247   2.846  -7.147  1.00  0.00     0.029 A 
ATOM     60  N   UNL     1      18.150   3.599  -5.366  1.00  0.00    -0.354 N 
ATOM     61  N   UNL     1      17.890   4.500  -2.593  1.00  0.00    -0.248 NA
ATOM     62  C   UNL     1      18.835   4.938  -0.501  1.00  0.00     0.031 C 
ATOM     63  C   UNL     1      20.157   2.982  -6.093  1.00  0.00     0.029 A 
ATOM     64  C   UNL     1      19.476   3.466  -4.988  1.00  0.00     0.049 A 
ATOM     65  H   UNL     1      17.425   3.916  -4.780  1.00  0.00     0.167 HD
ATOM     66  C   UNL     1      19.255   4.241  -2.645  1.00  0.00     0.074 A 
ATOM     67  C   UNL     1      19.791   4.549  -1.335  1.00  0.00     0.031 C 
ATOM     68  C   UNL     1      19.996   3.786  -3.684  1.00  0.00     0.037 A 
BRANCH  55  69
ATOM     69  C   UNL     1      16.746   2.783  -8.840  1.00  0.00     0.058 A 
ATOM     70  C   UNL     1      16.662   3.695  -9.903  1.00  0.00     0.135 A 
ATOM     71  C   UNL     1      16.858   1.419  -9.152  1.00  0.00     0.135 A 
ATOM     72  F   UNL     1      16.538   5.009  -9.658  1.00  0.00    -0.206 F 
ATOM     73  C   UNL     1      16.661   3.269 -11.227  1.00  0.00     0.059 A 
ATOM     74  C   UNL     1      16.880   0.972 -10.470  1.00  0.00     0.059 A 
ATOM     75  F   UNL     1      16.942   0.506  -8.171  1.00  0.00    -0.206 F 
ATOM     76  C   UNL     1      16.765   1.904 -11.501  1.00  0.00     0.060 A 
BRANCH  76  77
ATOM     77  S   UNL     1      16.757   1.360 -13.222  1.00  0.00     0.124 S 
ATOM     78  O   UNL     1      15.334   1.430 -13.540  1.00  0.00    -0.237 OA
ATOM     79  O   UNL     1      17.601   2.357 -13.874  1.00  0.00    -0.237 OA
ATOM     80  O   UNL     1      17.321   0.016 -13.154  1.00  0.00    -0.744 OA
ENDBRANCH  76  77
ENDBRANCH  55  69
BRANCH  56  81
ATOM     81  C   UNL     1      16.276   5.736   0.670  1.00  0.00     0.058 A 
ATOM     82  C   UNL     1      16.794   6.965   1.102  1.00  0.00     0.135 A 
ATOM     83  C   UNL     1      15.681   4.901   1.626  1.00  0.00     0.135 A 
ATOM     84  F   UNL     1      17.377   7.793   0.222  1.00  0.00    -0.206 F 
ATOM     85  C   UNL     1      16.738   7.349   2.437  1.00  0.00     0.059 A 
ATOM     86  C   UNL     1      15.597   5.270   2.965  1.00  0.00     0.059 A 
ATOM     87  F   UNL     1      15.157   3.721   1.257  1.00  0.00    -0.206 F 
ATOM     88  C   UNL     1      16.139   6.493   3.362  1.00  0.00     0.060 A 
BRANCH  88  89
ATOM     89  S   UNL     1      16.022   7.015   5.088  1.00  0.00     0.124 S 
ATOM     90  O   UNL     1      17.362   6.712   5.575  1.00  0.00    -0.237 OA
ATOM     91  O   UNL     1      15.691   8.431   4.963  1.00  0.00    -0.237 OA
ATOM     92  O   UNL     1      14.950   6.175   5.615  1.00  0.00    -0.744 OA
ENDBRANCH  88  89
ENDBRANCH  56  81
BRANCH  68  93
ATOM     93  C   UNL     1      21.470   3.618  -3.457  1.00  0.00     0.058 A 
ATOM     94  C   UNL     1      21.981   2.518  -2.752  1.00  0.00     0.135 A 
ATOM     95  C   UNL     1      22.383   4.542  -3.990  1.00  0.00     0.135 A 
ATOM     96  F   UNL     1      21.147   1.611  -2.219  1.00  0.00    -0.206 F 
ATOM     97  C   UNL     1      23.349   2.346  -2.569  1.00  0.00     0.059 A 
ATOM     98  C   UNL     1      23.756   4.381  -3.833  1.00  0.00     0.059 A 
ATOM     99  F   UNL     1      21.943   5.607  -4.677  1.00  0.00    -0.206 F 
ATOM    100  C   UNL     1      24.229   3.284  -3.112  1.00  0.00     0.060 A 
BRANCH 100 101
ATOM    101  S   UNL     1      26.006   3.037  -2.903  1.00  0.00     0.124 S 
ATOM    102  O   UNL     1      26.210   3.517  -1.540  1.00  0.00    -0.237 OA
ATOM    103  O   UNL     1      26.150   1.597  -3.095  1.00  0.00    -0.237 OA
ATOM    104  O   UNL     1      26.588   3.863  -3.956  1.00  0.00    -0.744 OA
ENDBRANCH 100 101
ENDBRANCH  68  93
ENDBRANCH  42  43
ENDBRANCH  34  37
ENDBRANCH  32  33
ENDBRANCH  31  32
ENDBRANCH   1  31
TORSDOF 19
