REMARK SMILES C[C@H]([C@@H](C)C(=O)NCCCCCCNC(=O)c1ccc(-c2c3nc(c(-c4c(F)cc(S(=O)(=O)[O-])cc4F)c4ccc([nH]4)c(-c4c(F)cc(S(=O)(=O)[O-])cc4F)c4nc(c(-c5c(F)cc(S(=O)(=O)[O-])cc5F)c5ccc2[nH]5)C=C4)C=C3)cc1)[NH+]1CCN(c2nccs2)CC1
REMARK SMILES IDX 10 1 9 2 8 3 7 4 5 5 6 6 3 8 4 9 2 10 1 11 83 12 84 13 93 14
REMARK SMILES IDX 85 16 92 17 86 18 87 19 88 20 91 21 89 22 90 23 11 24 12 25
REMARK SMILES IDX 13 26 14 27 15 28 16 30 17 31 18 32 82 33 19 34 81 35 20 36
REMARK SMILES IDX 21 37 22 38 75 39 23 40 80 41 74 42 76 43 24 44 79 45 73 46
REMARK SMILES IDX 72 47 25 49 59 50 38 51 58 52 39 53 42 54 57 55 77 56 40 57
REMARK SMILES IDX 41 58 56 60 78 61 43 62 26 63 27 64 36 65 28 66 29 67 35 68
REMARK SMILES IDX 37 69 30 70 31 71 32 72 33 73 34 74 60 75 61 76 70 77 62 78
REMARK SMILES IDX 63 79 69 80 71 81 64 82 65 83 66 84 67 85 68 86 44 87 45 88
REMARK SMILES IDX 54 89 46 90 47 91 53 92 55 93 48 94 49 95 50 96 51 97 52 98
REMARK H PARENT 7 7 83 15 14 29 76 48 42 59
REMARK Flexibility Score: inf
ROOT
ATOM      1  C   UNL     1       5.629   1.063   2.942  1.00  0.00     0.002 C 
ENDROOT
BRANCH   1   2
ATOM      2  C   UNL     1       4.131   0.945   2.684  1.00  0.00     0.021 C 
BRANCH   2   3
ATOM      3  C   UNL     1       3.673   1.382   1.286  1.00  0.00     0.116 C 
BRANCH   3   4
ATOM      4  N   UNL     1       3.534   0.232   0.403  1.00  0.00    -0.356 N 
ATOM      5  C   UNL     1       2.462  -0.435  -0.103  1.00  0.00     0.228 C 
ATOM      6  O   UNL     1       2.716  -1.472  -0.729  1.00  0.00    -0.275 OA
ATOM      7  H   UNL     1       4.398  -0.140   0.112  1.00  0.00     0.163 HD
BRANCH   5   8
ATOM      8  C   UNL     1       0.998   0.017   0.056  1.00  0.00     0.133 C 
ATOM      9  C   UNL     1       0.813   1.479  -0.343  1.00  0.00     0.024 C 
BRANCH   8  10
ATOM     10  C   UNL     1       0.335  -0.499   1.382  1.00  0.00     0.193 C 
ATOM     11  C   UNL     1       1.056   0.001   2.624  1.00  0.00     0.076 C 
BRANCH  10  12
ATOM     12  N   UNL     1      -1.146  -0.427   1.445  1.00  0.00    -0.329 N 
ATOM     13  C   UNL     1      -1.745  -1.269   2.514  1.00  0.00     0.284 C 
ATOM     14  C   UNL     1      -1.798   0.891   1.507  1.00  0.00     0.284 C 
ATOM     15  H   UNL     1      -1.344  -0.791   0.513  1.00  0.00     0.348 HD
ATOM     16  C   UNL     1      -1.887  -0.672   3.944  1.00  0.00     0.180 C 
ATOM     17  C   UNL     1      -1.758   1.611   2.862  1.00  0.00     0.180 C 
ATOM     18  N   UNL     1      -2.222   0.749   3.948  1.00  0.00    -0.337 N 
BRANCH  18  19
ATOM     19  C   UNL     1      -2.710   1.358   5.060  1.00  0.00     0.185 A 
ATOM     20  N   UNL     1      -3.601   2.324   5.008  1.00  0.00    -0.229 NA
ATOM     21  S   UNL     1      -2.188   0.967   6.667  1.00  0.00    -0.106 S 
ATOM     22  C   UNL     1      -3.941   2.744   6.276  1.00  0.00     0.125 A 
ATOM     23  C   UNL     1      -3.245   2.152   7.303  1.00  0.00     0.088 A 
ENDBRANCH  18  19
ENDBRANCH  10  12
ENDBRANCH   8  10
ENDBRANCH   5   8
ENDBRANCH   3   4
ENDBRANCH   2   3
ENDBRANCH   1   2
BRANCH   1  24
ATOM     24  C   UNL     1       6.156   2.495   3.018  1.00  0.00     0.002 C 
BRANCH  24  25
ATOM     25  C   UNL     1       5.472   3.391   4.056  1.00  0.00     0.021 C 
BRANCH  25  26
ATOM     26  C   UNL     1       5.483   2.849   5.484  1.00  0.00     0.116 C 
BRANCH  26  27
ATOM     27  N   UNL     1       6.839   2.634   5.968  1.00  0.00    -0.352 N 
ATOM     28  C   UNL     1       7.524   3.299   6.951  1.00  0.00     0.251 C 
ATOM     29  H   UNL     1       7.334   1.907   5.527  1.00  0.00     0.163 HD
ATOM     30  O   UNL     1       8.748   3.172   7.042  1.00  0.00    -0.269 OA
BRANCH  28  31
ATOM     31  C   UNL     1       6.798   4.171   7.895  1.00  0.00     0.039 A 
ATOM     32  C   UNL     1       7.307   5.438   8.190  1.00  0.00     0.014 A 
ATOM     33  C   UNL     1       5.616   3.728   8.497  1.00  0.00     0.014 A 
ATOM     34  C   UNL     1       6.595   6.287   9.039  1.00  0.00     0.010 A 
ATOM     35  C   UNL     1       4.874   4.600   9.287  1.00  0.00     0.010 A 
ATOM     36  C   UNL     1       5.355   5.888   9.566  1.00  0.00    -0.014 A 
BRANCH  36  37
ATOM     37  C   UNL     1       4.534   6.807  10.397  1.00  0.00     0.031 A 
ATOM     38  C   UNL     1       4.229   6.461  11.829  1.00  0.00     0.074 A 
ATOM     39  C   UNL     1       3.995   7.906   9.833  1.00  0.00     0.049 A 
ATOM     40  N   UNL     1       3.454   7.081  12.680  1.00  0.00    -0.248 NA
ATOM     41  C   UNL     1       4.857   5.243  12.367  1.00  0.00     0.031 C 
ATOM     42  C   UNL     1       4.178   8.318   8.439  1.00  0.00     0.029 A 
ATOM     43  N   UNL     1       3.166   8.868  10.354  1.00  0.00    -0.354 N 
ATOM     44  C   UNL     1       3.484   6.322  13.844  1.00  0.00     0.074 A 
ATOM     45  C   UNL     1       4.319   5.172  13.577  1.00  0.00     0.031 C 
ATOM     46  C   UNL     1       3.492   9.451   8.220  1.00  0.00     0.029 A 
ATOM     47  C   UNL     1       2.785   9.823   9.440  1.00  0.00     0.049 A 
ATOM     48  H   UNL     1       2.871   8.874  11.293  1.00  0.00     0.167 HD
ATOM     49  C   UNL     1       2.882   6.573  15.031  1.00  0.00     0.037 A 
ATOM     50  C   UNL     1       1.944  10.869   9.565  1.00  0.00     0.037 A 
ATOM     51  C   UNL     1       2.076   7.737  15.294  1.00  0.00     0.049 A 
ATOM     52  C   UNL     1       1.284  11.122  10.893  1.00  0.00     0.074 A 
ATOM     53  C   UNL     1       1.492   8.124  16.487  1.00  0.00     0.029 A 
ATOM     54  N   UNL     1       1.734   8.695  14.351  1.00  0.00    -0.354 N 
ATOM     55  N   UNL     1       1.392  10.441  12.009  1.00  0.00    -0.248 NA
ATOM     56  C   UNL     1       0.390  12.285  10.984  1.00  0.00     0.031 C 
ATOM     57  C   UNL     1       0.749   9.285  16.252  1.00  0.00     0.029 A 
ATOM     58  C   UNL     1       0.917   9.654  14.926  1.00  0.00     0.049 A 
ATOM     59  H   UNL     1       2.029   8.694  13.411  1.00  0.00     0.167 HD
ATOM     60  C   UNL     1       0.600  11.105  12.939  1.00  0.00     0.074 A 
ATOM     61  C   UNL     1       0.030  12.250  12.260  1.00  0.00     0.031 C 
ATOM     62  C   UNL     1       0.364  10.793  14.237  1.00  0.00     0.037 A 
BRANCH  49  63
ATOM     63  C   UNL     1       3.066   5.573  16.140  1.00  0.00     0.058 A 
ATOM     64  C   UNL     1       4.298   5.409  16.793  1.00  0.00     0.135 A 
ATOM     65  C   UNL     1       1.978   4.808  16.595  1.00  0.00     0.135 A 
ATOM     66  F   UNL     1       5.374   6.103  16.391  1.00  0.00    -0.206 F 
ATOM     67  C   UNL     1       4.451   4.507  17.841  1.00  0.00     0.059 A 
ATOM     68  C   UNL     1       2.102   3.922  17.661  1.00  0.00     0.059 A 
ATOM     69  F   UNL     1       0.777   4.924  16.007  1.00  0.00    -0.206 F 
ATOM     70  C   UNL     1       3.346   3.769  18.270  1.00  0.00     0.060 A 
BRANCH  70  71
ATOM     71  S   UNL     1       3.559   2.618  19.644  1.00  0.00     0.124 S 
ATOM     72  O   UNL     1       4.345   1.560  19.016  1.00  0.00    -0.237 OA
ATOM     73  O   UNL     1       4.266   3.433  20.627  1.00  0.00    -0.237 OA
ATOM     74  O   UNL     1       2.192   2.255  20.000  1.00  0.00    -0.744 OA
ENDBRANCH  70  71
ENDBRANCH  49  63
BRANCH  50  75
ATOM     75  C   UNL     1       1.677  11.754   8.398  1.00  0.00     0.058 A 
ATOM     76  C   UNL     1       2.136  13.079   8.374  1.00  0.00     0.135 A 
ATOM     77  C   UNL     1       0.960  11.292   7.283  1.00  0.00     0.135 A 
ATOM     78  F   UNL     1       2.821  13.570   9.418  1.00  0.00    -0.206 F 
ATOM     79  C   UNL     1       1.876  13.922   7.298  1.00  0.00     0.059 A 
ATOM     80  C   UNL     1       0.712  12.106   6.183  1.00  0.00     0.059 A 
ATOM     81  F   UNL     1       0.513  10.026   7.247  1.00  0.00    -0.206 F 
ATOM     82  C   UNL     1       1.164  13.425   6.205  1.00  0.00     0.060 A 
BRANCH  82  83
ATOM     83  S   UNL     1       0.863  14.516   4.798  1.00  0.00     0.124 S 
ATOM     84  O   UNL     1      -0.148  15.418   5.337  1.00  0.00    -0.237 OA
ATOM     85  O   UNL     1       2.183  15.096   4.573  1.00  0.00    -0.237 OA
ATOM     86  O   UNL     1       0.404  13.600   3.757  1.00  0.00    -0.744 OA
ENDBRANCH  82  83
ENDBRANCH  50  75
BRANCH  62  87
ATOM     87  C   UNL     1      -0.528  11.715  15.024  1.00  0.00     0.058 A 
ATOM     88  C   UNL     1      -1.915  11.751  14.816  1.00  0.00     0.135 A 
ATOM     89  C   UNL     1       0.004  12.516  16.047  1.00  0.00     0.135 A 
ATOM     90  F   UNL     1      -2.473  11.012  13.845  1.00  0.00    -0.206 F 
ATOM     91  C   UNL     1      -2.743  12.559  15.589  1.00  0.00     0.059 A 
ATOM     92  C   UNL     1      -0.808  13.309  16.851  1.00  0.00     0.059 A 
ATOM     93  F   UNL     1       1.325  12.511  16.293  1.00  0.00    -0.206 F 
ATOM     94  C   UNL     1      -2.181  13.329  16.609  1.00  0.00     0.060 A 
BRANCH  94  95
ATOM     95  S   UNL     1      -3.275  14.328  17.640  1.00  0.00     0.124 S 
ATOM     96  O   UNL     1      -3.650  15.397  16.721  1.00  0.00    -0.237 OA
ATOM     97  O   UNL     1      -4.334  13.381  17.978  1.00  0.00    -0.237 OA
ATOM     98  O   UNL     1      -2.421  14.729  18.754  1.00  0.00    -0.744 OA
ENDBRANCH  94  95
ENDBRANCH  62  87
ENDBRANCH  36  37
ENDBRANCH  28  31
ENDBRANCH  26  27
ENDBRANCH  25  26
ENDBRANCH  24  25
ENDBRANCH   1  24
TORSDOF 19
