REMARK SMILES Cc1nn(C)c(C)c1[C@H](C)N1C(=O)CC[C@@H](C(=O)NCCCCCCNC(=O)c2ccc(-c3c4nc(c(-c5c(F)cc(S(=O)(=O)[O-])cc5F)c5ccc([nH]5)c(-c5c(F)cc(S(=O)(=O)[O-])cc5F)c5nc(c(-c6c(F)cc(S(=O)(=O)[O-])cc6F)c6ccc3[nH]6)C=C5)C=C4)cc2)[C@@H]1c1ccco1
REMARK SMILES IDX 23 1 22 2 21 3 20 4 19 5 17 6 18 7 16 9 11 10 12 11 95 12
REMARK SMILES IDX 13 13 14 14 15 15 9 16 10 17 8 18 1 19 2 20 3 21 4 22 6 23
REMARK SMILES IDX 5 24 7 25 96 26 97 27 100 28 98 29 99 30 24 31 25 32 26 33
REMARK SMILES IDX 27 34 28 36 29 37 30 38 94 39 31 40 93 41 32 42 33 43 34 44
REMARK SMILES IDX 87 45 35 46 92 47 86 48 88 49 36 50 91 51 85 52 84 53 37 55
REMARK SMILES IDX 71 56 50 57 70 58 51 59 54 60 69 61 89 62 52 63 53 64 68 66
REMARK SMILES IDX 90 67 55 68 38 69 39 70 48 71 40 72 41 73 47 74 49 75 42 76
REMARK SMILES IDX 43 77 44 78 45 79 46 80 72 81 73 82 82 83 74 84 75 85 81 86
REMARK SMILES IDX 83 87 76 88 77 89 78 90 79 91 80 92 56 93 57 94 66 95 58 96
REMARK SMILES IDX 59 97 65 98 67 99 60 100 61 101 62 102 63 103 64 104
REMARK H PARENT 19 8 26 35 88 54 54 65
REMARK Flexibility Score: inf
ROOT
ATOM      1  C   UNL     1      -1.277  11.160  -1.799  1.00  0.00     0.002 C 
ENDROOT
BRANCH   1   2
ATOM      2  C   UNL     1      -1.087  10.265  -3.028  1.00  0.00     0.002 C 
BRANCH   2   3
ATOM      3  C   UNL     1       0.206   9.434  -3.037  1.00  0.00     0.021 C 
BRANCH   3   4
ATOM      4  C   UNL     1       0.392   8.554  -1.800  1.00  0.00     0.116 C 
BRANCH   4   5
ATOM      5  N   UNL     1      -0.665   7.566  -1.732  1.00  0.00    -0.356 N 
ATOM      6  C   UNL     1      -0.672   6.264  -2.113  1.00  0.00     0.225 C 
ATOM      7  O   UNL     1      -1.778   5.745  -2.272  1.00  0.00    -0.275 OA
ATOM      8  H   UNL     1      -1.512   7.891  -1.348  1.00  0.00     0.163 HD
BRANCH   6   9
ATOM      9  C   UNL     1       0.632   5.480  -2.235  1.00  0.00     0.109 C 
ATOM     10  N   UNL     1      -0.194   3.386  -1.081  1.00  0.00    -0.325 N 
ATOM     11  C   UNL     1      -0.770   2.976  -2.283  1.00  0.00     0.223 C 
ATOM     12  C   UNL     1       0.732   4.532  -1.028  1.00  0.00     0.164 C 
ATOM     13  O   UNL     1      -1.670   2.131  -2.338  1.00  0.00    -0.275 OA
ATOM     14  C   UNL     1      -0.297   3.578  -3.595  1.00  0.00     0.101 C 
ATOM     15  C   UNL     1       0.719   4.694  -3.528  1.00  0.00     0.026 C 
BRANCH  10  16
ATOM     16  C   UNL     1      -0.666   2.692   0.160  1.00  0.00     0.117 C 
ATOM     17  C   UNL     1      -0.383   1.183   0.079  1.00  0.00     0.036 C 
BRANCH  16  18
ATOM     18  C   UNL     1      -0.212   3.328   1.479  1.00  0.00     0.018 A 
ATOM     19  C   UNL     1       1.231   1.472   2.787  1.00  0.00     0.069 C 
ATOM     20  C   UNL     1       0.597   2.797   2.549  1.00  0.00     0.065 A 
ATOM     21  N   UNL     1       0.767   3.689   3.531  1.00  0.00    -0.178 NA
ATOM     22  N   UNL     1       0.094   4.769   3.137  1.00  0.00    -0.272 N 
ATOM     23  C   UNL     1      -0.598   4.582   1.973  1.00  0.00     0.040 A 
ATOM     24  C   UNL     1       0.188   5.953   3.960  1.00  0.00     0.174 C 
ATOM     25  C   UNL     1      -1.512   5.621   1.423  1.00  0.00     0.067 C 
ENDBRANCH  16  18
ENDBRANCH  10  16
BRANCH  12  26
ATOM     26  C   UNL     1       2.150   4.116  -0.763  1.00  0.00     0.127 A 
ATOM     27  C   UNL     1       3.229   4.824  -0.269  1.00  0.00     0.048 A 
ATOM     28  O   UNL     1       2.515   2.822  -0.998  1.00  0.00    -0.467 OA
ATOM     29  C   UNL     1       4.302   3.910  -0.175  1.00  0.00     0.042 A 
ATOM     30  C   UNL     1       3.814   2.704  -0.618  1.00  0.00     0.195 A 
ENDBRANCH  12  26
ENDBRANCH   6   9
ENDBRANCH   4   5
ENDBRANCH   3   4
ENDBRANCH   2   3
ENDBRANCH   1   2
BRANCH   1  31
ATOM     31  C   UNL     1      -0.110  12.103  -1.502  1.00  0.00     0.021 C 
BRANCH  31  32
ATOM     32  C   UNL     1       0.239  13.055  -2.641  1.00  0.00     0.116 C 
BRANCH  32  33
ATOM     33  N   UNL     1      -0.841  13.986  -2.925  1.00  0.00    -0.352 N 
ATOM     34  C   UNL     1      -0.804  15.356  -2.996  1.00  0.00     0.251 C 
ATOM     35  H   UNL     1      -1.721  13.577  -3.088  1.00  0.00     0.163 HD
ATOM     36  O   UNL     1      -1.851  15.997  -3.049  1.00  0.00    -0.269 OA
BRANCH  34  37
ATOM     37  C   UNL     1       0.498  16.057  -2.983  1.00  0.00     0.039 A 
ATOM     38  C   UNL     1       0.656  17.177  -2.164  1.00  0.00     0.014 A 
ATOM     39  C   UNL     1       1.563  15.604  -3.768  1.00  0.00     0.014 A 
ATOM     40  C   UNL     1       1.902  17.803  -2.083  1.00  0.00     0.010 A 
ATOM     41  C   UNL     1       2.822  16.182  -3.628  1.00  0.00     0.010 A 
ATOM     42  C   UNL     1       3.006  17.287  -2.784  1.00  0.00    -0.014 A 
BRANCH  42  43
ATOM     43  C   UNL     1       4.361  17.878  -2.631  1.00  0.00     0.031 A 
ATOM     44  C   UNL     1       5.058  18.493  -3.815  1.00  0.00     0.074 A 
ATOM     45  C   UNL     1       4.989  17.801  -1.441  1.00  0.00     0.049 A 
ATOM     46  N   UNL     1       6.266  18.991  -3.893  1.00  0.00    -0.248 NA
ATOM     47  C   UNL     1       4.311  18.531  -5.082  1.00  0.00     0.031 C 
ATOM     48  C   UNL     1       4.435  17.189  -0.231  1.00  0.00     0.029 A 
ATOM     49  N   UNL     1       6.235  18.227  -1.053  1.00  0.00    -0.354 N 
ATOM     50  C   UNL     1       6.426  19.391  -5.215  1.00  0.00     0.074 A 
ATOM     51  C   UNL     1       5.213  19.029  -5.915  1.00  0.00     0.031 C 
ATOM     52  C   UNL     1       5.326  17.299   0.767  1.00  0.00     0.029 A 
ATOM     53  C   UNL     1       6.532  17.946   0.260  1.00  0.00     0.049 A 
ATOM     54  H   UNL     1       6.857  18.692  -1.658  1.00  0.00     0.167 HD
ATOM     55  C   UNL     1       7.480  20.023  -5.786  1.00  0.00     0.037 A 
ATOM     56  C   UNL     1       7.653  18.171   0.974  1.00  0.00     0.037 A 
ATOM     57  C   UNL     1       8.677  20.395  -5.077  1.00  0.00     0.049 A 
ATOM     58  C   UNL     1       8.816  18.858   0.312  1.00  0.00     0.074 A 
ATOM     59  C   UNL     1       9.778  21.085  -5.553  1.00  0.00     0.029 A 
ATOM     60  N   UNL     1       8.935  20.105  -3.745  1.00  0.00    -0.354 N 
ATOM     61  N   UNL     1       8.926  19.286  -0.924  1.00  0.00    -0.248 NA
ATOM     62  C   UNL     1      10.006  19.100   1.139  1.00  0.00     0.031 C 
ATOM     63  C   UNL     1      10.724  21.163  -4.527  1.00  0.00     0.029 A 
ATOM     64  C   UNL     1      10.188  20.578  -3.390  1.00  0.00     0.049 A 
ATOM     65  H   UNL     1       8.318  19.632  -3.140  1.00  0.00     0.167 HD
ATOM     66  C   UNL     1      10.183  19.876  -1.012  1.00  0.00     0.074 A 
ATOM     67  C   UNL     1      10.790  19.759   0.298  1.00  0.00     0.031 C 
ATOM     68  C   UNL     1      10.778  20.463  -2.079  1.00  0.00     0.037 A 
BRANCH  55  69
ATOM     69  C   UNL     1       7.389  20.354  -7.252  1.00  0.00     0.058 A 
ATOM     70  C   UNL     1       6.505  21.332  -7.736  1.00  0.00     0.135 A 
ATOM     71  C   UNL     1       8.231  19.720  -8.180  1.00  0.00     0.135 A 
ATOM     72  F   UNL     1       5.666  21.960  -6.897  1.00  0.00    -0.206 F 
ATOM     73  C   UNL     1       6.439  21.649  -9.089  1.00  0.00     0.059 A 
ATOM     74  C   UNL     1       8.205  20.044  -9.534  1.00  0.00     0.059 A 
ATOM     75  F   UNL     1       9.096  18.776  -7.775  1.00  0.00    -0.206 F 
ATOM     76  C   UNL     1       7.296  21.001  -9.980  1.00  0.00     0.060 A 
BRANCH  76  77
ATOM     77  S   UNL     1       7.205  21.435 -11.730  1.00  0.00     0.124 S 
ATOM     78  O   UNL     1       5.925  20.844 -12.110  1.00  0.00    -0.237 OA
ATOM     79  O   UNL     1       7.243  22.893 -11.691  1.00  0.00    -0.237 OA
ATOM     80  O   UNL     1       8.384  20.793 -12.302  1.00  0.00    -0.744 OA
ENDBRANCH  76  77
ENDBRANCH  55  69
BRANCH  56  81
ATOM     81  C   UNL     1       7.725  17.750   2.400  1.00  0.00     0.058 A 
ATOM     82  C   UNL     1       7.766  18.699   3.433  1.00  0.00     0.135 A 
ATOM     83  C   UNL     1       7.746  16.393   2.759  1.00  0.00     0.135 A 
ATOM     84  F   UNL     1       7.754  20.009   3.141  1.00  0.00    -0.206 F 
ATOM     85  C   UNL     1       7.845  18.319   4.769  1.00  0.00     0.059 A 
ATOM     86  C   UNL     1       7.795  15.989   4.089  1.00  0.00     0.059 A 
ATOM     87  F   UNL     1       7.691  15.445   1.811  1.00  0.00    -0.206 F 
ATOM     88  C   UNL     1       7.856  16.960   5.087  1.00  0.00     0.060 A 
BRANCH  88  89
ATOM     89  S   UNL     1       7.914  16.478   6.826  1.00  0.00     0.124 S 
ATOM     90  O   UNL     1       9.285  16.823   7.181  1.00  0.00    -0.237 OA
ATOM     91  O   UNL     1       6.871  17.316   7.410  1.00  0.00    -0.237 OA
ATOM     92  O   UNL     1       7.611  15.050   6.788  1.00  0.00    -0.744 OA
ENDBRANCH  88  89
ENDBRANCH  56  81
BRANCH  68  93
ATOM     93  C   UNL     1      12.142  21.065  -1.871  1.00  0.00     0.058 A 
ATOM     94  C   UNL     1      13.284  20.270  -1.685  1.00  0.00     0.135 A 
ATOM     95  C   UNL     1      12.315  22.458  -1.914  1.00  0.00     0.135 A 
ATOM     96  F   UNL     1      13.175  18.933  -1.629  1.00  0.00    -0.206 F 
ATOM     97  C   UNL     1      14.544  20.836  -1.522  1.00  0.00     0.059 A 
ATOM     98  C   UNL     1      13.570  23.044  -1.786  1.00  0.00     0.059 A 
ATOM     99  F   UNL     1      11.258  23.265  -2.100  1.00  0.00    -0.206 F 
ATOM    100  C   UNL     1      14.677  22.225  -1.578  1.00  0.00     0.060 A 
BRANCH 100 101
ATOM    101  S   UNL     1      16.324  22.943  -1.401  1.00  0.00     0.124 S 
ATOM    102  O   UNL     1      16.584  22.735   0.019  1.00  0.00    -0.237 OA
ATOM    103  O   UNL     1      17.118  22.130  -2.317  1.00  0.00    -0.237 OA
ATOM    104  O   UNL     1      16.135  24.332  -1.808  1.00  0.00    -0.744 OA
ENDBRANCH 100 101
ENDBRANCH  68  93
ENDBRANCH  42  43
ENDBRANCH  34  37
ENDBRANCH  32  33
ENDBRANCH  31  32
ENDBRANCH   1  31
TORSDOF 19
