REMARK SMILES O=C(NCCCCCCNC(=O)[C@H]1CN(C(=O)c2cccs2)CC[NH2+]1)c1ccc(-c2c3nc(c(-c4c(F)cc(S(=O)(=O)[O-])cc4F)c4ccc([nH]4)c(-c4c(F)cc(S(=O)(=O)[O-])cc4F)c4nc(c(-c5c(F)cc(S(=O)(=O)[O-])cc5F)c5ccc2[nH]5)C=C4)C=C3)cc1
REMARK SMILES IDX 6 1 5 2 4 3 3 4 1 5 2 6 26 8 27 9 91 10 28 11 90 12 29 13
REMARK SMILES IDX 30 14 31 15 84 16 32 17 89 18 83 19 85 20 33 21 88 22 82 23
REMARK SMILES IDX 81 24 34 26 68 27 47 28 67 29 48 30 51 31 66 32 86 33 49 34
REMARK SMILES IDX 50 35 65 37 87 38 52 39 35 40 36 41 45 42 37 43 38 44 44 45
REMARK SMILES IDX 46 46 39 47 40 48 41 49 42 50 43 51 69 52 70 53 79 54 71 55
REMARK SMILES IDX 72 56 78 57 80 58 73 59 74 60 75 61 76 62 77 63 53 64 54 65
REMARK SMILES IDX 63 66 55 67 56 68 62 69 64 70 57 71 58 72 59 73 60 74 61 75
REMARK SMILES IDX 7 76 8 77 9 78 10 79 11 80 12 82 13 83 14 84 25 85 15 86
REMARK SMILES IDX 24 87 23 90 16 91 17 92 18 93 19 94 22 95 20 96 21 97
REMARK H PARENT 3 7 85 25 51 36 10 81 25 88 25 89
REMARK Flexibility Score: inf
ROOT
ATOM      1  C   UNL     1       6.726  -8.142   0.021  1.00  0.00     0.002 C 
ENDROOT
BRANCH   1   2
ATOM      2  C   UNL     1       5.380  -8.786  -0.305  1.00  0.00     0.021 C 
BRANCH   2   3
ATOM      3  C   UNL     1       5.361 -10.306  -0.239  1.00  0.00     0.116 C 
BRANCH   3   4
ATOM      4  N   UNL     1       5.560 -10.817   1.107  1.00  0.00    -0.352 N 
ATOM      5  O   UNL     1       5.044 -11.972   2.977  1.00  0.00    -0.269 OA
ATOM      6  C   UNL     1       4.817 -11.751   1.791  1.00  0.00     0.251 C 
ATOM      7  H   UNL     1       6.330 -10.444   1.595  1.00  0.00     0.163 HD
BRANCH   6   8
ATOM      8  C   UNL     1       3.719 -12.460   1.096  1.00  0.00     0.039 A 
ATOM      9  C   UNL     1       3.911 -12.988  -0.182  1.00  0.00     0.014 A 
ATOM     10  C   UNL     1       2.473 -12.568   1.719  1.00  0.00     0.014 A 
ATOM     11  C   UNL     1       2.823 -13.477  -0.897  1.00  0.00     0.010 A 
ATOM     12  C   UNL     1       1.399 -13.140   1.030  1.00  0.00     0.010 A 
ATOM     13  C   UNL     1       1.554 -13.560  -0.300  1.00  0.00    -0.014 A 
BRANCH  13  14
ATOM     14  C   UNL     1       0.420 -14.117  -1.084  1.00  0.00     0.031 A 
ATOM     15  C   UNL     1      -0.765 -13.265  -1.455  1.00  0.00     0.074 A 
ATOM     16  C   UNL     1       0.490 -15.395  -1.505  1.00  0.00     0.049 A 
ATOM     17  N   UNL     1      -1.807 -13.579  -2.183  1.00  0.00    -0.248 NA
ATOM     18  C   UNL     1      -0.792 -11.889  -0.937  1.00  0.00     0.031 C 
ATOM     19  C   UNL     1       1.580 -16.325  -1.193  1.00  0.00     0.029 A 
ATOM     20  N   UNL     1      -0.350 -16.127  -2.304  1.00  0.00    -0.354 N 
ATOM     21  C   UNL     1      -2.625 -12.455  -2.189  1.00  0.00     0.074 A 
ATOM     22  C   UNL     1      -1.966 -11.455  -1.376  1.00  0.00     0.031 C 
ATOM     23  C   UNL     1       1.372 -17.480  -1.841  1.00  0.00     0.029 A 
ATOM     24  C   UNL     1       0.111 -17.394  -2.570  1.00  0.00     0.049 A 
ATOM     25  H   UNL     1      -1.202 -15.778  -2.653  1.00  0.00     0.167 HD
ATOM     26  C   UNL     1      -3.812 -12.273  -2.819  1.00  0.00     0.037 A 
ATOM     27  C   UNL     1      -0.419 -18.380  -3.317  1.00  0.00     0.037 A 
ATOM     28  C   UNL     1      -4.448 -13.261  -3.652  1.00  0.00     0.049 A 
ATOM     29  C   UNL     1      -1.723 -18.144  -4.021  1.00  0.00     0.074 A 
ATOM     30  C   UNL     1      -5.629 -13.154  -4.368  1.00  0.00     0.029 A 
ATOM     31  N   UNL     1      -3.958 -14.538  -3.883  1.00  0.00    -0.354 N 
ATOM     32  N   UNL     1      -2.465 -17.062  -4.038  1.00  0.00    -0.248 NA
ATOM     33  C   UNL     1      -2.264 -19.262  -4.804  1.00  0.00     0.031 C 
ATOM     34  C   UNL     1      -5.868 -14.377  -5.006  1.00  0.00     0.029 A 
ATOM     35  C   UNL     1      -4.818 -15.233  -4.719  1.00  0.00     0.049 A 
ATOM     36  H   UNL     1      -3.121 -14.898  -3.509  1.00  0.00     0.167 HD
ATOM     37  C   UNL     1      -3.553 -17.364  -4.847  1.00  0.00     0.074 A 
ATOM     38  C   UNL     1      -3.364 -18.724  -5.312  1.00  0.00     0.031 C 
ATOM     39  C   UNL     1      -4.614 -16.585  -5.174  1.00  0.00     0.037 A 
BRANCH  26  40
ATOM     40  C   UNL     1      -4.513 -10.957  -2.619  1.00  0.00     0.058 A 
ATOM     41  C   UNL     1      -4.062  -9.777  -3.231  1.00  0.00     0.135 A 
ATOM     42  C   UNL     1      -5.675 -10.883  -1.833  1.00  0.00     0.135 A 
ATOM     43  F   UNL     1      -2.949  -9.788  -3.982  1.00  0.00    -0.206 F 
ATOM     44  C   UNL     1      -4.723  -8.565  -3.050  1.00  0.00     0.059 A 
ATOM     45  C   UNL     1      -6.364  -9.686  -1.656  1.00  0.00     0.059 A 
ATOM     46  F   UNL     1      -6.151 -11.982  -1.226  1.00  0.00    -0.206 F 
ATOM     47  C   UNL     1      -5.871  -8.529  -2.256  1.00  0.00     0.060 A 
BRANCH  47  48
ATOM     48  S   UNL     1      -6.714  -6.949  -2.025  1.00  0.00     0.124 S 
ATOM     49  O   UNL     1      -5.830  -6.287  -1.071  1.00  0.00    -0.237 OA
ATOM     50  O   UNL     1      -6.719  -6.394  -3.374  1.00  0.00    -0.237 OA
ATOM     51  O   UNL     1      -8.022  -7.336  -1.505  1.00  0.00    -0.744 OA
ENDBRANCH  47  48
ENDBRANCH  26  40
BRANCH  27  52
ATOM     52  C   UNL     1       0.302 -19.671  -3.449  1.00  0.00     0.058 A 
ATOM     53  C   UNL     1       0.930 -20.026  -4.651  1.00  0.00     0.135 A 
ATOM     54  C   UNL     1       0.409 -20.557  -2.365  1.00  0.00     0.135 A 
ATOM     55  F   UNL     1       0.853 -19.211  -5.714  1.00  0.00    -0.206 F 
ATOM     56  C   UNL     1       1.632 -21.219  -4.780  1.00  0.00     0.059 A 
ATOM     57  C   UNL     1       1.126 -21.744  -2.462  1.00  0.00     0.059 A 
ATOM     58  F   UNL     1      -0.159 -20.252  -1.188  1.00  0.00    -0.206 F 
ATOM     59  C   UNL     1       1.727 -22.071  -3.678  1.00  0.00     0.060 A 
BRANCH  59  60
ATOM     60  S   UNL     1       2.693 -23.588  -3.832  1.00  0.00     0.124 S 
ATOM     61  O   UNL     1       1.773 -24.447  -4.568  1.00  0.00    -0.237 OA
ATOM     62  O   UNL     1       3.869 -23.133  -4.567  1.00  0.00    -0.237 OA
ATOM     63  O   UNL     1       2.941 -23.968  -2.444  1.00  0.00    -0.744 OA
ENDBRANCH  59  60
ENDBRANCH  27  52
BRANCH  39  64
ATOM     64  C   UNL     1      -5.635 -17.180  -6.101  1.00  0.00     0.058 A 
ATOM     65  C   UNL     1      -6.547 -18.152  -5.663  1.00  0.00     0.135 A 
ATOM     66  C   UNL     1      -5.711 -16.758  -7.437  1.00  0.00     0.135 A 
ATOM     67  F   UNL     1      -6.508 -18.594  -4.396  1.00  0.00    -0.206 F 
ATOM     68  C   UNL     1      -7.483 -18.710  -6.529  1.00  0.00     0.059 A 
ATOM     69  C   UNL     1      -6.654 -17.286  -8.314  1.00  0.00     0.059 A 
ATOM     70  F   UNL     1      -4.866 -15.824  -7.902  1.00  0.00    -0.206 F 
ATOM     71  C   UNL     1      -7.525 -18.273  -7.854  1.00  0.00     0.060 A 
BRANCH  71  72
ATOM     72  S   UNL     1      -8.749 -18.992  -8.969  1.00  0.00     0.124 S 
ATOM     73  O   UNL     1      -8.130 -20.272  -9.297  1.00  0.00    -0.237 OA
ATOM     74  O   UNL     1      -9.941 -19.061  -8.129  1.00  0.00    -0.237 OA
ATOM     75  O   UNL     1      -8.817 -18.027 -10.063  1.00  0.00    -0.744 OA
ENDBRANCH  71  72
ENDBRANCH  39  64
ENDBRANCH  13  14
ENDBRANCH   6   8
ENDBRANCH   3   4
ENDBRANCH   2   3
ENDBRANCH   1   2
BRANCH   1  76
ATOM     76  C   UNL     1       7.912  -8.637  -0.813  1.00  0.00     0.002 C 
BRANCH  76  77
ATOM     77  C   UNL     1       7.735  -8.582  -2.339  1.00  0.00     0.021 C 
BRANCH  77  78
ATOM     78  C   UNL     1       7.295  -7.228  -2.894  1.00  0.00     0.116 C 
BRANCH  78  79
ATOM     79  N   UNL     1       8.195  -6.182  -2.463  1.00  0.00    -0.351 N 
ATOM     80  C   UNL     1       9.078  -5.449  -3.191  1.00  0.00     0.280 C 
ATOM     81  H   UNL     1       8.164  -5.970  -1.503  1.00  0.00     0.163 HD
ATOM     82  O   UNL     1       9.927  -4.818  -2.558  1.00  0.00    -0.268 OA
BRANCH  80  83
ATOM     83  C   UNL     1       8.981  -5.428  -4.729  1.00  0.00     0.292 C 
ATOM     84  C   UNL     1       9.408  -4.044  -5.272  1.00  0.00     0.195 C 
ATOM     85  N   UNL     1       9.758  -6.555  -5.320  1.00  0.00    -0.333 N 
ATOM     86  N   UNL     1      10.857  -3.832  -5.211  1.00  0.00    -0.326 N 
ATOM     87  C   UNL     1      11.209  -6.297  -5.194  1.00  0.00     0.283 C 
ATOM     88  H   UNL     1       9.517  -6.649  -6.307  1.00  0.00     0.347 HD
ATOM     89  H   UNL     1       9.528  -7.415  -4.821  1.00  0.00     0.347 HD
ATOM     90  C   UNL     1      11.654  -4.931  -5.756  1.00  0.00     0.181 C 
BRANCH  86  91
ATOM     91  C   UNL     1      11.501  -2.675  -4.757  1.00  0.00     0.264 C 
ATOM     92  O   UNL     1      12.718  -2.545  -4.900  1.00  0.00    -0.268 OA
BRANCH  91  93
ATOM     93  C   UNL     1      10.697  -1.621  -4.149  1.00  0.00     0.092 A 
ATOM     94  C   UNL     1       9.880  -1.651  -3.033  1.00  0.00     0.025 A 
ATOM     95  S   UNL     1      10.781  -0.037  -4.803  1.00  0.00    -0.139 S 
ATOM     96  C   UNL     1       9.270  -0.393  -2.759  1.00  0.00     0.012 A 
ATOM     97  C   UNL     1       9.680   0.575  -3.645  1.00  0.00     0.065 A 
ENDBRANCH  91  93
ENDBRANCH  86  91
ENDBRANCH  80  83
ENDBRANCH  78  79
ENDBRANCH  77  78
ENDBRANCH  76  77
ENDBRANCH   1  76
TORSDOF 18
