REMARK SMILES C=C(C)C(=O)OCC[C@@H](C(C)=O)C(=O)NCCCCCCNC(=O)c1ccc(-c2c3nc(c(-c4c(F)cc(S(=O)(=O)[O-])cc4F)c4ccc([nH]4)c(-c4c(F)cc(S(=O)(=O)[O-])cc4F)c4nc(c(-c5c(F)cc(S(=O)(=O)[O-])cc5F)c5ccc2[nH]5)C=C4)C=C3)cc1
REMARK SMILES IDX 17 1 16 2 15 3 13 4 14 5 9 7 8 8 7 9 6 10 4 11 5 12 2 13
REMARK SMILES IDX 1 14 3 15 10 16 11 17 12 18 18 19 19 20 20 21 21 22 22 23
REMARK SMILES IDX 23 24 24 26 25 27 26 28 90 29 27 30 89 31 28 32 29 33 30 34
REMARK SMILES IDX 83 35 31 36 88 37 82 38 84 39 32 40 87 41 81 42 80 43 33 45
REMARK SMILES IDX 67 46 46 47 66 48 47 49 50 50 65 51 85 52 48 53 49 54 64 56
REMARK SMILES IDX 86 57 51 58 34 59 35 60 44 61 36 62 37 63 43 64 45 65 38 66
REMARK SMILES IDX 39 67 40 68 41 69 42 70 68 71 69 72 78 73 70 74 71 75 77 76
REMARK SMILES IDX 79 77 72 78 73 79 74 80 75 81 76 82 52 83 53 84 62 85 54 86
REMARK SMILES IDX 55 87 61 88 63 89 56 90 57 91 58 92 59 93 60 94
REMARK H PARENT 15 6 22 25 84 44 50 55
REMARK Flexibility Score: inf
ROOT
ATOM      1  C   UNL     1       4.273   8.151   1.085  1.00  0.00     0.021 C 
ENDROOT
BRANCH   1   2
ATOM      2  C   UNL     1       4.632   6.788   0.512  1.00  0.00     0.116 C 
BRANCH   2   3
ATOM      3  N   UNL     1       4.488   5.748   1.516  1.00  0.00    -0.355 N 
ATOM      4  C   UNL     1       3.846   4.552   1.443  1.00  0.00     0.230 C 
ATOM      5  O   UNL     1       3.850   3.826   2.439  1.00  0.00    -0.274 OA
ATOM      6  H   UNL     1       4.920   5.939   2.380  1.00  0.00     0.163 HD
BRANCH   4   7
ATOM      7  C   UNL     1       3.134   4.131   0.172  1.00  0.00     0.148 C 
BRANCH   7   8
ATOM      8  C   UNL     1       1.828   4.940   0.033  1.00  0.00     0.063 C 
BRANCH   8   9
ATOM      9  C   UNL     1       0.851   4.428  -1.024  1.00  0.00     0.234 C 
BRANCH   9  10
ATOM     10  O   UNL     1       0.203   3.229  -0.582  1.00  0.00    -0.462 OA
BRANCH  10  11
ATOM     11  C   UNL     1       0.777   2.063  -0.961  1.00  0.00     0.333 C 
ATOM     12  O   UNL     1       1.801   1.931  -1.613  1.00  0.00    -0.247 OA
BRANCH  11  13
ATOM     13  C   UNL     1       0.009   0.937  -0.375  1.00  0.00     0.027 C 
ATOM     14  C   UNL     1       0.697  -0.160  -0.021  1.00  0.00     0.020 C 
ATOM     15  C   UNL     1      -1.471   1.083  -0.240  1.00  0.00     0.051 C 
ENDBRANCH  11  13
ENDBRANCH  10  11
ENDBRANCH   9  10
ENDBRANCH   8   9
ENDBRANCH   7   8
BRANCH   7  16
ATOM     16  C   UNL     1       4.051   4.199  -1.044  1.00  0.00     0.142 C 
ATOM     17  C   UNL     1       5.410   3.545  -0.949  1.00  0.00     0.088 C 
ATOM     18  O   UNL     1       3.708   4.755  -2.090  1.00  0.00    -0.299 OA
ENDBRANCH   7  16
ENDBRANCH   4   7
ENDBRANCH   2   3
ENDBRANCH   1   2
BRANCH   1  19
ATOM     19  C   UNL     1       5.284   8.666   2.113  1.00  0.00     0.002 C 
BRANCH  19  20
ATOM     20  C   UNL     1       6.729   8.740   1.607  1.00  0.00     0.002 C 
BRANCH  20  21
ATOM     21  C   UNL     1       6.912   9.514   0.299  1.00  0.00     0.021 C 
BRANCH  21  22
ATOM     22  C   UNL     1       6.368  10.937   0.332  1.00  0.00     0.116 C 
BRANCH  22  23
ATOM     23  N   UNL     1       7.021  11.742   1.352  1.00  0.00    -0.352 N 
ATOM     24  C   UNL     1       7.661  12.948   1.213  1.00  0.00     0.251 C 
ATOM     25  H   UNL     1       7.002  11.373   2.264  1.00  0.00     0.163 HD
ATOM     26  O   UNL     1       8.342  13.399   2.128  1.00  0.00    -0.269 OA
BRANCH  24  27
ATOM     27  C   UNL     1       7.534  13.683  -0.061  1.00  0.00     0.039 A 
ATOM     28  C   UNL     1       8.686  14.166  -0.684  1.00  0.00     0.014 A 
ATOM     29  C   UNL     1       6.279  13.857  -0.651  1.00  0.00     0.014 A 
ATOM     30  C   UNL     1       8.584  14.770  -1.939  1.00  0.00     0.010 A 
ATOM     31  C   UNL     1       6.189  14.392  -1.931  1.00  0.00     0.010 A 
ATOM     32  C   UNL     1       7.340  14.852  -2.588  1.00  0.00    -0.014 A 
BRANCH  32  33
ATOM     33  C   UNL     1       7.219  15.405  -3.959  1.00  0.00     0.031 A 
ATOM     34  C   UNL     1       6.420  16.656  -4.197  1.00  0.00     0.074 A 
ATOM     35  C   UNL     1       7.768  14.740  -4.995  1.00  0.00     0.049 A 
ATOM     36  N   UNL     1       6.126  17.245  -5.327  1.00  0.00    -0.248 NA
ATOM     37  C   UNL     1       5.856  17.317  -3.009  1.00  0.00     0.031 C 
ATOM     38  C   UNL     1       8.537  13.498  -4.891  1.00  0.00     0.029 A 
ATOM     39  N   UNL     1       7.755  15.010  -6.340  1.00  0.00    -0.354 N 
ATOM     40  C   UNL     1       5.340  18.340  -4.988  1.00  0.00     0.074 A 
ATOM     41  C   UNL     1       5.153  18.298  -3.554  1.00  0.00     0.031 C 
ATOM     42  C   UNL     1       8.944  13.129  -6.116  1.00  0.00     0.029 A 
ATOM     43  C   UNL     1       8.427  14.078  -7.097  1.00  0.00     0.049 A 
ATOM     44  H   UNL     1       7.306  15.796  -6.728  1.00  0.00     0.167 HD
ATOM     45  C   UNL     1       4.842  19.307  -5.796  1.00  0.00     0.037 A 
ATOM     46  C   UNL     1       8.597  13.994  -8.431  1.00  0.00     0.037 A 
ATOM     47  C   UNL     1       5.042  19.344  -7.221  1.00  0.00     0.049 A 
ATOM     48  C   UNL     1       7.991  15.051  -9.313  1.00  0.00     0.074 A 
ATOM     49  C   UNL     1       4.617  20.301  -8.125  1.00  0.00     0.029 A 
ATOM     50  N   UNL     1       5.716  18.375  -7.952  1.00  0.00    -0.354 N 
ATOM     51  N   UNL     1       7.300  16.113  -8.972  1.00  0.00    -0.248 NA
ATOM     52  C   UNL     1       8.182  14.897 -10.762  1.00  0.00     0.031 C 
ATOM     53  C   UNL     1       4.991  19.887  -9.408  1.00  0.00     0.029 A 
ATOM     54  C   UNL     1       5.694  18.697  -9.300  1.00  0.00     0.049 A 
ATOM     55  H   UNL     1       6.147  17.577  -7.570  1.00  0.00     0.167 HD
ATOM     56  C   UNL     1       6.996  16.767 -10.161  1.00  0.00     0.074 A 
ATOM     57  C   UNL     1       7.588  15.987 -11.229  1.00  0.00     0.031 C 
ATOM     58  C   UNL     1       6.292  17.910 -10.351  1.00  0.00     0.037 A 
BRANCH  45  59
ATOM     59  C   UNL     1       4.032  20.399  -5.151  1.00  0.00     0.058 A 
ATOM     60  C   UNL     1       4.623  21.348  -4.300  1.00  0.00     0.135 A 
ATOM     61  C   UNL     1       2.653  20.506  -5.391  1.00  0.00     0.135 A 
ATOM     62  F   UNL     1       5.935  21.286  -4.024  1.00  0.00    -0.206 F 
ATOM     63  C   UNL     1       3.868  22.336  -3.676  1.00  0.00     0.059 A 
ATOM     64  C   UNL     1       1.884  21.507  -4.803  1.00  0.00     0.059 A 
ATOM     65  F   UNL     1       2.036  19.628  -6.197  1.00  0.00    -0.206 F 
ATOM     66  C   UNL     1       2.498  22.404  -3.930  1.00  0.00     0.060 A 
BRANCH  66  67
ATOM     67  S   UNL     1       1.530  23.679  -3.096  1.00  0.00     0.124 S 
ATOM     68  O   UNL     1       1.496  23.169  -1.729  1.00  0.00    -0.237 OA
ATOM     69  O   UNL     1       2.342  24.874  -3.305  1.00  0.00    -0.237 OA
ATOM     70  O   UNL     1       0.255  23.658  -3.805  1.00  0.00    -0.744 OA
ENDBRANCH  66  67
ENDBRANCH  45  59
BRANCH  46  71
ATOM     71  C   UNL     1       9.394  12.879  -9.009  1.00  0.00     0.058 A 
ATOM     72  C   UNL     1      10.650  13.120  -9.584  1.00  0.00     0.135 A 
ATOM     73  C   UNL     1       8.931  11.554  -8.983  1.00  0.00     0.135 A 
ATOM     74  F   UNL     1      11.133  14.371  -9.639  1.00  0.00    -0.206 F 
ATOM     75  C   UNL     1      11.415  12.092 -10.123  1.00  0.00     0.059 A 
ATOM     76  C   UNL     1       9.689  10.504  -9.492  1.00  0.00     0.059 A 
ATOM     77  F   UNL     1       7.742  11.267  -8.431  1.00  0.00    -0.206 F 
ATOM     78  C   UNL     1      10.928  10.785 -10.068  1.00  0.00     0.060 A 
BRANCH  78  79
ATOM     79  S   UNL     1      11.956   9.452 -10.723  1.00  0.00     0.124 S 
ATOM     80  O   UNL     1      11.864   9.689 -12.159  1.00  0.00    -0.237 OA
ATOM     81  O   UNL     1      13.249   9.735 -10.109  1.00  0.00    -0.237 OA
ATOM     82  O   UNL     1      11.290   8.246 -10.238  1.00  0.00    -0.744 OA
ENDBRANCH  78  79
ENDBRANCH  46  71
BRANCH  58  83
ATOM     83  C   UNL     1       6.137  18.405 -11.763  1.00  0.00     0.058 A 
ATOM     84  C   UNL     1       5.279  17.771 -12.674  1.00  0.00     0.135 A 
ATOM     85  C   UNL     1       6.798  19.570 -12.185  1.00  0.00     0.135 A 
ATOM     86  F   UNL     1       4.631  16.648 -12.324  1.00  0.00    -0.206 F 
ATOM     87  C   UNL     1       5.090  18.268 -13.959  1.00  0.00     0.059 A 
ATOM     88  C   UNL     1       6.602  20.101 -13.456  1.00  0.00     0.059 A 
ATOM     89  F   UNL     1       7.625  20.219 -11.350  1.00  0.00    -0.206 F 
ATOM     90  C   UNL     1       5.749  19.439 -14.338  1.00  0.00     0.060 A 
BRANCH  90  91
ATOM     91  S   UNL     1       5.445  20.107 -15.988  1.00  0.00     0.124 S 
ATOM     92  O   UNL     1       6.159  19.152 -16.829  1.00  0.00    -0.237 OA
ATOM     93  O   UNL     1       3.989  20.064 -16.076  1.00  0.00    -0.237 OA
ATOM     94  O   UNL     1       6.024  21.445 -15.926  1.00  0.00    -0.744 OA
ENDBRANCH  90  91
ENDBRANCH  58  83
ENDBRANCH  32  33
ENDBRANCH  24  27
ENDBRANCH  22  23
ENDBRANCH  21  22
ENDBRANCH  20  21
ENDBRANCH  19  20
ENDBRANCH   1  19
TORSDOF 22
