REMARK SMILES CCOc1ccc(-n2ncc(C(=O)NCCCCCCNC(=O)c3ccc(-c4c5nc(c(-c6c(F)cc(S(=O)(=O)[O-])cc6F)c6ccc([nH]6)c(-c6c(F)cc(S(=O)(=O)[O-])cc6F)c6nc(c(-c7c(F)cc(S(=O)(=O)[O-])cc7F)c7ccc4[nH]7)C=C6)C=C5)cc3)c2C)nn1
REMARK SMILES IDX 17 1 16 2 15 3 14 4 12 5 13 6 11 8 8 9 9 10 90 11 10 12
REMARK SMILES IDX 91 13 7 14 4 15 5 16 93 17 6 18 92 19 3 20 2 21 1 22 18 23
REMARK SMILES IDX 19 24 20 25 21 26 22 27 23 29 24 30 25 31 89 32 26 33 88 34
REMARK SMILES IDX 27 35 28 36 29 37 82 38 30 39 87 40 81 41 83 42 31 43 86 44
REMARK SMILES IDX 80 45 79 46 32 48 66 49 45 50 65 51 46 52 49 53 64 54 84 55
REMARK SMILES IDX 47 56 48 57 63 59 85 60 50 61 33 62 34 63 43 64 35 65 36 66
REMARK SMILES IDX 42 67 44 68 37 69 38 70 39 71 40 72 41 73 67 74 68 75 77 76
REMARK SMILES IDX 69 77 70 78 76 79 78 80 71 81 72 82 73 83 74 84 75 85 51 86
REMARK SMILES IDX 52 87 61 88 53 89 54 90 60 91 62 92 55 93 56 94 57 95 58 96
REMARK SMILES IDX 59 97
REMARK H PARENT 14 7 21 28 83 47 49 58
REMARK Flexibility Score: inf
ROOT
ATOM      1  C   UNL     1      13.248  -5.351   2.634  1.00  0.00     0.002 C 
ENDROOT
BRANCH   1   2
ATOM      2  C   UNL     1      11.910  -4.806   3.133  1.00  0.00     0.021 C 
BRANCH   2   3
ATOM      3  C   UNL     1      11.257  -3.792   2.202  1.00  0.00     0.116 C 
BRANCH   3   4
ATOM      4  N   UNL     1      10.742  -4.413   1.001  1.00  0.00    -0.352 N 
ATOM      5  C   UNL     1       9.496  -4.535   0.450  1.00  0.00     0.254 C 
ATOM      6  O   UNL     1       9.440  -5.220  -0.575  1.00  0.00    -0.269 OA
ATOM      7  H   UNL     1      11.444  -4.844   0.462  1.00  0.00     0.163 HD
BRANCH   5   8
ATOM      8  C   UNL     1       8.313  -3.860   0.982  1.00  0.00     0.081 A 
ATOM      9  N   UNL     1       6.201  -3.124   1.170  1.00  0.00    -0.217 N 
ATOM     10  N   UNL     1       6.913  -2.436   2.096  1.00  0.00    -0.174 NA
ATOM     11  C   UNL     1       7.022  -3.977   0.445  1.00  0.00     0.056 A 
ATOM     12  C   UNL     1       8.139  -2.935   2.024  1.00  0.00     0.149 A 
ATOM     13  C   UNL     1       6.584  -4.771  -0.740  1.00  0.00     0.068 C 
BRANCH   9  14
ATOM     14  C   UNL     1       4.809  -2.846   1.058  1.00  0.00     0.176 A 
ATOM     15  C   UNL     1       2.167  -2.297   0.937  1.00  0.00     0.233 A 
ATOM     16  C   UNL     1       2.983  -1.383   1.564  1.00  0.00     0.074 A 
ATOM     17  N   UNL     1       2.629  -3.437   0.381  1.00  0.00    -0.110 NA
ATOM     18  C   UNL     1       4.336  -1.661   1.621  1.00  0.00     0.057 A 
ATOM     19  N   UNL     1       3.974  -3.707   0.433  1.00  0.00    -0.127 NA
BRANCH  15  20
ATOM     20  O   UNL     1       0.815  -2.070   0.920  1.00  0.00    -0.477 OA
BRANCH  20  21
ATOM     21  C   UNL     1       0.429  -1.462  -0.314  1.00  0.00     0.228 C 
ATOM     22  C   UNL     1       0.610   0.049  -0.252  1.00  0.00     0.049 C 
ENDBRANCH  20  21
ENDBRANCH  15  20
ENDBRANCH   9  14
ENDBRANCH   5   8
ENDBRANCH   3   4
ENDBRANCH   2   3
ENDBRANCH   1   2
BRANCH   1  23
ATOM     23  C   UNL     1      14.294  -4.299   2.234  1.00  0.00     0.002 C 
BRANCH  23  24
ATOM     24  C   UNL     1      14.560  -3.168   3.239  1.00  0.00     0.021 C 
BRANCH  24  25
ATOM     25  C   UNL     1      15.145  -3.634   4.562  1.00  0.00     0.116 C 
BRANCH  25  26
ATOM     26  N   UNL     1      16.483  -4.203   4.407  1.00  0.00    -0.352 N 
ATOM     27  C   UNL     1      17.266  -4.833   5.360  1.00  0.00     0.251 C 
ATOM     28  H   UNL     1      16.878  -4.129   3.509  1.00  0.00     0.163 HD
ATOM     29  O   UNL     1      18.473  -4.916   5.220  1.00  0.00    -0.269 OA
BRANCH  27  30
ATOM     30  C   UNL     1      16.599  -5.404   6.544  1.00  0.00     0.039 A 
ATOM     31  C   UNL     1      17.156  -5.307   7.822  1.00  0.00     0.014 A 
ATOM     32  C   UNL     1      15.368  -6.019   6.349  1.00  0.00     0.014 A 
ATOM     33  C   UNL     1      16.418  -5.768   8.910  1.00  0.00     0.010 A 
ATOM     34  C   UNL     1      14.572  -6.295   7.426  1.00  0.00     0.010 A 
ATOM     35  C   UNL     1      15.116  -6.247   8.703  1.00  0.00    -0.014 A 
BRANCH  35  36
ATOM     36  C   UNL     1      14.254  -6.627   9.815  1.00  0.00     0.031 A 
ATOM     37  C   UNL     1      14.034  -5.555  10.823  1.00  0.00     0.074 A 
ATOM     38  C   UNL     1      13.511  -7.757   9.793  1.00  0.00     0.049 A 
ATOM     39  N   UNL     1      14.450  -5.516  12.045  1.00  0.00    -0.248 NA
ATOM     40  C   UNL     1      13.406  -4.300  10.374  1.00  0.00     0.031 C 
ATOM     41  C   UNL     1      13.372  -8.736   8.706  1.00  0.00     0.029 A 
ATOM     42  N   UNL     1      12.613  -8.210  10.706  1.00  0.00    -0.354 N 
ATOM     43  C   UNL     1      13.919  -4.349  12.591  1.00  0.00     0.074 A 
ATOM     44  C   UNL     1      13.491  -3.550  11.475  1.00  0.00     0.031 C 
ATOM     45  C   UNL     1      12.282  -9.504   8.920  1.00  0.00     0.029 A 
ATOM     46  C   UNL     1      11.756  -9.201  10.237  1.00  0.00     0.049 A 
ATOM     47  H   UNL     1      12.572  -7.865  11.627  1.00  0.00     0.167 HD
ATOM     48  C   UNL     1      13.634  -4.257  13.922  1.00  0.00     0.037 A 
ATOM     49  C   UNL     1      10.676  -9.713  10.878  1.00  0.00     0.037 A 
ATOM     50  C   UNL     1      14.269  -5.325  14.658  1.00  0.00     0.049 A 
ATOM     51  C   UNL     1      10.848  -9.398  12.321  1.00  0.00     0.074 A 
ATOM     52  C   UNL     1      15.573  -5.751  14.822  1.00  0.00     0.029 A 
ATOM     53  N   UNL     1      13.481  -6.383  15.049  1.00  0.00    -0.354 N 
ATOM     54  N   UNL     1      11.802  -9.894  13.063  1.00  0.00    -0.248 NA
ATOM     55  C   UNL     1      10.253  -8.167  12.818  1.00  0.00     0.031 C 
ATOM     56  C   UNL     1      15.498  -7.176  14.817  1.00  0.00     0.029 A 
ATOM     57  C   UNL     1      14.152  -7.536  14.732  1.00  0.00     0.049 A 
ATOM     58  H   UNL     1      12.598  -6.323  15.479  1.00  0.00     0.167 HD
ATOM     59  C   UNL     1      12.218  -8.840  13.863  1.00  0.00     0.074 A 
ATOM     60  C   UNL     1      11.169  -7.830  13.730  1.00  0.00     0.031 C 
ATOM     61  C   UNL     1      13.502  -8.764  14.326  1.00  0.00     0.037 A 
BRANCH  48  62
ATOM     62  C   UNL     1      12.489  -3.457  14.508  1.00  0.00     0.058 A 
ATOM     63  C   UNL     1      12.375  -3.352  15.912  1.00  0.00     0.135 A 
ATOM     64  C   UNL     1      11.354  -3.035  13.778  1.00  0.00     0.135 A 
ATOM     65  F   UNL     1      13.390  -3.718  16.710  1.00  0.00    -0.206 F 
ATOM     66  C   UNL     1      11.195  -2.952  16.541  1.00  0.00     0.059 A 
ATOM     67  C   UNL     1      10.189  -2.580  14.384  1.00  0.00     0.059 A 
ATOM     68  F   UNL     1      11.275  -3.134  12.447  1.00  0.00    -0.206 F 
ATOM     69  C   UNL     1      10.100  -2.586  15.765  1.00  0.00     0.060 A 
BRANCH  69  70
ATOM     70  S   UNL     1       8.540  -2.181  16.568  1.00  0.00     0.124 S 
ATOM     71  O   UNL     1       8.135  -3.483  17.084  1.00  0.00    -0.237 OA
ATOM     72  O   UNL     1       8.959  -1.198  17.562  1.00  0.00    -0.237 OA
ATOM     73  O   UNL     1       7.729  -1.652  15.475  1.00  0.00    -0.744 OA
ENDBRANCH  69  70
ENDBRANCH  48  62
BRANCH  49  74
ATOM     74  C   UNL     1       9.377 -10.143  10.295  1.00  0.00     0.058 A 
ATOM     75  C   UNL     1       8.442 -10.867  11.057  1.00  0.00     0.135 A 
ATOM     76  C   UNL     1       8.903  -9.609   9.079  1.00  0.00     0.135 A 
ATOM     77  F   UNL     1       8.800 -11.398  12.236  1.00  0.00    -0.206 F 
ATOM     78  C   UNL     1       7.104 -11.004  10.667  1.00  0.00     0.059 A 
ATOM     79  C   UNL     1       7.577  -9.740   8.664  1.00  0.00     0.059 A 
ATOM     80  F   UNL     1       9.694  -8.857   8.298  1.00  0.00    -0.206 F 
ATOM     81  C   UNL     1       6.676 -10.415   9.477  1.00  0.00     0.060 A 
BRANCH  81  82
ATOM     82  S   UNL     1       4.914 -10.425   9.063  1.00  0.00     0.124 S 
ATOM     83  O   UNL     1       4.686 -11.829   8.744  1.00  0.00    -0.237 OA
ATOM     84  O   UNL     1       4.304  -9.944  10.299  1.00  0.00    -0.237 OA
ATOM     85  O   UNL     1       4.829  -9.505   7.932  1.00  0.00    -0.744 OA
ENDBRANCH  81  82
ENDBRANCH  49  74
BRANCH  61  86
ATOM     86  C   UNL     1      14.381  -9.986  14.207  1.00  0.00     0.058 A 
ATOM     87  C   UNL     1      14.790 -10.566  12.992  1.00  0.00     0.135 A 
ATOM     88  C   UNL     1      14.959 -10.494  15.380  1.00  0.00     0.135 A 
ATOM     89  F   UNL     1      14.370 -10.078  11.818  1.00  0.00    -0.206 F 
ATOM     90  C   UNL     1      15.698 -11.627  12.950  1.00  0.00     0.059 A 
ATOM     91  C   UNL     1      15.890 -11.529  15.360  1.00  0.00     0.059 A 
ATOM     92  F   UNL     1      14.660  -9.944  16.569  1.00  0.00    -0.206 F 
ATOM     93  C   UNL     1      16.245 -12.102  14.141  1.00  0.00     0.060 A 
BRANCH  93  94
ATOM     94  S   UNL     1      17.471 -13.426  14.083  1.00  0.00     0.124 S 
ATOM     95  O   UNL     1      16.660 -14.579  13.707  1.00  0.00    -0.237 OA
ATOM     96  O   UNL     1      18.406 -12.950  13.067  1.00  0.00    -0.237 OA
ATOM     97  O   UNL     1      18.006 -13.456  15.442  1.00  0.00    -0.744 OA
ENDBRANCH  93  94
ENDBRANCH  61  86
ENDBRANCH  35  36
ENDBRANCH  27  30
ENDBRANCH  25  26
ENDBRANCH  24  25
ENDBRANCH  23  24
ENDBRANCH   1  23
TORSDOF 19
