REMARK SMILES CC1(C)Oc2ccc(NC(=O)[C@H]3CC=CC[C@@H]3C(=O)NCCCCCCNC(=O)c3ccc(-c4c5nc(c(-c6c(F)cc(S(=O)(=O)[O-])cc6F)c6ccc([nH]6)c(-c6c(F)cc(S(=O)(=O)[O-])cc6F)c6nc(c(-c7c(F)cc(S(=O)(=O)[O-])cc7F)c7ccc4[nH]7)C=C6)C=C5)cc3)cc2NC1=O
REMARK SMILES IDX 24 1 23 2 22 3 21 4 20 5 18 6 19 7 17 9 12 10 13 11 14 12
REMARK SMILES IDX 16 13 15 14 10 15 9 16 11 18 8 19 1 20 2 21 3 22 4 23 99 24
REMARK SMILES IDX 5 25 98 26 100 27 6 28 97 29 7 31 96 32 25 33 26 34 27 35
REMARK SMILES IDX 28 36 29 38 30 39 31 40 95 41 32 42 94 43 33 44 34 45 35 46
REMARK SMILES IDX 88 47 36 48 93 49 87 50 89 51 37 52 92 53 86 54 85 55 38 57
REMARK SMILES IDX 72 58 51 59 71 60 52 61 55 62 70 63 90 64 53 65 54 66 69 68
REMARK SMILES IDX 91 69 56 70 39 71 40 72 49 73 41 74 42 75 48 76 50 77 43 78
REMARK SMILES IDX 44 79 45 80 46 81 47 82 73 83 74 84 83 85 75 86 76 87 82 88
REMARK SMILES IDX 84 89 77 90 78 91 79 92 80 93 81 94 57 95 58 96 67 97 59 98
REMARK SMILES IDX 60 99 66 100 68 101 61 102 62 103 63 104 64 105 65 106
REMARK H PARENT 20 8 9 17 98 30 27 37 89 56 55 67
REMARK Flexibility Score: inf
ROOT
ATOM      1  C   UNL     1     -10.547  10.309   3.609  1.00  0.00     0.002 C 
ENDROOT
BRANCH   1   2
ATOM      2  C   UNL     1     -10.411  10.513   2.097  1.00  0.00     0.002 C 
BRANCH   2   3
ATOM      3  C   UNL     1      -8.994  10.660   1.539  1.00  0.00     0.021 C 
BRANCH   3   4
ATOM      4  C   UNL     1      -7.976   9.652   2.047  1.00  0.00     0.116 C 
BRANCH   4   5
ATOM      5  N   UNL     1      -8.281   8.274   1.711  1.00  0.00    -0.356 N 
ATOM      6  C   UNL     1      -7.399   7.236   1.551  1.00  0.00     0.224 C 
ATOM      7  O   UNL     1      -7.846   6.113   1.319  1.00  0.00    -0.275 OA
ATOM      8  H   UNL     1      -9.233   8.059   1.582  1.00  0.00     0.163 HD
BRANCH   6   9
ATOM      9  C   UNL     1      -5.904   7.543   1.593  1.00  0.00     0.095 C 
ATOM     10  C   UNL     1      -5.023   6.372   1.058  1.00  0.00     0.095 C 
ATOM     11  C   UNL     1      -4.954   5.234   2.101  1.00  0.00     0.041 C 
ATOM     12  C   UNL     1      -4.978   5.635   3.541  1.00  0.00    -0.030 C 
ATOM     13  C   UNL     1      -5.407   8.008   2.980  1.00  0.00     0.041 C 
ATOM     14  C   UNL     1      -5.150   6.896   3.942  1.00  0.00    -0.030 C 
BRANCH  10  15
ATOM     15  C   UNL     1      -3.701   7.005   0.596  1.00  0.00     0.228 C 
ATOM     16  N   UNL     1      -2.538   6.365   0.362  1.00  0.00    -0.326 N 
ATOM     17  H   UNL     1      -1.793   6.996   0.240  1.00  0.00     0.169 HD
ATOM     18  O   UNL     1      -3.632   8.225   0.376  1.00  0.00    -0.274 OA
BRANCH  16  19
ATOM     19  C   UNL     1      -2.116   5.043   0.249  1.00  0.00     0.043 A 
ATOM     20  C   UNL     1       1.266  -0.305   0.083  1.00  0.00     0.067 C 
ATOM     21  C   UNL     1       0.792   1.088  -0.339  1.00  0.00     0.182 C 
ATOM     22  C   UNL     1       0.868   1.209  -1.870  1.00  0.00     0.067 C 
ATOM     23  O   UNL     1      -0.589   1.181   0.038  1.00  0.00    -0.476 OA
ATOM     24  C   UNL     1       1.736   2.143   0.286  1.00  0.00     0.268 C 
ATOM     25  C   UNL     1      -1.050   2.469   0.094  1.00  0.00     0.144 A 
ATOM     26  N   UNL     1       1.157   3.365   0.506  1.00  0.00    -0.319 N 
ATOM     27  O   UNL     1       2.937   1.971   0.482  1.00  0.00    -0.270 OA
ATOM     28  C   UNL     1      -2.416   2.667  -0.088  1.00  0.00     0.051 A 
ATOM     29  C   UNL     1      -0.213   3.557   0.336  1.00  0.00     0.086 A 
ATOM     30  H   UNL     1       1.720   4.122   0.790  1.00  0.00     0.170 HD
ATOM     31  C   UNL     1      -2.944   3.961  -0.050  1.00  0.00     0.030 A 
ATOM     32  C   UNL     1      -0.741   4.838   0.419  1.00  0.00     0.056 A 
ENDBRANCH  16  19
ENDBRANCH  10  15
ENDBRANCH   6   9
ENDBRANCH   4   5
ENDBRANCH   3   4
ENDBRANCH   2   3
ENDBRANCH   1   2
BRANCH   1  33
ATOM     33  C   UNL     1      -9.832  11.311   4.516  1.00  0.00     0.021 C 
BRANCH  33  34
ATOM     34  C   UNL     1     -10.047  12.782   4.196  1.00  0.00     0.116 C 
BRANCH  34  35
ATOM     35  N   UNL     1     -11.441  13.185   4.234  1.00  0.00    -0.352 N 
ATOM     36  C   UNL     1     -12.001  14.307   4.802  1.00  0.00     0.251 C 
ATOM     37  H   UNL     1     -12.072  12.572   3.794  1.00  0.00     0.163 HD
ATOM     38  O   UNL     1     -13.217  14.446   4.817  1.00  0.00    -0.269 OA
BRANCH  36  39
ATOM     39  C   UNL     1     -11.124  15.322   5.433  1.00  0.00     0.039 A 
ATOM     40  C   UNL     1      -9.963  15.764   4.796  1.00  0.00     0.014 A 
ATOM     41  C   UNL     1     -11.456  15.809   6.700  1.00  0.00     0.014 A 
ATOM     42  C   UNL     1      -9.055  16.557   5.491  1.00  0.00     0.010 A 
ATOM     43  C   UNL     1     -10.583  16.678   7.362  1.00  0.00     0.010 A 
ATOM     44  C   UNL     1      -9.352  17.023   6.783  1.00  0.00    -0.014 A 
BRANCH  44  45
ATOM     45  C   UNL     1      -8.361  17.872   7.496  1.00  0.00     0.031 A 
ATOM     46  C   UNL     1      -7.705  17.395   8.767  1.00  0.00     0.074 A 
ATOM     47  C   UNL     1      -8.014  19.061   6.962  1.00  0.00     0.049 A 
ATOM     48  N   UNL     1      -6.801  17.995   9.498  1.00  0.00    -0.248 NA
ATOM     49  C   UNL     1      -8.116  16.081   9.291  1.00  0.00     0.031 C 
ATOM     50  C   UNL     1      -8.589  19.635   5.743  1.00  0.00     0.029 A 
ATOM     51  N   UNL     1      -7.084  19.990   7.356  1.00  0.00    -0.354 N 
ATOM     52  C   UNL     1      -6.550  17.148  10.572  1.00  0.00     0.074 A 
ATOM     53  C   UNL     1      -7.414  15.999  10.414  1.00  0.00     0.031 C 
ATOM     54  C   UNL     1      -7.969  20.791   5.464  1.00  0.00     0.029 A 
ATOM     55  C   UNL     1      -6.993  21.071   6.511  1.00  0.00     0.049 A 
ATOM     56  H   UNL     1      -6.535  19.892   8.167  1.00  0.00     0.167 HD
ATOM     57  C   UNL     1      -5.670  17.310  11.588  1.00  0.00     0.037 A 
ATOM     58  C   UNL     1      -6.222  22.174   6.575  1.00  0.00     0.037 A 
ATOM     59  C   UNL     1      -4.780  18.436  11.717  1.00  0.00     0.049 A 
ATOM     60  C   UNL     1      -5.259  22.328   7.718  1.00  0.00     0.074 A 
ATOM     61  C   UNL     1      -3.818  18.659  12.687  1.00  0.00     0.029 A 
ATOM     62  N   UNL     1      -4.737  19.518  10.853  1.00  0.00    -0.354 N 
ATOM     63  N   UNL     1      -5.015  21.497   8.703  1.00  0.00    -0.248 NA
ATOM     64  C   UNL     1      -4.472  23.568   7.767  1.00  0.00     0.031 C 
ATOM     65  C   UNL     1      -3.220  19.896  12.432  1.00  0.00     0.029 A 
ATOM     66  C   UNL     1      -3.779  20.422  11.279  1.00  0.00     0.049 A 
ATOM     67  H   UNL     1      -5.303  19.628  10.054  1.00  0.00     0.167 HD
ATOM     68  C   UNL     1      -4.041  22.109   9.482  1.00  0.00     0.074 A 
ATOM     69  C   UNL     1      -3.724  23.371   8.846  1.00  0.00     0.031 C 
ATOM     70  C   UNL     1      -3.466  21.668  10.626  1.00  0.00     0.037 A 
BRANCH  57  71
ATOM     71  C   UNL     1      -5.595  16.250  12.651  1.00  0.00     0.058 A 
ATOM     72  C   UNL     1      -4.944  15.029  12.422  1.00  0.00     0.135 A 
ATOM     73  C   UNL     1      -6.066  16.510  13.949  1.00  0.00     0.135 A 
ATOM     74  F   UNL     1      -4.490  14.724  11.196  1.00  0.00    -0.206 F 
ATOM     75  C   UNL     1      -4.754  14.105  13.445  1.00  0.00     0.059 A 
ATOM     76  C   UNL     1      -5.869  15.609  14.992  1.00  0.00     0.059 A 
ATOM     77  F   UNL     1      -6.697  17.663  14.219  1.00  0.00    -0.206 F 
ATOM     78  C   UNL     1      -5.210  14.410  14.729  1.00  0.00     0.060 A 
BRANCH  78  79
ATOM     79  S   UNL     1      -4.893  13.226  16.056  1.00  0.00     0.124 S 
ATOM     80  O   UNL     1      -5.790  12.134  15.694  1.00  0.00    -0.237 OA
ATOM     81  O   UNL     1      -3.468  12.955  15.896  1.00  0.00    -0.237 OA
ATOM     82  O   UNL     1      -5.256  13.961  17.264  1.00  0.00    -0.744 OA
ENDBRANCH  78  79
ENDBRANCH  57  71
BRANCH  58  83
ATOM     83  C   UNL     1      -6.343  23.224   5.531  1.00  0.00     0.058 A 
ATOM     84  C   UNL     1      -5.312  23.456   4.610  1.00  0.00     0.135 A 
ATOM     85  C   UNL     1      -7.502  24.011   5.428  1.00  0.00     0.135 A 
ATOM     86  F   UNL     1      -4.183  22.732   4.671  1.00  0.00    -0.206 F 
ATOM     87  C   UNL     1      -5.415  24.442   3.635  1.00  0.00     0.059 A 
ATOM     88  C   UNL     1      -7.640  24.984   4.444  1.00  0.00     0.059 A 
ATOM     89  F   UNL     1      -8.525  23.816   6.275  1.00  0.00    -0.206 F 
ATOM     90  C   UNL     1      -6.585  25.201   3.560  1.00  0.00     0.060 A 
BRANCH  90  91
ATOM     91  S   UNL     1      -6.725  26.456   2.269  1.00  0.00     0.124 S 
ATOM     92  O   UNL     1      -5.846  27.501   2.782  1.00  0.00    -0.237 OA
ATOM     93  O   UNL     1      -6.246  25.739   1.091  1.00  0.00    -0.237 OA
ATOM     94  O   UNL     1      -8.150  26.773   2.264  1.00  0.00    -0.744 OA
ENDBRANCH  90  91
ENDBRANCH  58  83
BRANCH  70  95
ATOM     95  C   UNL     1      -2.424  22.537  11.268  1.00  0.00     0.058 A 
ATOM     96  C   UNL     1      -2.780  23.677  12.003  1.00  0.00     0.135 A 
ATOM     97  C   UNL     1      -1.071  22.165  11.238  1.00  0.00     0.135 A 
ATOM     98  F   UNL     1      -4.060  24.076  12.054  1.00  0.00    -0.206 F 
ATOM     99  C   UNL     1      -1.827  24.419  12.692  1.00  0.00     0.059 A 
ATOM    100  C   UNL     1      -0.104  22.880  11.938  1.00  0.00     0.059 A 
ATOM    101  F   UNL     1      -0.683  21.077  10.553  1.00  0.00    -0.206 F 
ATOM    102  C   UNL     1      -0.493  24.006  12.663  1.00  0.00     0.060 A 
BRANCH 102 103
ATOM    103  S   UNL     1       0.717  24.934  13.628  1.00  0.00     0.124 S 
ATOM    104  O   UNL     1       0.836  26.163  12.850  1.00  0.00    -0.237 OA
ATOM    105  O   UNL     1       0.051  25.065  14.920  1.00  0.00    -0.237 OA
ATOM    106  O   UNL     1       1.894  24.070  13.620  1.00  0.00    -0.744 OA
ENDBRANCH 102 103
ENDBRANCH  70  95
ENDBRANCH  44  45
ENDBRANCH  36  39
ENDBRANCH  34  35
ENDBRANCH  33  34
ENDBRANCH   1  33
TORSDOF 18
