REMARK SMILES C[NH+](C)CC[NH2+][C@@H](C(=O)NCCCCCCNC(=O)c1ccc(-c2c3nc(c(-c4c(F)cc(S(=O)(=O)[O-])cc4F)c4ccc([nH]4)c(-c4c(F)cc(S(=O)(=O)[O-])cc4F)c4nc(c(-c5c(F)cc(S(=O)(=O)[O-])cc5F)c5ccc2[nH]5)C=C4)C=C3)cc1)c1cccc(C2CC2)c1
REMARK SMILES IDX 13 1 12 2 11 3 10 4 8 5 9 6 7 8 6 9 5 12 4 13 2 14 1 15 3 16
REMARK SMILES IDX 86 18 87 19 94 20 88 21 90 22 89 23 91 24 92 25 93 26 14 27
REMARK SMILES IDX 15 28 16 29 17 30 18 31 19 33 20 34 21 35 85 36 22 37 84 38
REMARK SMILES IDX 23 39 24 40 25 41 78 42 26 43 83 44 77 45 79 46 27 47 82 48
REMARK SMILES IDX 76 49 75 50 28 52 62 53 41 54 61 55 42 56 45 57 60 58 80 59
REMARK SMILES IDX 43 60 44 61 59 63 81 64 46 65 29 66 30 67 39 68 31 69 32 70
REMARK SMILES IDX 38 71 40 72 33 73 34 74 35 75 36 76 37 77 63 78 64 79 73 80
REMARK SMILES IDX 65 81 66 82 72 83 74 84 67 85 68 86 69 87 70 88 71 89 47 90
REMARK SMILES IDX 48 91 57 92 49 93 50 94 56 95 58 96 51 97 52 98 53 99 54 100
REMARK SMILES IDX 55 101
REMARK H PARENT 10 7 6 10 6 11 2 17 17 32 79 51 45 62
REMARK Flexibility Score: inf
ROOT
ATOM      1  C   UNL     1      -3.364   4.061   0.636  1.00  0.00     0.002 C 
ENDROOT
BRANCH   1   2
ATOM      2  C   UNL     1      -1.869   3.804   0.824  1.00  0.00     0.021 C 
BRANCH   2   3
ATOM      3  C   UNL     1      -1.384   3.807   2.285  1.00  0.00     0.116 C 
BRANCH   3   4
ATOM      4  N   UNL     1      -1.739   2.547   2.910  1.00  0.00    -0.351 N 
ATOM      5  C   UNL     1      -1.013   1.393   3.032  1.00  0.00     0.283 C 
ATOM      6  O   UNL     1      -1.681   0.352   3.035  1.00  0.00    -0.268 OA
ATOM      7  H   UNL     1      -2.639   2.517   3.307  1.00  0.00     0.163 HD
BRANCH   5   8
ATOM      8  C   UNL     1       0.553   1.397   3.206  1.00  0.00     0.304 C 
BRANCH   8   9
ATOM      9  N   UNL     1       1.280   1.111   1.940  1.00  0.00    -0.328 N 
ATOM     10  H   UNL     1       2.271   1.016   2.162  1.00  0.00     0.347 HD
ATOM     11  H   UNL     1       0.858   0.263   1.562  1.00  0.00     0.347 HD
BRANCH   9  12
ATOM     12  C   UNL     1       1.150   2.117   0.900  1.00  0.00     0.323 C 
BRANCH  12  13
ATOM     13  C   UNL     1       1.558   1.680  -0.527  1.00  0.00     0.323 C 
BRANCH  13  14
ATOM     14  N   UNL     1       0.857   0.551  -1.163  1.00  0.00    -0.335 N 
ATOM     15  C   UNL     1       1.263  -0.762  -0.688  1.00  0.00     0.332 C 
ATOM     16  C   UNL     1      -0.595   0.682  -1.208  1.00  0.00     0.332 C 
ATOM     17  H   UNL     1       1.176   0.614  -2.130  1.00  0.00     0.347 HD
ENDBRANCH  13  14
ENDBRANCH  12  13
ENDBRANCH   9  12
ENDBRANCH   8   9
BRANCH   8  18
ATOM     18  C   UNL     1       0.932   0.292   4.217  1.00  0.00     0.019 A 
ATOM     19  C   UNL     1       0.782  -1.065   3.873  1.00  0.00     0.010 A 
ATOM     20  C   UNL     1       1.371   0.600   5.517  1.00  0.00     0.014 A 
ATOM     21  C   UNL     1       1.058  -2.076   4.784  1.00  0.00     0.001 A 
ATOM     22  C   UNL     1       1.646  -0.406   6.472  1.00  0.00    -0.044 A 
ATOM     23  C   UNL     1       1.480  -1.744   6.066  1.00  0.00     0.004 A 
BRANCH  22  24
ATOM     24  C   UNL     1       2.074  -0.137   7.901  1.00  0.00     0.019 C 
ATOM     25  C   UNL     1       2.415   1.226   8.442  1.00  0.00     0.009 C 
ATOM     26  C   UNL     1       1.111   0.584   8.816  1.00  0.00     0.009 C 
ENDBRANCH  22  24
ENDBRANCH   8  18
ENDBRANCH   5   8
ENDBRANCH   3   4
ENDBRANCH   2   3
ENDBRANCH   1   2
BRANCH   1  27
ATOM     27  C   UNL     1      -3.797   5.496   0.919  1.00  0.00     0.002 C 
BRANCH  27  28
ATOM     28  C   UNL     1      -3.019   6.562   0.144  1.00  0.00     0.021 C 
BRANCH  28  29
ATOM     29  C   UNL     1      -3.003   6.360  -1.369  1.00  0.00     0.116 C 
BRANCH  29  30
ATOM     30  N   UNL     1      -4.340   6.457  -1.933  1.00  0.00    -0.352 N 
ATOM     31  C   UNL     1      -4.833   7.402  -2.800  1.00  0.00     0.251 C 
ATOM     32  H   UNL     1      -4.973   5.756  -1.658  1.00  0.00     0.163 HD
ATOM     33  O   UNL     1      -6.039   7.519  -2.973  1.00  0.00    -0.269 OA
BRANCH  31  34
ATOM     34  C   UNL     1      -3.881   8.279  -3.513  1.00  0.00     0.039 A 
ATOM     35  C   UNL     1      -4.096   9.658  -3.529  1.00  0.00     0.014 A 
ATOM     36  C   UNL     1      -2.765   7.726  -4.148  1.00  0.00     0.014 A 
ATOM     37  C   UNL     1      -3.158  10.492  -4.143  1.00  0.00     0.010 A 
ATOM     38  C   UNL     1      -1.798   8.562  -4.692  1.00  0.00     0.010 A 
ATOM     39  C   UNL     1      -1.988   9.953  -4.704  1.00  0.00    -0.014 A 
BRANCH  39  40
ATOM     40  C   UNL     1      -0.957  10.816  -5.335  1.00  0.00     0.031 A 
ATOM     41  C   UNL     1      -0.652  10.657  -6.802  1.00  0.00     0.074 A 
ATOM     42  C   UNL     1      -0.247  11.680  -4.581  1.00  0.00     0.049 A 
ATOM     43  N   UNL     1       0.285  11.223  -7.516  1.00  0.00    -0.248 NA
ATOM     44  C   UNL     1      -1.494   9.715  -7.560  1.00  0.00     0.031 C 
ATOM     45  C   UNL     1      -0.425  11.896  -3.143  1.00  0.00     0.029 A 
ATOM     46  N   UNL     1       0.782  12.526  -4.915  1.00  0.00    -0.354 N 
ATOM     47  C   UNL     1       0.163  10.689  -8.794  1.00  0.00     0.074 A 
ATOM     48  C   UNL     1      -0.911   9.723  -8.750  1.00  0.00     0.031 C 
ATOM     49  C   UNL     1       0.454  12.820  -2.723  1.00  0.00     0.029 A 
ATOM     50  C   UNL     1       1.289  13.231  -3.847  1.00  0.00     0.049 A 
ATOM     51  H   UNL     1       1.125  12.620  -5.833  1.00  0.00     0.167 HD
ATOM     52  C   UNL     1       0.870  10.993  -9.907  1.00  0.00     0.037 A 
ATOM     53  C   UNL     1       2.322  14.094  -3.780  1.00  0.00     0.037 A 
ATOM     54  C   UNL     1       1.908  11.989  -9.951  1.00  0.00     0.049 A 
ATOM     55  C   UNL     1       3.094  14.410  -5.036  1.00  0.00     0.074 A 
ATOM     56  C   UNL     1       2.632  12.422 -11.047  1.00  0.00     0.029 A 
ATOM     57  N   UNL     1       2.368  12.705  -8.857  1.00  0.00    -0.354 N 
ATOM     58  N   UNL     1       2.917  13.947  -6.251  1.00  0.00    -0.248 NA
ATOM     59  C   UNL     1       4.203  15.368  -4.916  1.00  0.00     0.031 C 
ATOM     60  C   UNL     1       3.570  13.360 -10.606  1.00  0.00     0.029 A 
ATOM     61  C   UNL     1       3.384  13.559  -9.248  1.00  0.00     0.049 A 
ATOM     62  H   UNL     1       2.023  12.619  -7.938  1.00  0.00     0.167 HD
ATOM     63  C   UNL     1       3.860  14.591  -7.045  1.00  0.00     0.074 A 
ATOM     64  C   UNL     1       4.603  15.478  -6.175  1.00  0.00     0.031 C 
ATOM     65  C   UNL     1       4.090  14.462  -8.374  1.00  0.00     0.037 A 
BRANCH  52  66
ATOM     66  C   UNL     1       0.551  10.256 -11.178  1.00  0.00     0.058 A 
ATOM     67  C   UNL     1      -0.635  10.489 -11.890  1.00  0.00     0.135 A 
ATOM     68  C   UNL     1       1.489   9.373 -11.738  1.00  0.00     0.135 A 
ATOM     69  F   UNL     1      -1.574  11.308 -11.392  1.00  0.00    -0.206 F 
ATOM     70  C   UNL     1      -0.883   9.870 -13.111  1.00  0.00     0.059 A 
ATOM     71  C   UNL     1       1.275   8.764 -12.971  1.00  0.00     0.059 A 
ATOM     72  F   UNL     1       2.638   9.110 -11.095  1.00  0.00    -0.206 F 
ATOM     73  C   UNL     1       0.084   9.018 -13.649  1.00  0.00     0.060 A 
BRANCH  73  74
ATOM     74  S   UNL     1      -0.231   8.270 -15.261  1.00  0.00     0.124 S 
ATOM     75  O   UNL     1      -1.288   7.316 -14.940  1.00  0.00    -0.237 OA
ATOM     76  O   UNL     1      -0.638   9.420 -16.062  1.00  0.00    -0.237 OA
ATOM     77  O   UNL     1       1.056   7.682 -15.621  1.00  0.00    -0.744 OA
ENDBRANCH  73  74
ENDBRANCH  52  66
BRANCH  53  78
ATOM     78  C   UNL     1       2.699  14.726  -2.484  1.00  0.00     0.058 A 
ATOM     79  C   UNL     1       2.560  16.108  -2.285  1.00  0.00     0.135 A 
ATOM     80  C   UNL     1       3.245  13.970  -1.435  1.00  0.00     0.135 A 
ATOM     81  F   UNL     1       2.046  16.877  -3.257  1.00  0.00    -0.206 F 
ATOM     82  C   UNL     1       2.987  16.725  -1.113  1.00  0.00     0.059 A 
ATOM     83  C   UNL     1       3.649  14.558  -0.241  1.00  0.00     0.059 A 
ATOM     84  F   UNL     1       3.382  12.641  -1.562  1.00  0.00    -0.206 F 
ATOM     85  C   UNL     1       3.536  15.940  -0.098  1.00  0.00     0.060 A 
BRANCH  85  86
ATOM     86  S   UNL     1       4.093  16.749   1.418  1.00  0.00     0.124 S 
ATOM     87  O   UNL     1       5.303  17.422   0.963  1.00  0.00    -0.237 OA
ATOM     88  O   UNL     1       2.961  17.613   1.737  1.00  0.00    -0.237 OA
ATOM     89  O   UNL     1       4.297  15.633   2.337  1.00  0.00    -0.744 OA
ENDBRANCH  85  86
ENDBRANCH  53  78
BRANCH  65  90
ATOM     90  C   UNL     1       5.137  15.345  -8.996  1.00  0.00     0.058 A 
ATOM     91  C   UNL     1       6.507  15.139  -8.780  1.00  0.00     0.135 A 
ATOM     92  C   UNL     1       4.758  16.363  -9.888  1.00  0.00     0.135 A 
ATOM     93  F   UNL     1       6.923  14.184  -7.932  1.00  0.00    -0.206 F 
ATOM     94  C   UNL     1       7.467  15.921  -9.415  1.00  0.00     0.059 A 
ATOM     95  C   UNL     1       5.700  17.135 -10.558  1.00  0.00     0.059 A 
ATOM     96  F   UNL     1       3.459  16.594 -10.138  1.00  0.00    -0.206 F 
ATOM     97  C   UNL     1       7.053  16.912 -10.309  1.00  0.00     0.060 A 
BRANCH  97  98
ATOM     98  S   UNL     1       8.310  17.880 -11.169  1.00  0.00     0.124 S 
ATOM     99  O   UNL     1       8.816  18.727 -10.094  1.00  0.00    -0.237 OA
ATOM    100  O   UNL     1       9.225  16.848 -11.647  1.00  0.00    -0.237 OA
ATOM    101  O   UNL     1       7.555  18.571 -12.210  1.00  0.00    -0.744 OA
ENDBRANCH  97  98
ENDBRANCH  65  90
ENDBRANCH  39  40
ENDBRANCH  31  34
ENDBRANCH  29  30
ENDBRANCH  28  29
ENDBRANCH  27  28
ENDBRANCH   1  27
TORSDOF 22
