REMARK SMILES O=C(NCCCCCCNC(=O)c1cn(C2CN(C(=O)[C@@H]3CC=CCC3)C2)nn1)c1ccc(-c2c3nc(c(-c4c(F)cc(S(=O)(=O)[O-])cc4F)c4ccc([nH]4)c(-c4c(F)cc(S(=O)(=O)[O-])cc4F)c4nc(c(-c5c(F)cc(S(=O)(=O)[O-])cc5F)c5ccc2[nH]5)C=C4)C=C3)cc1
REMARK SMILES IDX 6 1 5 2 4 3 3 4 1 5 2 6 30 8 31 9 95 10 32 11 94 12 33 13
REMARK SMILES IDX 34 14 35 15 88 16 36 17 93 18 87 19 89 20 37 21 92 22 86 23
REMARK SMILES IDX 85 24 38 26 72 27 51 28 71 29 52 30 55 31 70 32 90 33 53 34
REMARK SMILES IDX 54 35 69 37 91 38 56 39 39 40 40 41 49 42 41 43 42 44 48 45
REMARK SMILES IDX 50 46 43 47 44 48 45 49 46 50 47 51 73 52 74 53 83 54 75 55
REMARK SMILES IDX 76 56 82 57 84 58 77 59 78 60 79 61 80 62 81 63 57 64 58 65
REMARK SMILES IDX 67 66 59 67 60 68 66 69 68 70 61 71 62 72 63 73 64 74 65 75
REMARK SMILES IDX 7 76 8 77 9 78 10 79 11 80 12 82 13 83 14 84 29 85 15 86
REMARK SMILES IDX 28 87 16 88 17 89 27 90 18 91 19 92 20 93 21 94 22 95 26 96
REMARK SMILES IDX 23 97 25 98 24 99
REMARK H PARENT 3 7 89 25 55 36 10 81
REMARK Flexibility Score: inf
ROOT
ATOM      1  C   UNL     1      23.747   4.136  10.676  1.00  0.00     0.002 C 
ENDROOT
BRANCH   1   2
ATOM      2  C   UNL     1      23.856   3.737   9.200  1.00  0.00     0.021 C 
BRANCH   2   3
ATOM      3  C   UNL     1      24.773   4.624   8.359  1.00  0.00     0.116 C 
BRANCH   3   4
ATOM      4  N   UNL     1      26.149   4.657   8.804  1.00  0.00    -0.352 N 
ATOM      5  O   UNL     1      28.266   4.165   9.214  1.00  0.00    -0.269 OA
ATOM      6  C   UNL     1      27.193   3.773   8.749  1.00  0.00     0.251 C 
ATOM      7  H   UNL     1      26.389   5.504   9.245  1.00  0.00     0.163 HD
BRANCH   6   8
ATOM      8  C   UNL     1      27.104   2.386   8.214  1.00  0.00     0.039 A 
ATOM      9  C   UNL     1      26.130   1.927   7.326  1.00  0.00     0.014 A 
ATOM     10  C   UNL     1      28.114   1.495   8.619  1.00  0.00     0.014 A 
ATOM     11  C   UNL     1      26.127   0.599   6.901  1.00  0.00     0.010 A 
ATOM     12  C   UNL     1      28.132   0.174   8.173  1.00  0.00     0.010 A 
ATOM     13  C   UNL     1      27.124  -0.281   7.324  1.00  0.00    -0.014 A 
BRANCH  13  14
ATOM     14  C   UNL     1      27.124  -1.632   6.761  1.00  0.00     0.031 A 
ATOM     15  C   UNL     1      27.392  -1.751   5.294  1.00  0.00     0.074 A 
ATOM     16  C   UNL     1      27.066  -2.757   7.499  1.00  0.00     0.049 A 
ATOM     17  N   UNL     1      26.660  -2.302   4.378  1.00  0.00    -0.248 NA
ATOM     18  C   UNL     1      28.633  -1.149   4.785  1.00  0.00     0.031 C 
ATOM     19  C   UNL     1      27.155  -2.879   8.954  1.00  0.00     0.029 A 
ATOM     20  N   UNL     1      27.033  -4.055   7.074  1.00  0.00    -0.354 N 
ATOM     21  C   UNL     1      27.415  -2.270   3.204  1.00  0.00     0.074 A 
ATOM     22  C   UNL     1      28.578  -1.467   3.491  1.00  0.00     0.031 C 
ATOM     23  C   UNL     1      27.392  -4.171   9.272  1.00  0.00     0.029 A 
ATOM     24  C   UNL     1      27.346  -4.976   8.061  1.00  0.00     0.049 A 
ATOM     25  H   UNL     1      26.809  -4.313   6.150  1.00  0.00     0.167 HD
ATOM     26  C   UNL     1      27.124  -3.027   2.109  1.00  0.00     0.037 A 
ATOM     27  C   UNL     1      27.632  -6.288   7.886  1.00  0.00     0.037 A 
ATOM     28  C   UNL     1      25.798  -3.574   2.153  1.00  0.00     0.049 A 
ATOM     29  C   UNL     1      27.087  -6.714   6.573  1.00  0.00     0.074 A 
ATOM     30  C   UNL     1      24.522  -3.050   2.199  1.00  0.00     0.029 A 
ATOM     31  N   UNL     1      25.658  -4.913   2.419  1.00  0.00    -0.354 N 
ATOM     32  N   UNL     1      25.817  -6.817   6.291  1.00  0.00    -0.248 NA
ATOM     33  C   UNL     1      27.980  -6.726   5.423  1.00  0.00     0.031 C 
ATOM     34  C   UNL     1      23.753  -3.994   2.939  1.00  0.00     0.029 A 
ATOM     35  C   UNL     1      24.611  -5.035   3.296  1.00  0.00     0.049 A 
ATOM     36  H   UNL     1      26.203  -5.646   2.051  1.00  0.00     0.167 HD
ATOM     37  C   UNL     1      25.723  -6.511   4.943  1.00  0.00     0.074 A 
ATOM     38  C   UNL     1      27.088  -6.595   4.439  1.00  0.00     0.031 C 
ATOM     39  C   UNL     1      24.595  -5.948   4.419  1.00  0.00     0.037 A 
BRANCH  26  40
ATOM     40  C   UNL     1      28.143  -3.507   1.106  1.00  0.00     0.058 A 
ATOM     41  C   UNL     1      27.724  -3.979  -0.156  1.00  0.00     0.135 A 
ATOM     42  C   UNL     1      29.485  -3.777   1.448  1.00  0.00     0.135 A 
ATOM     43  F   UNL     1      26.461  -3.789  -0.571  1.00  0.00    -0.206 F 
ATOM     44  C   UNL     1      28.562  -4.719  -0.992  1.00  0.00     0.059 A 
ATOM     45  C   UNL     1      30.353  -4.469   0.609  1.00  0.00     0.059 A 
ATOM     46  F   UNL     1      29.977  -3.463   2.655  1.00  0.00    -0.206 F 
ATOM     47  C   UNL     1      29.870  -4.976  -0.589  1.00  0.00     0.060 A 
BRANCH  47  48
ATOM     48  S   UNL     1      30.915  -6.038  -1.604  1.00  0.00     0.124 S 
ATOM     49  O   UNL     1      30.361  -7.354  -1.307  1.00  0.00    -0.237 OA
ATOM     50  O   UNL     1      30.665  -5.528  -2.948  1.00  0.00    -0.237 OA
ATOM     51  O   UNL     1      32.255  -5.782  -1.083  1.00  0.00    -0.744 OA
ENDBRANCH  47  48
ENDBRANCH  26  40
BRANCH  27  52
ATOM     52  C   UNL     1      28.584  -7.122   8.663  1.00  0.00     0.058 A 
ATOM     53  C   UNL     1      28.567  -8.524   8.571  1.00  0.00     0.135 A 
ATOM     54  C   UNL     1      29.700  -6.554   9.311  1.00  0.00     0.135 A 
ATOM     55  F   UNL     1      27.560  -9.148   7.941  1.00  0.00    -0.206 F 
ATOM     56  C   UNL     1      29.611  -9.315   9.060  1.00  0.00     0.059 A 
ATOM     57  C   UNL     1      30.742  -7.322   9.825  1.00  0.00     0.059 A 
ATOM     58  F   UNL     1      29.858  -5.224   9.385  1.00  0.00    -0.206 F 
ATOM     59  C   UNL     1      30.703  -8.701   9.673  1.00  0.00     0.060 A 
BRANCH  59  60
ATOM     60  S   UNL     1      32.129  -9.700  10.155  1.00  0.00     0.124 S 
ATOM     61  O   UNL     1      31.600 -10.454  11.286  1.00  0.00    -0.237 OA
ATOM     62  O   UNL     1      32.391 -10.467   8.942  1.00  0.00    -0.237 OA
ATOM     63  O   UNL     1      33.144  -8.704  10.489  1.00  0.00    -0.744 OA
ENDBRANCH  59  60
ENDBRANCH  27  52
BRANCH  39  64
ATOM     64  C   UNL     1      23.322  -6.016   5.218  1.00  0.00     0.058 A 
ATOM     65  C   UNL     1      23.145  -5.388   6.462  1.00  0.00     0.135 A 
ATOM     66  C   UNL     1      22.192  -6.601   4.626  1.00  0.00     0.135 A 
ATOM     67  F   UNL     1      24.146  -4.710   7.042  1.00  0.00    -0.206 F 
ATOM     68  C   UNL     1      21.908  -5.376   7.107  1.00  0.00     0.059 A 
ATOM     69  C   UNL     1      20.940  -6.574   5.237  1.00  0.00     0.059 A 
ATOM     70  F   UNL     1      22.283  -7.161   3.408  1.00  0.00    -0.206 F 
ATOM     71  C   UNL     1      20.808  -5.967   6.485  1.00  0.00     0.060 A 
BRANCH  71  72
ATOM     72  S   UNL     1      19.187  -5.845   7.271  1.00  0.00     0.124 S 
ATOM     73  O   UNL     1      19.284  -6.840   8.333  1.00  0.00    -0.237 OA
ATOM     74  O   UNL     1      19.147  -4.452   7.711  1.00  0.00    -0.237 OA
ATOM     75  O   UNL     1      18.259  -6.170   6.191  1.00  0.00    -0.744 OA
ENDBRANCH  71  72
ENDBRANCH  39  64
ENDBRANCH  13  14
ENDBRANCH   6   8
ENDBRANCH   3   4
ENDBRANCH   2   3
ENDBRANCH   1   2
BRANCH   1  76
ATOM     76  C   UNL     1      23.378   5.598  10.946  1.00  0.00     0.002 C 
BRANCH  76  77
ATOM     77  C   UNL     1      22.126   6.109  10.228  1.00  0.00     0.021 C 
BRANCH  77  78
ATOM     78  C   UNL     1      20.839   5.362  10.571  1.00  0.00     0.116 C 
BRANCH  78  79
ATOM     79  N   UNL     1      20.421   5.620  11.938  1.00  0.00    -0.351 N 
ATOM     80  C   UNL     1      19.292   6.259  12.392  1.00  0.00     0.273 C 
ATOM     81  H   UNL     1      21.031   5.291  12.636  1.00  0.00     0.163 HD
ATOM     82  O   UNL     1      19.243   6.601  13.576  1.00  0.00    -0.267 OA
BRANCH  80  83
ATOM     83  C   UNL     1      18.197   6.502  11.470  1.00  0.00     0.170 A 
ATOM     84  C   UNL     1      17.630   5.627  10.560  1.00  0.00     0.145 A 
ATOM     85  N   UNL     1      17.507   7.689  11.424  1.00  0.00    -0.125 NA
ATOM     86  N   UNL     1      16.641   6.356   9.966  1.00  0.00    -0.245 N 
ATOM     87  N   UNL     1      16.576   7.595  10.484  1.00  0.00    -0.066 NA
BRANCH  86  88
ATOM     88  C   UNL     1      15.731   5.937   8.946  1.00  0.00     0.148 C 
ATOM     89  C   UNL     1      16.395   5.256   7.737  1.00  0.00     0.148 C 
ATOM     90  C   UNL     1      15.072   4.567   9.230  1.00  0.00     0.148 C 
ATOM     91  N   UNL     1      15.335   4.263   7.845  1.00  0.00    -0.338 N 
ATOM     92  C   UNL     1      14.896   3.400   6.890  1.00  0.00     0.226 C 
ATOM     93  O   UNL     1      15.289   3.530   5.726  1.00  0.00    -0.275 OA
BRANCH  92  94
ATOM     94  C   UNL     1      14.011   2.213   7.256  1.00  0.00     0.083 C 
ATOM     95  C   UNL     1      12.762   2.513   8.091  1.00  0.00     0.040 C 
ATOM     96  C   UNL     1      14.851   1.102   7.897  1.00  0.00     0.018 C 
ATOM     97  C   UNL     1      12.063   1.268   8.563  1.00  0.00    -0.030 C 
ATOM     98  C   UNL     1      14.034  -0.186   8.039  1.00  0.00     0.028 C 
ATOM     99  C   UNL     1      12.635   0.056   8.531  1.00  0.00    -0.031 C 
ENDBRANCH  92  94
ENDBRANCH  86  88
ENDBRANCH  80  83
ENDBRANCH  78  79
ENDBRANCH  77  78
ENDBRANCH  76  77
ENDBRANCH   1  76
TORSDOF 18
