REMARK SMILES O=C(NCCCCCCNC(=O)c1ccc(-c2c3nc(c(-c4c(F)cc(S(=O)(=O)[O-])cc4F)c4ccc([nH]4)c(-c4c(F)cc(S(=O)(=O)[O-])cc4F)c4nc(c(-c5c(F)cc(S(=O)(=O)[O-])cc5F)c5ccc2[nH]5)C=C4)C=C3)cc1)C1=N[C@@H]2NC=NN2[C@@H]([C@H]2C=NN=C2c2ccc(F)cc2)C1
REMARK SMILES IDX 7 1 6 2 5 3 4 4 3 5 1 6 2 7 79 9 80 10 99 11 81 12 86 13
REMARK SMILES IDX 82 14 85 15 83 16 84 18 87 19 88 20 91 21 89 22 90 23 92 24
REMARK SMILES IDX 93 25 98 26 94 27 97 28 95 29 96 30 8 31 9 32 10 33 11 34
REMARK SMILES IDX 12 36 13 37 14 38 78 39 15 40 77 41 16 42 17 43 18 44 71 45
REMARK SMILES IDX 19 46 76 47 70 48 72 49 20 50 75 51 69 52 68 53 21 55 55 56
REMARK SMILES IDX 34 57 54 58 35 59 38 60 53 61 73 62 36 63 37 64 52 66 74 67
REMARK SMILES IDX 39 68 22 69 23 70 32 71 24 72 25 73 31 74 33 75 26 76 27 77
REMARK SMILES IDX 28 78 29 79 30 80 56 81 57 82 66 83 58 84 59 85 65 86 67 87
REMARK SMILES IDX 60 88 61 89 62 90 63 91 64 92 40 93 41 94 50 95 42 96 43 97
REMARK SMILES IDX 49 98 51 99 44 100 45 101 46 102 47 103 48 104
REMARK H PARENT 3 8 82 17 10 35 72 54 38 65
REMARK Flexibility Score: inf
ROOT
ATOM      1  C   UNL     1      12.765   6.947   0.307  1.00  0.00     0.002 C 
ENDROOT
BRANCH   1   2
ATOM      2  C   UNL     1      13.113   5.476   0.076  1.00  0.00     0.002 C 
BRANCH   2   3
ATOM      3  C   UNL     1      12.268   4.434   0.809  1.00  0.00     0.021 C 
BRANCH   3   4
ATOM      4  C   UNL     1      10.754   4.468   0.615  1.00  0.00     0.116 C 
BRANCH   4   5
ATOM      5  N   UNL     1      10.296   4.348  -0.754  1.00  0.00    -0.351 N 
ATOM      6  O   UNL     1       8.841   4.121  -2.453  1.00  0.00    -0.268 OA
ATOM      7  C   UNL     1       9.072   3.963  -1.257  1.00  0.00     0.265 C 
ATOM      8  H   UNL     1      10.969   4.577  -1.436  1.00  0.00     0.163 HD
BRANCH   7   9
ATOM      9  C   UNL     1       8.005   3.255  -0.399  1.00  0.00     0.106 C 
ATOM     10  N   UNL     1       7.408   2.252  -0.946  1.00  0.00    -0.237 NA
ATOM     11  C   UNL     1       7.689   3.777   0.972  1.00  0.00     0.090 C 
ATOM     12  C   UNL     1       6.556   1.407  -0.149  1.00  0.00     0.319 C 
ATOM     13  C   UNL     1       6.483   3.073   1.593  1.00  0.00     0.127 C 
ATOM     14  N   UNL     1       5.188   1.240  -0.552  1.00  0.00    -0.335 N 
ATOM     15  N   UNL     1       6.476   1.618   1.315  1.00  0.00    -0.249 NA
ATOM     16  C   UNL     1       4.547   0.926   0.610  1.00  0.00     0.217 C 
ATOM     17  H   UNL     1       4.803   1.330  -1.454  1.00  0.00     0.165 HD
ATOM     18  N   UNL     1       5.239   1.051   1.713  1.00  0.00    -0.164 NA
BRANCH  13  19
ATOM     19  C   UNL     1       6.331   3.289   3.111  1.00  0.00     0.109 C 
ATOM     20  C   UNL     1       7.475   2.750   3.902  1.00  0.00     0.120 C 
ATOM     21  C   UNL     1       6.477   4.722   3.519  1.00  0.00     0.081 C 
ATOM     22  N   UNL     1       8.120   3.661   4.554  1.00  0.00    -0.162 NA
ATOM     23  N   UNL     1       7.495   4.919   4.301  1.00  0.00    -0.155 NA
BRANCH  21  24
ATOM     24  C   UNL     1       5.627   5.785   2.960  1.00  0.00    -0.001 A 
ATOM     25  C   UNL     1       4.336   5.512   2.489  1.00  0.00     0.013 A 
ATOM     26  C   UNL     1       6.199   7.047   2.769  1.00  0.00     0.013 A 
ATOM     27  C   UNL     1       3.641   6.492   1.781  1.00  0.00     0.040 A 
ATOM     28  C   UNL     1       5.501   8.021   2.058  1.00  0.00     0.040 A 
ATOM     29  C   UNL     1       4.235   7.731   1.560  1.00  0.00     0.123 A 
ATOM     30  F   UNL     1       3.582   8.652   0.840  1.00  0.00    -0.207 F 
ENDBRANCH  21  24
ENDBRANCH  13  19
ENDBRANCH   7   9
ENDBRANCH   4   5
ENDBRANCH   3   4
ENDBRANCH   2   3
ENDBRANCH   1   2
BRANCH   1  31
ATOM     31  C   UNL     1      12.675   7.414   1.762  1.00  0.00     0.021 C 
BRANCH  31  32
ATOM     32  C   UNL     1      13.879   7.113   2.650  1.00  0.00     0.116 C 
BRANCH  32  33
ATOM     33  N   UNL     1      15.103   7.757   2.200  1.00  0.00    -0.352 N 
ATOM     34  C   UNL     1      15.994   8.531   2.902  1.00  0.00     0.251 C 
ATOM     35  H   UNL     1      15.325   7.617   1.251  1.00  0.00     0.163 HD
ATOM     36  O   UNL     1      16.916   9.088   2.301  1.00  0.00    -0.269 OA
BRANCH  34  37
ATOM     37  C   UNL     1      15.842   8.729   4.362  1.00  0.00     0.039 A 
ATOM     38  C   UNL     1      16.006  10.014   4.889  1.00  0.00     0.014 A 
ATOM     39  C   UNL     1      15.549   7.662   5.216  1.00  0.00     0.014 A 
ATOM     40  C   UNL     1      15.807  10.239   6.255  1.00  0.00     0.010 A 
ATOM     41  C   UNL     1      15.279   7.901   6.563  1.00  0.00     0.010 A 
ATOM     42  C   UNL     1      15.403   9.192   7.099  1.00  0.00    -0.014 A 
BRANCH  42  43
ATOM     43  C   UNL     1      15.095   9.432   8.535  1.00  0.00     0.031 A 
ATOM     44  C   UNL     1      15.915   8.770   9.612  1.00  0.00     0.074 A 
ATOM     45  C   UNL     1      14.036  10.196   8.871  1.00  0.00     0.049 A 
ATOM     46  N   UNL     1      15.764   8.816  10.911  1.00  0.00    -0.248 NA
ATOM     47  C   UNL     1      17.037   7.928   9.170  1.00  0.00     0.031 C 
ATOM     48  C   UNL     1      13.137  10.859   7.924  1.00  0.00     0.029 A 
ATOM     49  N   UNL     1      13.529  10.540  10.101  1.00  0.00    -0.354 N 
ATOM     50  C   UNL     1      16.755   7.997  11.439  1.00  0.00     0.074 A 
ATOM     51  C   UNL     1      17.473   7.431  10.318  1.00  0.00     0.031 C 
ATOM     52  C   UNL     1      12.209  11.549   8.605  1.00  0.00     0.029 A 
ATOM     53  C   UNL     1      12.416  11.346  10.036  1.00  0.00     0.049 A 
ATOM     54  H   UNL     1      13.925  10.237  10.950  1.00  0.00     0.167 HD
ATOM     55  C   UNL     1      17.052   7.753  12.739  1.00  0.00     0.037 A 
ATOM     56  C   UNL     1      11.645  11.858  11.015  1.00  0.00     0.037 A 
ATOM     57  C   UNL     1      16.347   8.338  13.851  1.00  0.00     0.049 A 
ATOM     58  C   UNL     1      11.987  11.562  12.451  1.00  0.00     0.074 A 
ATOM     59  C   UNL     1      16.617   8.211  15.203  1.00  0.00     0.029 A 
ATOM     60  N   UNL     1      15.229   9.152  13.743  1.00  0.00    -0.354 N 
ATOM     61  N   UNL     1      12.976  10.847  12.932  1.00  0.00    -0.248 NA
ATOM     62  C   UNL     1      11.111  12.145  13.476  1.00  0.00     0.031 C 
ATOM     63  C   UNL     1      15.630   8.901  15.914  1.00  0.00     0.029 A 
ATOM     64  C   UNL     1      14.779   9.509  15.005  1.00  0.00     0.049 A 
ATOM     65  H   UNL     1      14.816   9.435  12.896  1.00  0.00     0.167 HD
ATOM     66  C   UNL     1      12.860  10.922  14.317  1.00  0.00     0.074 A 
ATOM     67  C   UNL     1      11.712  11.759  14.594  1.00  0.00     0.031 C 
ATOM     68  C   UNL     1      13.638  10.351  15.270  1.00  0.00     0.037 A 
BRANCH  55  69
ATOM     69  C   UNL     1      18.184   6.804  13.034  1.00  0.00     0.058 A 
ATOM     70  C   UNL     1      19.521   7.139  12.764  1.00  0.00     0.135 A 
ATOM     71  C   UNL     1      17.932   5.557  13.629  1.00  0.00     0.135 A 
ATOM     72  F   UNL     1      19.822   8.312  12.185  1.00  0.00    -0.206 F 
ATOM     73  C   UNL     1      20.563   6.258  13.040  1.00  0.00     0.059 A 
ATOM     74  C   UNL     1      18.961   4.673  13.943  1.00  0.00     0.059 A 
ATOM     75  F   UNL     1      16.674   5.185  13.913  1.00  0.00    -0.206 F 
ATOM     76  C   UNL     1      20.272   5.026  13.629  1.00  0.00     0.060 A 
BRANCH  76  77
ATOM     77  S   UNL     1      21.635   3.896  13.979  1.00  0.00     0.124 S 
ATOM     78  O   UNL     1      21.995   3.450  12.636  1.00  0.00    -0.237 OA
ATOM     79  O   UNL     1      22.603   4.767  14.637  1.00  0.00    -0.237 OA
ATOM     80  O   UNL     1      21.026   2.881  14.834  1.00  0.00    -0.744 OA
ENDBRANCH  76  77
ENDBRANCH  55  69
BRANCH  56  81
ATOM     81  C   UNL     1      10.486  12.729  10.673  1.00  0.00     0.058 A 
ATOM     82  C   UNL     1      10.508  14.101  10.965  1.00  0.00     0.135 A 
ATOM     83  C   UNL     1       9.343  12.214  10.043  1.00  0.00     0.135 A 
ATOM     84  F   UNL     1      11.575  14.639  11.575  1.00  0.00    -0.206 F 
ATOM     85  C   UNL     1       9.433  14.930  10.660  1.00  0.00     0.059 A 
ATOM     86  C   UNL     1       8.266  13.028   9.703  1.00  0.00     0.059 A 
ATOM     87  F   UNL     1       9.276  10.911   9.728  1.00  0.00    -0.206 F 
ATOM     88  C   UNL     1       8.317  14.384  10.024  1.00  0.00     0.060 A 
BRANCH  88  89
ATOM     89  S   UNL     1       6.949  15.479   9.588  1.00  0.00     0.124 S 
ATOM     90  O   UNL     1       6.368  15.760  10.895  1.00  0.00    -0.237 OA
ATOM     91  O   UNL     1       7.641  16.591   8.944  1.00  0.00    -0.237 OA
ATOM     92  O   UNL     1       6.133  14.659   8.697  1.00  0.00    -0.744 OA
ENDBRANCH  88  89
ENDBRANCH  56  81
BRANCH  68  93
ATOM     93  C   UNL     1      13.303  10.644  16.708  1.00  0.00     0.058 A 
ATOM     94  C   UNL     1      12.168  10.102  17.331  1.00  0.00     0.135 A 
ATOM     95  C   UNL     1      14.160  11.439  17.488  1.00  0.00     0.135 A 
ATOM     96  F   UNL     1      11.311   9.341  16.631  1.00  0.00    -0.206 F 
ATOM     97  C   UNL     1      11.882  10.356  18.669  1.00  0.00     0.059 A 
ATOM     98  C   UNL     1      13.910  11.681  18.835  1.00  0.00     0.059 A 
ATOM     99  F   UNL     1      15.265  11.975  16.945  1.00  0.00    -0.206 F 
ATOM    100  C   UNL     1      12.761  11.145  19.414  1.00  0.00     0.060 A 
BRANCH 100 101
ATOM    101  S   UNL     1      12.396  11.437  21.157  1.00  0.00     0.124 S 
ATOM    102  O   UNL     1      11.278  12.370  21.072  1.00  0.00    -0.237 OA
ATOM    103  O   UNL     1      12.069  10.098  21.637  1.00  0.00    -0.237 OA
ATOM    104  O   UNL     1      13.642  11.995  21.677  1.00  0.00    -0.744 OA
ENDBRANCH 100 101
ENDBRANCH  68  93
ENDBRANCH  42  43
ENDBRANCH  34  37
ENDBRANCH  32  33
ENDBRANCH  31  32
ENDBRANCH   1  31
TORSDOF 18
