REMARK SMILES CN(C(=O)N[C@@](C)(C(=O)NCCCCCCNC(=O)c1ccc(-c2c3nc(c(-c4c(F)cc(S(=O)(=O)[O-])cc4F)c4ccc([nH]4)c(-c4c(F)cc(S(=O)(=O)[O-])cc4F)c4nc(c(-c5c(F)cc(S(=O)(=O)[O-])cc5F)c5ccc2[nH]5)C=C4)C=C3)cc1)C(F)(F)F)c1ccc(F)cc1
REMARK SMILES IDX 13 1 12 2 11 3 10 4 8 5 9 6 6 8 7 9 5 10 3 11 4 12 2 14 1 15
REMARK SMILES IDX 90 16 91 17 96 18 92 19 95 20 93 21 94 22 86 23 87 24 88 25
REMARK SMILES IDX 89 26 14 27 15 28 16 29 17 30 18 31 19 33 20 34 21 35 85 36
REMARK SMILES IDX 22 37 84 38 23 39 24 40 25 41 78 42 26 43 83 44 77 45 79 46
REMARK SMILES IDX 27 47 82 48 76 49 75 50 28 52 62 53 41 54 61 55 42 56 45 57
REMARK SMILES IDX 60 58 80 59 43 60 44 61 59 63 81 64 46 65 29 66 30 67 39 68
REMARK SMILES IDX 31 69 32 70 38 71 40 72 33 73 34 74 35 75 36 76 37 77 63 78
REMARK SMILES IDX 64 79 73 80 65 81 66 82 72 83 74 84 67 85 68 86 69 87 70 88
REMARK SMILES IDX 71 89 47 90 48 91 57 92 49 93 50 94 56 95 58 96 51 97 52 98
REMARK SMILES IDX 53 99 54 100 55 101
REMARK H PARENT 10 7 5 13 17 32 79 51 45 62
REMARK Flexibility Score: inf
ROOT
ATOM      1  C   UNL     1      -0.696  -6.371  -3.383  1.00  0.00     0.002 C 
ENDROOT
BRANCH   1   2
ATOM      2  C   UNL     1      -1.304  -4.968  -3.240  1.00  0.00     0.021 C 
BRANCH   2   3
ATOM      3  C   UNL     1      -1.429  -4.465  -1.802  1.00  0.00     0.116 C 
BRANCH   3   4
ATOM      4  N   UNL     1      -0.123  -4.404  -1.176  1.00  0.00    -0.354 N 
ATOM      5  C   UNL     1       0.548  -3.471  -0.458  1.00  0.00     0.255 C 
ATOM      6  O   UNL     1       1.750  -3.724  -0.317  1.00  0.00    -0.272 OA
ATOM      7  H   UNL     1       0.397  -5.231  -1.302  1.00  0.00     0.163 HD
BRANCH   5   8
ATOM      8  C   UNL     1      -0.094  -2.173   0.091  1.00  0.00     0.213 C 
ATOM      9  C   UNL     1      -1.444  -2.439   0.788  1.00  0.00     0.056 C 
BRANCH   8  10
ATOM     10  N   UNL     1      -0.374  -1.294  -1.107  1.00  0.00    -0.316 N 
ATOM     11  C   UNL     1       0.007  -0.198  -1.782  1.00  0.00     0.322 C 
ATOM     12  O   UNL     1      -0.377  -0.214  -2.959  1.00  0.00    -0.248 OA
ATOM     13  H   UNL     1      -1.144  -1.681  -1.583  1.00  0.00     0.166 HD
BRANCH  11  14
ATOM     14  N   UNL     1       0.718   0.838  -1.255  1.00  0.00    -0.298 N 
ATOM     15  C   UNL     1       0.884   1.121   0.159  1.00  0.00     0.155 C 
BRANCH  14  16
ATOM     16  C   UNL     1       1.081   1.960  -2.070  1.00  0.00     0.045 A 
ATOM     17  C   UNL     1       0.105   2.685  -2.769  1.00  0.00     0.029 A 
ATOM     18  C   UNL     1       2.388   2.465  -1.987  1.00  0.00     0.029 A 
ATOM     19  C   UNL     1       0.422   3.928  -3.325  1.00  0.00     0.041 A 
ATOM     20  C   UNL     1       2.708   3.693  -2.567  1.00  0.00     0.041 A 
ATOM     21  C   UNL     1       1.716   4.423  -3.210  1.00  0.00     0.123 A 
ATOM     22  F   UNL     1       2.008   5.634  -3.704  1.00  0.00    -0.207 F 
ENDBRANCH  14  16
ENDBRANCH  11  14
ENDBRANCH   8  10
BRANCH   8  23
ATOM     23  C   UNL     1       0.894  -1.783   1.218  1.00  0.00     0.420 C 
ATOM     24  F   UNL     1       2.101  -1.379   0.776  1.00  0.00    -0.168 F 
ATOM     25  F   UNL     1       0.397  -0.793   2.003  1.00  0.00    -0.168 F 
ATOM     26  F   UNL     1       1.100  -2.817   2.079  1.00  0.00    -0.168 F 
ENDBRANCH   8  23
ENDBRANCH   5   8
ENDBRANCH   3   4
ENDBRANCH   2   3
ENDBRANCH   1   2
BRANCH   1  27
ATOM     27  C   UNL     1      -1.391  -7.467  -2.571  1.00  0.00     0.002 C 
BRANCH  27  28
ATOM     28  C   UNL     1      -2.893  -7.598  -2.822  1.00  0.00     0.021 C 
BRANCH  28  29
ATOM     29  C   UNL     1      -3.276  -7.792  -4.284  1.00  0.00     0.116 C 
BRANCH  29  30
ATOM     30  N   UNL     1      -2.725  -9.017  -4.839  1.00  0.00    -0.352 N 
ATOM     31  C   UNL     1      -3.369 -10.015  -5.526  1.00  0.00     0.251 C 
ATOM     32  H   UNL     1      -1.759  -9.149  -4.703  1.00  0.00     0.163 HD
ATOM     33  O   UNL     1      -2.790 -11.073  -5.763  1.00  0.00    -0.269 OA
BRANCH  31  34
ATOM     34  C   UNL     1      -4.770  -9.817  -5.954  1.00  0.00     0.039 A 
ATOM     35  C   UNL     1      -5.695 -10.839  -5.734  1.00  0.00     0.014 A 
ATOM     36  C   UNL     1      -5.171  -8.619  -6.554  1.00  0.00     0.014 A 
ATOM     37  C   UNL     1      -7.037 -10.636  -6.063  1.00  0.00     0.010 A 
ATOM     38  C   UNL     1      -6.520  -8.390  -6.807  1.00  0.00     0.010 A 
ATOM     39  C   UNL     1      -7.467  -9.398  -6.569  1.00  0.00    -0.014 A 
BRANCH  39  40
ATOM     40  C   UNL     1      -8.902  -9.140  -6.853  1.00  0.00     0.031 A 
ATOM     41  C   UNL     1      -9.353  -8.845  -8.258  1.00  0.00     0.074 A 
ATOM     42  C   UNL     1      -9.789  -9.116  -5.837  1.00  0.00     0.049 A 
ATOM     43  N   UNL     1     -10.548  -8.538  -8.694  1.00  0.00    -0.248 NA
ATOM     44  C   UNL     1      -8.322  -8.872  -9.309  1.00  0.00     0.031 C 
ATOM     45  C   UNL     1      -9.464  -9.340  -4.426  1.00  0.00     0.029 A 
ATOM     46  N   UNL     1     -11.141  -8.883  -5.831  1.00  0.00    -0.354 N 
ATOM     47  C   UNL     1     -10.411  -8.328 -10.061  1.00  0.00     0.074 A 
ATOM     48  C   UNL     1      -9.008  -8.485 -10.374  1.00  0.00     0.031 C 
ATOM     49  C   UNL     1     -10.588  -9.257  -3.697  1.00  0.00     0.029 A 
ATOM     50  C   UNL     1     -11.706  -8.932  -4.578  1.00  0.00     0.049 A 
ATOM     51  H   UNL     1     -11.659  -8.698  -6.648  1.00  0.00     0.167 HD
ATOM     52  C   UNL     1     -11.371  -8.053 -10.976  1.00  0.00     0.037 A 
ATOM     53  C   UNL     1     -12.977  -8.726  -4.181  1.00  0.00     0.037 A 
ATOM     54  C   UNL     1     -12.770  -7.919 -10.659  1.00  0.00     0.049 A 
ATOM     55  C   UNL     1     -14.024  -8.408  -5.215  1.00  0.00     0.074 A 
ATOM     56  C   UNL     1     -13.829  -7.697 -11.521  1.00  0.00     0.029 A 
ATOM     57  N   UNL     1     -13.304  -7.988  -9.380  1.00  0.00    -0.354 N 
ATOM     58  N   UNL     1     -13.887  -8.280  -6.514  1.00  0.00    -0.248 NA
ATOM     59  C   UNL     1     -15.398  -8.213  -4.734  1.00  0.00     0.031 C 
ATOM     60  C   UNL     1     -14.995  -7.577 -10.759  1.00  0.00     0.029 A 
ATOM     61  C   UNL     1     -14.674  -7.787  -9.428  1.00  0.00     0.049 A 
ATOM     62  H   UNL     1     -12.787  -8.156  -8.560  1.00  0.00     0.167 HD
ATOM     63  C   UNL     1     -15.161  -8.020  -7.007  1.00  0.00     0.074 A 
ATOM     64  C   UNL     1     -16.056  -8.023  -5.868  1.00  0.00     0.031 C 
ATOM     65  C   UNL     1     -15.555  -7.801  -8.286  1.00  0.00     0.037 A 
BRANCH  52  66
ATOM     66  C   UNL     1     -10.947  -7.882 -12.410  1.00  0.00     0.058 A 
ATOM     67  C   UNL     1     -10.486  -8.963 -13.179  1.00  0.00     0.135 A 
ATOM     68  C   UNL     1     -11.048  -6.631 -13.040  1.00  0.00     0.135 A 
ATOM     69  F   UNL     1     -10.354 -10.180 -12.625  1.00  0.00    -0.206 F 
ATOM     70  C   UNL     1     -10.116  -8.806 -14.510  1.00  0.00     0.059 A 
ATOM     71  C   UNL     1     -10.714  -6.456 -14.380  1.00  0.00     0.059 A 
ATOM     72  F   UNL     1     -11.481  -5.561 -12.354  1.00  0.00    -0.206 F 
ATOM     73  C   UNL     1     -10.237  -7.548 -15.104  1.00  0.00     0.060 A 
BRANCH  73  74
ATOM     74  S   UNL     1      -9.769  -7.367 -16.837  1.00  0.00     0.124 S 
ATOM     75  O   UNL     1      -8.317  -7.490 -16.761  1.00  0.00    -0.237 OA
ATOM     76  O   UNL     1     -10.468  -8.483 -17.466  1.00  0.00    -0.237 OA
ATOM     77  O   UNL     1     -10.268  -6.040 -17.188  1.00  0.00    -0.744 OA
ENDBRANCH  73  74
ENDBRANCH  52  66
BRANCH  53  78
ATOM     78  C   UNL     1     -13.334  -8.826  -2.739  1.00  0.00     0.058 A 
ATOM     79  C   UNL     1     -14.146  -9.868  -2.264  1.00  0.00     0.135 A 
ATOM     80  C   UNL     1     -12.872  -7.884  -1.807  1.00  0.00     0.135 A 
ATOM     81  F   UNL     1     -14.619 -10.791  -3.116  1.00  0.00    -0.206 F 
ATOM     82  C   UNL     1     -14.505  -9.960  -0.924  1.00  0.00     0.059 A 
ATOM     83  C   UNL     1     -13.193  -7.972  -0.456  1.00  0.00     0.059 A 
ATOM     84  F   UNL     1     -12.078  -6.878  -2.205  1.00  0.00    -0.206 F 
ATOM     85  C   UNL     1     -14.022  -9.007  -0.026  1.00  0.00     0.060 A 
BRANCH  85  86
ATOM     86  S   UNL     1     -14.463  -9.156   1.718  1.00  0.00     0.124 S 
ATOM     87  O   UNL     1     -15.872  -8.780   1.698  1.00  0.00    -0.237 OA
ATOM     88  O   UNL     1     -14.180 -10.563   1.986  1.00  0.00    -0.237 OA
ATOM     89  O   UNL     1     -13.566  -8.209   2.373  1.00  0.00    -0.744 OA
ENDBRANCH  85  86
ENDBRANCH  53  78
BRANCH  65  90
ATOM     90  C   UNL     1     -17.023  -7.585  -8.534  1.00  0.00     0.058 A 
ATOM     91  C   UNL     1     -17.677  -6.407  -8.140  1.00  0.00     0.135 A 
ATOM     92  C   UNL     1     -17.774  -8.550  -9.226  1.00  0.00     0.135 A 
ATOM     93  F   UNL     1     -17.008  -5.454  -7.470  1.00  0.00    -0.206 F 
ATOM     94  C   UNL     1     -19.028  -6.204  -8.400  1.00  0.00     0.059 A 
ATOM     95  C   UNL     1     -19.119  -8.354  -9.525  1.00  0.00     0.059 A 
ATOM     96  F   UNL     1     -17.197  -9.691  -9.635  1.00  0.00    -0.206 F 
ATOM     97  C   UNL     1     -19.740  -7.182  -9.097  1.00  0.00     0.060 A 
BRANCH  97  98
ATOM     98  S   UNL     1     -21.484  -6.889  -9.459  1.00  0.00     0.124 S 
ATOM     99  O   UNL     1     -22.088  -7.048  -8.140  1.00  0.00    -0.237 OA
ATOM    100  O   UNL     1     -21.468  -5.530  -9.989  1.00  0.00    -0.237 OA
ATOM    101  O   UNL     1     -21.811  -7.931 -10.428  1.00  0.00    -0.744 OA
ENDBRANCH  97  98
ENDBRANCH  65  90
ENDBRANCH  39  40
ENDBRANCH  31  34
ENDBRANCH  29  30
ENDBRANCH  28  29
ENDBRANCH  27  28
ENDBRANCH   1  27
TORSDOF 20
