REMARK SMILES CCC(CC)C[N@H+]1[C@@H]2CC[C@H]1C[C@H](CC(=O)NCCCCCCNC(=O)c1ccc(-c3c4nc(c(-c5c(F)cc(S(=O)(=O)[O-])cc5F)c5ccc([nH]5)c(-c5c(F)cc(S(=O)(=O)[O-])cc5F)c5nc(c(-c6c(F)cc(S(=O)(=O)[O-])cc6F)c6ccc3[nH]6)C=C5)C=C4)cc1)C2
REMARK SMILES IDX 20 1 19 2 18 3 17 4 15 5 16 6 14 8 13 9 7 10 8 11 11 12 9 14
REMARK SMILES IDX 93 15 10 16 12 17 6 18 3 19 2 20 1 21 4 22 5 23 21 24 22 25
REMARK SMILES IDX 23 26 24 27 25 28 26 30 27 31 28 32 92 33 29 34 91 35 30 36
REMARK SMILES IDX 31 37 32 38 85 39 33 40 90 41 84 42 86 43 34 44 89 45 83 46
REMARK SMILES IDX 82 47 35 49 69 50 48 51 68 52 49 53 52 54 67 55 87 56 50 57
REMARK SMILES IDX 51 58 66 60 88 61 53 62 36 63 37 64 46 65 38 66 39 67 45 68
REMARK SMILES IDX 47 69 40 70 41 71 42 72 43 73 44 74 70 75 71 76 80 77 72 78
REMARK SMILES IDX 73 79 79 80 81 81 74 82 75 83 76 84 77 85 78 86 54 87 55 88
REMARK SMILES IDX 64 89 56 90 57 91 63 92 65 93 58 94 59 95 60 96 61 97 62 98
REMARK H PARENT 17 7 7 13 24 29 86 48 52 59
REMARK Flexibility Score: inf
ROOT
ATOM      1  C   UNL     1       3.374   9.497   1.334  1.00  0.00     0.002 C 
ENDROOT
BRANCH   1   2
ATOM      2  C   UNL     1       3.122   7.993   1.276  1.00  0.00     0.021 C 
BRANCH   2   3
ATOM      3  C   UNL     1       3.532   7.323  -0.040  1.00  0.00     0.116 C 
BRANCH   3   4
ATOM      4  N   UNL     1       4.888   6.809   0.050  1.00  0.00    -0.356 N 
ATOM      5  C   UNL     1       5.349   5.548   0.271  1.00  0.00     0.220 C 
ATOM      6  O   UNL     1       6.565   5.389   0.403  1.00  0.00    -0.275 OA
ATOM      7  H   UNL     1       5.592   7.487  -0.067  1.00  0.00     0.163 HD
BRANCH   5   8
ATOM      8  C   UNL     1       4.408   4.359   0.331  1.00  0.00     0.104 C 
BRANCH   8   9
ATOM      9  C   UNL     1       3.950   3.976   1.759  1.00  0.00     0.010 C 
ATOM     10  N   UNL     1       1.240   3.030   2.537  1.00  0.00    -0.330 N 
ATOM     11  C   UNL     1       2.379   2.127   2.689  1.00  0.00     0.184 C 
ATOM     12  C   UNL     1       1.734   4.278   3.129  1.00  0.00     0.184 C 
ATOM     13  H   UNL     1       0.445   2.579   2.989  1.00  0.00     0.348 HD
ATOM     14  C   UNL     1       2.719   2.354   4.174  1.00  0.00     0.071 C 
ATOM     15  C   UNL     1       3.583   2.479   1.804  1.00  0.00     0.069 C 
ATOM     16  C   UNL     1       2.322   3.799   4.452  1.00  0.00     0.071 C 
ATOM     17  C   UNL     1       2.826   4.906   2.254  1.00  0.00     0.069 C 
BRANCH  10  18
ATOM     18  C   UNL     1       0.511   3.204   1.273  1.00  0.00     0.266 C 
BRANCH  18  19
ATOM     19  C   UNL     1       0.629   2.133   0.164  1.00  0.00     0.044 C 
BRANCH  19  20
ATOM     20  C   UNL     1       0.068   0.765   0.586  1.00  0.00     0.006 C 
ATOM     21  C   UNL     1       0.751  -0.370  -0.166  1.00  0.00     0.004 C 
ENDBRANCH  19  20
BRANCH  19  22
ATOM     22  C   UNL     1       0.052   2.640  -1.183  1.00  0.00     0.006 C 
ATOM     23  C   UNL     1      -1.454   2.841  -1.242  1.00  0.00     0.004 C 
ENDBRANCH  19  22
ENDBRANCH  18  19
ENDBRANCH  10  18
ENDBRANCH   8   9
ENDBRANCH   5   8
ENDBRANCH   3   4
ENDBRANCH   2   3
ENDBRANCH   1   2
BRANCH   1  24
ATOM     24  C   UNL     1       2.441  10.337   0.462  1.00  0.00     0.002 C 
BRANCH  24  25
ATOM     25  C   UNL     1       0.943  10.162   0.736  1.00  0.00     0.021 C 
BRANCH  25  26
ATOM     26  C   UNL     1       0.516  10.369   2.188  1.00  0.00     0.116 C 
BRANCH  26  27
ATOM     27  N   UNL     1       0.853  11.700   2.671  1.00  0.00    -0.352 N 
ATOM     28  C   UNL     1       0.026  12.722   3.053  1.00  0.00     0.251 C 
ATOM     29  H   UNL     1       1.816  11.893   2.732  1.00  0.00     0.163 HD
ATOM     30  O   UNL     1       0.486  13.859   3.202  1.00  0.00    -0.269 OA
BRANCH  28  31
ATOM     31  C   UNL     1      -1.411  12.474   3.279  1.00  0.00     0.039 A 
ATOM     32  C   UNL     1      -2.349  13.370   2.757  1.00  0.00     0.014 A 
ATOM     33  C   UNL     1      -1.834  11.371   4.027  1.00  0.00     0.014 A 
ATOM     34  C   UNL     1      -3.713  13.128   2.939  1.00  0.00     0.010 A 
ATOM     35  C   UNL     1      -3.193  11.096   4.150  1.00  0.00     0.010 A 
ATOM     36  C   UNL     1      -4.147  11.974   3.613  1.00  0.00    -0.014 A 
BRANCH  36  37
ATOM     37  C   UNL     1      -5.593  11.671   3.769  1.00  0.00     0.031 A 
ATOM     38  C   UNL     1      -6.215  11.638   5.138  1.00  0.00     0.074 A 
ATOM     39  C   UNL     1      -6.329  11.362   2.683  1.00  0.00     0.049 A 
ATOM     40  N   UNL     1      -7.439  11.330   5.482  1.00  0.00    -0.248 NA
ATOM     41  C   UNL     1      -5.338  11.969   6.273  1.00  0.00     0.031 C 
ATOM     42  C   UNL     1      -5.826  11.311   1.309  1.00  0.00     0.029 A 
ATOM     43  N   UNL     1      -7.652  11.018   2.565  1.00  0.00    -0.354 N 
ATOM     44  C   UNL     1      -7.476  11.415   6.870  1.00  0.00     0.074 A 
ATOM     45  C   UNL     1      -6.138  11.752   7.306  1.00  0.00     0.031 C 
ATOM     46  C   UNL     1      -6.832  10.976   0.485  1.00  0.00     0.029 A 
ATOM     47  C   UNL     1      -8.040  10.753   1.274  1.00  0.00     0.049 A 
ATOM     48  H   UNL     1      -8.265  10.967   3.333  1.00  0.00     0.167 HD
ATOM     49  C   UNL     1      -8.533  11.249   7.701  1.00  0.00     0.037 A 
ATOM     50  C   UNL     1      -9.233  10.366   0.780  1.00  0.00     0.037 A 
ATOM     51  C   UNL     1      -9.866  10.935   7.256  1.00  0.00     0.049 A 
ATOM     52  C   UNL     1     -10.394  10.193   1.720  1.00  0.00     0.074 A 
ATOM     53  C   UNL     1     -11.018  10.805   8.012  1.00  0.00     0.029 A 
ATOM     54  N   UNL     1     -10.225  10.698   5.937  1.00  0.00    -0.354 N 
ATOM     55  N   UNL     1     -10.427  10.341   3.024  1.00  0.00    -0.248 NA
ATOM     56  C   UNL     1     -11.681   9.808   1.125  1.00  0.00     0.031 C 
ATOM     57  C   UNL     1     -12.065  10.447   7.155  1.00  0.00     0.029 A 
ATOM     58  C   UNL     1     -11.576  10.402   5.859  1.00  0.00     0.049 A 
ATOM     59  H   UNL     1      -9.610  10.734   5.169  1.00  0.00     0.167 HD
ATOM     60  C   UNL     1     -11.742  10.092   3.401  1.00  0.00     0.074 A 
ATOM     61  C   UNL     1     -12.475   9.795   2.187  1.00  0.00     0.031 C 
ATOM     62  C   UNL     1     -12.292  10.111   4.641  1.00  0.00     0.037 A 
BRANCH  49  63
ATOM     63  C   UNL     1      -8.286  11.406   9.178  1.00  0.00     0.058 A 
ATOM     64  C   UNL     1      -7.993  12.656   9.748  1.00  0.00     0.135 A 
ATOM     65  C   UNL     1      -8.359  10.298  10.037  1.00  0.00     0.135 A 
ATOM     66  F   UNL     1      -7.898  13.748   8.972  1.00  0.00    -0.206 F 
ATOM     67  C   UNL     1      -7.743  12.795  11.109  1.00  0.00     0.059 A 
ATOM     68  C   UNL     1      -8.141  10.419  11.407  1.00  0.00     0.059 A 
ATOM     69  F   UNL     1      -8.637   9.080   9.548  1.00  0.00    -0.206 F 
ATOM     70  C   UNL     1      -7.814  11.669  11.931  1.00  0.00     0.060 A 
BRANCH  70  71
ATOM     71  S   UNL     1      -7.473  11.864  13.693  1.00  0.00     0.124 S 
ATOM     72  O   UNL     1      -6.024  12.034  13.690  1.00  0.00    -0.237 OA
ATOM     73  O   UNL     1      -8.249  13.052  14.033  1.00  0.00    -0.237 OA
ATOM     74  O   UNL     1      -7.958  10.616  14.273  1.00  0.00    -0.744 OA
ENDBRANCH  70  71
ENDBRANCH  49  63
BRANCH  50  75
ATOM     75  C   UNL     1      -9.389  10.145  -0.682  1.00  0.00     0.058 A 
ATOM     76  C   UNL     1     -10.121  11.042  -1.473  1.00  0.00     0.135 A 
ATOM     77  C   UNL     1      -8.784   9.052  -1.323  1.00  0.00     0.135 A 
ATOM     78  F   UNL     1     -10.723  12.098  -0.905  1.00  0.00    -0.206 F 
ATOM     79  C   UNL     1     -10.255  10.863  -2.846  1.00  0.00     0.059 A 
ATOM     80  C   UNL     1      -8.883   8.864  -2.698  1.00  0.00     0.059 A 
ATOM     81  F   UNL     1      -8.058   8.174  -0.613  1.00  0.00    -0.206 F 
ATOM     82  C   UNL     1      -9.627   9.772  -3.450  1.00  0.00     0.060 A 
BRANCH  82  83
ATOM     83  S   UNL     1      -9.752   9.585  -5.242  1.00  0.00     0.124 S 
ATOM     84  O   UNL     1     -11.133   9.143  -5.397  1.00  0.00    -0.237 OA
ATOM     85  O   UNL     1      -9.456  10.935  -5.713  1.00  0.00    -0.237 OA
ATOM     86  O   UNL     1      -8.731   8.587  -5.546  1.00  0.00    -0.744 OA
ENDBRANCH  82  83
ENDBRANCH  50  75
BRANCH  62  87
ATOM     87  C   UNL     1     -13.766   9.829   4.747  1.00  0.00     0.058 A 
ATOM     88  C   UNL     1     -14.285   8.537   4.574  1.00  0.00     0.135 A 
ATOM     89  C   UNL     1     -14.662  10.858   5.080  1.00  0.00     0.135 A 
ATOM     90  F   UNL     1     -13.472   7.520   4.248  1.00  0.00    -0.206 F 
ATOM     91  C   UNL     1     -15.645   8.278   4.705  1.00  0.00     0.059 A 
ATOM     92  C   UNL     1     -16.023  10.616   5.243  1.00  0.00     0.059 A 
ATOM     93  F   UNL     1     -14.216  12.110   5.266  1.00  0.00    -0.206 F 
ATOM     94  C   UNL     1     -16.506   9.324   5.042  1.00  0.00     0.060 A 
BRANCH  94  95
ATOM     95  S   UNL     1     -18.265   8.968   5.244  1.00  0.00     0.124 S 
ATOM     96  O   UNL     1     -18.692   8.804   3.859  1.00  0.00    -0.237 OA
ATOM     97  O   UNL     1     -18.247   7.752   6.051  1.00  0.00    -0.237 OA
ATOM     98  O   UNL     1     -18.776  10.155   5.923  1.00  0.00    -0.744 OA
ENDBRANCH  94  95
ENDBRANCH  62  87
ENDBRANCH  36  37
ENDBRANCH  28  31
ENDBRANCH  26  27
ENDBRANCH  25  26
ENDBRANCH  24  25
ENDBRANCH   1  24
TORSDOF 21
