REMARK SMILES C=CC[N@@H+](CC(=O)NCCCCCCNC(=O)c1ccc(-c2c3nc(c(-c4c(F)cc(S(=O)(=O)[O-])cc4F)c4ccc([nH]4)c(-c4c(F)cc(S(=O)(=O)[O-])cc4F)c4nc(c(-c5c(F)cc(S(=O)(=O)[O-])cc5F)c5ccc2[nH]5)C=C4)C=C3)cc1)[C@@H](C)c1c(F)cccc1F
REMARK SMILES IDX 11 1 10 2 9 3 8 4 6 5 7 6 5 8 4 9 3 11 2 12 1 13 84 14 85 15
REMARK SMILES IDX 86 16 87 17 92 18 88 19 89 20 91 21 93 22 90 23 12 24 13 25
REMARK SMILES IDX 14 26 15 27 16 28 17 30 18 31 19 32 83 33 20 34 82 35 21 36
REMARK SMILES IDX 22 37 23 38 76 39 24 40 81 41 75 42 77 43 25 44 80 45 74 46
REMARK SMILES IDX 73 47 26 49 60 50 39 51 59 52 40 53 43 54 58 55 78 56 41 57
REMARK SMILES IDX 42 58 57 60 79 61 44 62 27 63 28 64 37 65 29 66 30 67 36 68
REMARK SMILES IDX 38 69 31 70 32 71 33 72 34 73 35 74 61 75 62 76 71 77 63 78
REMARK SMILES IDX 64 79 70 80 72 81 65 82 66 83 67 84 68 85 69 86 45 87 46 88
REMARK SMILES IDX 55 89 47 90 48 91 54 92 56 93 49 94 50 95 51 96 52 97 53 98
REMARK H PARENT 8 7 4 10 15 29 77 48 43 59
REMARK Flexibility Score: inf
ROOT
ATOM      1  C   UNL     1      -2.546   2.807   1.527  1.00  0.00     0.002 C 
ENDROOT
BRANCH   1   2
ATOM      2  C   UNL     1      -2.143   1.382   1.156  1.00  0.00     0.021 C 
BRANCH   2   3
ATOM      3  C   UNL     1      -3.260   0.332   1.198  1.00  0.00     0.116 C 
BRANCH   3   4
ATOM      4  N   UNL     1      -3.895   0.175  -0.097  1.00  0.00    -0.351 N 
ATOM      5  C   UNL     1      -3.840  -0.805  -1.040  1.00  0.00     0.275 C 
ATOM      6  O   UNL     1      -4.633  -0.679  -1.984  1.00  0.00    -0.269 OA
ATOM      7  H   UNL     1      -4.482   0.926  -0.341  1.00  0.00     0.163 HD
BRANCH   5   8
ATOM      8  C   UNL     1      -2.942  -2.054  -0.960  1.00  0.00     0.364 C 
BRANCH   8   9
ATOM      9  N   UNL     1      -1.475  -1.908  -1.162  1.00  0.00    -0.318 N 
ATOM     10  H   UNL     1      -1.103  -2.851  -1.269  1.00  0.00     0.349 HD
BRANCH   9  11
ATOM     11  C   UNL     1      -0.807  -1.419   0.032  1.00  0.00     0.291 C 
BRANCH  11  12
ATOM     12  C   UNL     1       0.609  -1.828   0.296  1.00  0.00     0.025 C 
ATOM     13  C   UNL     1       1.549  -0.955   0.689  1.00  0.00     0.010 C 
ENDBRANCH  11  12
ENDBRANCH   9  11
BRANCH   9  14
ATOM     14  C   UNL     1      -1.036  -1.393  -2.488  1.00  0.00     0.218 C 
ATOM     15  C   UNL     1      -1.651  -0.059  -2.944  1.00  0.00     0.081 C 
BRANCH  14  16
ATOM     16  C   UNL     1       0.480  -1.415  -2.675  1.00  0.00     0.080 A 
ATOM     17  C   UNL     1       1.141  -2.642  -2.822  1.00  0.00     0.135 A 
ATOM     18  C   UNL     1       1.286  -0.268  -2.619  1.00  0.00     0.135 A 
ATOM     19  F   UNL     1       0.436  -3.781  -2.884  1.00  0.00    -0.206 F 
ATOM     20  C   UNL     1       2.535  -2.729  -2.861  1.00  0.00     0.040 A 
ATOM     21  C   UNL     1       2.679  -0.338  -2.680  1.00  0.00     0.040 A 
ATOM     22  F   UNL     1       0.745   0.948  -2.451  1.00  0.00    -0.206 F 
ATOM     23  C   UNL     1       3.308  -1.574  -2.784  1.00  0.00     0.006 A 
ENDBRANCH  14  16
ENDBRANCH   9  14
ENDBRANCH   8   9
ENDBRANCH   5   8
ENDBRANCH   3   4
ENDBRANCH   2   3
ENDBRANCH   1   2
BRANCH   1  24
ATOM     24  C   UNL     1      -2.971   3.017   2.980  1.00  0.00     0.002 C 
BRANCH  24  25
ATOM     25  C   UNL     1      -2.007   2.491   4.049  1.00  0.00     0.021 C 
BRANCH  25  26
ATOM     26  C   UNL     1      -0.562   2.980   3.946  1.00  0.00     0.116 C 
BRANCH  26  27
ATOM     27  N   UNL     1      -0.462   4.427   4.014  1.00  0.00    -0.352 N 
ATOM     28  C   UNL     1       0.126   5.232   4.956  1.00  0.00     0.251 C 
ATOM     29  H   UNL     1      -0.883   4.907   3.265  1.00  0.00     0.163 HD
ATOM     30  O   UNL     1      -0.088   6.444   4.927  1.00  0.00    -0.269 OA
BRANCH  28  31
ATOM     31  C   UNL     1       1.000   4.668   6.008  1.00  0.00     0.039 A 
ATOM     32  C   UNL     1       0.877   5.156   7.313  1.00  0.00     0.014 A 
ATOM     33  C   UNL     1       1.977   3.711   5.714  1.00  0.00     0.014 A 
ATOM     34  C   UNL     1       1.697   4.654   8.327  1.00  0.00     0.010 A 
ATOM     35  C   UNL     1       2.754   3.167   6.739  1.00  0.00     0.010 A 
ATOM     36  C   UNL     1       2.627   3.637   8.055  1.00  0.00    -0.014 A 
BRANCH  36  37
ATOM     37  C   UNL     1       3.463   3.063   9.142  1.00  0.00     0.031 A 
ATOM     38  C   UNL     1       4.956   3.257   9.145  1.00  0.00     0.074 A 
ATOM     39  C   UNL     1       2.878   2.331  10.111  1.00  0.00     0.049 A 
ATOM     40  N   UNL     1       5.843   2.819  10.002  1.00  0.00    -0.248 NA
ATOM     41  C   UNL     1       5.531   4.022   8.027  1.00  0.00     0.031 C 
ATOM     42  C   UNL     1       1.448   2.022  10.188  1.00  0.00     0.029 A 
ATOM     43  N   UNL     1       3.411   1.709  11.212  1.00  0.00    -0.354 N 
ATOM     44  C   UNL     1       7.078   3.244   9.524  1.00  0.00     0.074 A 
ATOM     45  C   UNL     1       6.830   3.935   8.277  1.00  0.00     0.031 C 
ATOM     46  C   UNL     1       1.216   1.287  11.288  1.00  0.00     0.029 A 
ATOM     47  C   UNL     1       2.479   1.051  11.980  1.00  0.00     0.049 A 
ATOM     48  H   UNL     1       4.370   1.731  11.431  1.00  0.00     0.167 HD
ATOM     49  C   UNL     1       8.303   3.090  10.083  1.00  0.00     0.037 A 
ATOM     50  C   UNL     1       2.624   0.339  13.114  1.00  0.00     0.037 A 
ATOM     51  C   UNL     1       8.542   2.428  11.340  1.00  0.00     0.049 A 
ATOM     52  C   UNL     1       3.989   0.210  13.732  1.00  0.00     0.074 A 
ATOM     53  C   UNL     1       9.738   2.280  12.022  1.00  0.00     0.029 A 
ATOM     54  N   UNL     1       7.568   1.802  12.104  1.00  0.00    -0.354 N 
ATOM     55  N   UNL     1       5.136   0.681  13.301  1.00  0.00    -0.248 NA
ATOM     56  C   UNL     1       4.080  -0.534  14.995  1.00  0.00     0.031 C 
ATOM     57  C   UNL     1       9.493   1.535  13.181  1.00  0.00     0.029 A 
ATOM     58  C   UNL     1       8.138   1.253  13.242  1.00  0.00     0.049 A 
ATOM     59  H   UNL     1       6.613   1.755  11.873  1.00  0.00     0.167 HD
ATOM     60  C   UNL     1       6.080   0.307  14.251  1.00  0.00     0.074 A 
ATOM     61  C   UNL     1       5.367  -0.413  15.287  1.00  0.00     0.031 C 
ATOM     62  C   UNL     1       7.416   0.538  14.264  1.00  0.00     0.037 A 
BRANCH  49  63
ATOM     63  C   UNL     1       9.484   3.657   9.344  1.00  0.00     0.058 A 
ATOM     64  C   UNL     1       9.706   5.041   9.261  1.00  0.00     0.135 A 
ATOM     65  C   UNL     1      10.431   2.807   8.749  1.00  0.00     0.135 A 
ATOM     66  F   UNL     1       8.825   5.900   9.801  1.00  0.00    -0.206 F 
ATOM     67  C   UNL     1      10.808   5.564   8.593  1.00  0.00     0.059 A 
ATOM     68  C   UNL     1      11.555   3.307   8.096  1.00  0.00     0.059 A 
ATOM     69  F   UNL     1      10.269   1.476   8.798  1.00  0.00    -0.206 F 
ATOM     70  C   UNL     1      11.727   4.689   8.012  1.00  0.00     0.060 A 
BRANCH  70  71
ATOM     71  S   UNL     1      13.158   5.379   7.154  1.00  0.00     0.124 S 
ATOM     72  O   UNL     1      12.547   5.871   5.922  1.00  0.00    -0.237 OA
ATOM     73  O   UNL     1      13.614   6.408   8.086  1.00  0.00    -0.237 OA
ATOM     74  O   UNL     1      14.048   4.237   7.002  1.00  0.00    -0.744 OA
ENDBRANCH  70  71
ENDBRANCH  49  63
BRANCH  50  75
ATOM     75  C   UNL     1       1.436  -0.285  13.754  1.00  0.00     0.058 A 
ATOM     76  C   UNL     1       0.911   0.223  14.951  1.00  0.00     0.135 A 
ATOM     77  C   UNL     1       0.796  -1.392  13.176  1.00  0.00     0.135 A 
ATOM     78  F   UNL     1       1.492   1.277  15.544  1.00  0.00    -0.206 F 
ATOM     79  C   UNL     1      -0.198  -0.353  15.563  1.00  0.00     0.059 A 
ATOM     80  C   UNL     1      -0.328  -1.971  13.756  1.00  0.00     0.059 A 
ATOM     81  F   UNL     1       1.250  -1.903  12.021  1.00  0.00    -0.206 F 
ATOM     82  C   UNL     1      -0.811  -1.450  14.956  1.00  0.00     0.060 A 
BRANCH  82  83
ATOM     83  S   UNL     1      -2.280  -2.162  15.729  1.00  0.00     0.124 S 
ATOM     84  O   UNL     1      -1.696  -2.904  16.840  1.00  0.00    -0.237 OA
ATOM     85  O   UNL     1      -3.047  -0.972  16.087  1.00  0.00    -0.237 OA
ATOM     86  O   UNL     1      -2.859  -2.972  14.661  1.00  0.00    -0.744 OA
ENDBRANCH  82  83
ENDBRANCH  50  75
BRANCH  62  87
ATOM     87  C   UNL     1       8.189   0.027  15.447  1.00  0.00     0.058 A 
ATOM     88  C   UNL     1       8.454  -1.341  15.618  1.00  0.00     0.135 A 
ATOM     89  C   UNL     1       8.693   0.918  16.408  1.00  0.00     0.135 A 
ATOM     90  F   UNL     1       7.989  -2.235  14.730  1.00  0.00    -0.206 F 
ATOM     91  C   UNL     1       9.164  -1.812  16.717  1.00  0.00     0.059 A 
ATOM     92  C   UNL     1       9.428   0.472  17.502  1.00  0.00     0.059 A 
ATOM     93  F   UNL     1       8.478   2.237  16.286  1.00  0.00    -0.206 F 
ATOM     94  C   UNL     1       9.645  -0.897  17.656  1.00  0.00     0.060 A 
BRANCH  94  95
ATOM     95  S   UNL     1      10.576  -1.516  19.073  1.00  0.00     0.124 S 
ATOM     96  O   UNL     1       9.509  -2.043  19.918  1.00  0.00    -0.237 OA
ATOM     97  O   UNL     1      11.452  -2.512  18.464  1.00  0.00    -0.237 OA
ATOM     98  O   UNL     1      11.250  -0.325  19.582  1.00  0.00    -0.744 OA
ENDBRANCH  94  95
ENDBRANCH  62  87
ENDBRANCH  36  37
ENDBRANCH  28  31
ENDBRANCH  26  27
ENDBRANCH  25  26
ENDBRANCH  24  25
ENDBRANCH   1  24
TORSDOF 21
