REMARK SMILES Cc1ccc(Cl)c(Nc2ccccc2C(=O)N[C@@H](C)C(=O)NCCCCCCNC(=O)c2ccc(-c3c4nc(c(-c5c(F)cc(S(=O)(=O)[O-])cc5F)c5ccc([nH]5)c(-c5c(F)cc(S(=O)(=O)[O-])cc5F)c5nc(c(-c6c(F)cc(S(=O)(=O)[O-])cc6F)c6ccc3[nH]6)C=C5)C=C4)cc2)c1Cl
REMARK SMILES IDX 25 1 24 2 23 3 22 4 20 5 21 6 18 8 19 9 17 10 15 11 16 12
REMARK SMILES IDX 14 14 9 15 10 16 11 17 13 18 12 19 8 20 7 22 1 23 2 24 3 25
REMARK SMILES IDX 98 26 4 27 99 28 5 29 6 30 26 31 27 32 28 33 29 34 30 35
REMARK SMILES IDX 31 37 32 38 33 39 97 40 34 41 96 42 35 43 36 44 37 45 90 46
REMARK SMILES IDX 38 47 95 48 89 49 91 50 39 51 94 52 88 53 87 54 40 56 74 57
REMARK SMILES IDX 53 58 73 59 54 60 57 61 72 62 92 63 55 64 56 65 71 67 93 68
REMARK SMILES IDX 58 69 41 70 42 71 51 72 43 73 44 74 50 75 52 76 45 77 46 78
REMARK SMILES IDX 47 79 48 80 49 81 75 82 76 83 85 84 77 85 78 86 84 87 86 88
REMARK SMILES IDX 79 89 80 90 81 91 82 92 83 93 59 94 60 95 69 96 61 97 62 98
REMARK SMILES IDX 68 99 70 100 63 101 64 102 65 103 66 104 67 105
REMARK H PARENT 22 7 17 13 8 21 29 36 91 55 57 66
REMARK Flexibility Score: inf
ROOT
ATOM      1  C   UNL     1      -0.326   3.785   2.462  1.00  0.00     0.002 C 
ENDROOT
BRANCH   1   2
ATOM      2  C   UNL     1      -0.381   2.564   3.389  1.00  0.00     0.021 C 
BRANCH   2   3
ATOM      3  C   UNL     1      -1.575   1.624   3.172  1.00  0.00     0.116 C 
BRANCH   3   4
ATOM      4  N   UNL     1      -1.603   1.054   1.842  1.00  0.00    -0.354 N 
ATOM      5  C   UNL     1      -0.666   0.097   1.588  1.00  0.00     0.242 C 
ATOM      6  O   UNL     1       0.460   0.478   1.272  1.00  0.00    -0.273 OA
ATOM      7  H   UNL     1      -2.257   1.340   1.163  1.00  0.00     0.163 HD
BRANCH   5   8
ATOM      8  C   UNL     1      -1.046  -1.391   1.752  1.00  0.00     0.168 C 
ATOM      9  C   UNL     1      -2.354  -1.665   2.479  1.00  0.00     0.041 C 
BRANCH   8  10
ATOM     10  N   UNL     1       0.105  -1.960   2.429  1.00  0.00    -0.340 N 
ATOM     11  C   UNL     1       1.307  -2.308   1.849  1.00  0.00     0.254 C 
ATOM     12  O   UNL     1       2.321  -2.048   2.504  1.00  0.00    -0.269 OA
ATOM     13  H   UNL     1       0.020  -2.112   3.398  1.00  0.00     0.164 HD
BRANCH  11  14
ATOM     14  C   UNL     1       1.427  -3.224   0.669  1.00  0.00     0.063 A 
ATOM     15  C   UNL     1       0.790  -3.212  -0.591  1.00  0.00     0.051 A 
ATOM     16  C   UNL     1       1.007  -4.316  -1.454  1.00  0.00     0.027 A 
ATOM     17  C   UNL     1       1.883  -5.354  -1.138  1.00  0.00     0.002 A 
ATOM     18  C   UNL     1       2.332  -4.280   0.952  1.00  0.00     0.016 A 
ATOM     19  C   UNL     1       2.570  -5.322   0.060  1.00  0.00     0.001 A 
BRANCH  15  20
ATOM     20  N   UNL     1       0.025  -2.184  -1.179  1.00  0.00    -0.352 N 
ATOM     21  H   UNL     1      -0.863  -2.489  -1.474  1.00  0.00     0.167 HD
BRANCH  20  22
ATOM     22  C   UNL     1       0.250  -0.806  -1.441  1.00  0.00     0.077 A 
ATOM     23  C   UNL     1       2.816   1.991  -0.912  1.00  0.00     0.046 C 
ATOM     24  C   UNL     1       1.556   1.273  -1.321  1.00  0.00    -0.030 A 
ATOM     25  C   UNL     1       0.398   2.027  -1.565  1.00  0.00     0.006 A 
ATOM     26  C   UNL     1       1.490  -0.143  -1.328  1.00  0.00     0.069 A 
ATOM     27  C   UNL     1      -0.816   1.392  -1.792  1.00  0.00     0.023 A 
ATOM     28  Cl  UNL     1       2.984  -1.028  -1.260  1.00  0.00    -0.082 Cl
ATOM     29  C   UNL     1      -0.888   0.000  -1.711  1.00  0.00     0.066 A 
ATOM     30  Cl  UNL     1      -2.460  -0.720  -1.886  1.00  0.00    -0.082 Cl
ENDBRANCH  20  22
ENDBRANCH  15  20
ENDBRANCH  11  14
ENDBRANCH   8  10
ENDBRANCH   5   8
ENDBRANCH   3   4
ENDBRANCH   2   3
ENDBRANCH   1   2
BRANCH   1  31
ATOM     31  C   UNL     1      -1.609   4.618   2.394  1.00  0.00     0.002 C 
BRANCH  31  32
ATOM     32  C   UNL     1      -2.247   4.942   3.744  1.00  0.00     0.021 C 
BRANCH  32  33
ATOM     33  C   UNL     1      -1.307   5.584   4.750  1.00  0.00     0.116 C 
BRANCH  33  34
ATOM     34  N   UNL     1      -0.993   6.954   4.403  1.00  0.00    -0.352 N 
ATOM     35  C   UNL     1      -1.100   8.069   5.200  1.00  0.00     0.251 C 
ATOM     36  H   UNL     1      -0.665   7.106   3.487  1.00  0.00     0.163 HD
ATOM     37  O   UNL     1      -0.995   9.187   4.720  1.00  0.00    -0.269 OA
BRANCH  35  38
ATOM     38  C   UNL     1      -1.379   7.888   6.644  1.00  0.00     0.039 A 
ATOM     39  C   UNL     1      -2.385   8.650   7.236  1.00  0.00     0.014 A 
ATOM     40  C   UNL     1      -0.673   6.942   7.396  1.00  0.00     0.014 A 
ATOM     41  C   UNL     1      -2.709   8.439   8.577  1.00  0.00     0.010 A 
ATOM     42  C   UNL     1      -1.059   6.670   8.705  1.00  0.00     0.010 A 
ATOM     43  C   UNL     1      -2.066   7.431   9.317  1.00  0.00    -0.014 A 
BRANCH  43  44
ATOM     44  C   UNL     1      -2.418   7.188  10.740  1.00  0.00     0.031 A 
ATOM     45  C   UNL     1      -1.386   7.398  11.817  1.00  0.00     0.074 A 
ATOM     46  C   UNL     1      -3.653   6.752  11.060  1.00  0.00     0.049 A 
ATOM     47  N   UNL     1      -1.497   7.232  13.110  1.00  0.00    -0.248 NA
ATOM     48  C   UNL     1      -0.046   7.826  11.383  1.00  0.00     0.031 C 
ATOM     49  C   UNL     1      -4.722   6.460  10.102  1.00  0.00     0.029 A 
ATOM     50  N   UNL     1      -4.219   6.477  12.280  1.00  0.00    -0.354 N 
ATOM     51  C   UNL     1      -0.245   7.526  13.639  1.00  0.00     0.074 A 
ATOM     52  C   UNL     1       0.628   7.816  12.523  1.00  0.00     0.031 C 
ATOM     53  C   UNL     1      -5.822   6.080  10.771  1.00  0.00     0.029 A 
ATOM     54  C   UNL     1      -5.528   6.062  12.201  1.00  0.00     0.049 A 
ATOM     55  H   UNL     1      -3.733   6.567  13.131  1.00  0.00     0.167 HD
ATOM     56  C   UNL     1       0.137   7.578  14.937  1.00  0.00     0.037 A 
ATOM     57  C   UNL     1      -6.394   5.707  13.171  1.00  0.00     0.037 A 
ATOM     58  C   UNL     1      -0.745   7.309  16.043  1.00  0.00     0.049 A 
ATOM     59  C   UNL     1      -5.946   5.769  14.607  1.00  0.00     0.074 A 
ATOM     60  C   UNL     1      -0.474   7.389  17.397  1.00  0.00     0.029 A 
ATOM     61  N   UNL     1      -2.066   6.902  15.923  1.00  0.00    -0.354 N 
ATOM     62  N   UNL     1      -4.779   6.120  15.093  1.00  0.00    -0.248 NA
ATOM     63  C   UNL     1      -6.935   5.397  15.628  1.00  0.00     0.031 C 
ATOM     64  C   UNL     1      -1.613   6.978  18.096  1.00  0.00     0.029 A 
ATOM     65  C   UNL     1      -2.616   6.703  17.179  1.00  0.00     0.049 A 
ATOM     66  H   UNL     1      -2.543   6.775  15.071  1.00  0.00     0.167 HD
ATOM     67  C   UNL     1      -4.902   6.039  16.476  1.00  0.00     0.074 A 
ATOM     68  C   UNL     1      -6.261   5.620  16.748  1.00  0.00     0.031 C 
ATOM     69  C   UNL     1      -3.974   6.290  17.434  1.00  0.00     0.037 A 
BRANCH  56  70
ATOM     70  C   UNL     1       1.568   7.941  15.232  1.00  0.00     0.058 A 
ATOM     71  C   UNL     1       2.069   9.232  14.990  1.00  0.00     0.135 A 
ATOM     72  C   UNL     1       2.442   6.998  15.795  1.00  0.00     0.135 A 
ATOM     73  F   UNL     1       1.283  10.170  14.438  1.00  0.00    -0.206 F 
ATOM     74  C   UNL     1       3.391   9.564  15.266  1.00  0.00     0.059 A 
ATOM     75  C   UNL     1       3.760   7.318  16.110  1.00  0.00     0.059 A 
ATOM     76  F   UNL     1       2.019   5.749  16.047  1.00  0.00    -0.206 F 
ATOM     77  C   UNL     1       4.229   8.600  15.828  1.00  0.00     0.060 A 
BRANCH  77  78
ATOM     78  S   UNL     1       5.939   9.052  16.190  1.00  0.00     0.124 S 
ATOM     79  O   UNL     1       6.505   9.144  14.847  1.00  0.00    -0.237 OA
ATOM     80  O   UNL     1       5.783  10.318  16.899  1.00  0.00    -0.237 OA
ATOM     81  O   UNL     1       6.422   7.938  16.999  1.00  0.00    -0.744 OA
ENDBRANCH  77  78
ENDBRANCH  56  70
BRANCH  57  82
ATOM     82  C   UNL     1      -7.776   5.282  12.817  1.00  0.00     0.058 A 
ATOM     83  C   UNL     1      -8.885   6.079  13.140  1.00  0.00     0.135 A 
ATOM     84  C   UNL     1      -8.014   4.077  12.137  1.00  0.00     0.135 A 
ATOM     85  F   UNL     1      -8.711   7.237  13.795  1.00  0.00    -0.206 F 
ATOM     86  C   UNL     1     -10.181   5.689  12.819  1.00  0.00     0.059 A 
ATOM     87  C   UNL     1      -9.299   3.680  11.780  1.00  0.00     0.059 A 
ATOM     88  F   UNL     1      -6.988   3.287  11.788  1.00  0.00    -0.206 F 
ATOM     89  C   UNL     1     -10.378   4.488  12.135  1.00  0.00     0.060 A 
BRANCH  89  90
ATOM     90  S   UNL     1     -12.061   4.015  11.680  1.00  0.00     0.124 S 
ATOM     91  O   UNL     1     -12.626   3.658  12.976  1.00  0.00    -0.237 OA
ATOM     92  O   UNL     1     -12.570   5.243  11.076  1.00  0.00    -0.237 OA
ATOM     93  O   UNL     1     -11.858   2.907  10.752  1.00  0.00    -0.744 OA
ENDBRANCH  89  90
ENDBRANCH  57  82
BRANCH  69  94
ATOM     94  C   UNL     1      -4.406   6.156  18.869  1.00  0.00     0.058 A 
ATOM     95  C   UNL     1      -4.668   4.907  19.452  1.00  0.00     0.135 A 
ATOM     96  C   UNL     1      -4.511   7.295  19.686  1.00  0.00     0.135 A 
ATOM     97  F   UNL     1      -4.587   3.787  18.715  1.00  0.00    -0.206 F 
ATOM     98  C   UNL     1      -5.048   4.792  20.785  1.00  0.00     0.059 A 
ATOM     99  C   UNL     1      -4.857   7.201  21.030  1.00  0.00     0.059 A 
ATOM    100  F   UNL     1      -4.259   8.514  19.183  1.00  0.00    -0.206 F 
ATOM    101  C   UNL     1      -5.138   5.946  21.567  1.00  0.00     0.060 A 
BRANCH 101 102
ATOM    102  S   UNL     1      -5.606   5.779  23.302  1.00  0.00     0.124 S 
ATOM    103  O   UNL     1      -7.025   5.458  23.194  1.00  0.00    -0.237 OA
ATOM    104  O   UNL     1      -4.743   4.694  23.756  1.00  0.00    -0.237 OA
ATOM    105  O   UNL     1      -5.301   7.092  23.864  1.00  0.00    -0.744 OA
ENDBRANCH 101 102
ENDBRANCH  69  94
ENDBRANCH  43  44
ENDBRANCH  35  38
ENDBRANCH  33  34
ENDBRANCH  32  33
ENDBRANCH  31  32
ENDBRANCH   1  31
TORSDOF 20
