REMARK SMILES C[C@@H](C(=O)NCCCCCCNC(=O)c1ccc(-c2c3nc(c(-c4c(F)cc(S(=O)(=O)[O-])cc4F)c4ccc([nH]4)c(-c4c(F)cc(S(=O)(=O)[O-])cc4F)c4nc(c(-c5c(F)cc(S(=O)(=O)[O-])cc5F)c5ccc2[nH]5)C=C4)C=C3)cc1)c1ccc(-c2cccc(OC(=O)NCCC3CCCCC3)c2)c(F)c1
REMARK SMILES IDX 6 1 5 2 3 3 4 4 2 6 1 7 81 8 82 9 105 10 83 11 103 12 84 13
REMARK SMILES IDX 104 14 85 15 86 16 102 17 87 18 89 19 88 20 90 21 91 22
REMARK SMILES IDX 92 23 93 24 94 26 95 27 96 28 97 29 101 30 98 31 100 32
REMARK SMILES IDX 99 33 7 34 8 35 9 36 10 37 11 38 12 39 13 40 14 42 15 43
REMARK SMILES IDX 16 44 80 45 17 46 79 47 18 48 19 49 20 50 73 51 21 52 78 53
REMARK SMILES IDX 72 54 74 55 22 56 77 57 71 58 70 59 23 61 57 62 36 63 56 64
REMARK SMILES IDX 37 65 40 66 55 67 75 68 38 69 39 70 54 72 76 73 41 74 24 75
REMARK SMILES IDX 25 76 34 77 26 78 27 79 33 80 35 81 28 82 29 83 30 84 31 85
REMARK SMILES IDX 32 86 58 87 59 88 68 89 60 90 61 91 67 92 69 93 62 94 63 95
REMARK SMILES IDX 64 96 65 97 66 98 42 99 43 100 52 101 44 102 45 103 51 104
REMARK SMILES IDX 53 105 46 106 47 107 48 108 49 109 50 110
REMARK H PARENT 5 5 93 25 12 41 74 60 40 71
REMARK Flexibility Score: inf
ROOT
ATOM      1  C   UNL     1       3.355  -1.908  -0.265  1.00  0.00     0.116 C 
ENDROOT
BRANCH   1   2
ATOM      2  N   UNL     1       2.256  -2.664   0.299  1.00  0.00    -0.356 N 
ATOM      3  C   UNL     1       0.960  -2.280   0.492  1.00  0.00     0.227 C 
ATOM      4  O   UNL     1       0.307  -2.925   1.314  1.00  0.00    -0.274 OA
ATOM      5  H   UNL     1       2.474  -3.582   0.583  1.00  0.00     0.163 HD
BRANCH   3   6
ATOM      6  C   UNL     1       0.383  -1.117  -0.340  1.00  0.00     0.105 C 
ATOM      7  C   UNL     1       0.863   0.215   0.255  1.00  0.00     0.023 C 
BRANCH   6   8
ATOM      8  C   UNL     1      -1.143  -1.178  -0.493  1.00  0.00    -0.033 A 
ATOM      9  C   UNL     1      -1.933  -0.017  -0.500  1.00  0.00     0.005 A 
ATOM     10  C   UNL     1      -1.805  -2.408  -0.645  1.00  0.00     0.044 A 
ATOM     11  C   UNL     1      -3.328  -0.086  -0.537  1.00  0.00     0.012 A 
ATOM     12  C   UNL     1      -3.199  -2.472  -0.667  1.00  0.00     0.131 A 
ATOM     13  C   UNL     1      -3.987  -1.320  -0.582  1.00  0.00     0.018 A 
ATOM     14  F   UNL     1      -3.777  -3.682  -0.738  1.00  0.00    -0.206 F 
BRANCH  13  15
ATOM     15  C   UNL     1      -5.444  -1.378  -0.425  1.00  0.00    -0.012 A 
ATOM     16  C   UNL     1      -6.310  -0.682  -1.282  1.00  0.00     0.009 A 
ATOM     17  C   UNL     1      -5.993  -2.072   0.668  1.00  0.00     0.056 A 
ATOM     18  C   UNL     1      -7.687  -0.672  -1.048  1.00  0.00     0.004 A 
ATOM     19  C   UNL     1      -7.361  -2.035   0.919  1.00  0.00     0.133 A 
ATOM     20  C   UNL     1      -8.213  -1.344   0.056  1.00  0.00     0.047 A 
BRANCH  19  21
ATOM     21  O   UNL     1      -7.983  -2.656   2.030  1.00  0.00    -0.410 OA
BRANCH  21  22
ATOM     22  C   UNL     1      -7.310  -3.118   3.158  1.00  0.00     0.412 C 
ATOM     23  O   UNL     1      -6.097  -3.127   3.341  1.00  0.00    -0.224 OA
ATOM     24  N   UNL     1      -8.135  -3.575   4.144  1.00  0.00    -0.321 N 
ATOM     25  H   UNL     1      -7.692  -3.901   4.961  1.00  0.00     0.167 HD
BRANCH  24  26
ATOM     26  C   UNL     1      -9.578  -3.638   4.136  1.00  0.00     0.119 C 
BRANCH  26  27
ATOM     27  C   UNL     1     -10.075  -5.084   4.154  1.00  0.00     0.025 C 
BRANCH  27  28
ATOM     28  C   UNL     1      -9.645  -5.895   5.396  1.00  0.00    -0.009 C 
ATOM     29  C   UNL     1     -10.294  -5.364   6.686  1.00  0.00     0.003 C 
ATOM     30  C   UNL     1      -9.983  -7.381   5.191  1.00  0.00     0.003 C 
ATOM     31  C   UNL     1      -9.943  -6.221   7.902  1.00  0.00     0.000 C 
ATOM     32  C   UNL     1      -9.611  -8.221   6.410  1.00  0.00     0.000 C 
ATOM     33  C   UNL     1     -10.277  -7.691   7.675  1.00  0.00     0.000 C 
ENDBRANCH  27  28
ENDBRANCH  26  27
ENDBRANCH  24  26
ENDBRANCH  21  22
ENDBRANCH  19  21
ENDBRANCH  13  15
ENDBRANCH   6   8
ENDBRANCH   3   6
ENDBRANCH   1   2
BRANCH   1  34
ATOM     34  C   UNL     1       4.188  -1.290   0.864  1.00  0.00     0.021 C 
BRANCH  34  35
ATOM     35  C   UNL     1       4.918  -2.325   1.731  1.00  0.00     0.002 C 
BRANCH  35  36
ATOM     36  C   UNL     1       5.873  -3.239   0.960  1.00  0.00     0.002 C 
BRANCH  36  37
ATOM     37  C   UNL     1       6.911  -2.499   0.117  1.00  0.00     0.021 C 
BRANCH  37  38
ATOM     38  C   UNL     1       7.814  -1.575   0.924  1.00  0.00     0.116 C 
BRANCH  38  39
ATOM     39  N   UNL     1       8.665  -2.319   1.841  1.00  0.00    -0.352 N 
ATOM     40  C   UNL     1      10.033  -2.281   1.950  1.00  0.00     0.251 C 
ATOM     41  H   UNL     1       8.200  -2.926   2.461  1.00  0.00     0.163 HD
ATOM     42  O   UNL     1      10.633  -3.120   2.613  1.00  0.00    -0.269 OA
BRANCH  40  43
ATOM     43  C   UNL     1      10.769  -1.219   1.236  1.00  0.00     0.039 A 
ATOM     44  C   UNL     1      11.863  -1.556   0.436  1.00  0.00     0.014 A 
ATOM     45  C   UNL     1      10.334   0.106   1.328  1.00  0.00     0.014 A 
ATOM     46  C   UNL     1      12.489  -0.565  -0.323  1.00  0.00     0.010 A 
ATOM     47  C   UNL     1      10.905   1.071   0.511  1.00  0.00     0.010 A 
ATOM     48  C   UNL     1      11.995   0.749  -0.315  1.00  0.00    -0.014 A 
BRANCH  48  49
ATOM     49  C   UNL     1      12.607   1.830  -1.128  1.00  0.00     0.031 A 
ATOM     50  C   UNL     1      13.196   3.025  -0.432  1.00  0.00     0.074 A 
ATOM     51  C   UNL     1      12.531   1.794  -2.472  1.00  0.00     0.049 A 
ATOM     52  N   UNL     1      13.613   4.156  -0.938  1.00  0.00    -0.248 NA
ATOM     53  C   UNL     1      13.287   2.951   1.035  1.00  0.00     0.031 C 
ATOM     54  C   UNL     1      11.954   0.703  -3.259  1.00  0.00     0.029 A 
ATOM     55  N   UNL     1      12.915   2.717  -3.413  1.00  0.00    -0.354 N 
ATOM     56  C   UNL     1      13.986   4.938   0.149  1.00  0.00     0.074 A 
ATOM     57  C   UNL     1      13.693   4.173   1.341  1.00  0.00     0.031 C 
ATOM     58  C   UNL     1      12.022   1.019  -4.562  1.00  0.00     0.029 A 
ATOM     59  C   UNL     1      12.599   2.354  -4.701  1.00  0.00     0.049 A 
ATOM     60  H   UNL     1      13.373   3.558  -3.187  1.00  0.00     0.167 HD
ATOM     61  C   UNL     1      14.538   6.175   0.152  1.00  0.00     0.037 A 
ATOM     62  C   UNL     1      12.733   3.030  -5.859  1.00  0.00     0.037 A 
ATOM     63  C   UNL     1      14.840   6.916  -1.044  1.00  0.00     0.049 A 
ATOM     64  C   UNL     1      13.341   4.406  -5.841  1.00  0.00     0.074 A 
ATOM     65  C   UNL     1      15.451   8.151  -1.158  1.00  0.00     0.029 A 
ATOM     66  N   UNL     1      14.545   6.494  -2.333  1.00  0.00    -0.354 N 
ATOM     67  N   UNL     1      13.738   5.115  -4.811  1.00  0.00    -0.248 NA
ATOM     68  C   UNL     1      13.527   5.073  -7.137  1.00  0.00     0.031 C 
ATOM     69  C   UNL     1      15.473   8.502  -2.511  1.00  0.00     0.029 A 
ATOM     70  C   UNL     1      14.940   7.455  -3.248  1.00  0.00     0.049 A 
ATOM     71  H   UNL     1      14.117   5.637  -2.563  1.00  0.00     0.167 HD
ATOM     72  C   UNL     1      14.255   6.295  -5.335  1.00  0.00     0.074 A 
ATOM     73  C   UNL     1      14.113   6.208  -6.774  1.00  0.00     0.031 C 
ATOM     74  C   UNL     1      14.809   7.346  -4.682  1.00  0.00     0.037 A 
BRANCH  61  75
ATOM     75  C   UNL     1      14.822   6.803   1.490  1.00  0.00     0.058 A 
ATOM     76  C   UNL     1      15.790   6.284   2.366  1.00  0.00     0.135 A 
ATOM     77  C   UNL     1      14.103   7.934   1.910  1.00  0.00     0.135 A 
ATOM     78  F   UNL     1      16.500   5.197   2.023  1.00  0.00    -0.206 F 
ATOM     79  C   UNL     1      15.991   6.824   3.632  1.00  0.00     0.059 A 
ATOM     80  C   UNL     1      14.316   8.515   3.157  1.00  0.00     0.059 A 
ATOM     81  F   UNL     1      13.170   8.478   1.113  1.00  0.00    -0.206 F 
ATOM     82  C   UNL     1      15.242   7.935   4.021  1.00  0.00     0.060 A 
BRANCH  82  83
ATOM     83  S   UNL     1      15.482   8.598   5.683  1.00  0.00     0.124 S 
ATOM     84  O   UNL     1      14.834   7.575   6.498  1.00  0.00    -0.237 OA
ATOM     85  O   UNL     1      16.937   8.661   5.787  1.00  0.00    -0.237 OA
ATOM     86  O   UNL     1      14.802   9.888   5.637  1.00  0.00    -0.744 OA
ENDBRANCH  82  83
ENDBRANCH  61  75
BRANCH  62  87
ATOM     87  C   UNL     1      12.292   2.392  -7.129  1.00  0.00     0.058 A 
ATOM     88  C   UNL     1      13.225   1.920  -8.063  1.00  0.00     0.135 A 
ATOM     89  C   UNL     1      10.931   2.178  -7.399  1.00  0.00     0.135 A 
ATOM     90  F   UNL     1      14.537   2.109  -7.854  1.00  0.00    -0.206 F 
ATOM     91  C   UNL     1      12.828   1.252  -9.217  1.00  0.00     0.059 A 
ATOM     92  C   UNL     1      10.509   1.491  -8.534  1.00  0.00     0.059 A 
ATOM     93  F   UNL     1       9.998   2.596  -6.529  1.00  0.00    -0.206 F 
ATOM     94  C   UNL     1      11.467   1.031  -9.437  1.00  0.00     0.060 A 
BRANCH  94  95
ATOM     95  S   UNL     1      10.970   0.078 -10.888  1.00  0.00     0.124 S 
ATOM     96  O   UNL     1      11.264   1.011 -11.970  1.00  0.00    -0.237 OA
ATOM     97  O   UNL     1      11.840  -1.091 -10.796  1.00  0.00    -0.237 OA
ATOM     98  O   UNL     1       9.553  -0.185 -10.649  1.00  0.00    -0.744 OA
ENDBRANCH  94  95
ENDBRANCH  62  87
BRANCH  74  99
ATOM     99  C   UNL     1      15.367   8.476  -5.503  1.00  0.00     0.058 A 
ATOM    100  C   UNL     1      14.541   9.411  -6.144  1.00  0.00     0.135 A 
ATOM    101  C   UNL     1      16.755   8.688  -5.547  1.00  0.00     0.135 A 
ATOM    102  F   UNL     1      13.208   9.251  -6.141  1.00  0.00    -0.206 F 
ATOM    103  C   UNL     1      15.072  10.520  -6.797  1.00  0.00     0.059 A 
ATOM    104  C   UNL     1      17.306   9.803  -6.170  1.00  0.00     0.059 A 
ATOM    105  F   UNL     1      17.590   7.826  -4.944  1.00  0.00    -0.206 F 
ATOM    106  C   UNL     1      16.456  10.714  -6.793  1.00  0.00     0.060 A 
BRANCH 106 107
ATOM    107  S   UNL     1      17.124  12.201  -7.568  1.00  0.00     0.124 S 
ATOM    108  O   UNL     1      16.921  11.912  -8.984  1.00  0.00    -0.237 OA
ATOM    109  O   UNL     1      16.279  13.250  -7.008  1.00  0.00    -0.237 OA
ATOM    110  O   UNL     1      18.515  12.221  -7.125  1.00  0.00    -0.744 OA
ENDBRANCH 106 107
ENDBRANCH  74  99
ENDBRANCH  48  49
ENDBRANCH  40  43
ENDBRANCH  38  39
ENDBRANCH  37  38
ENDBRANCH  36  37
ENDBRANCH  35  36
ENDBRANCH  34  35
ENDBRANCH   1  34
TORSDOF 23
