REMARK SMILES CC[NH2+][C@]1(C(=O)NCCCCCCNC(=O)c2ccc(-c3c4nc(c(-c5c(F)cc(S(=O)(=O)[O-])cc5F)c5ccc([nH]5)c(-c5c(F)cc(S(=O)(=O)[O-])cc5F)c5nc(c(-c6c(F)cc(S(=O)(=O)[O-])cc6F)c6ccc3[nH]6)C=C5)C=C4)cc2)CCC[C@H]1CCSc1ccc(Cl)cc1
REMARK SMILES IDX 10 1 9 2 8 3 7 4 5 5 6 6 4 8 83 9 86 10 84 11 85 12 3 13
REMARK SMILES IDX 2 16 1 17 87 18 88 19 89 20 90 21 91 22 96 23 92 24 95 25
REMARK SMILES IDX 93 26 94 27 11 28 12 29 13 30 14 31 15 32 16 34 17 35 18 36
REMARK SMILES IDX 82 37 19 38 81 39 20 40 21 41 22 42 75 43 23 44 80 45 74 46
REMARK SMILES IDX 76 47 24 48 79 49 73 50 72 51 25 53 59 54 38 55 58 56 39 57
REMARK SMILES IDX 42 58 57 59 77 60 40 61 41 62 56 64 78 65 43 66 26 67 27 68
REMARK SMILES IDX 36 69 28 70 29 71 35 72 37 73 30 74 31 75 32 76 33 77 34 78
REMARK SMILES IDX 60 79 61 80 70 81 62 82 63 83 69 84 71 85 64 86 65 87 66 88
REMARK SMILES IDX 67 89 68 90 44 91 45 92 54 93 46 94 47 95 53 96 55 97 48 98
REMARK SMILES IDX 49 99 50 100 51 101 52 102
REMARK H PARENT 7 7 3 14 3 15 14 33 76 52 42 63
REMARK Flexibility Score: inf
ROOT
ATOM      1  C   UNL     1       5.773   3.210  -0.554  1.00  0.00     0.002 C 
ENDROOT
BRANCH   1   2
ATOM      2  C   UNL     1       4.411   3.817  -0.216  1.00  0.00     0.021 C 
BRANCH   2   3
ATOM      3  C   UNL     1       3.412   3.741  -1.369  1.00  0.00     0.116 C 
BRANCH   3   4
ATOM      4  N   UNL     1       2.408   2.738  -1.105  1.00  0.00    -0.351 N 
ATOM      5  C   UNL     1       1.310   2.771  -0.317  1.00  0.00     0.281 C 
ATOM      6  O   UNL     1       0.957   1.666   0.124  1.00  0.00    -0.268 OA
ATOM      7  H   UNL     1       2.547   1.886  -1.578  1.00  0.00     0.163 HD
BRANCH   5   8
ATOM      8  C   UNL     1       0.522   4.056   0.085  1.00  0.00     0.178 C 
ATOM      9  C   UNL     1       0.984   5.444  -0.372  1.00  0.00     0.079 C 
ATOM     10  C   UNL     1      -0.942   4.030  -0.509  1.00  0.00     0.061 C 
ATOM     11  C   UNL     1      -0.206   6.352  -0.106  1.00  0.00     0.008 C 
ATOM     12  C   UNL     1      -1.383   5.521  -0.584  1.00  0.00     0.011 C 
BRANCH   8  13
ATOM     13  N   UNL     1       0.377   4.039   1.584  1.00  0.00    -0.334 N 
ATOM     14  H   UNL     1      -0.125   4.882   1.864  1.00  0.00     0.347 HD
ATOM     15  H   UNL     1      -0.123   3.181   1.817  1.00  0.00     0.347 HD
BRANCH  13  16
ATOM     16  C   UNL     1       1.644   3.996   2.317  1.00  0.00     0.257 C 
ATOM     17  C   UNL     1       1.384   3.779   3.801  1.00  0.00     0.071 C 
ENDBRANCH  13  16
ENDBRANCH   8  13
BRANCH  10  18
ATOM     18  C   UNL     1      -1.159   3.365  -1.895  1.00  0.00     0.022 C 
BRANCH  18  19
ATOM     19  C   UNL     1      -1.312   1.833  -1.977  1.00  0.00     0.075 C 
BRANCH  19  20
ATOM     20  S   UNL     1      -2.891   1.118  -1.366  1.00  0.00    -0.126 SA
BRANCH  20  21
ATOM     21  C   UNL     1      -2.762   1.360   0.393  1.00  0.00     0.007 A 
ATOM     22  C   UNL     1      -3.648   2.260   1.000  1.00  0.00     0.016 A 
ATOM     23  C   UNL     1      -1.782   0.736   1.171  1.00  0.00     0.016 A 
ATOM     24  C   UNL     1      -3.502   2.597   2.348  1.00  0.00     0.021 A 
ATOM     25  C   UNL     1      -1.649   1.056   2.527  1.00  0.00     0.021 A 
ATOM     26  C   UNL     1      -2.498   1.999   3.104  1.00  0.00     0.041 A 
ATOM     27  Cl  UNL     1      -2.288   2.451   4.751  1.00  0.00    -0.084 Cl
ENDBRANCH  20  21
ENDBRANCH  19  20
ENDBRANCH  18  19
ENDBRANCH  10  18
ENDBRANCH   5   8
ENDBRANCH   3   4
ENDBRANCH   2   3
ENDBRANCH   1   2
BRANCH   1  28
ATOM     28  C   UNL     1       6.469   3.832  -1.769  1.00  0.00     0.002 C 
BRANCH  28  29
ATOM     29  C   UNL     1       6.533   5.361  -1.758  1.00  0.00     0.021 C 
BRANCH  29  30
ATOM     30  C   UNL     1       7.189   5.943  -0.510  1.00  0.00     0.116 C 
BRANCH  30  31
ATOM     31  N   UNL     1       8.543   5.437  -0.347  1.00  0.00    -0.352 N 
ATOM     32  C   UNL     1       9.730   6.089  -0.561  1.00  0.00     0.251 C 
ATOM     33  H   UNL     1       8.617   4.504  -0.042  1.00  0.00     0.163 HD
ATOM     34  O   UNL     1      10.771   5.458  -0.700  1.00  0.00    -0.269 OA
BRANCH  32  35
ATOM     35  C   UNL     1       9.729   7.563  -0.618  1.00  0.00     0.039 A 
ATOM     36  C   UNL     1      10.392   8.212  -1.660  1.00  0.00     0.014 A 
ATOM     37  C   UNL     1       9.057   8.294   0.367  1.00  0.00     0.014 A 
ATOM     38  C   UNL     1      10.336   9.603  -1.745  1.00  0.00     0.010 A 
ATOM     39  C   UNL     1       8.946   9.673   0.244  1.00  0.00     0.010 A 
ATOM     40  C   UNL     1       9.589  10.339  -0.810  1.00  0.00    -0.014 A 
BRANCH  40  41
ATOM     41  C   UNL     1       9.461  11.812  -0.908  1.00  0.00     0.031 A 
ATOM     42  C   UNL     1      10.038  12.685   0.171  1.00  0.00     0.074 A 
ATOM     43  C   UNL     1       8.753  12.350  -1.920  1.00  0.00     0.049 A 
ATOM     44  N   UNL     1       9.941  13.979   0.324  1.00  0.00    -0.248 NA
ATOM     45  C   UNL     1      10.800  12.008   1.233  1.00  0.00     0.031 C 
ATOM     46  C   UNL     1       8.109  11.594  -2.997  1.00  0.00     0.029 A 
ATOM     47  N   UNL     1       8.440  13.655  -2.199  1.00  0.00    -0.354 N 
ATOM     48  C   UNL     1      10.615  14.271   1.504  1.00  0.00     0.074 A 
ATOM     49  C   UNL     1      11.075  13.013   2.052  1.00  0.00     0.031 C 
ATOM     50  C   UNL     1       7.487  12.449  -3.824  1.00  0.00     0.029 A 
ATOM     51  C   UNL     1       7.655  13.807  -3.317  1.00  0.00     0.049 A 
ATOM     52  H   UNL     1       8.748  14.412  -1.650  1.00  0.00     0.167 HD
ATOM     53  C   UNL     1      10.847  15.480   2.066  1.00  0.00     0.037 A 
ATOM     54  C   UNL     1       7.118  14.916  -3.862  1.00  0.00     0.037 A 
ATOM     55  C   UNL     1      10.405  16.727   1.498  1.00  0.00     0.049 A 
ATOM     56  C   UNL     1       7.381  16.247  -3.213  1.00  0.00     0.074 A 
ATOM     57  C   UNL     1      10.647  18.012   1.949  1.00  0.00     0.029 A 
ATOM     58  N   UNL     1       9.627  16.843   0.355  1.00  0.00    -0.354 N 
ATOM     59  N   UNL     1       8.080  16.513  -2.135  1.00  0.00    -0.248 NA
ATOM     60  C   UNL     1       6.785  17.428  -3.853  1.00  0.00     0.031 C 
ATOM     61  C   UNL     1       9.977  18.903   1.103  1.00  0.00     0.029 A 
ATOM     62  C   UNL     1       9.355  18.176   0.101  1.00  0.00     0.049 A 
ATOM     63  H   UNL     1       9.313  16.088  -0.194  1.00  0.00     0.167 HD
ATOM     64  C   UNL     1       8.020  17.893  -1.974  1.00  0.00     0.074 A 
ATOM     65  C   UNL     1       7.232  18.407  -3.077  1.00  0.00     0.031 C 
ATOM     66  C   UNL     1       8.564  18.665  -1.002  1.00  0.00     0.037 A 
BRANCH  53  67
ATOM     67  C   UNL     1      11.617  15.513   3.358  1.00  0.00     0.058 A 
ATOM     68  C   UNL     1      12.989  15.217   3.405  1.00  0.00     0.135 A 
ATOM     69  C   UNL     1      10.983  15.873   4.558  1.00  0.00     0.135 A 
ATOM     70  F   UNL     1      13.640  14.851   2.289  1.00  0.00    -0.206 F 
ATOM     71  C   UNL     1      13.699  15.249   4.600  1.00  0.00     0.059 A 
ATOM     72  C   UNL     1      11.681  15.937   5.761  1.00  0.00     0.059 A 
ATOM     73  F   UNL     1       9.673  16.163   4.571  1.00  0.00    -0.206 F 
ATOM     74  C   UNL     1      13.036  15.609   5.774  1.00  0.00     0.060 A 
BRANCH  74  75
ATOM     75  S   UNL     1      13.974  15.650   7.316  1.00  0.00     0.124 S 
ATOM     76  O   UNL     1      14.145  14.226   7.590  1.00  0.00    -0.237 OA
ATOM     77  O   UNL     1      15.183  16.369   6.927  1.00  0.00    -0.237 OA
ATOM     78  O   UNL     1      13.091  16.364   8.233  1.00  0.00    -0.744 OA
ENDBRANCH  74  75
ENDBRANCH  53  67
BRANCH  54  79
ATOM     79  C   UNL     1       6.289  14.812  -5.091  1.00  0.00     0.058 A 
ATOM     80  C   UNL     1       6.766  15.280  -6.323  1.00  0.00     0.135 A 
ATOM     81  C   UNL     1       5.015  14.222  -5.064  1.00  0.00     0.135 A 
ATOM     82  F   UNL     1       7.975  15.856  -6.399  1.00  0.00    -0.206 F 
ATOM     83  C   UNL     1       6.006  15.181  -7.484  1.00  0.00     0.059 A 
ATOM     84  C   UNL     1       4.246  14.090  -6.215  1.00  0.00     0.059 A 
ATOM     85  F   UNL     1       4.520  13.742  -3.912  1.00  0.00    -0.206 F 
ATOM     86  C   UNL     1       4.747  14.581  -7.420  1.00  0.00     0.060 A 
BRANCH  86  87
ATOM     87  S   UNL     1       3.792  14.405  -8.943  1.00  0.00     0.124 S 
ATOM     88  O   UNL     1       3.344  15.775  -9.167  1.00  0.00    -0.237 OA
ATOM     89  O   UNL     1       4.793  13.899  -9.877  1.00  0.00    -0.237 OA
ATOM     90  O   UNL     1       2.750  13.451  -8.576  1.00  0.00    -0.744 OA
ENDBRANCH  86  87
ENDBRANCH  54  79
BRANCH  66  91
ATOM     91  C   UNL     1       8.335  20.147  -1.090  1.00  0.00     0.058 A 
ATOM     92  C   UNL     1       7.090  20.715  -0.781  1.00  0.00     0.135 A 
ATOM     93  C   UNL     1       9.387  21.012  -1.430  1.00  0.00     0.135 A 
ATOM     94  F   UNL     1       6.050  19.930  -0.459  1.00  0.00    -0.206 F 
ATOM     95  C   UNL     1       6.891  22.091  -0.820  1.00  0.00     0.059 A 
ATOM     96  C   UNL     1       9.218  22.393  -1.450  1.00  0.00     0.059 A 
ATOM     97  F   UNL     1      10.600  20.519  -1.726  1.00  0.00    -0.206 F 
ATOM     98  C   UNL     1       7.963  22.922  -1.153  1.00  0.00     0.060 A 
BRANCH  98  99
ATOM     99  S   UNL     1       7.702  24.708  -1.157  1.00  0.00     0.124 S 
ATOM    100  O   UNL     1       6.928  24.889  -2.380  1.00  0.00    -0.237 OA
ATOM    101  O   UNL     1       6.975  24.921   0.091  1.00  0.00    -0.237 OA
ATOM    102  O   UNL     1       9.057  25.249  -1.185  1.00  0.00    -0.744 OA
ENDBRANCH  98  99
ENDBRANCH  66  91
ENDBRANCH  40  41
ENDBRANCH  32  35
ENDBRANCH  30  31
ENDBRANCH  29  30
ENDBRANCH  28  29
ENDBRANCH   1  28
TORSDOF 22
