REMARK SMILES O=C(NCCCCCCNC(=O)[C@@H]1C[C@@H](O)CN1C(=O)CSc1ccc(F)cc1F)c1ccc(-c2c3nc(c(-c4c(F)cc(S(=O)(=O)[O-])cc4F)c4ccc([nH]4)c(-c4c(F)cc(S(=O)(=O)[O-])cc4F)c4nc(c(-c5c(F)cc(S(=O)(=O)[O-])cc5F)c5ccc2[nH]5)C=C4)C=C3)cc1
REMARK SMILES IDX 7 1 6 2 5 3 4 4 3 5 1 6 2 7 31 9 32 10 96 11 33 12 95 13
REMARK SMILES IDX 34 14 35 15 36 16 89 17 37 18 94 19 88 20 90 21 38 22 93 23
REMARK SMILES IDX 87 24 86 25 39 27 73 28 52 29 72 30 53 31 56 32 71 33 91 34
REMARK SMILES IDX 54 35 55 36 70 38 92 39 57 40 40 41 41 42 50 43 42 44 43 45
REMARK SMILES IDX 49 46 51 47 44 48 45 49 46 50 47 51 48 52 74 53 75 54 84 55
REMARK SMILES IDX 76 56 77 57 83 58 85 59 78 60 79 61 80 62 81 63 82 64 58 65
REMARK SMILES IDX 59 66 68 67 60 68 61 69 67 70 69 71 62 72 63 73 64 74 65 75
REMARK SMILES IDX 66 76 8 77 9 78 10 79 11 80 12 82 13 83 14 84 18 85 15 86
REMARK SMILES IDX 17 87 19 88 20 89 21 90 22 91 23 92 24 93 29 94 25 95 28 96
REMARK SMILES IDX 30 97 26 98 27 99 16 100
REMARK H PARENT 3 8 90 26 56 37 10 81 16 101
REMARK Flexibility Score: inf
ROOT
ATOM      1  C   UNL     1       8.730  11.874   1.325  1.00  0.00     0.002 C 
ENDROOT
BRANCH   1   2
ATOM      2  C   UNL     1       7.463  12.354   0.607  1.00  0.00     0.002 C 
BRANCH   2   3
ATOM      3  C   UNL     1       6.317  12.763   1.533  1.00  0.00     0.021 C 
BRANCH   3   4
ATOM      4  C   UNL     1       6.667  13.886   2.499  1.00  0.00     0.116 C 
BRANCH   4   5
ATOM      5  N   UNL     1       6.888  15.146   1.810  1.00  0.00    -0.352 N 
ATOM      6  O   UNL     1       6.467  17.302   1.294  1.00  0.00    -0.269 OA
ATOM      7  C   UNL     1       6.337  16.373   2.086  1.00  0.00     0.251 C 
ATOM      8  H   UNL     1       7.512  15.116   1.049  1.00  0.00     0.163 HD
BRANCH   7   9
ATOM      9  C   UNL     1       5.574  16.555   3.338  1.00  0.00     0.039 A 
ATOM     10  C   UNL     1       6.085  16.078   4.549  1.00  0.00     0.014 A 
ATOM     11  C   UNL     1       4.344  17.217   3.302  1.00  0.00     0.014 A 
ATOM     12  C   UNL     1       5.321  16.174   5.706  1.00  0.00     0.010 A 
ATOM     13  C   UNL     1       3.612  17.381   4.481  1.00  0.00     0.010 A 
ATOM     14  C   UNL     1       4.093  16.854   5.690  1.00  0.00    -0.014 A 
BRANCH  14  15
ATOM     15  C   UNL     1       3.395  17.110   6.974  1.00  0.00     0.031 A 
ATOM     16  C   UNL     1       2.064  16.487   7.282  1.00  0.00     0.074 A 
ATOM     17  C   UNL     1       4.002  17.914   7.870  1.00  0.00     0.049 A 
ATOM     18  N   UNL     1       1.331  16.619   8.357  1.00  0.00    -0.248 NA
ATOM     19  C   UNL     1       1.475  15.609   6.259  1.00  0.00     0.031 C 
ATOM     20  C   UNL     1       5.289  18.586   7.658  1.00  0.00     0.029 A 
ATOM     21  N   UNL     1       3.635  18.298   9.133  1.00  0.00    -0.354 N 
ATOM     22  C   UNL     1       0.190  15.857   8.139  1.00  0.00     0.074 A 
ATOM     23  C   UNL     1       0.319  15.274   6.820  1.00  0.00     0.031 C 
ATOM     24  C   UNL     1       5.620  19.266   8.764  1.00  0.00     0.029 A 
ATOM     25  C   UNL     1       4.544  19.133   9.738  1.00  0.00     0.049 A 
ATOM     26  H   UNL     1       2.801  18.003   9.565  1.00  0.00     0.167 HD
ATOM     27  C   UNL     1      -0.862  15.664   8.970  1.00  0.00     0.037 A 
ATOM     28  C   UNL     1       4.507  19.748  10.935  1.00  0.00     0.037 A 
ATOM     29  C   UNL     1      -0.964  16.236  10.289  1.00  0.00     0.049 A 
ATOM     30  C   UNL     1       3.318  19.527  11.824  1.00  0.00     0.074 A 
ATOM     31  C   UNL     1      -1.968  16.058  11.226  1.00  0.00     0.029 A 
ATOM     32  N   UNL     1      -0.037  17.098  10.858  1.00  0.00    -0.354 N 
ATOM     33  N   UNL     1       2.267  18.773  11.614  1.00  0.00    -0.248 NA
ATOM     34  C   UNL     1       3.303  20.246  13.104  1.00  0.00     0.031 C 
ATOM     35  C   UNL     1      -1.670  16.846  12.343  1.00  0.00     0.029 A 
ATOM     36  C   UNL     1      -0.459  17.481  12.120  1.00  0.00     0.049 A 
ATOM     37  H   UNL     1       0.797  17.394  10.427  1.00  0.00     0.167 HD
ATOM     38  C   UNL     1       1.463  18.925  12.736  1.00  0.00     0.074 A 
ATOM     39  C   UNL     1       2.164  19.820  13.634  1.00  0.00     0.031 C 
ATOM     40  C   UNL     1       0.251  18.379  12.995  1.00  0.00     0.037 A 
BRANCH  27  41
ATOM     41  C   UNL     1      -1.999  14.801   8.499  1.00  0.00     0.058 A 
ATOM     42  C   UNL     1      -3.241  15.374   8.182  1.00  0.00     0.135 A 
ATOM     43  C   UNL     1      -1.897  13.402   8.476  1.00  0.00     0.135 A 
ATOM     44  F   UNL     1      -3.390  16.708   8.186  1.00  0.00    -0.206 F 
ATOM     45  C   UNL     1      -4.353  14.591   7.881  1.00  0.00     0.059 A 
ATOM     46  C   UNL     1      -2.991  12.600   8.161  1.00  0.00     0.059 A 
ATOM     47  F   UNL     1      -0.729  12.804   8.756  1.00  0.00    -0.206 F 
ATOM     48  C   UNL     1      -4.217  13.204   7.875  1.00  0.00     0.060 A 
BRANCH  48  49
ATOM     49  S   UNL     1      -5.636  12.143   7.525  1.00  0.00     0.124 S 
ATOM     50  O   UNL     1      -5.264  11.575   6.233  1.00  0.00    -0.237 OA
ATOM     51  O   UNL     1      -5.617  11.218   8.653  1.00  0.00    -0.237 OA
ATOM     52  O   UNL     1      -6.761  13.074   7.498  1.00  0.00    -0.744 OA
ENDBRANCH  48  49
ENDBRANCH  27  41
BRANCH  28  53
ATOM     53  C   UNL     1       5.616  20.651  11.337  1.00  0.00     0.058 A 
ATOM     54  C   UNL     1       5.829  21.872  10.678  1.00  0.00     0.135 A 
ATOM     55  C   UNL     1       6.497  20.302  12.370  1.00  0.00     0.135 A 
ATOM     56  F   UNL     1       5.024  22.242   9.669  1.00  0.00    -0.206 F 
ATOM     57  C   UNL     1       6.882  22.713  11.018  1.00  0.00     0.059 A 
ATOM     58  C   UNL     1       7.541  21.140  12.748  1.00  0.00     0.059 A 
ATOM     59  F   UNL     1       6.332  19.146  13.031  1.00  0.00    -0.206 F 
ATOM     60  C   UNL     1       7.726  22.344  12.064  1.00  0.00     0.060 A 
BRANCH  60  61
ATOM     61  S   UNL     1       9.107  23.407  12.537  1.00  0.00     0.124 S 
ATOM     62  O   UNL     1       8.630  23.960  13.799  1.00  0.00    -0.237 OA
ATOM     63  O   UNL     1      10.209  22.454  12.631  1.00  0.00    -0.237 OA
ATOM     64  O   UNL     1       9.198  24.351  11.427  1.00  0.00    -0.744 OA
ENDBRANCH  60  61
ENDBRANCH  28  53
BRANCH  40  65
ATOM     65  C   UNL     1      -0.394  18.735  14.303  1.00  0.00     0.058 A 
ATOM     66  C   UNL     1      -0.474  17.794  15.341  1.00  0.00     0.135 A 
ATOM     67  C   UNL     1      -0.980  19.994  14.506  1.00  0.00     0.135 A 
ATOM     68  F   UNL     1       0.066  16.574  15.191  1.00  0.00    -0.206 F 
ATOM     69  C   UNL     1      -1.123  18.084  16.536  1.00  0.00     0.059 A 
ATOM     70  C   UNL     1      -1.613  20.313  15.702  1.00  0.00     0.059 A 
ATOM     71  F   UNL     1      -0.920  20.931  13.547  1.00  0.00    -0.206 F 
ATOM     72  C   UNL     1      -1.682  19.349  16.710  1.00  0.00     0.060 A 
BRANCH  72  73
ATOM     73  S   UNL     1      -2.540  19.766  18.243  1.00  0.00     0.124 S 
ATOM     74  O   UNL     1      -1.602  20.696  18.862  1.00  0.00    -0.237 OA
ATOM     75  O   UNL     1      -3.784  20.351  17.753  1.00  0.00    -0.237 OA
ATOM     76  O   UNL     1      -2.682  18.478  18.915  1.00  0.00    -0.744 OA
ENDBRANCH  72  73
ENDBRANCH  40  65
ENDBRANCH  14  15
ENDBRANCH   7   9
ENDBRANCH   4   5
ENDBRANCH   3   4
ENDBRANCH   2   3
ENDBRANCH   1   2
BRANCH   1  77
ATOM     77  C   UNL     1       8.511  10.747   2.346  1.00  0.00     0.021 C 
BRANCH  77  78
ATOM     78  C   UNL     1       7.805   9.518   1.770  1.00  0.00     0.116 C 
BRANCH  78  79
ATOM     79  N   UNL     1       8.628   8.909   0.746  1.00  0.00    -0.354 N 
ATOM     80  C   UNL     1       9.256   7.700   0.720  1.00  0.00     0.242 C 
ATOM     81  H   UNL     1       8.755   9.458  -0.062  1.00  0.00     0.163 HD
ATOM     82  O   UNL     1      10.057   7.513  -0.197  1.00  0.00    -0.273 OA
BRANCH  80  83
ATOM     83  C   UNL     1       8.930   6.654   1.810  1.00  0.00     0.177 C 
ATOM     84  C   UNL     1       9.560   7.037   3.158  1.00  0.00     0.069 C 
ATOM     85  N   UNL     1       9.471   5.305   1.554  1.00  0.00    -0.327 N 
ATOM     86  C   UNL     1       9.722   5.698   3.863  1.00  0.00     0.136 C 
ATOM     87  C   UNL     1      10.149   4.771   2.731  1.00  0.00     0.152 C 
BRANCH  85  88
ATOM     88  C   UNL     1       9.178   4.625   0.393  1.00  0.00     0.233 C 
ATOM     89  O   UNL     1       8.335   5.066  -0.397  1.00  0.00    -0.274 OA
BRANCH  88  90
ATOM     90  C   UNL     1       9.796   3.258   0.126  1.00  0.00     0.175 C 
BRANCH  90  91
ATOM     91  S   UNL     1      11.600   3.097   0.349  1.00  0.00    -0.113 SA
BRANCH  91  92
ATOM     92  C   UNL     1      12.219   4.235  -0.874  1.00  0.00     0.044 A 
ATOM     93  C   UNL     1      12.617   3.753  -2.127  1.00  0.00     0.021 A 
ATOM     94  C   UNL     1      12.414   5.591  -0.584  1.00  0.00     0.139 A 
ATOM     95  C   UNL     1      13.146   4.627  -3.080  1.00  0.00     0.040 A 
ATOM     96  C   UNL     1      12.902   6.475  -1.541  1.00  0.00     0.079 A 
ATOM     97  F   UNL     1      12.174   6.060   0.650  1.00  0.00    -0.206 F 
ATOM     98  C   UNL     1      13.264   5.982  -2.785  1.00  0.00     0.126 A 
ATOM     99  F   UNL     1      13.761   6.815  -3.709  1.00  0.00    -0.207 F 
ENDBRANCH  91  92
ENDBRANCH  90  91
ENDBRANCH  88  90
ENDBRANCH  85  88
BRANCH  86 100
ATOM    100  O   UNL     1       8.476   5.289   4.426  1.00  0.00    -0.391 OA
ATOM    101  H   UNL     1       7.801   5.257   3.730  1.00  0.00     0.211 HD
ENDBRANCH  86 100
ENDBRANCH  80  83
ENDBRANCH  78  79
ENDBRANCH  77  78
ENDBRANCH   1  77
TORSDOF 21
