REMARK SMILES O=C(NCCCCCCNC(=O)[C@H](CO)NC(=O)[C@H](Cc1c[nH]c2ccccc12)NC(=O)c1ccc(F)cc1)c1ccc(-c2c3nc(c(-c4c(F)cc(S(=O)(=O)[O-])cc4F)c4ccc([nH]4)c(-c4c(F)cc(S(=O)(=O)[O-])cc4F)c4nc(c(-c5c(F)cc(S(=O)(=O)[O-])cc5F)c5ccc2[nH]5)C=C4)C=C3)cc1
REMARK SMILES IDX 7 1 6 2 5 3 4 4 3 5 1 6 2 7 40 9 41 10 105 11 42 12 104 13
REMARK SMILES IDX 43 14 44 15 45 16 98 17 46 18 103 19 97 20 99 21 47 22
REMARK SMILES IDX 102 23 96 24 95 25 48 27 82 28 61 29 81 30 62 31 65 32 80 33
REMARK SMILES IDX 100 34 63 35 64 36 79 38 101 39 66 40 49 41 50 42 59 43
REMARK SMILES IDX 51 44 52 45 58 46 60 47 53 48 54 49 55 50 56 51 57 52 83 53
REMARK SMILES IDX 84 54 93 55 85 56 86 57 92 58 94 59 87 60 88 61 89 62 90 63
REMARK SMILES IDX 91 64 67 65 68 66 77 67 69 68 70 69 76 70 78 71 71 72 72 73
REMARK SMILES IDX 73 74 74 75 75 76 8 77 9 78 10 79 11 80 12 82 13 83 16 84
REMARK SMILES IDX 17 85 18 87 19 88 30 89 31 90 32 92 33 93 34 94 39 95 35 96
REMARK SMILES IDX 38 97 36 98 37 99 20 100 21 101 22 102 29 103 23 104 24 105
REMARK SMILES IDX 28 106 25 108 27 109 26 110 14 111 15 112
REMARK H PARENT 3 8 99 26 65 37 10 81 16 86 30 91 23 107 15 113
REMARK Flexibility Score: inf
ROOT
ATOM      1  C   UNL     1      11.417  -2.530 -14.470  1.00  0.00     0.002 C 
ENDROOT
BRANCH   1   2
ATOM      2  C   UNL     1      12.611  -1.698 -14.947  1.00  0.00     0.002 C 
BRANCH   2   3
ATOM      3  C   UNL     1      13.661  -2.485 -15.729  1.00  0.00     0.021 C 
BRANCH   3   4
ATOM      4  C   UNL     1      13.107  -3.232 -16.935  1.00  0.00     0.116 C 
BRANCH   4   5
ATOM      5  N   UNL     1      12.619  -2.321 -17.959  1.00  0.00    -0.352 N 
ATOM      6  O   UNL     1      12.687  -1.226 -19.933  1.00  0.00    -0.269 OA
ATOM      7  C   UNL     1      13.048  -2.184 -19.256  1.00  0.00     0.251 C 
ATOM      8  H   UNL     1      11.885  -1.725 -17.686  1.00  0.00     0.163 HD
BRANCH   7   9
ATOM      9  C   UNL     1      13.963  -3.199 -19.818  1.00  0.00     0.039 A 
ATOM     10  C   UNL     1      13.702  -4.557 -19.624  1.00  0.00     0.014 A 
ATOM     11  C   UNL     1      15.098  -2.790 -20.520  1.00  0.00     0.014 A 
ATOM     12  C   UNL     1      14.646  -5.500 -20.008  1.00  0.00     0.010 A 
ATOM     13  C   UNL     1      15.999  -3.748 -20.993  1.00  0.00     0.010 A 
ATOM     14  C   UNL     1      15.793  -5.109 -20.719  1.00  0.00    -0.014 A 
BRANCH  14  15
ATOM     15  C   UNL     1      16.713  -6.155 -21.231  1.00  0.00     0.031 A 
ATOM     16  C   UNL     1      18.132  -6.255 -20.747  1.00  0.00     0.074 A 
ATOM     17  C   UNL     1      16.231  -7.049 -22.117  1.00  0.00     0.049 A 
ATOM     18  N   UNL     1      19.053  -7.123 -21.081  1.00  0.00    -0.248 NA
ATOM     19  C   UNL     1      18.581  -5.252 -19.769  1.00  0.00     0.031 C 
ATOM     20  C   UNL     1      14.866  -7.046 -22.651  1.00  0.00     0.029 A 
ATOM     21  N   UNL     1      16.811  -8.145 -22.700  1.00  0.00    -0.354 N 
ATOM     22  C   UNL     1      20.189  -6.772 -20.362  1.00  0.00     0.074 A 
ATOM     23  C   UNL     1      19.854  -5.588 -19.601  1.00  0.00     0.031 C 
ATOM     24  C   UNL     1      14.694  -8.123 -23.428  1.00  0.00     0.029 A 
ATOM     25  C   UNL     1      15.954  -8.852 -23.509  1.00  0.00     0.049 A 
ATOM     26  H   UNL     1      17.750  -8.400 -22.554  1.00  0.00     0.167 HD
ATOM     27  C   UNL     1      21.395  -7.391 -20.334  1.00  0.00     0.037 A 
ATOM     28  C   UNL     1      16.159  -9.958 -24.248  1.00  0.00     0.037 A 
ATOM     29  C   UNL     1      21.712  -8.572 -21.100  1.00  0.00     0.049 A 
ATOM     30  C   UNL     1      17.517 -10.594 -24.240  1.00  0.00     0.074 A 
ATOM     31  C   UNL     1      22.904  -9.274 -21.142  1.00  0.00     0.029 A 
ATOM     32  N   UNL     1      20.836  -9.224 -21.957  1.00  0.00    -0.354 N 
ATOM     33  N   UNL     1      18.582 -10.245 -23.559  1.00  0.00    -0.248 NA
ATOM     34  C   UNL     1      17.706 -11.764 -25.104  1.00  0.00     0.031 C 
ATOM     35  C   UNL     1      22.763 -10.323 -22.057  1.00  0.00     0.029 A 
ATOM     36  C   UNL     1      21.467 -10.309 -22.546  1.00  0.00     0.049 A 
ATOM     37  H   UNL     1      19.904  -8.956 -22.123  1.00  0.00     0.167 HD
ATOM     38  C   UNL     1      19.568 -11.160 -23.902  1.00  0.00     0.074 A 
ATOM     39  C   UNL     1      18.965 -12.089 -24.839  1.00  0.00     0.031 C 
ATOM     40  C   UNL     1      20.855 -11.222 -23.482  1.00  0.00     0.037 A 
BRANCH  27  41
ATOM     41  C   UNL     1      22.467  -6.804 -19.455  1.00  0.00     0.058 A 
ATOM     42  C   UNL     1      23.603  -6.198 -20.017  1.00  0.00     0.135 A 
ATOM     43  C   UNL     1      22.398  -6.887 -18.055  1.00  0.00     0.135 A 
ATOM     44  F   UNL     1      23.722  -6.088 -21.349  1.00  0.00    -0.206 F 
ATOM     45  C   UNL     1      24.635  -5.705 -19.224  1.00  0.00     0.059 A 
ATOM     46  C   UNL     1      23.407  -6.377 -17.241  1.00  0.00     0.059 A 
ATOM     47  F   UNL     1      21.327  -7.438 -17.463  1.00  0.00    -0.206 F 
ATOM     48  C   UNL     1      24.527  -5.797 -17.835  1.00  0.00     0.060 A 
BRANCH  48  49
ATOM     49  S   UNL     1      25.851  -5.107 -16.819  1.00  0.00     0.124 S 
ATOM     50  O   UNL     1      26.940  -6.045 -17.064  1.00  0.00    -0.237 OA
ATOM     51  O   UNL     1      26.015  -3.775 -17.392  1.00  0.00    -0.237 OA
ATOM     52  O   UNL     1      25.289  -5.133 -15.471  1.00  0.00    -0.744 OA
ENDBRANCH  48  49
ENDBRANCH  27  41
BRANCH  28  53
ATOM     53  C   UNL     1      15.033 -10.525 -25.036  1.00  0.00     0.058 A 
ATOM     54  C   UNL     1      14.494  -9.838 -26.135  1.00  0.00     0.135 A 
ATOM     55  C   UNL     1      14.424 -11.729 -24.654  1.00  0.00     0.135 A 
ATOM     56  F   UNL     1      15.033  -8.674 -26.532  1.00  0.00    -0.206 F 
ATOM     57  C   UNL     1      13.366 -10.301 -26.801  1.00  0.00     0.059 A 
ATOM     58  C   UNL     1      13.311 -12.228 -25.323  1.00  0.00     0.059 A 
ATOM     59  F   UNL     1      14.910 -12.426 -23.615  1.00  0.00    -0.206 F 
ATOM     60  C   UNL     1      12.776 -11.494 -26.382  1.00  0.00     0.060 A 
BRANCH  60  61
ATOM     61  S   UNL     1      11.290 -12.059 -27.237  1.00  0.00     0.124 S 
ATOM     62  O   UNL     1      10.315 -11.056 -26.819  1.00  0.00    -0.237 OA
ATOM     63  O   UNL     1      11.703 -12.001 -28.635  1.00  0.00    -0.237 OA
ATOM     64  O   UNL     1      11.081 -13.400 -26.701  1.00  0.00    -0.744 OA
ENDBRANCH  60  61
ENDBRANCH  28  53
BRANCH  40  65
ATOM     65  C   UNL     1      21.703 -12.342 -24.018  1.00  0.00     0.058 A 
ATOM     66  C   UNL     1      22.103 -13.395 -23.179  1.00  0.00     0.135 A 
ATOM     67  C   UNL     1      22.169 -12.343 -25.342  1.00  0.00     0.135 A 
ATOM     68  F   UNL     1      21.688 -13.440 -21.904  1.00  0.00    -0.206 F 
ATOM     69  C   UNL     1      22.951 -14.400 -23.630  1.00  0.00     0.059 A 
ATOM     70  C   UNL     1      22.996 -13.354 -25.822  1.00  0.00     0.059 A 
ATOM     71  F   UNL     1      21.802 -11.367 -26.187  1.00  0.00    -0.206 F 
ATOM     72  C   UNL     1      23.394 -14.370 -24.953  1.00  0.00     0.060 A 
BRANCH  72  73
ATOM     73  S   UNL     1      24.483 -15.691 -25.525  1.00  0.00     0.124 S 
ATOM     74  O   UNL     1      25.722 -15.383 -24.820  1.00  0.00    -0.237 OA
ATOM     75  O   UNL     1      23.777 -16.888 -25.075  1.00  0.00    -0.237 OA
ATOM     76  O   UNL     1      24.518 -15.500 -26.972  1.00  0.00    -0.744 OA
ENDBRANCH  72  73
ENDBRANCH  40  65
ENDBRANCH  14  15
ENDBRANCH   7   9
ENDBRANCH   4   5
ENDBRANCH   3   4
ENDBRANCH   2   3
ENDBRANCH   1   2
BRANCH   1  77
ATOM     77  C   UNL     1      11.787  -3.816 -13.719  1.00  0.00     0.021 C 
BRANCH  77  78
ATOM     78  C   UNL     1      12.560  -3.568 -12.423  1.00  0.00     0.116 C 
BRANCH  78  79
ATOM     79  N   UNL     1      11.668  -3.033 -11.418  1.00  0.00    -0.354 N 
ATOM     80  C   UNL     1      10.864  -3.680 -10.536  1.00  0.00     0.244 C 
ATOM     81  H   UNL     1      11.639  -2.050 -11.366  1.00  0.00     0.163 HD
ATOM     82  O   UNL     1       9.908  -3.027 -10.098  1.00  0.00    -0.273 OA
BRANCH  80  83
ATOM     83  C   UNL     1      11.179  -5.095  -9.982  1.00  0.00     0.197 C 
BRANCH  83  84
ATOM     84  N   UNL     1      10.017  -5.497  -9.162  1.00  0.00    -0.340 N 
ATOM     85  C   UNL     1       9.795  -5.599  -7.828  1.00  0.00     0.243 C 
ATOM     86  H   UNL     1       9.232  -5.745  -9.703  1.00  0.00     0.164 HD
ATOM     87  O   UNL     1       8.668  -6.010  -7.523  1.00  0.00    -0.273 OA
BRANCH  85  88
ATOM     88  C   UNL     1      10.903  -5.450  -6.755  1.00  0.00     0.176 C 
BRANCH  88  89
ATOM     89  N   UNL     1      11.983  -4.515  -7.089  1.00  0.00    -0.340 N 
ATOM     90  C   UNL     1      13.342  -4.641  -7.151  1.00  0.00     0.251 C 
ATOM     91  H   UNL     1      11.662  -3.611  -7.314  1.00  0.00     0.164 HD
ATOM     92  O   UNL     1      14.022  -3.625  -7.286  1.00  0.00    -0.269 OA
BRANCH  90  93
ATOM     93  C   UNL     1      14.031  -5.952  -7.101  1.00  0.00     0.040 A 
ATOM     94  C   UNL     1      13.548  -7.094  -7.753  1.00  0.00     0.017 A 
ATOM     95  C   UNL     1      15.290  -5.997  -6.482  1.00  0.00     0.017 A 
ATOM     96  C   UNL     1      14.287  -8.279  -7.739  1.00  0.00     0.040 A 
ATOM     97  C   UNL     1      16.032  -7.179  -6.475  1.00  0.00     0.040 A 
ATOM     98  C   UNL     1      15.519  -8.311  -7.097  1.00  0.00     0.123 A 
ATOM     99  F   UNL     1      16.227  -9.447  -7.090  1.00  0.00    -0.207 F 
ENDBRANCH  90  93
ENDBRANCH  88  89
BRANCH  88 100
ATOM    100  C   UNL     1      10.265  -5.138  -5.370  1.00  0.00     0.072 C 
BRANCH 100 101
ATOM    101  C   UNL     1      10.241  -3.690  -4.957  1.00  0.00    -0.020 A 
ATOM    102  C   UNL     1      10.724  -3.213  -3.752  1.00  0.00     0.087 A 
ATOM    103  C   UNL     1       9.789  -2.544  -5.697  1.00  0.00     0.003 A 
ATOM    104  N   UNL     1      10.660  -1.848  -3.767  1.00  0.00    -0.361 N 
ATOM    105  C   UNL     1      10.141  -1.411  -4.961  1.00  0.00     0.046 A 
ATOM    106  C   UNL     1       9.179  -2.348  -6.952  1.00  0.00     0.010 A 
ATOM    107  H   UNL     1      10.944  -1.263  -3.028  1.00  0.00     0.166 HD
ATOM    108  C   UNL     1       9.971  -0.106  -5.441  1.00  0.00     0.026 A 
ATOM    109  C   UNL     1       9.019  -1.052  -7.457  1.00  0.00     0.001 A 
ATOM    110  C   UNL     1       9.422   0.052  -6.715  1.00  0.00     0.002 A 
ENDBRANCH 100 101
ENDBRANCH  88 100
ENDBRANCH  85  88
ENDBRANCH  83  84
BRANCH  83 111
ATOM    111  C   UNL     1      11.470  -6.241 -10.956  1.00  0.00     0.191 C 
BRANCH 111 112
ATOM    112  O   UNL     1      10.596  -6.276 -12.073  1.00  0.00    -0.394 OA
ATOM    113  H   UNL     1       9.686  -6.416 -11.768  1.00  0.00     0.210 HD
ENDBRANCH 111 112
ENDBRANCH  83 111
ENDBRANCH  80  83
ENDBRANCH  78  79
ENDBRANCH  77  78
ENDBRANCH   1  77
TORSDOF 24
