REMARK SMILES COc1ccc2[nH]cc([C@H](C(=O)NCCCCCCNC(=O)c3ccc(-c4c5nc(c(-c6c(F)cc(S(=O)(=O)[O-])cc6F)c6ccc([nH]6)c(-c6c(F)cc(S(=O)(=O)[O-])cc6F)c6nc(c(-c7c(F)cc(S(=O)(=O)[O-])cc7F)c7ccc4[nH]7)C=C6)C=C5)cc3)[NH+]3CC[NH+](Cc4cccc5ccccc45)CC3)c2c1
REMARK SMILES IDX 16 1 15 2 14 3 13 4 11 5 12 6 10 8 9 9 3 10 4 11 107 12 5 13
REMARK SMILES IDX 106 14 6 15 7 16 8 17 2 19 1 20 89 21 90 22 105 23 91 25
REMARK SMILES IDX 104 26 92 27 93 29 94 30 95 31 103 32 96 33 98 34 102 35
REMARK SMILES IDX 97 36 99 37 101 38 100 39 17 40 18 41 19 42 20 43 21 44
REMARK SMILES IDX 22 46 23 47 24 48 88 49 25 50 87 51 26 52 27 53 28 54 81 55
REMARK SMILES IDX 29 56 86 57 80 58 82 59 30 60 85 61 79 62 78 63 31 65 65 66
REMARK SMILES IDX 44 67 64 68 45 69 48 70 63 71 83 72 46 73 47 74 62 76 84 77
REMARK SMILES IDX 49 78 32 79 33 80 42 81 34 82 35 83 41 84 43 85 36 86 37 87
REMARK SMILES IDX 38 88 39 89 40 90 66 91 67 92 76 93 68 94 69 95 75 96 77 97
REMARK SMILES IDX 70 98 71 99 72 100 73 101 74 102 50 103 51 104 60 105 52 106
REMARK SMILES IDX 53 107 59 108 61 109 54 110 55 111 56 112 57 113 58 114
REMARK H PARENT 13 7 7 18 89 24 92 28 20 45 82 64 48 75
REMARK Flexibility Score: inf
ROOT
ATOM      1  C   UNL     1       1.722   4.554   2.681  1.00  0.00     0.002 C 
ENDROOT
BRANCH   1   2
ATOM      2  C   UNL     1       0.204   4.487   2.474  1.00  0.00     0.021 C 
BRANCH   2   3
ATOM      3  C   UNL     1      -0.442   3.094   2.621  1.00  0.00     0.116 C 
BRANCH   3   4
ATOM      4  N   UNL     1       0.048   2.305   3.747  1.00  0.00    -0.351 N 
ATOM      5  C   UNL     1      -0.476   1.851   4.934  1.00  0.00     0.283 C 
ATOM      6  O   UNL     1       0.289   1.087   5.531  1.00  0.00    -0.268 OA
ATOM      7  H   UNL     1       0.986   2.031   3.627  1.00  0.00     0.163 HD
BRANCH   5   8
ATOM      8  C   UNL     1      -1.880   2.273   5.462  1.00  0.00     0.308 C 
BRANCH   8   9
ATOM      9  C   UNL     1      -2.675   1.288   6.318  1.00  0.00     0.045 A 
ATOM     10  C   UNL     1      -0.978  -0.923   8.979  1.00  0.00     0.119 A 
ATOM     11  C   UNL     1      -2.143  -1.372   9.582  1.00  0.00     0.048 A 
ATOM     12  C   UNL     1      -1.020  -0.025   7.910  1.00  0.00     0.057 A 
ATOM     13  C   UNL     1      -3.387  -0.968   9.095  1.00  0.00     0.030 A 
ATOM     14  C   UNL     1      -2.258   0.377   7.361  1.00  0.00     0.013 A 
ATOM     15  C   UNL     1      -3.414  -0.110   7.984  1.00  0.00     0.046 A 
ATOM     16  N   UNL     1      -4.490   0.448   7.341  1.00  0.00    -0.361 N 
ATOM     17  C   UNL     1      -4.067   1.271   6.339  1.00  0.00     0.094 A 
ATOM     18  H   UNL     1      -5.433   0.278   7.570  1.00  0.00     0.166 HD
BRANCH  10  19
ATOM     19  O   UNL     1       0.257  -1.277   9.456  1.00  0.00    -0.497 OA
ATOM     20  C   UNL     1       0.505  -2.664   9.229  1.00  0.00     0.278 C 
ENDBRANCH  10  19
ENDBRANCH   8   9
BRANCH   8  21
ATOM     21  N   UNL     1      -1.907   3.577   6.146  1.00  0.00    -0.312 N 
ATOM     22  C   UNL     1      -1.724   3.761   7.583  1.00  0.00     0.325 C 
ATOM     23  C   UNL     1      -1.416   4.696   5.390  1.00  0.00     0.325 C 
ATOM     24  H   UNL     1      -2.926   3.536   6.160  1.00  0.00     0.349 HD
ATOM     25  C   UNL     1      -0.475   4.561   8.069  1.00  0.00     0.324 C 
ATOM     26  C   UNL     1       0.018   5.114   5.787  1.00  0.00     0.324 C 
ATOM     27  N   UNL     1       0.130   5.561   7.176  1.00  0.00    -0.322 N 
ATOM     28  H   UNL     1       1.114   5.592   7.440  1.00  0.00     0.348 HD
BRANCH  27  29
ATOM     29  C   UNL     1      -0.198   6.985   7.401  1.00  0.00     0.300 C 
BRANCH  29  30
ATOM     30  C   UNL     1      -1.485   7.510   6.774  1.00  0.00     0.014 A 
ATOM     31  C   UNL     1      -1.418   8.022   5.456  1.00  0.00     0.010 A 
ATOM     32  C   UNL     1      -2.754   7.288   7.370  1.00  0.00    -0.010 A 
ATOM     33  C   UNL     1      -2.569   8.153   4.684  1.00  0.00     0.001 A 
ATOM     34  C   UNL     1      -3.906   7.337   6.545  1.00  0.00    -0.018 A 
ATOM     35  C   UNL     1      -2.929   6.964   8.732  1.00  0.00     0.009 A 
ATOM     36  C   UNL     1      -3.797   7.762   5.210  1.00  0.00     0.009 A 
ATOM     37  C   UNL     1      -5.143   6.916   7.058  1.00  0.00     0.009 A 
ATOM     38  C   UNL     1      -4.178   6.609   9.242  1.00  0.00     0.001 A 
ATOM     39  C   UNL     1      -5.276   6.546   8.396  1.00  0.00     0.001 A 
ENDBRANCH  29  30
ENDBRANCH  27  29
ENDBRANCH   8  21
ENDBRANCH   5   8
ENDBRANCH   3   4
ENDBRANCH   2   3
ENDBRANCH   1   2
BRANCH   1  40
ATOM     40  C   UNL     1       2.528   4.309   1.409  1.00  0.00     0.002 C 
BRANCH  40  41
ATOM     41  C   UNL     1       2.201   5.265   0.257  1.00  0.00     0.021 C 
BRANCH  41  42
ATOM     42  C   UNL     1       2.317   6.744   0.615  1.00  0.00     0.116 C 
BRANCH  42  43
ATOM     43  N   UNL     1       3.711   7.145   0.725  1.00  0.00    -0.352 N 
ATOM     44  C   UNL     1       4.404   7.989  -0.111  1.00  0.00     0.251 C 
ATOM     45  H   UNL     1       4.215   6.769   1.483  1.00  0.00     0.163 HD
ATOM     46  O   UNL     1       5.627   8.009  -0.116  1.00  0.00    -0.269 OA
BRANCH  44  47
ATOM     47  C   UNL     1       3.629   8.871  -1.009  1.00  0.00     0.039 A 
ATOM     48  C   UNL     1       3.907   8.880  -2.376  1.00  0.00     0.014 A 
ATOM     49  C   UNL     1       2.591   9.648  -0.485  1.00  0.00     0.014 A 
ATOM     50  C   UNL     1       3.104   9.638  -3.231  1.00  0.00     0.010 A 
ATOM     51  C   UNL     1       1.750  10.343  -1.347  1.00  0.00     0.010 A 
ATOM     52  C   UNL     1       2.002  10.352  -2.727  1.00  0.00    -0.014 A 
BRANCH  52  53
ATOM     53  C   UNL     1       1.105  11.123  -3.625  1.00  0.00     0.031 A 
ATOM     54  C   UNL     1       1.004  12.617  -3.482  1.00  0.00     0.074 A 
ATOM     55  C   UNL     1       0.337  10.474  -4.523  1.00  0.00     0.049 A 
ATOM     56  N   UNL     1       0.234  13.459  -4.122  1.00  0.00    -0.248 NA
ATOM     57  C   UNL     1       1.863  13.246  -2.465  1.00  0.00     0.031 C 
ATOM     58  C   UNL     1       0.314   9.023  -4.724  1.00  0.00     0.029 A 
ATOM     59  N   UNL     1      -0.580  10.947  -5.428  1.00  0.00    -0.354 N 
ATOM     60  C   UNL     1       0.508  14.709  -3.582  1.00  0.00     0.074 A 
ATOM     61  C   UNL     1       1.468  14.509  -2.519  1.00  0.00     0.031 C 
ATOM     62  C   UNL     1      -0.552   8.729  -5.707  1.00  0.00     0.029 A 
ATOM     63  C   UNL     1      -1.177   9.961  -6.178  1.00  0.00     0.049 A 
ATOM     64  H   UNL     1      -0.789  11.903  -5.531  1.00  0.00     0.167 HD
ATOM     65  C   UNL     1       0.023  15.918  -3.954  1.00  0.00     0.037 A 
ATOM     66  C   UNL     1      -2.127  10.040  -7.130  1.00  0.00     0.037 A 
ATOM     67  C   UNL     1      -0.921  16.109  -5.024  1.00  0.00     0.049 A 
ATOM     68  C   UNL     1      -2.668  11.392  -7.513  1.00  0.00     0.074 A 
ATOM     69  C   UNL     1      -1.435  17.295  -5.516  1.00  0.00     0.029 A 
ATOM     70  N   UNL     1      -1.498  15.086  -5.764  1.00  0.00    -0.354 N 
ATOM     71  N   UNL     1      -2.349  12.572  -7.036  1.00  0.00    -0.248 NA
ATOM     72  C   UNL     1      -3.692  11.425  -8.566  1.00  0.00     0.031 C 
ATOM     73  C   UNL     1      -2.364  16.988  -6.516  1.00  0.00     0.029 A 
ATOM     74  C   UNL     1      -2.384  15.613  -6.690  1.00  0.00     0.049 A 
ATOM     75  H   UNL     1      -1.306  14.128  -5.649  1.00  0.00     0.167 HD
ATOM     76  C   UNL     1      -3.113  13.490  -7.750  1.00  0.00     0.074 A 
ATOM     77  C   UNL     1      -3.900  12.728  -8.698  1.00  0.00     0.031 C 
ATOM     78  C   UNL     1      -3.157  14.841  -7.632  1.00  0.00     0.037 A 
BRANCH  65  79
ATOM     79  C   UNL     1       0.506  17.126  -3.197  1.00  0.00     0.058 A 
ATOM     80  C   UNL     1       1.833  17.578  -3.294  1.00  0.00     0.135 A 
ATOM     81  C   UNL     1      -0.373  17.859  -2.383  1.00  0.00     0.135 A 
ATOM     82  F   UNL     1       2.722  16.909  -4.046  1.00  0.00    -0.206 F 
ATOM     83  C   UNL     1       2.280  18.687  -2.583  1.00  0.00     0.059 A 
ATOM     84  C   UNL     1       0.044  18.991  -1.688  1.00  0.00     0.059 A 
ATOM     85  F   UNL     1      -1.653  17.475  -2.252  1.00  0.00    -0.206 F 
ATOM     86  C   UNL     1       1.377  19.387  -1.782  1.00  0.00     0.060 A 
BRANCH  86  87
ATOM     87  S   UNL     1       1.975  20.822  -0.864  1.00  0.00     0.124 S 
ATOM     88  O   UNL     1       2.794  20.188   0.164  1.00  0.00    -0.237 OA
ATOM     89  O   UNL     1       2.704  21.564  -1.887  1.00  0.00    -0.237 OA
ATOM     90  O   UNL     1       0.750  21.456  -0.387  1.00  0.00    -0.744 OA
ENDBRANCH  86  87
ENDBRANCH  65  79
BRANCH  66  91
ATOM     91  C   UNL     1      -2.611   8.803  -7.801  1.00  0.00     0.058 A 
ATOM     92  C   UNL     1      -2.308   8.546  -9.146  1.00  0.00     0.135 A 
ATOM     93  C   UNL     1      -3.369   7.846  -7.109  1.00  0.00     0.135 A 
ATOM     94  F   UNL     1      -1.592   9.434  -9.854  1.00  0.00    -0.206 F 
ATOM     95  C   UNL     1      -2.748   7.391  -9.786  1.00  0.00     0.059 A 
ATOM     96  C   UNL     1      -3.797   6.670  -7.718  1.00  0.00     0.059 A 
ATOM     97  F   UNL     1      -3.674   8.035  -5.815  1.00  0.00    -0.206 F 
ATOM     98  C   UNL     1      -3.488   6.456  -9.061  1.00  0.00     0.060 A 
BRANCH  98  99
ATOM     99  S   UNL     1      -4.007   4.936  -9.886  1.00  0.00     0.124 S 
ATOM    100  O   UNL     1      -5.040   5.429 -10.789  1.00  0.00    -0.237 OA
ATOM    101  O   UNL     1      -2.767   4.492 -10.515  1.00  0.00    -0.237 OA
ATOM    102  O   UNL     1      -4.476   4.100  -8.784  1.00  0.00    -0.744 OA
ENDBRANCH  98  99
ENDBRANCH  66  91
BRANCH  78 103
ATOM    103  C   UNL     1      -4.061  15.592  -8.572  1.00  0.00     0.058 A 
ATOM    104  C   UNL     1      -5.457  15.555  -8.442  1.00  0.00     0.135 A 
ATOM    105  C   UNL     1      -3.517  16.410  -9.575  1.00  0.00     0.135 A 
ATOM    106  F   UNL     1      -6.029  14.782  -7.505  1.00  0.00    -0.206 F 
ATOM    107  C   UNL     1      -6.285  16.287  -9.287  1.00  0.00     0.059 A 
ATOM    108  C   UNL     1      -4.324  17.175 -10.412  1.00  0.00     0.059 A 
ATOM    109  F   UNL     1      -2.186  16.490  -9.736  1.00  0.00    -0.206 F 
ATOM    110  C   UNL     1      -5.708  17.099 -10.266  1.00  0.00     0.060 A 
BRANCH 110 111
ATOM    111  S   UNL     1      -6.793  18.078 -11.326  1.00  0.00     0.124 S 
ATOM    112  O   UNL     1      -7.375  17.050 -12.181  1.00  0.00    -0.237 OA
ATOM    113  O   UNL     1      -7.701  18.690 -10.361  1.00  0.00    -0.237 OA
ATOM    114  O   UNL     1      -5.878  19.003 -11.989  1.00  0.00    -0.744 OA
ENDBRANCH 110 111
ENDBRANCH  78 103
ENDBRANCH  52  53
ENDBRANCH  44  47
ENDBRANCH  42  43
ENDBRANCH  41  42
ENDBRANCH  40  41
ENDBRANCH   1  40
TORSDOF 21
