REMARK SMILES Cc1ccc(F)c(NC(=O)NC(=O)CCCCC(=O)NCCCCCCNC(=O)c2ccc(-c3c4nc(c(-c5c(F)cc(S(=O)(=O)[O-])cc5F)c5ccc([nH]5)c(-c5c(F)cc(S(=O)(=O)[O-])cc5F)c5nc(c(-c6c(F)cc(S(=O)(=O)[O-])cc6F)c6ccc3[nH]6)C=C5)C=C4)cc2)c1
REMARK SMILES IDX 22 1 21 2 20 3 18 4 19 5 17 7 16 8 15 9 14 10 12 11 8 12
REMARK SMILES IDX 9 13 10 15 11 16 13 18 7 19 1 20 2 21 3 22 96 23 4 24 5 25
REMARK SMILES IDX 6 26 23 27 24 28 25 29 26 30 27 31 28 32 29 34 30 35 31 36
REMARK SMILES IDX 95 37 32 38 94 39 33 40 34 41 35 42 88 43 36 44 93 45 87 46
REMARK SMILES IDX 89 47 37 48 92 49 86 50 85 51 38 53 72 54 51 55 71 56 52 57
REMARK SMILES IDX 55 58 70 59 90 60 53 61 54 62 69 64 91 65 56 66 39 67 40 68
REMARK SMILES IDX 49 69 41 70 42 71 48 72 50 73 43 74 44 75 45 76 46 77 47 78
REMARK SMILES IDX 73 79 74 80 83 81 75 82 76 83 82 84 84 85 77 86 78 87 79 88
REMARK SMILES IDX 80 89 81 90 57 91 58 92 67 93 59 94 60 95 66 96 68 97 61 98
REMARK SMILES IDX 62 99 63 100 64 101 65 102
REMARK H PARENT 20 6 8 14 11 17 27 33 89 52 55 63
REMARK Flexibility Score: inf
ROOT
ATOM      1  C   UNL     1       1.829   0.633   2.178  1.00  0.00     0.021 C 
ENDROOT
BRANCH   1   2
ATOM      2  C   UNL     1       1.404  -0.498   1.258  1.00  0.00     0.116 C 
BRANCH   2   3
ATOM      3  N   UNL     1       1.691  -1.802   1.804  1.00  0.00    -0.356 N 
ATOM      4  C   UNL     1       0.890  -2.902   1.848  1.00  0.00     0.219 C 
ATOM      5  O   UNL     1       1.385  -3.970   2.213  1.00  0.00    -0.275 OA
ATOM      6  H   UNL     1       2.586  -1.911   2.199  1.00  0.00     0.163 HD
BRANCH   4   7
ATOM      7  C   UNL     1      -0.549  -2.825   1.375  1.00  0.00     0.100 C 
BRANCH   7   8
ATOM      8  C   UNL     1      -1.599  -2.292   2.349  1.00  0.00     0.010 C 
BRANCH   8   9
ATOM      9  C   UNL     1      -1.877  -0.782   2.370  1.00  0.00     0.010 C 
BRANCH   9  10
ATOM     10  C   UNL     1      -2.236  -0.102   1.045  1.00  0.00     0.100 C 
BRANCH  10  11
ATOM     11  C   UNL     1      -3.567  -0.474   0.442  1.00  0.00     0.227 C 
ATOM     12  N   UNL     1      -1.702  -2.203  -1.680  1.00  0.00    -0.305 N 
ATOM     13  C   UNL     1      -2.963  -2.268  -1.207  1.00  0.00     0.325 C 
ATOM     14  H   UNL     1      -1.323  -3.096  -1.842  1.00  0.00     0.171 HD
ATOM     15  O   UNL     1      -3.508  -3.377  -1.221  1.00  0.00    -0.248 OA
ATOM     16  N   UNL     1      -3.658  -1.207  -0.725  1.00  0.00    -0.278 N 
ATOM     17  H   UNL     1      -4.370  -0.896  -1.330  1.00  0.00     0.174 HD
ATOM     18  O   UNL     1      -4.615  -0.129   0.994  1.00  0.00    -0.275 OA
BRANCH  12  19
ATOM     19  C   UNL     1      -0.792  -1.178  -2.000  1.00  0.00     0.079 A 
ATOM     20  C   UNL     1       3.022  -1.079  -2.271  1.00  0.00     0.044 C 
ATOM     21  C   UNL     1       1.583  -0.640  -2.302  1.00  0.00    -0.049 A 
ATOM     22  C   UNL     1       1.250   0.717  -2.377  1.00  0.00     0.006 A 
ATOM     23  C   UNL     1       0.554  -1.577  -2.123  1.00  0.00     0.032 A 
ATOM     24  C   UNL     1      -0.086   1.118  -2.313  1.00  0.00     0.042 A 
ATOM     25  C   UNL     1      -1.097   0.174  -2.144  1.00  0.00     0.146 A 
ATOM     26  F   UNL     1      -2.361   0.610  -2.091  1.00  0.00    -0.205 F 
ENDBRANCH  12  19
ENDBRANCH  10  11
ENDBRANCH   9  10
ENDBRANCH   8   9
ENDBRANCH   7   8
ENDBRANCH   4   7
ENDBRANCH   2   3
ENDBRANCH   1   2
BRANCH   1  27
ATOM     27  C   UNL     1       3.288   1.036   1.950  1.00  0.00     0.002 C 
BRANCH  27  28
ATOM     28  C   UNL     1       3.561   1.716   0.601  1.00  0.00     0.002 C 
BRANCH  28  29
ATOM     29  C   UNL     1       2.740   2.975   0.323  1.00  0.00     0.021 C 
BRANCH  29  30
ATOM     30  C   UNL     1       2.840   4.025   1.417  1.00  0.00     0.116 C 
BRANCH  30  31
ATOM     31  N   UNL     1       4.222   4.423   1.654  1.00  0.00    -0.352 N 
ATOM     32  C   UNL     1       4.766   5.680   1.634  1.00  0.00     0.251 C 
ATOM     33  H   UNL     1       4.848   3.690   1.855  1.00  0.00     0.163 HD
ATOM     34  O   UNL     1       5.987   5.829   1.608  1.00  0.00    -0.269 OA
BRANCH  32  35
ATOM     35  C   UNL     1       3.863   6.844   1.632  1.00  0.00     0.039 A 
ATOM     36  C   UNL     1       4.116   7.913   0.772  1.00  0.00     0.014 A 
ATOM     37  C   UNL     1       2.741   6.850   2.466  1.00  0.00     0.014 A 
ATOM     38  C   UNL     1       3.209   8.971   0.715  1.00  0.00     0.010 A 
ATOM     39  C   UNL     1       1.787   7.845   2.324  1.00  0.00     0.010 A 
ATOM     40  C   UNL     1       2.023   8.929   1.469  1.00  0.00    -0.014 A 
BRANCH  40  41
ATOM     41  C   UNL     1       1.030  10.028   1.415  1.00  0.00     0.031 A 
ATOM     42  C   UNL     1       0.698  10.790   2.671  1.00  0.00     0.074 A 
ATOM     43  C   UNL     1       0.383  10.289   0.263  1.00  0.00     0.049 A 
ATOM     44  N   UNL     1      -0.191  11.730   2.857  1.00  0.00    -0.248 NA
ATOM     45  C   UNL     1       1.435  10.415   3.891  1.00  0.00     0.031 C 
ATOM     46  C   UNL     1       0.580   9.572  -1.000  1.00  0.00     0.029 A 
ATOM     47  N   UNL     1      -0.576  11.223  -0.033  1.00  0.00    -0.354 N 
ATOM     48  C   UNL     1      -0.133  12.040   4.211  1.00  0.00     0.074 A 
ATOM     49  C   UNL     1       0.820  11.137   4.814  1.00  0.00     0.031 C 
ATOM     50  C   UNL     1      -0.209  10.115  -1.941  1.00  0.00     0.029 A 
ATOM     51  C   UNL     1      -0.997  11.187  -1.341  1.00  0.00     0.049 A 
ATOM     52  H   UNL     1      -0.930  11.859   0.629  1.00  0.00     0.167 HD
ATOM     53  C   UNL     1      -0.790  13.013   4.884  1.00  0.00     0.037 A 
ATOM     54  C   UNL     1      -1.918  11.932  -1.982  1.00  0.00     0.037 A 
ATOM     55  C   UNL     1      -1.713  13.924   4.262  1.00  0.00     0.049 A 
ATOM     56  C   UNL     1      -2.631  13.014  -1.218  1.00  0.00     0.074 A 
ATOM     57  C   UNL     1      -2.387  14.989   4.831  1.00  0.00     0.029 A 
ATOM     58  N   UNL     1      -2.093  13.875   2.928  1.00  0.00    -0.354 N 
ATOM     59  N   UNL     1      -2.511  13.345   0.047  1.00  0.00    -0.248 NA
ATOM     60  C   UNL     1      -3.595  13.831  -1.966  1.00  0.00     0.031 C 
ATOM     61  C   UNL     1      -3.217  15.549   3.854  1.00  0.00     0.029 A 
ATOM     62  C   UNL     1      -3.012  14.875   2.660  1.00  0.00     0.049 A 
ATOM     63  H   UNL     1      -1.759  13.224   2.269  1.00  0.00     0.167 HD
ATOM     64  C   UNL     1      -3.364  14.426   0.240  1.00  0.00     0.074 A 
ATOM     65  C   UNL     1      -3.982  14.700  -1.042  1.00  0.00     0.031 C 
ATOM     66  C   UNL     1      -3.612  15.131   1.373  1.00  0.00     0.037 A 
BRANCH  53  67
ATOM     67  C   UNL     1      -0.529  13.136   6.362  1.00  0.00     0.058 A 
ATOM     68  C   UNL     1       0.722  13.534   6.864  1.00  0.00     0.135 A 
ATOM     69  C   UNL     1      -1.544  12.859   7.292  1.00  0.00     0.135 A 
ATOM     70  F   UNL     1       1.736  13.796   6.024  1.00  0.00    -0.206 F 
ATOM     71  C   UNL     1       0.970  13.609   8.231  1.00  0.00     0.059 A 
ATOM     72  C   UNL     1      -1.330  12.963   8.664  1.00  0.00     0.059 A 
ATOM     73  F   UNL     1      -2.760  12.474   6.872  1.00  0.00    -0.206 F 
ATOM     74  C   UNL     1      -0.063  13.319   9.123  1.00  0.00     0.060 A 
BRANCH  74  75
ATOM     75  S   UNL     1       0.278  13.414  10.893  1.00  0.00     0.124 S 
ATOM     76  O   UNL     1       1.125  12.240  11.088  1.00  0.00    -0.237 OA
ATOM     77  O   UNL     1       0.948  14.704  11.013  1.00  0.00    -0.237 OA
ATOM     78  O   UNL     1      -1.047  13.339  11.500  1.00  0.00    -0.744 OA
ENDBRANCH  74  75
ENDBRANCH  53  67
BRANCH  54  79
ATOM     79  C   UNL     1      -2.186  11.697  -3.426  1.00  0.00     0.058 A 
ATOM     80  C   UNL     1      -1.787  12.629  -4.396  1.00  0.00     0.135 A 
ATOM     81  C   UNL     1      -2.809  10.520  -3.870  1.00  0.00     0.135 A 
ATOM     82  F   UNL     1      -1.191  13.771  -4.023  1.00  0.00    -0.206 F 
ATOM     83  C   UNL     1      -2.004  12.408  -5.753  1.00  0.00     0.059 A 
ATOM     84  C   UNL     1      -3.013  10.264  -5.223  1.00  0.00     0.059 A 
ATOM     85  F   UNL     1      -3.192   9.586  -2.985  1.00  0.00    -0.206 F 
ATOM     86  C   UNL     1      -2.612  11.218  -6.157  1.00  0.00     0.060 A 
BRANCH  86  87
ATOM     87  S   UNL     1      -2.827  10.914  -7.924  1.00  0.00     0.124 S 
ATOM     88  O   UNL     1      -3.874  11.870  -8.263  1.00  0.00    -0.237 OA
ATOM     89  O   UNL     1      -1.497  11.210  -8.448  1.00  0.00    -0.237 OA
ATOM     90  O   UNL     1      -3.213   9.507  -7.978  1.00  0.00    -0.744 OA
ENDBRANCH  86  87
ENDBRANCH  54  79
BRANCH  66  91
ATOM     91  C   UNL     1      -4.566  16.289   1.273  1.00  0.00     0.058 A 
ATOM     92  C   UNL     1      -5.945  16.100   1.102  1.00  0.00     0.135 A 
ATOM     93  C   UNL     1      -4.095  17.605   1.414  1.00  0.00     0.135 A 
ATOM     94  F   UNL     1      -6.446  14.863   0.956  1.00  0.00    -0.206 F 
ATOM     95  C   UNL     1      -6.824  17.177   1.050  1.00  0.00     0.059 A 
ATOM     96  C   UNL     1      -4.959  18.695   1.398  1.00  0.00     0.059 A 
ATOM     97  F   UNL     1      -2.785  17.841   1.591  1.00  0.00    -0.206 F 
ATOM     98  C   UNL     1      -6.321  18.471   1.204  1.00  0.00     0.060 A 
BRANCH  98  99
ATOM     99  S   UNL     1      -7.477  19.856   1.172  1.00  0.00     0.124 S 
ATOM    100  O   UNL     1      -7.840  19.903  -0.240  1.00  0.00    -0.237 OA
ATOM    101  O   UNL     1      -8.526  19.407   2.082  1.00  0.00    -0.237 OA
ATOM    102  O   UNL     1      -6.677  20.979   1.652  1.00  0.00    -0.744 OA
ENDBRANCH  98  99
ENDBRANCH  66  91
ENDBRANCH  40  41
ENDBRANCH  32  35
ENDBRANCH  30  31
ENDBRANCH  29  30
ENDBRANCH  28  29
ENDBRANCH  27  28
ENDBRANCH   1  27
TORSDOF 21
