REMARK SMILES COc1ccc(C)cc1[C@@H](C)NC(=O)CC1(C(=O)NCCCCCCNC(=O)c2ccc(-c3c4nc(c(-c5c(F)cc(S(=O)(=O)[O-])cc5F)c5ccc([nH]5)c(-c5c(F)cc(S(=O)(=O)[O-])cc5F)c5nc(c(-c6c(F)cc(S(=O)(=O)[O-])cc6F)c6ccc3[nH]6)C=C5)C=C4)cc2)CCCC1
REMARK SMILES IDX 21 1 20 2 19 3 17 4 18 5 16 7 95 8 98 9 96 10 97 11 15 12
REMARK SMILES IDX 13 13 12 14 14 16 10 17 11 18 9 19 3 20 4 21 5 22 8 23 6 24
REMARK SMILES IDX 7 25 2 26 1 27 22 28 23 29 24 30 25 31 26 32 27 33 28 35
REMARK SMILES IDX 29 36 30 37 94 38 31 39 93 40 32 41 33 42 34 43 87 44 35 45
REMARK SMILES IDX 92 46 86 47 88 48 36 49 91 50 85 51 84 52 37 54 71 55 50 56
REMARK SMILES IDX 70 57 51 58 54 59 69 60 89 61 52 62 53 63 68 65 90 66 55 67
REMARK SMILES IDX 38 68 39 69 48 70 40 71 41 72 47 73 49 74 42 75 43 76 44 77
REMARK SMILES IDX 45 78 46 79 72 80 73 81 82 82 74 83 75 84 81 85 83 86 76 87
REMARK SMILES IDX 77 88 78 89 79 90 80 91 56 92 57 93 66 94 58 95 59 96 65 97
REMARK SMILES IDX 67 98 60 99 61 100 62 101 63 102 64 103
REMARK H PARENT 19 6 12 15 26 34 88 53 54 64
REMARK Flexibility Score: inf
ROOT
ATOM      1  C   UNL     1       3.140   2.129   3.946  1.00  0.00     0.021 C 
ENDROOT
BRANCH   1   2
ATOM      2  C   UNL     1       2.282   0.886   3.708  1.00  0.00     0.116 C 
BRANCH   2   3
ATOM      3  N   UNL     1       1.186   0.763   4.645  1.00  0.00    -0.356 N 
ATOM      4  C   UNL     1      -0.155   0.608   4.519  1.00  0.00     0.226 C 
ATOM      5  O   UNL     1      -0.761   0.510   5.594  1.00  0.00    -0.274 OA
ATOM      6  H   UNL     1       1.479   0.801   5.584  1.00  0.00     0.163 HD
BRANCH   4   7
ATOM      7  C   UNL     1      -0.962   0.712   3.198  1.00  0.00     0.058 C 
ATOM      8  C   UNL     1      -0.285   0.354   1.876  1.00  0.00     0.017 C 
ATOM      9  C   UNL     1      -1.323   2.206   2.999  1.00  0.00     0.017 C 
ATOM     10  C   UNL     1       0.070   1.640   1.131  1.00  0.00     0.001 C 
ATOM     11  C   UNL     1      -0.249   2.773   2.083  1.00  0.00     0.001 C 
BRANCH   7  12
ATOM     12  C   UNL     1      -2.274  -0.129   3.334  1.00  0.00     0.117 C 
BRANCH  12  13
ATOM     13  C   UNL     1      -2.142  -1.564   3.834  1.00  0.00     0.221 C 
ATOM     14  N   UNL     1      -1.828  -2.614   3.036  1.00  0.00    -0.349 N 
ATOM     15  H   UNL     1      -1.697  -3.447   3.544  1.00  0.00     0.164 HD
ATOM     16  O   UNL     1      -2.391  -1.851   5.010  1.00  0.00    -0.275 OA
BRANCH  14  17
ATOM     17  C   UNL     1      -1.637  -2.798   1.594  1.00  0.00     0.113 C 
ATOM     18  C   UNL     1      -2.712  -3.741   1.045  1.00  0.00     0.036 C 
BRANCH  17  19
ATOM     19  C   UNL     1      -0.239  -3.346   1.316  1.00  0.00     0.016 A 
ATOM     20  C   UNL     1       0.657  -2.716   0.429  1.00  0.00     0.124 A 
ATOM     21  C   UNL     1       1.976  -3.175   0.332  1.00  0.00     0.047 A 
ATOM     22  C   UNL     1       2.392  -4.310   1.031  1.00  0.00     0.007 A 
ATOM     23  C   UNL     1       0.191  -4.518   1.977  1.00  0.00     0.013 A 
ATOM     24  C   UNL     1       1.493  -5.011   1.831  1.00  0.00    -0.051 A 
ATOM     25  C   UNL     1       1.891  -6.295   2.493  1.00  0.00     0.044 C 
BRANCH  20  26
ATOM     26  O   UNL     1       0.158  -1.680  -0.318  1.00  0.00    -0.496 OA
ATOM     27  C   UNL     1       1.056  -1.010  -1.198  1.00  0.00     0.278 C 
ENDBRANCH  20  26
ENDBRANCH  17  19
ENDBRANCH  14  17
ENDBRANCH  12  13
ENDBRANCH   7  12
ENDBRANCH   4   7
ENDBRANCH   2   3
ENDBRANCH   1   2
BRANCH   1  28
ATOM     28  C   UNL     1       4.376   1.919   4.827  1.00  0.00     0.002 C 
BRANCH  28  29
ATOM     29  C   UNL     1       5.301   0.747   4.457  1.00  0.00     0.002 C 
BRANCH  29  30
ATOM     30  C   UNL     1       5.615   0.567   2.971  1.00  0.00     0.021 C 
BRANCH  30  31
ATOM     31  C   UNL     1       6.470   1.679   2.379  1.00  0.00     0.116 C 
BRANCH  31  32
ATOM     32  N   UNL     1       7.862   1.295   2.208  1.00  0.00    -0.352 N 
ATOM     33  C   UNL     1       8.812   1.955   1.445  1.00  0.00     0.251 C 
ATOM     34  H   UNL     1       8.160   0.485   2.683  1.00  0.00     0.163 HD
ATOM     35  O   UNL     1       9.820   1.428   1.015  1.00  0.00    -0.269 OA
BRANCH  33  36
ATOM     36  C   UNL     1       8.612   3.412   1.314  1.00  0.00     0.039 A 
ATOM     37  C   UNL     1       9.384   4.231   2.148  1.00  0.00     0.014 A 
ATOM     38  C   UNL     1       7.489   3.897   0.651  1.00  0.00     0.014 A 
ATOM     39  C   UNL     1       8.928   5.505   2.460  1.00  0.00     0.010 A 
ATOM     40  C   UNL     1       6.996   5.129   1.026  1.00  0.00     0.010 A 
ATOM     41  C   UNL     1       7.689   5.907   1.967  1.00  0.00    -0.014 A 
BRANCH  41  42
ATOM     42  C   UNL     1       7.004   7.118   2.398  1.00  0.00     0.031 A 
ATOM     43  C   UNL     1       6.990   8.291   1.501  1.00  0.00     0.074 A 
ATOM     44  C   UNL     1       6.298   7.110   3.548  1.00  0.00     0.049 A 
ATOM     45  N   UNL     1       6.615   9.476   1.837  1.00  0.00    -0.248 NA
ATOM     46  C   UNL     1       7.483   8.215   0.131  1.00  0.00     0.031 C 
ATOM     47  C   UNL     1       5.287   8.071   3.975  1.00  0.00     0.029 A 
ATOM     48  N   UNL     1       6.533   6.322   4.679  1.00  0.00    -0.354 N 
ATOM     49  C   UNL     1       6.555  10.246   0.694  1.00  0.00     0.074 A 
ATOM     50  C   UNL     1       7.190   9.437  -0.317  1.00  0.00     0.031 C 
ATOM     51  C   UNL     1       5.168   8.010   5.311  1.00  0.00     0.029 A 
ATOM     52  C   UNL     1       6.216   7.125   5.793  1.00  0.00     0.049 A 
ATOM     53  H   UNL     1       6.856   5.392   4.695  1.00  0.00     0.167 HD
ATOM     54  C   UNL     1       5.855  11.418   0.733  1.00  0.00     0.037 A 
ATOM     55  C   UNL     1       7.183   7.495   6.684  1.00  0.00     0.037 A 
ATOM     56  C   UNL     1       5.540  11.767   2.124  1.00  0.00     0.049 A 
ATOM     57  C   UNL     1       7.400   8.992   6.755  1.00  0.00     0.074 A 
ATOM     58  C   UNL     1       4.404  11.619   2.904  1.00  0.00     0.029 A 
ATOM     59  N   UNL     1       6.582  12.056   3.003  1.00  0.00    -0.354 N 
ATOM     60  N   UNL     1       7.030   9.833   5.826  1.00  0.00    -0.248 NA
ATOM     61  C   UNL     1       8.028   9.661   7.890  1.00  0.00     0.031 C 
ATOM     62  C   UNL     1       4.794  11.716   4.267  1.00  0.00     0.029 A 
ATOM     63  C   UNL     1       6.156  11.963   4.315  1.00  0.00     0.049 A 
ATOM     64  H   UNL     1       7.497  12.293   2.728  1.00  0.00     0.167 HD
ATOM     65  C   UNL     1       7.348  11.113   6.206  1.00  0.00     0.074 A 
ATOM     66  C   UNL     1       7.956  10.951   7.515  1.00  0.00     0.031 C 
ATOM     67  C   UNL     1       7.077  12.201   5.421  1.00  0.00     0.037 A 
BRANCH  54  68
ATOM     68  C   UNL     1       5.213  12.088  -0.480  1.00  0.00     0.058 A 
ATOM     69  C   UNL     1       4.108  12.957  -0.320  1.00  0.00     0.135 A 
ATOM     70  C   UNL     1       5.552  11.849  -1.829  1.00  0.00     0.135 A 
ATOM     71  F   UNL     1       3.701  13.353   0.895  1.00  0.00    -0.206 F 
ATOM     72  C   UNL     1       3.354  13.454  -1.392  1.00  0.00     0.059 A 
ATOM     73  C   UNL     1       4.795  12.300  -2.915  1.00  0.00     0.059 A 
ATOM     74  F   UNL     1       6.665  11.203  -2.181  1.00  0.00    -0.206 F 
ATOM     75  C   UNL     1       3.685  13.092  -2.689  1.00  0.00     0.060 A 
BRANCH  75  76
ATOM     76  S   UNL     1       2.678  13.674  -4.065  1.00  0.00     0.124 S 
ATOM     77  O   UNL     1       1.367  13.123  -3.739  1.00  0.00    -0.237 OA
ATOM     78  O   UNL     1       2.808  15.122  -3.950  1.00  0.00    -0.237 OA
ATOM     79  O   UNL     1       3.323  13.082  -5.235  1.00  0.00    -0.744 OA
ENDBRANCH  75  76
ENDBRANCH  54  68
BRANCH  55  80
ATOM     80  C   UNL     1       8.210   6.434   6.894  1.00  0.00     0.058 A 
ATOM     81  C   UNL     1       7.783   5.228   7.489  1.00  0.00     0.135 A 
ATOM     82  C   UNL     1       9.397   6.397   6.150  1.00  0.00     0.135 A 
ATOM     83  F   UNL     1       6.664   5.208   8.232  1.00  0.00    -0.206 F 
ATOM     84  C   UNL     1       8.399   4.011   7.211  1.00  0.00     0.059 A 
ATOM     85  C   UNL     1      10.042   5.187   5.872  1.00  0.00     0.059 A 
ATOM     86  F   UNL     1       9.863   7.511   5.565  1.00  0.00    -0.206 F 
ATOM     87  C   UNL     1       9.489   3.994   6.344  1.00  0.00     0.060 A 
BRANCH  87  88
ATOM     88  S   UNL     1      10.057   2.390   5.724  1.00  0.00     0.124 S 
ATOM     89  O   UNL     1      10.424   1.700   6.956  1.00  0.00    -0.237 OA
ATOM     90  O   UNL     1       8.864   1.881   5.049  1.00  0.00    -0.237 OA
ATOM     91  O   UNL     1      11.165   2.744   4.845  1.00  0.00    -0.744 OA
ENDBRANCH  87  88
ENDBRANCH  55  80
BRANCH  67  92
ATOM     92  C   UNL     1       7.566  13.616   5.660  1.00  0.00     0.058 A 
ATOM     93  C   UNL     1       8.761  13.938   6.327  1.00  0.00     0.135 A 
ATOM     94  C   UNL     1       6.886  14.715   5.077  1.00  0.00     0.135 A 
ATOM     95  F   UNL     1       9.563  12.986   6.823  1.00  0.00    -0.206 F 
ATOM     96  C   UNL     1       9.212  15.254   6.468  1.00  0.00     0.059 A 
ATOM     97  C   UNL     1       7.349  16.027   5.153  1.00  0.00     0.059 A 
ATOM     98  F   UNL     1       5.745  14.550   4.391  1.00  0.00    -0.206 F 
ATOM     99  C   UNL     1       8.501  16.293   5.876  1.00  0.00     0.060 A 
BRANCH  99 100
ATOM    100  S   UNL     1       9.116  17.983   5.985  1.00  0.00     0.124 S 
ATOM    101  O   UNL     1       8.448  18.458   7.193  1.00  0.00    -0.237 OA
ATOM    102  O   UNL     1      10.560  17.798   6.095  1.00  0.00    -0.237 OA
ATOM    103  O   UNL     1       8.664  18.583   4.734  1.00  0.00    -0.744 OA
ENDBRANCH  99 100
ENDBRANCH  67  92
ENDBRANCH  41  42
ENDBRANCH  33  36
ENDBRANCH  31  32
ENDBRANCH  30  31
ENDBRANCH  29  30
ENDBRANCH  28  29
ENDBRANCH   1  28
TORSDOF 21
