REMARK SMILES N#C/C(=C/c1cccc(OCC(=O)NCCCCCCNC(=O)c2ccc(-c3c4nc(c(-c5c(F)cc(S(=O)(=O)[O-])cc5F)c5ccc([nH]5)c(-c5c(F)cc(S(=O)(=O)[O-])cc5F)c5nc(c(-c6c(F)cc(S(=O)(=O)[O-])cc6F)c6ccc3[nH]6)C=C5)C=C4)cc2)c1)c1nc2ccccc2[nH]1
REMARK SMILES IDX 17 1 16 2 15 3 14 4 12 5 13 6 11 8 10 9 9 10 5 11 6 12 90 13
REMARK SMILES IDX 7 14 8 15 4 16 3 17 2 18 1 19 91 20 92 21 99 22 93 23 98 24
REMARK SMILES IDX 94 26 97 27 95 28 96 29 18 30 19 31 20 32 21 33 22 34 23 36
REMARK SMILES IDX 24 37 25 38 89 39 26 40 88 41 27 42 28 43 29 44 82 45 30 46
REMARK SMILES IDX 87 47 81 48 83 49 31 50 86 51 80 52 79 53 32 55 66 56 45 57
REMARK SMILES IDX 65 58 46 59 49 60 64 61 84 62 47 63 48 64 63 66 85 67 50 68
REMARK SMILES IDX 33 69 34 70 43 71 35 72 36 73 42 74 44 75 37 76 38 77 39 78
REMARK SMILES IDX 40 79 41 80 67 81 68 82 77 83 69 84 70 85 76 86 78 87 71 88
REMARK SMILES IDX 72 89 73 90 74 91 75 92 51 93 52 94 61 95 53 96 54 97 60 98
REMARK SMILES IDX 62 99 55 100 56 101 57 102 58 103 59 104
REMARK H PARENT 14 7 99 25 21 35 83 54 49 65
REMARK Flexibility Score: inf
ROOT
ATOM      1  C   UNL     1      10.008  -2.034   3.010  1.00  0.00     0.002 C 
ENDROOT
BRANCH   1   2
ATOM      2  C   UNL     1      10.446  -1.840   1.555  1.00  0.00     0.021 C 
BRANCH   2   3
ATOM      3  C   UNL     1      10.102  -2.971   0.587  1.00  0.00     0.116 C 
BRANCH   3   4
ATOM      4  N   UNL     1       8.678  -3.228   0.453  1.00  0.00    -0.353 N 
ATOM      5  C   UNL     1       7.902  -3.090  -0.665  1.00  0.00     0.257 C 
ATOM      6  O   UNL     1       6.761  -3.560  -0.688  1.00  0.00    -0.271 OA
ATOM      7  H   UNL     1       8.216  -3.540   1.265  1.00  0.00     0.163 HD
BRANCH   5   8
ATOM      8  C   UNL     1       8.472  -2.381  -1.898  1.00  0.00     0.329 C 
BRANCH   8   9
ATOM      9  O   UNL     1       8.982  -1.073  -1.697  1.00  0.00    -0.484 OA
BRANCH   9  10
ATOM     10  C   UNL     1       8.107  -0.085  -1.340  1.00  0.00     0.120 A 
ATOM     11  C   UNL     1       5.936   0.891  -0.834  1.00  0.00    -0.021 A 
ATOM     12  C   UNL     1       6.559   2.103  -0.519  1.00  0.00     0.008 A 
ATOM     13  C   UNL     1       6.716  -0.193  -1.269  1.00  0.00     0.054 A 
ATOM     14  C   UNL     1       7.944   2.224  -0.614  1.00  0.00     0.004 A 
ATOM     15  C   UNL     1       8.712   1.132  -1.019  1.00  0.00     0.046 A 
BRANCH  11  16
ATOM     16  C   UNL     1       4.472   0.782  -0.725  1.00  0.00     0.031 C 
ATOM     17  C   UNL     1       3.797  -0.071   0.068  1.00  0.00     0.095 C 
BRANCH  17  18
ATOM     18  C   UNL     1       2.277  -0.071   0.068  1.00  0.00     0.103 C 
ATOM     19  N   UNL     1       1.016  -0.071   0.068  1.00  0.00    -0.192 NA
ENDBRANCH  17  18
BRANCH  17  20
ATOM     20  C   UNL     1       4.441  -0.953   0.979  1.00  0.00     0.149 A 
ATOM     21  N   UNL     1       5.237  -0.709   2.002  1.00  0.00    -0.228 NA
ATOM     22  N   UNL     1       4.222  -2.308   0.852  1.00  0.00    -0.337 N 
ATOM     23  C   UNL     1       5.559  -1.936   2.529  1.00  0.00     0.089 A 
ATOM     24  C   UNL     1       4.941  -2.958   1.822  1.00  0.00     0.066 A 
ATOM     25  H   UNL     1       3.646  -2.737   0.179  1.00  0.00     0.168 HD
ATOM     26  C   UNL     1       6.387  -2.264   3.609  1.00  0.00     0.030 A 
ATOM     27  C   UNL     1       5.121  -4.313   2.108  1.00  0.00     0.028 A 
ATOM     28  C   UNL     1       6.605  -3.617   3.907  1.00  0.00     0.002 A 
ATOM     29  C   UNL     1       5.987  -4.622   3.162  1.00  0.00     0.002 A 
ENDBRANCH  17  20
ENDBRANCH  11  16
ENDBRANCH   9  10
ENDBRANCH   8   9
ENDBRANCH   5   8
ENDBRANCH   3   4
ENDBRANCH   2   3
ENDBRANCH   1   2
BRANCH   1  30
ATOM     30  C   UNL     1      10.305  -3.393   3.649  1.00  0.00     0.002 C 
BRANCH  30  31
ATOM     31  C   UNL     1      11.785  -3.710   3.854  1.00  0.00     0.021 C 
BRANCH  31  32
ATOM     32  C   UNL     1      12.510  -2.789   4.830  1.00  0.00     0.116 C 
BRANCH  32  33
ATOM     33  N   UNL     1      11.964  -2.817   6.182  1.00  0.00    -0.352 N 
ATOM     34  C   UNL     1      12.645  -2.680   7.372  1.00  0.00     0.251 C 
ATOM     35  H   UNL     1      10.992  -2.949   6.254  1.00  0.00     0.163 HD
ATOM     36  O   UNL     1      12.069  -2.803   8.447  1.00  0.00    -0.269 OA
BRANCH  34  37
ATOM     37  C   UNL     1      14.100  -2.429   7.322  1.00  0.00     0.039 A 
ATOM     38  C   UNL     1      14.965  -3.299   7.990  1.00  0.00     0.014 A 
ATOM     39  C   UNL     1      14.601  -1.397   6.525  1.00  0.00     0.014 A 
ATOM     40  C   UNL     1      16.341  -3.187   7.783  1.00  0.00     0.010 A 
ATOM     41  C   UNL     1      15.963  -1.340   6.259  1.00  0.00     0.010 A 
ATOM     42  C   UNL     1      16.846  -2.238   6.878  1.00  0.00    -0.014 A 
BRANCH  42  43
ATOM     43  C   UNL     1      18.294  -2.166   6.556  1.00  0.00     0.031 A 
ATOM     44  C   UNL     1      19.067  -0.916   6.876  1.00  0.00     0.074 A 
ATOM     45  C   UNL     1      18.886  -3.183   5.899  1.00  0.00     0.049 A 
ATOM     46  N   UNL     1      20.304  -0.612   6.584  1.00  0.00    -0.248 NA
ATOM     47  C   UNL     1      18.338   0.149   7.585  1.00  0.00     0.031 C 
ATOM     48  C   UNL     1      18.224  -4.418   5.472  1.00  0.00     0.029 A 
ATOM     49  N   UNL     1      20.178  -3.334   5.460  1.00  0.00    -0.354 N 
ATOM     50  C   UNL     1      20.494   0.683   7.050  1.00  0.00     0.074 A 
ATOM     51  C   UNL     1      19.229   1.129   7.591  1.00  0.00     0.031 C 
ATOM     52  C   UNL     1      19.118  -5.208   4.856  1.00  0.00     0.029 A 
ATOM     53  C   UNL     1      20.407  -4.526   4.813  1.00  0.00     0.049 A 
ATOM     54  H   UNL     1      20.875  -2.652   5.595  1.00  0.00     0.167 HD
ATOM     55  C   UNL     1      21.627   1.425   7.052  1.00  0.00     0.037 A 
ATOM     56  C   UNL     1      21.531  -5.012   4.250  1.00  0.00     0.037 A 
ATOM     57  C   UNL     1      22.892   0.958   6.553  1.00  0.00     0.049 A 
ATOM     58  C   UNL     1      22.789  -4.189   4.305  1.00  0.00     0.074 A 
ATOM     59  C   UNL     1      24.116   1.603   6.567  1.00  0.00     0.029 A 
ATOM     60  N   UNL     1      23.098  -0.278   5.956  1.00  0.00    -0.354 N 
ATOM     61  N   UNL     1      22.966  -2.988   4.804  1.00  0.00    -0.248 NA
ATOM     62  C   UNL     1      24.002  -4.786   3.728  1.00  0.00     0.031 C 
ATOM     63  C   UNL     1      25.057   0.767   5.955  1.00  0.00     0.029 A 
ATOM     64  C   UNL     1      24.426  -0.413   5.593  1.00  0.00     0.049 A 
ATOM     65  H   UNL     1      22.401  -0.958   5.812  1.00  0.00     0.167 HD
ATOM     66  C   UNL     1      24.314  -2.697   4.625  1.00  0.00     0.074 A 
ATOM     67  C   UNL     1      24.908  -3.851   3.981  1.00  0.00     0.031 C 
ATOM     68  C   UNL     1      24.998  -1.576   4.962  1.00  0.00     0.037 A 
BRANCH  55  69
ATOM     69  C   UNL     1      21.545   2.810   7.631  1.00  0.00     0.058 A 
ATOM     70  C   UNL     1      21.373   3.020   9.009  1.00  0.00     0.135 A 
ATOM     71  C   UNL     1      21.647   3.940   6.804  1.00  0.00     0.135 A 
ATOM     72  F   UNL     1      21.253   1.975   9.843  1.00  0.00    -0.206 F 
ATOM     73  C   UNL     1      21.267   4.300   9.542  1.00  0.00     0.059 A 
ATOM     74  C   UNL     1      21.571   5.231   7.320  1.00  0.00     0.059 A 
ATOM     75  F   UNL     1      21.811   3.797   5.480  1.00  0.00    -0.206 F 
ATOM     76  C   UNL     1      21.363   5.400   8.689  1.00  0.00     0.060 A 
BRANCH  76  77
ATOM     77  S   UNL     1      21.215   7.055   9.394  1.00  0.00     0.124 S 
ATOM     78  O   UNL     1      19.777   7.141   9.631  1.00  0.00    -0.237 OA
ATOM     79  O   UNL     1      22.049   6.963  10.588  1.00  0.00    -0.237 OA
ATOM     80  O   UNL     1      21.731   7.920   8.338  1.00  0.00    -0.744 OA
ENDBRANCH  76  77
ENDBRANCH  55  69
BRANCH  56  81
ATOM     81  C   UNL     1      21.526  -6.359   3.621  1.00  0.00     0.058 A 
ATOM     82  C   UNL     1      22.168  -7.443   4.239  1.00  0.00     0.135 A 
ATOM     83  C   UNL     1      20.869  -6.597   2.405  1.00  0.00     0.135 A 
ATOM     84  F   UNL     1      22.814  -7.265   5.401  1.00  0.00    -0.206 F 
ATOM     85  C   UNL     1      22.173  -8.711   3.667  1.00  0.00     0.059 A 
ATOM     86  C   UNL     1      20.841  -7.861   1.823  1.00  0.00     0.059 A 
ATOM     87  F   UNL     1      20.224  -5.597   1.782  1.00  0.00    -0.206 F 
ATOM     88  C   UNL     1      21.505  -8.911   2.458  1.00  0.00     0.060 A 
BRANCH  88  89
ATOM     89  S   UNL     1      21.471 -10.572   1.749  1.00  0.00     0.124 S 
ATOM     90  O   UNL     1      22.823 -10.692   1.218  1.00  0.00    -0.237 OA
ATOM     91  O   UNL     1      21.165 -11.398   2.913  1.00  0.00    -0.237 OA
ATOM     92  O   UNL     1      20.405 -10.488   0.754  1.00  0.00    -0.744 OA
ENDBRANCH  88  89
ENDBRANCH  56  81
BRANCH  68  93
ATOM     93  C   UNL     1      26.471  -1.553   4.671  1.00  0.00     0.058 A 
ATOM     94  C   UNL     1      26.960  -1.381   3.368  1.00  0.00     0.135 A 
ATOM     95  C   UNL     1      27.403  -1.645   5.718  1.00  0.00     0.135 A 
ATOM     96  F   UNL     1      26.109  -1.294   2.333  1.00  0.00    -0.206 F 
ATOM     97  C   UNL     1      28.325  -1.317   3.109  1.00  0.00     0.059 A 
ATOM     98  C   UNL     1      28.771  -1.560   5.485  1.00  0.00     0.059 A 
ATOM     99  F   UNL     1      26.984  -1.801   6.984  1.00  0.00    -0.206 F 
ATOM    100  C   UNL     1      29.223  -1.406   4.175  1.00  0.00     0.060 A 
BRANCH 100 101
ATOM    101  S   UNL     1      30.991  -1.280   3.831  1.00  0.00     0.124 S 
ATOM    102  O   UNL     1      31.276  -2.600   3.278  1.00  0.00    -0.237 OA
ATOM    103  O   UNL     1      31.049  -0.170   2.885  1.00  0.00    -0.237 OA
ATOM    104  O   UNL     1      31.572  -1.008   5.143  1.00  0.00    -0.744 OA
ENDBRANCH 100 101
ENDBRANCH  68  93
ENDBRANCH  42  43
ENDBRANCH  34  37
ENDBRANCH  32  33
ENDBRANCH  31  32
ENDBRANCH  30  31
ENDBRANCH   1  30
TORSDOF 21
