REMARK SMILES CCN(C)S(=O)(=O)N1CC[C@H](Cc2ccc(C(=O)NCCCCCCNC(=O)c3ccc(-c4c5nc(c(-c6c(F)cc(S(=O)(=O)[O-])cc6F)c6ccc([nH]6)c(-c6c(F)cc(S(=O)(=O)[O-])cc6F)c6nc(c(-c7c(F)cc(S(=O)(=O)[O-])cc7F)c7ccc4[nH]7)C=C6)C=C5)cc3)cc2)C1
REMARK SMILES IDX 21 1 20 2 19 3 17 4 18 5 16 7 13 8 14 9 96 10 15 11 95 12
REMARK SMILES IDX 12 13 11 14 8 15 9 16 97 17 10 18 5 19 6 20 7 21 3 22 4 23
REMARK SMILES IDX 2 24 1 25 22 26 23 27 24 28 25 29 26 30 27 31 28 33 29 34
REMARK SMILES IDX 30 35 94 36 31 37 93 38 32 39 33 40 34 41 87 42 35 43 92 44
REMARK SMILES IDX 86 45 88 46 36 47 91 48 85 49 84 50 37 52 71 53 50 54 70 55
REMARK SMILES IDX 51 56 54 57 69 58 89 59 52 60 53 61 68 63 90 64 55 65 38 66
REMARK SMILES IDX 39 67 48 68 40 69 41 70 47 71 49 72 42 73 43 74 44 75 45 76
REMARK SMILES IDX 46 77 72 78 73 79 82 80 74 81 75 82 81 83 83 84 76 85 77 86
REMARK SMILES IDX 78 87 79 88 80 89 56 90 57 91 66 92 58 93 59 94 65 95 67 96
REMARK SMILES IDX 60 97 61 98 62 99 63 100 64 101
REMARK H PARENT 19 6 26 32 88 51 54 62
REMARK Flexibility Score: inf
ROOT
ATOM      1  C   UNL     1       3.551  13.104   0.620  1.00  0.00     0.021 C 
ENDROOT
BRANCH   1   2
ATOM      2  C   UNL     1       2.746  12.293   1.637  1.00  0.00     0.116 C 
BRANCH   2   3
ATOM      3  N   UNL     1       1.352  12.268   1.240  1.00  0.00    -0.352 N 
ATOM      4  C   UNL     1       0.589  11.313   0.623  1.00  0.00     0.251 C 
ATOM      5  O   UNL     1      -0.583  11.593   0.368  1.00  0.00    -0.269 OA
ATOM      6  H   UNL     1       0.861  13.094   1.455  1.00  0.00     0.163 HD
BRANCH   4   7
ATOM      7  C   UNL     1       1.089   9.943   0.330  1.00  0.00     0.039 A 
ATOM      8  C   UNL     1       1.869   7.257  -0.027  1.00  0.00    -0.048 A 
ATOM      9  C   UNL     1       0.525   7.582   0.187  1.00  0.00     0.004 A 
ATOM     10  C   UNL     1       2.807   8.290  -0.128  1.00  0.00     0.004 A 
ATOM     11  C   UNL     1       0.141   8.911   0.369  1.00  0.00     0.014 A 
ATOM     12  C   UNL     1       2.412   9.624   0.015  1.00  0.00     0.014 A 
BRANCH   8  13
ATOM     13  C   UNL     1       2.288   5.820  -0.185  1.00  0.00     0.040 C 
BRANCH  13  14
ATOM     14  C   UNL     1       3.142   5.276   0.968  1.00  0.00     0.010 C 
ATOM     15  N   UNL     1       3.422   3.139   2.011  1.00  0.00    -0.189 NA
ATOM     16  C   UNL     1       3.135   4.112   3.062  1.00  0.00     0.104 C 
ATOM     17  C   UNL     1       3.511   3.808   0.706  1.00  0.00     0.107 C 
ATOM     18  C   UNL     1       2.427   5.238   2.319  1.00  0.00     0.022 C 
BRANCH  15  19
ATOM     19  S   UNL     1       2.994   1.535   2.092  1.00  0.00     0.281 S 
ATOM     20  O   UNL     1       3.170   1.063   3.443  1.00  0.00    -0.195 OA
ATOM     21  O   UNL     1       3.646   0.876   0.980  1.00  0.00    -0.195 OA
BRANCH  19  22
ATOM     22  N   UNL     1       1.305   1.564   1.768  1.00  0.00    -0.192 NA
ATOM     23  C   UNL     1       0.485   2.087   2.895  1.00  0.00     0.125 C 
BRANCH  22  24
ATOM     24  C   UNL     1       0.755   0.231   1.346  1.00  0.00     0.100 C 
ATOM     25  C   UNL     1       0.989  -0.060  -0.125  1.00  0.00     0.022 C 
ENDBRANCH  22  24
ENDBRANCH  19  22
ENDBRANCH  15  19
ENDBRANCH  13  14
ENDBRANCH   8  13
ENDBRANCH   4   7
ENDBRANCH   2   3
ENDBRANCH   1   2
BRANCH   1  26
ATOM     26  C   UNL     1       3.387  14.618   0.806  1.00  0.00     0.002 C 
BRANCH  26  27
ATOM     27  C   UNL     1       3.886  15.147   2.156  1.00  0.00     0.002 C 
BRANCH  27  28
ATOM     28  C   UNL     1       5.342  14.800   2.476  1.00  0.00     0.021 C 
BRANCH  28  29
ATOM     29  C   UNL     1       6.345  15.376   1.482  1.00  0.00     0.116 C 
BRANCH  29  30
ATOM     30  N   UNL     1       6.332  16.830   1.502  1.00  0.00    -0.352 N 
ATOM     31  C   UNL     1       7.357  17.699   1.780  1.00  0.00     0.251 C 
ATOM     32  H   UNL     1       5.468  17.250   1.287  1.00  0.00     0.163 HD
ATOM     33  O   UNL     1       7.116  18.878   2.020  1.00  0.00    -0.269 OA
BRANCH  31  34
ATOM     34  C   UNL     1       8.748  17.202   1.793  1.00  0.00     0.039 A 
ATOM     35  C   UNL     1       9.607  17.612   2.814  1.00  0.00     0.014 A 
ATOM     36  C   UNL     1       9.203  16.338   0.792  1.00  0.00     0.014 A 
ATOM     37  C   UNL     1      10.911  17.114   2.858  1.00  0.00     0.010 A 
ATOM     38  C   UNL     1      10.475  15.782   0.883  1.00  0.00     0.010 A 
ATOM     39  C   UNL     1      11.345  16.170   1.912  1.00  0.00    -0.014 A 
BRANCH  39  40
ATOM     40  C   UNL     1      12.707  15.580   1.984  1.00  0.00     0.031 A 
ATOM     41  C   UNL     1      13.687  15.806   0.863  1.00  0.00     0.074 A 
ATOM     42  C   UNL     1      13.036  14.795   3.029  1.00  0.00     0.049 A 
ATOM     43  N   UNL     1      14.893  15.323   0.715  1.00  0.00    -0.248 NA
ATOM     44  C   UNL     1      13.248  16.666  -0.249  1.00  0.00     0.031 C 
ATOM     45  C   UNL     1      12.153  14.464   4.151  1.00  0.00     0.029 A 
ATOM     46  N   UNL     1      14.197  14.121   3.316  1.00  0.00    -0.354 N 
ATOM     47  C   UNL     1      15.349  15.805  -0.507  1.00  0.00     0.074 A 
ATOM     48  C   UNL     1      14.274  16.581  -1.084  1.00  0.00     0.031 C 
ATOM     49  C   UNL     1      12.811  13.671   5.012  1.00  0.00     0.029 A 
ATOM     50  C   UNL     1      14.143  13.397   4.485  1.00  0.00     0.049 A 
ATOM     51  H   UNL     1      14.995  14.154   2.740  1.00  0.00     0.167 HD
ATOM     52  C   UNL     1      16.561  15.632  -1.084  1.00  0.00     0.037 A 
ATOM     53  C   UNL     1      15.059  12.591   5.059  1.00  0.00     0.037 A 
ATOM     54  C   UNL     1      17.637  14.887  -0.484  1.00  0.00     0.049 A 
ATOM     55  C   UNL     1      16.397  12.415   4.389  1.00  0.00     0.074 A 
ATOM     56  C   UNL     1      18.928  14.716  -0.956  1.00  0.00     0.029 A 
ATOM     57  N   UNL     1      17.552  14.187   0.709  1.00  0.00    -0.354 N 
ATOM     58  N   UNL     1      16.837  12.946   3.273  1.00  0.00    -0.248 NA
ATOM     59  C   UNL     1      17.366  11.537   5.058  1.00  0.00     0.031 C 
ATOM     60  C   UNL     1      19.604  13.864  -0.079  1.00  0.00     0.029 A 
ATOM     61  C   UNL     1      18.757  13.558   0.974  1.00  0.00     0.049 A 
ATOM     62  H   UNL     1      16.754  14.143   1.284  1.00  0.00     0.167 HD
ATOM     63  C   UNL     1      18.145  12.495   3.128  1.00  0.00     0.074 A 
ATOM     64  C   UNL     1      18.429  11.662   4.276  1.00  0.00     0.031 C 
ATOM     65  C   UNL     1      19.032  12.748   2.134  1.00  0.00     0.037 A 
BRANCH  52  66
ATOM     66  C   UNL     1      16.808  16.257  -2.429  1.00  0.00     0.058 A 
ATOM     67  C   UNL     1      16.955  17.645  -2.584  1.00  0.00     0.135 A 
ATOM     68  C   UNL     1      16.998  15.449  -3.562  1.00  0.00     0.135 A 
ATOM     69  F   UNL     1      16.765  18.466  -1.540  1.00  0.00    -0.206 F 
ATOM     70  C   UNL     1      17.280  18.208  -3.814  1.00  0.00     0.059 A 
ATOM     71  C   UNL     1      17.352  15.988  -4.795  1.00  0.00     0.059 A 
ATOM     72  F   UNL     1      16.864  14.116  -3.471  1.00  0.00    -0.206 F 
ATOM     73  C   UNL     1      17.489  17.370  -4.911  1.00  0.00     0.060 A 
BRANCH  73  74
ATOM     74  S   UNL     1      17.971  18.116  -6.483  1.00  0.00     0.124 S 
ATOM     75  O   UNL     1      16.739  18.795  -6.874  1.00  0.00    -0.237 OA
ATOM     76  O   UNL     1      19.075  18.984  -6.088  1.00  0.00    -0.237 OA
ATOM     77  O   UNL     1      18.341  16.968  -7.305  1.00  0.00    -0.744 OA
ENDBRANCH  73  74
ENDBRANCH  52  66
BRANCH  53  78
ATOM     78  C   UNL     1      14.751  11.883   6.332  1.00  0.00     0.058 A 
ATOM     79  C   UNL     1      15.445  12.180   7.515  1.00  0.00     0.135 A 
ATOM     80  C   UNL     1      13.784  10.866   6.384  1.00  0.00     0.135 A 
ATOM     81  F   UNL     1      16.381  13.142   7.520  1.00  0.00    -0.206 F 
ATOM     82  C   UNL     1      15.226  11.467   8.690  1.00  0.00     0.059 A 
ATOM     83  C   UNL     1      13.523  10.162   7.555  1.00  0.00     0.059 A 
ATOM     84  F   UNL     1      13.075  10.554   5.288  1.00  0.00    -0.206 F 
ATOM     85  C   UNL     1      14.266  10.454   8.697  1.00  0.00     0.060 A 
BRANCH  85  86
ATOM     86  S   UNL     1      13.991   9.531  10.224  1.00  0.00     0.124 S 
ATOM     87  O   UNL     1      15.197   8.715  10.294  1.00  0.00    -0.237 OA
ATOM     88  O   UNL     1      13.883  10.600  11.213  1.00  0.00    -0.237 OA
ATOM     89  O   UNL     1      12.752   8.806   9.958  1.00  0.00    -0.744 OA
ENDBRANCH  85  86
ENDBRANCH  53  78
BRANCH  65  90
ATOM     90  C   UNL     1      20.411  12.162   2.265  1.00  0.00     0.058 A 
ATOM     91  C   UNL     1      20.652  10.787   2.124  1.00  0.00     0.135 A 
ATOM     92  C   UNL     1      21.517  13.002   2.480  1.00  0.00     0.135 A 
ATOM     93  F   UNL     1      19.630   9.939   1.923  1.00  0.00    -0.206 F 
ATOM     94  C   UNL     1      21.936  10.261   2.219  1.00  0.00     0.059 A 
ATOM     95  C   UNL     1      22.813  12.502   2.544  1.00  0.00     0.059 A 
ATOM     96  F   UNL     1      21.346  14.327   2.610  1.00  0.00    -0.206 F 
ATOM     97  C   UNL     1      23.011  11.128   2.425  1.00  0.00     0.060 A 
BRANCH  97  98
ATOM     98  S   UNL     1      24.675  10.435   2.511  1.00  0.00     0.124 S 
ATOM     99  O   UNL     1      24.649   9.766   3.808  1.00  0.00    -0.237 OA
ATOM    100  O   UNL     1      24.707   9.557   1.345  1.00  0.00    -0.237 OA
ATOM    101  O   UNL     1      25.538  11.609   2.428  1.00  0.00    -0.744 OA
ENDBRANCH  97  98
ENDBRANCH  65  90
ENDBRANCH  39  40
ENDBRANCH  31  34
ENDBRANCH  29  30
ENDBRANCH  28  29
ENDBRANCH  27  28
ENDBRANCH  26  27
ENDBRANCH   1  26
TORSDOF 21
