REMARK SMILES Cc1ccc(C)c(N2C(=O)S[C@H](CC(=O)Nc3ccc(C(=O)NCCCCCCNC(=O)c4ccc(-c5c6nc(c(-c7c(F)cc(S(=O)(=O)[O-])cc7F)c7ccc([nH]7)c(-c7c(F)cc(S(=O)(=O)[O-])cc7F)c7nc(c(-c8c(F)cc(S(=O)(=O)[O-])cc8F)c8ccc5[nH]8)C=C7)C=C6)cc4)c(O)c3)C2=O)c1
REMARK SMILES IDX 26 1 25 2 24 3 23 4 21 5 22 6 20 8 17 9 18 10 101 11 19 12
REMARK SMILES IDX 99 13 16 14 14 15 15 16 13 18 12 19 8 20 9 21 102 22 10 23
REMARK SMILES IDX 11 24 103 25 7 26 1 27 2 28 3 29 104 30 4 31 5 32 6 33
REMARK SMILES IDX 100 34 27 36 28 37 29 38 30 39 31 40 32 42 33 43 34 44 98 45
REMARK SMILES IDX 35 46 97 47 36 48 37 49 38 50 91 51 39 52 96 53 90 54 92 55
REMARK SMILES IDX 40 56 95 57 89 58 88 59 41 61 75 62 54 63 74 64 55 65 58 66
REMARK SMILES IDX 73 67 93 68 56 69 57 70 72 72 94 73 59 74 42 75 43 76 52 77
REMARK SMILES IDX 44 78 45 79 51 80 53 81 46 82 47 83 48 84 49 85 50 86 76 87
REMARK SMILES IDX 77 88 86 89 78 90 79 91 85 92 87 93 80 94 81 95 82 96 83 97
REMARK SMILES IDX 84 98 60 99 61 100 70 101 62 102 63 103 69 104 71 105 64 106
REMARK SMILES IDX 65 107 66 108 67 109 68 110
REMARK H PARENT 23 7 16 17 100 35 30 41 92 60 58 71
REMARK Flexibility Score: inf
ROOT
ATOM      1  C   UNL     1       4.934   7.056  -4.342  1.00  0.00     0.002 C 
ENDROOT
BRANCH   1   2
ATOM      2  C   UNL     1       4.271   7.219  -2.969  1.00  0.00     0.021 C 
BRANCH   2   3
ATOM      3  C   UNL     1       2.758   7.346  -2.905  1.00  0.00     0.116 C 
BRANCH   3   4
ATOM      4  N   UNL     1       2.018   6.344  -3.634  1.00  0.00    -0.352 N 
ATOM      5  C   UNL     1       0.676   6.057  -3.641  1.00  0.00     0.255 C 
ATOM      6  O   UNL     1       0.281   5.249  -4.484  1.00  0.00    -0.269 OA
ATOM      7  H   UNL     1       2.564   5.775  -4.223  1.00  0.00     0.163 HD
BRANCH   5   8
ATOM      8  C   UNL     1      -0.293   6.588  -2.632  1.00  0.00     0.081 A 
ATOM      9  C   UNL     1      -1.998   7.077  -0.435  1.00  0.00     0.044 A 
ATOM     10  C   UNL     1      -2.247   6.043  -1.324  1.00  0.00     0.027 A 
ATOM     11  C   UNL     1      -1.054   8.026  -0.798  1.00  0.00     0.073 A 
ATOM     12  C   UNL     1      -1.375   5.749  -2.366  1.00  0.00     0.020 A 
ATOM     13  C   UNL     1      -0.254   7.801  -1.932  1.00  0.00     0.130 A 
BRANCH   9  14
ATOM     14  N   UNL     1      -2.760   7.193   0.738  1.00  0.00    -0.326 N 
ATOM     15  C   UNL     1      -3.305   6.152   1.470  1.00  0.00     0.226 C 
ATOM     16  O   UNL     1      -4.359   6.315   2.084  1.00  0.00    -0.275 OA
ATOM     17  H   UNL     1      -2.922   8.104   1.073  1.00  0.00     0.169 HD
BRANCH  15  18
ATOM     18  C   UNL     1      -2.476   4.874   1.618  1.00  0.00     0.125 C 
BRANCH  18  19
ATOM     19  C   UNL     1      -3.250   3.566   1.460  1.00  0.00     0.156 C 
ATOM     20  N   UNL     1      -1.713   2.012   0.474  1.00  0.00    -0.240 N 
ATOM     21  C   UNL     1      -2.328   2.463  -0.662  1.00  0.00     0.293 C 
ATOM     22  C   UNL     1      -2.332   2.365   1.667  1.00  0.00     0.248 C 
ATOM     23  O   UNL     1      -1.997   2.308  -1.834  1.00  0.00    -0.261 OA
ATOM     24  S   UNL     1      -3.837   3.264  -0.241  1.00  0.00    -0.050 SA
ATOM     25  O   UNL     1      -2.264   1.754   2.727  1.00  0.00    -0.273 OA
BRANCH  20  26
ATOM     26  C   UNL     1      -0.873   0.875   0.384  1.00  0.00     0.056 A 
ATOM     27  C   UNL     1       2.863   0.092   0.115  1.00  0.00     0.044 C 
ATOM     28  C   UNL     1       1.370  -0.059   0.172  1.00  0.00    -0.049 A 
ATOM     29  C   UNL     1       0.812  -1.336   0.057  1.00  0.00     0.004 A 
ATOM     30  C   UNL     1       0.521   1.046   0.350  1.00  0.00     0.030 A 
ATOM     31  C   UNL     1      -0.570  -1.510   0.090  1.00  0.00     0.006 A 
ATOM     32  C   UNL     1      -1.430  -0.412   0.235  1.00  0.00    -0.027 A 
ATOM     33  C   UNL     1      -2.909  -0.687   0.239  1.00  0.00     0.046 C 
ENDBRANCH  20  26
ENDBRANCH  18  19
ENDBRANCH  15  18
ENDBRANCH   9  14
BRANCH  13  34
ATOM     34  O   UNL     1       0.460   8.888  -2.356  1.00  0.00    -0.507 OA
ATOM     35  H   UNL     1       1.017   8.819  -3.106  1.00  0.00     0.293 HD
ENDBRANCH  13  34
ENDBRANCH   5   8
ENDBRANCH   3   4
ENDBRANCH   2   3
ENDBRANCH   1   2
BRANCH   1  36
ATOM     36  C   UNL     1       4.403   7.796  -5.578  1.00  0.00     0.002 C 
BRANCH  36  37
ATOM     37  C   UNL     1       4.178   9.312  -5.583  1.00  0.00     0.021 C 
BRANCH  37  38
ATOM     38  C   UNL     1       5.286  10.211  -5.053  1.00  0.00     0.116 C 
BRANCH  38  39
ATOM     39  N   UNL     1       6.596  10.008  -5.686  1.00  0.00    -0.352 N 
ATOM     40  C   UNL     1       7.898  10.124  -5.214  1.00  0.00     0.251 C 
ATOM     41  H   UNL     1       6.541   9.737  -6.630  1.00  0.00     0.163 HD
ATOM     42  O   UNL     1       8.824  10.186  -6.019  1.00  0.00    -0.269 OA
BRANCH  40  43
ATOM     43  C   UNL     1       8.194  10.156  -3.764  1.00  0.00     0.039 A 
ATOM     44  C   UNL     1       9.476  10.206  -3.214  1.00  0.00     0.014 A 
ATOM     45  C   UNL     1       7.145   9.926  -2.905  1.00  0.00     0.014 A 
ATOM     46  C   UNL     1       9.630   9.896  -1.852  1.00  0.00     0.010 A 
ATOM     47  C   UNL     1       7.276  10.120  -1.574  1.00  0.00     0.010 A 
ATOM     48  C   UNL     1       8.491   9.760  -1.057  1.00  0.00    -0.014 A 
BRANCH  48  49
ATOM     49  C   UNL     1       8.455   9.391   0.342  1.00  0.00     0.031 A 
ATOM     50  C   UNL     1       8.770  10.504   1.253  1.00  0.00     0.074 A 
ATOM     51  C   UNL     1       7.813   8.291   0.794  1.00  0.00     0.049 A 
ATOM     52  N   UNL     1       9.900  10.752   1.822  1.00  0.00    -0.248 NA
ATOM     53  C   UNL     1       7.787  11.595   1.365  1.00  0.00     0.031 C 
ATOM     54  C   UNL     1       7.015   7.312   0.044  1.00  0.00     0.029 A 
ATOM     55  N   UNL     1       7.664   7.875   2.080  1.00  0.00    -0.354 N 
ATOM     56  C   UNL     1       9.666  11.893   2.577  1.00  0.00     0.074 A 
ATOM     57  C   UNL     1       8.514  12.519   1.992  1.00  0.00     0.031 C 
ATOM     58  C   UNL     1       6.330   6.529   0.911  1.00  0.00     0.029 A 
ATOM     59  C   UNL     1       6.734   6.861   2.268  1.00  0.00     0.049 A 
ATOM     60  H   UNL     1       8.178   8.265   2.824  1.00  0.00     0.167 HD
ATOM     61  C   UNL     1      10.208  12.045   3.817  1.00  0.00     0.037 A 
ATOM     62  C   UNL     1       6.303   6.382   3.465  1.00  0.00     0.037 A 
ATOM     63  C   UNL     1      11.215  11.035   4.063  1.00  0.00     0.049 A 
ATOM     64  C   UNL     1       7.313   6.785   4.484  1.00  0.00     0.074 A 
ATOM     65  C   UNL     1      12.361  10.624   3.408  1.00  0.00     0.029 A 
ATOM     66  N   UNL     1      10.882  10.004   4.913  1.00  0.00    -0.354 N 
ATOM     67  N   UNL     1       8.540   6.340   4.516  1.00  0.00    -0.248 NA
ATOM     68  C   UNL     1       7.087   8.022   5.218  1.00  0.00     0.031 C 
ATOM     69  C   UNL     1      12.386   9.204   3.551  1.00  0.00     0.029 A 
ATOM     70  C   UNL     1      11.294   8.829   4.335  1.00  0.00     0.049 A 
ATOM     71  H   UNL     1      10.428  10.094   5.782  1.00  0.00     0.167 HD
ATOM     72  C   UNL     1       9.309   7.432   4.897  1.00  0.00     0.074 A 
ATOM     73  C   UNL     1       8.352   8.400   5.423  1.00  0.00     0.031 C 
ATOM     74  C   UNL     1      10.605   7.562   4.484  1.00  0.00     0.037 A 
BRANCH  61  75
ATOM     75  C   UNL     1       9.569  12.833   4.943  1.00  0.00     0.058 A 
ATOM     76  C   UNL     1      10.318  13.048   6.117  1.00  0.00     0.135 A 
ATOM     77  C   UNL     1       8.197  13.166   5.035  1.00  0.00     0.135 A 
ATOM     78  F   UNL     1      11.633  12.779   6.147  1.00  0.00    -0.206 F 
ATOM     79  C   UNL     1       9.733  13.462   7.313  1.00  0.00     0.059 A 
ATOM     80  C   UNL     1       7.607  13.643   6.198  1.00  0.00     0.059 A 
ATOM     81  F   UNL     1       7.324  12.957   4.045  1.00  0.00    -0.206 F 
ATOM     82  C   UNL     1       8.370  13.735   7.346  1.00  0.00     0.060 A 
BRANCH  82  83
ATOM     83  S   UNL     1       7.579  14.129   8.912  1.00  0.00     0.124 S 
ATOM     84  O   UNL     1       7.636  12.840   9.591  1.00  0.00    -0.237 OA
ATOM     85  O   UNL     1       8.453  15.172   9.438  1.00  0.00    -0.237 OA
ATOM     86  O   UNL     1       6.248  14.576   8.511  1.00  0.00    -0.744 OA
ENDBRANCH  82  83
ENDBRANCH  61  75
BRANCH  62  87
ATOM     87  C   UNL     1       4.956   5.871   3.836  1.00  0.00     0.058 A 
ATOM     88  C   UNL     1       4.737   5.202   5.056  1.00  0.00     0.135 A 
ATOM     89  C   UNL     1       3.800   6.273   3.137  1.00  0.00     0.135 A 
ATOM     90  F   UNL     1       5.778   4.795   5.798  1.00  0.00    -0.206 F 
ATOM     91  C   UNL     1       3.453   4.995   5.577  1.00  0.00     0.059 A 
ATOM     92  C   UNL     1       2.513   6.068   3.629  1.00  0.00     0.059 A 
ATOM     93  F   UNL     1       3.886   6.964   1.991  1.00  0.00    -0.206 F 
ATOM     94  C   UNL     1       2.347   5.456   4.864  1.00  0.00     0.060 A 
BRANCH  94  95
ATOM     95  S   UNL     1       0.698   5.348   5.598  1.00  0.00     0.124 S 
ATOM     96  O   UNL     1       0.509   3.906   5.700  1.00  0.00    -0.237 OA
ATOM     97  O   UNL     1       0.877   6.064   6.855  1.00  0.00    -0.237 OA
ATOM     98  O   UNL     1      -0.152   6.016   4.612  1.00  0.00    -0.744 OA
ENDBRANCH  94  95
ENDBRANCH  62  87
BRANCH  74  99
ATOM     99  C   UNL     1      11.297   6.344   3.921  1.00  0.00     0.058 A 
ATOM    100  C   UNL     1      10.916   5.681   2.741  1.00  0.00     0.135 A 
ATOM    101  C   UNL     1      12.487   5.920   4.534  1.00  0.00     0.135 A 
ATOM    102  F   UNL     1       9.852   6.086   2.034  1.00  0.00    -0.206 F 
ATOM    103  C   UNL     1      11.659   4.621   2.218  1.00  0.00     0.059 A 
ATOM    104  C   UNL     1      13.261   4.886   4.013  1.00  0.00     0.059 A 
ATOM    105  F   UNL     1      12.939   6.549   5.632  1.00  0.00    -0.206 F 
ATOM    106  C   UNL     1      12.834   4.232   2.860  1.00  0.00     0.060 A 
BRANCH 106 107
ATOM    107  S   UNL     1      13.838   2.918   2.134  1.00  0.00     0.124 S 
ATOM    108  O   UNL     1      13.040   1.730   2.417  1.00  0.00    -0.237 OA
ATOM    109  O   UNL     1      13.911   3.313   0.730  1.00  0.00    -0.237 OA
ATOM    110  O   UNL     1      15.101   3.011   2.863  1.00  0.00    -0.744 OA
ENDBRANCH 106 107
ENDBRANCH  74  99
ENDBRANCH  48  49
ENDBRANCH  40  43
ENDBRANCH  38  39
ENDBRANCH  37  38
ENDBRANCH  36  37
ENDBRANCH   1  36
TORSDOF 21
