REMARK SMILES O=C(NCCCCCCNC(=O)c1ccc(C[NH2+]Cc2cc(F)ccc2F)nc1)c1ccc(-c2c3nc(c(-c4c(F)cc(S(=O)(=O)[O-])cc4F)c4ccc([nH]4)c(-c4c(F)cc(S(=O)(=O)[O-])cc4F)c4nc(c(-c5c(F)cc(S(=O)(=O)[O-])cc5F)c5ccc2[nH]5)C=C4)C=C3)cc1
REMARK SMILES IDX 7 1 6 2 5 3 4 4 3 5 1 6 2 7 30 9 31 10 95 11 32 12 94 13
REMARK SMILES IDX 33 14 34 15 35 16 88 17 36 18 93 19 87 20 89 21 37 22 92 23
REMARK SMILES IDX 86 24 85 25 38 27 72 28 51 29 71 30 52 31 55 32 70 33 90 34
REMARK SMILES IDX 53 35 54 36 69 38 91 39 56 40 39 41 40 42 49 43 41 44 42 45
REMARK SMILES IDX 48 46 50 47 43 48 44 49 45 50 46 51 47 52 73 53 74 54 83 55
REMARK SMILES IDX 75 56 76 57 82 58 84 59 77 60 78 61 79 62 80 63 81 64 57 65
REMARK SMILES IDX 58 66 67 67 59 68 60 69 66 70 68 71 61 72 62 73 63 74 64 75
REMARK SMILES IDX 65 76 8 77 9 78 10 79 11 80 12 82 13 83 14 84 29 85 15 86
REMARK SMILES IDX 28 87 16 88 17 89 18 90 19 93 20 94 21 95 26 96 22 97 25 98
REMARK SMILES IDX 27 99 23 100 24 101
REMARK H PARENT 3 8 89 26 55 37 10 81 18 91 18 92
REMARK Flexibility Score: inf
ROOT
ATOM      1  C   UNL     1       4.865   3.318   2.877  1.00  0.00     0.002 C 
ENDROOT
BRANCH   1   2
ATOM      2  C   UNL     1       4.316   3.626   1.481  1.00  0.00     0.002 C 
BRANCH   2   3
ATOM      3  C   UNL     1       4.801   2.695   0.369  1.00  0.00     0.021 C 
BRANCH   3   4
ATOM      4  C   UNL     1       4.538   1.216   0.617  1.00  0.00     0.116 C 
BRANCH   4   5
ATOM      5  N   UNL     1       3.119   0.909   0.652  1.00  0.00    -0.352 N 
ATOM      6  O   UNL     1       1.203  -0.044  -0.058  1.00  0.00    -0.269 OA
ATOM      7  C   UNL     1       2.431  -0.039  -0.062  1.00  0.00     0.251 C 
ATOM      8  H   UNL     1       2.579   1.454   1.270  1.00  0.00     0.163 HD
BRANCH   7   9
ATOM      9  C   UNL     1       3.180  -1.046  -0.846  1.00  0.00     0.039 A 
ATOM     10  C   UNL     1       4.278  -1.705  -0.285  1.00  0.00     0.014 A 
ATOM     11  C   UNL     1       2.762  -1.351  -2.144  1.00  0.00     0.014 A 
ATOM     12  C   UNL     1       5.016  -2.598  -1.053  1.00  0.00     0.010 A 
ATOM     13  C   UNL     1       3.458  -2.308  -2.888  1.00  0.00     0.010 A 
ATOM     14  C   UNL     1       4.592  -2.935  -2.349  1.00  0.00    -0.014 A 
BRANCH  14  15
ATOM     15  C   UNL     1       5.260  -4.052  -3.061  1.00  0.00     0.031 A 
ATOM     16  C   UNL     1       6.036  -3.827  -4.326  1.00  0.00     0.074 A 
ATOM     17  C   UNL     1       5.136  -5.291  -2.542  1.00  0.00     0.049 A 
ATOM     18  N   UNL     1       6.650  -4.706  -5.075  1.00  0.00    -0.248 NA
ATOM     19  C   UNL     1       6.133  -2.445  -4.822  1.00  0.00     0.031 C 
ATOM     20  C   UNL     1       4.376  -5.622  -1.330  1.00  0.00     0.029 A 
ATOM     21  N   UNL     1       5.633  -6.498  -2.957  1.00  0.00    -0.354 N 
ATOM     22  C   UNL     1       7.189  -3.994  -6.139  1.00  0.00     0.074 A 
ATOM     23  C   UNL     1       6.822  -2.607  -5.946  1.00  0.00     0.031 C 
ATOM     24  C   UNL     1       4.474  -6.937  -1.092  1.00  0.00     0.029 A 
ATOM     25  C   UNL     1       5.245  -7.553  -2.164  1.00  0.00     0.049 A 
ATOM     26  H   UNL     1       6.212  -6.601  -3.747  1.00  0.00     0.167 HD
ATOM     27  C   UNL     1       7.920  -4.464  -7.178  1.00  0.00     0.037 A 
ATOM     28  C   UNL     1       5.452  -8.875  -2.303  1.00  0.00     0.037 A 
ATOM     29  C   UNL     1       8.295  -5.847  -7.340  1.00  0.00     0.049 A 
ATOM     30  C   UNL     1       6.246  -9.363  -3.479  1.00  0.00     0.074 A 
ATOM     31  C   UNL     1       9.108  -6.407  -8.311  1.00  0.00     0.029 A 
ATOM     32  N   UNL     1       7.871  -6.888  -6.528  1.00  0.00    -0.354 N 
ATOM     33  N   UNL     1       6.817  -8.665  -4.431  1.00  0.00    -0.248 NA
ATOM     34  C   UNL     1       6.417 -10.816  -3.609  1.00  0.00     0.031 C 
ATOM     35  C   UNL     1       9.129  -7.792  -8.120  1.00  0.00     0.029 A 
ATOM     36  C   UNL     1       8.369  -8.091  -7.002  1.00  0.00     0.049 A 
ATOM     37  H   UNL     1       7.300  -6.787  -5.732  1.00  0.00     0.167 HD
ATOM     38  C   UNL     1       7.417  -9.593  -5.272  1.00  0.00     0.074 A 
ATOM     39  C   UNL     1       7.167 -10.900  -4.699  1.00  0.00     0.031 C 
ATOM     40  C   UNL     1       8.103  -9.383  -6.421  1.00  0.00     0.037 A 
BRANCH  27  41
ATOM     41  C   UNL     1       8.368  -3.498  -8.239  1.00  0.00     0.058 A 
ATOM     42  C   UNL     1       9.428  -2.604  -8.024  1.00  0.00     0.135 A 
ATOM     43  C   UNL     1       7.809  -3.553  -9.526  1.00  0.00     0.135 A 
ATOM     44  F   UNL     1       9.990  -2.500  -6.809  1.00  0.00    -0.206 F 
ATOM     45  C   UNL     1       9.921  -1.802  -9.050  1.00  0.00     0.059 A 
ATOM     46  C   UNL     1       8.298  -2.775 -10.572  1.00  0.00     0.059 A 
ATOM     47  F   UNL     1       6.791  -4.390  -9.784  1.00  0.00    -0.206 F 
ATOM     48  C   UNL     1       9.355  -1.902 -10.323  1.00  0.00     0.060 A 
BRANCH  48  49
ATOM     49  S   UNL     1      10.047  -0.896 -11.654  1.00  0.00     0.124 S 
ATOM     50  O   UNL     1       9.594   0.439 -11.277  1.00  0.00    -0.237 OA
ATOM     51  O   UNL     1      11.479  -1.140 -11.517  1.00  0.00    -0.237 OA
ATOM     52  O   UNL     1       9.431  -1.450 -12.856  1.00  0.00    -0.744 OA
ENDBRANCH  48  49
ENDBRANCH  27  41
BRANCH  28  53
ATOM     53  C   UNL     1       4.851  -9.828  -1.333  1.00  0.00     0.058 A 
ATOM     54  C   UNL     1       5.651 -10.582  -0.463  1.00  0.00     0.135 A 
ATOM     55  C   UNL     1       3.460 -10.006  -1.265  1.00  0.00     0.135 A 
ATOM     56  F   UNL     1       6.985 -10.447  -0.492  1.00  0.00    -0.206 F 
ATOM     57  C   UNL     1       5.095 -11.502   0.420  1.00  0.00     0.059 A 
ATOM     58  C   UNL     1       2.879 -10.896  -0.369  1.00  0.00     0.059 A 
ATOM     59  F   UNL     1       2.649  -9.293  -2.062  1.00  0.00    -0.206 F 
ATOM     60  C   UNL     1       3.708 -11.654   0.456  1.00  0.00     0.060 A 
BRANCH  60  61
ATOM     61  S   UNL     1       2.992 -12.842   1.613  1.00  0.00     0.124 S 
ATOM     62  O   UNL     1       3.276 -14.106   0.944  1.00  0.00    -0.237 OA
ATOM     63  O   UNL     1       3.749 -12.579   2.833  1.00  0.00    -0.237 OA
ATOM     64  O   UNL     1       1.586 -12.454   1.662  1.00  0.00    -0.744 OA
ENDBRANCH  60  61
ENDBRANCH  28  53
BRANCH  40  65
ATOM     65  C   UNL     1       8.631 -10.595  -7.133  1.00  0.00     0.058 A 
ATOM     66  C   UNL     1       7.776 -11.458  -7.836  1.00  0.00     0.135 A 
ATOM     67  C   UNL     1      10.007 -10.874  -7.149  1.00  0.00     0.135 A 
ATOM     68  F   UNL     1       6.451 -11.241  -7.839  1.00  0.00    -0.206 F 
ATOM     69  C   UNL     1       8.265 -12.566  -8.518  1.00  0.00     0.059 A 
ATOM     70  C   UNL     1      10.521 -11.961  -7.847  1.00  0.00     0.059 A 
ATOM     71  F   UNL     1      10.867 -10.076  -6.496  1.00  0.00    -0.206 F 
ATOM     72  C   UNL     1       9.640 -12.808  -8.520  1.00  0.00     0.060 A 
BRANCH  72  73
ATOM     73  S   UNL     1      10.266 -14.226  -9.444  1.00  0.00     0.124 S 
ATOM     74  O   UNL     1       9.868 -15.336  -8.584  1.00  0.00    -0.237 OA
ATOM     75  O   UNL     1       9.549 -14.116 -10.710  1.00  0.00    -0.237 OA
ATOM     76  O   UNL     1      11.702 -13.975  -9.520  1.00  0.00    -0.744 OA
ENDBRANCH  72  73
ENDBRANCH  40  65
ENDBRANCH  14  15
ENDBRANCH   7   9
ENDBRANCH   4   5
ENDBRANCH   3   4
ENDBRANCH   2   3
ENDBRANCH   1   2
BRANCH   1  77
ATOM     77  C   UNL     1       6.391   3.230   2.979  1.00  0.00     0.021 C 
BRANCH  77  78
ATOM     78  C   UNL     1       7.143   4.449   2.451  1.00  0.00     0.116 C 
BRANCH  78  79
ATOM     79  N   UNL     1       6.804   5.655   3.190  1.00  0.00    -0.352 N 
ATOM     80  C   UNL     1       7.632   6.499   3.884  1.00  0.00     0.252 C 
ATOM     81  H   UNL     1       5.851   5.899   3.191  1.00  0.00     0.163 HD
ATOM     82  O   UNL     1       7.174   7.369   4.616  1.00  0.00    -0.269 OA
BRANCH  80  83
ATOM     83  C   UNL     1       9.085   6.347   3.753  1.00  0.00     0.058 A 
ATOM     84  C   UNL     1       9.720   6.380   2.513  1.00  0.00     0.017 A 
ATOM     85  C   UNL     1       9.851   6.168   4.892  1.00  0.00     0.125 A 
ATOM     86  C   UNL     1      11.094   6.174   2.457  1.00  0.00     0.030 A 
ATOM     87  N   UNL     1      11.187   5.951   4.862  1.00  0.00    -0.255 NA
ATOM     88  C   UNL     1      11.792   5.943   3.645  1.00  0.00     0.094 A 
BRANCH  88  89
ATOM     89  C   UNL     1      13.284   5.676   3.600  1.00  0.00     0.318 C 
BRANCH  89  90
ATOM     90  N   UNL     1      14.074   6.877   3.880  1.00  0.00    -0.337 N 
ATOM     91  H   UNL     1      13.906   7.158   4.846  1.00  0.00     0.346 HD
ATOM     92  H   UNL     1      13.783   7.595   3.217  1.00  0.00     0.346 HD
BRANCH  90  93
ATOM     93  C   UNL     1      15.508   6.673   3.698  1.00  0.00     0.300 C 
BRANCH  93  94
ATOM     94  C   UNL     1      15.912   6.575   2.250  1.00  0.00     0.045 A 
ATOM     95  C   UNL     1      16.081   5.328   1.631  1.00  0.00     0.051 A 
ATOM     96  C   UNL     1      16.070   7.731   1.475  1.00  0.00     0.132 A 
ATOM     97  C   UNL     1      16.377   5.261   0.272  1.00  0.00     0.123 A 
ATOM     98  C   UNL     1      16.375   7.659   0.117  1.00  0.00     0.043 A 
ATOM     99  F   UNL     1      15.908   8.937   2.036  1.00  0.00    -0.206 F 
ATOM    100  F   UNL     1      16.508   4.063  -0.311  1.00  0.00    -0.207 F 
ATOM    101  C   UNL     1      16.524   6.414  -0.490  1.00  0.00     0.042 A 
ENDBRANCH  93  94
ENDBRANCH  90  93
ENDBRANCH  89  90
ENDBRANCH  88  89
ENDBRANCH  80  83
ENDBRANCH  78  79
ENDBRANCH  77  78
ENDBRANCH   1  77
TORSDOF 20
