REMARK SMILES O=C(NCc1ccc(C(=O)NCCCCCCNC(=O)c2ccc(-c3c4nc(c(-c5c(F)cc(S(=O)(=O)[O-])cc5F)c5ccc([nH]5)c(-c5c(F)cc(S(=O)(=O)[O-])cc5F)c5nc(c(-c6c(F)cc(S(=O)(=O)[O-])cc6F)c6ccc3[nH]6)C=C5)C=C4)cc2)cc1)Nc1ccccc1Br
REMARK SMILES IDX 14 1 13 2 12 3 11 4 9 5 10 6 8 8 5 9 6 10 88 11 7 12 87 13
REMARK SMILES IDX 4 14 3 15 1 16 2 17 89 18 90 21 91 22 95 23 92 24 94 25
REMARK SMILES IDX 96 26 93 27 15 28 16 29 17 30 18 31 19 32 20 34 21 35 22 36
REMARK SMILES IDX 86 37 23 38 85 39 24 40 25 41 26 42 79 43 27 44 84 45 78 46
REMARK SMILES IDX 80 47 28 48 83 49 77 50 76 51 29 53 63 54 42 55 62 56 43 57
REMARK SMILES IDX 46 58 61 59 81 60 44 61 45 62 60 64 82 65 47 66 30 67 31 68
REMARK SMILES IDX 40 69 32 70 33 71 39 72 41 73 34 74 35 75 36 76 37 77 38 78
REMARK SMILES IDX 64 79 65 80 74 81 66 82 67 83 73 84 75 85 68 86 69 87 70 88
REMARK SMILES IDX 71 89 72 90 48 91 49 92 58 93 50 94 51 95 57 96 59 97 52 98
REMARK SMILES IDX 53 99 54 100 55 101 56 102
REMARK H PARENT 11 7 3 19 89 20 18 33 80 52 46 63
REMARK Flexibility Score: inf
ROOT
ATOM      1  C   UNL     1       8.736   3.050  -8.198  1.00  0.00     0.002 C 
ENDROOT
BRANCH   1   2
ATOM      2  C   UNL     1       8.048   3.019  -6.827  1.00  0.00     0.021 C 
BRANCH   2   3
ATOM      3  C   UNL     1       6.652   2.392  -6.864  1.00  0.00     0.116 C 
BRANCH   3   4
ATOM      4  N   UNL     1       6.760   0.946  -6.916  1.00  0.00    -0.352 N 
ATOM      5  C   UNL     1       6.561  -0.024  -5.970  1.00  0.00     0.251 C 
ATOM      6  O   UNL     1       6.721  -1.198  -6.304  1.00  0.00    -0.269 OA
ATOM      7  H   UNL     1       7.027   0.597  -7.797  1.00  0.00     0.163 HD
BRANCH   5   8
ATOM      8  C   UNL     1       6.104   0.276  -4.586  1.00  0.00     0.039 A 
ATOM      9  C   UNL     1       5.094   0.711  -1.986  1.00  0.00    -0.029 A 
ATOM     10  C   UNL     1       4.783  -0.464  -2.681  1.00  0.00     0.006 A 
ATOM     11  C   UNL     1       5.953   1.641  -2.584  1.00  0.00     0.006 A 
ATOM     12  C   UNL     1       5.280  -0.676  -3.970  1.00  0.00     0.014 A 
ATOM     13  C   UNL     1       6.475   1.412  -3.862  1.00  0.00     0.014 A 
BRANCH   9  14
ATOM     14  C   UNL     1       4.565   0.945  -0.596  1.00  0.00     0.153 C 
BRANCH  14  15
ATOM     15  N   UNL     1       3.117   0.937  -0.561  1.00  0.00    -0.334 N 
ATOM     16  O   UNL     1       1.048   0.284  -0.072  1.00  0.00    -0.248 OA
ATOM     17  C   UNL     1       2.251   0.097   0.070  1.00  0.00     0.319 C 
ATOM     18  N   UNL     1       2.820  -0.861   0.860  1.00  0.00    -0.307 N 
ATOM     19  H   UNL     1       2.690   1.657  -1.077  1.00  0.00     0.165 HD
ATOM     20  H   UNL     1       3.779  -0.755   1.057  1.00  0.00     0.171 HD
BRANCH  18  21
ATOM     21  C   UNL     1       2.180  -1.987   1.425  1.00  0.00     0.057 A 
ATOM     22  C   UNL     1       2.680  -2.388   2.677  1.00  0.00     0.027 A 
ATOM     23  C   UNL     1       1.149  -2.745   0.845  1.00  0.00     0.041 A 
ATOM     24  C   UNL     1       2.121  -3.463   3.371  1.00  0.00     0.002 A 
ATOM     25  C   UNL     1       0.581  -3.815   1.556  1.00  0.00     0.018 A 
ATOM     26  Br  UNL     1       0.590  -2.593  -0.969  1.00  0.00    -0.049 Br
ATOM     27  C   UNL     1       1.058  -4.166   2.818  1.00  0.00     0.001 A 
ENDBRANCH  18  21
ENDBRANCH  14  15
ENDBRANCH   9  14
ENDBRANCH   5   8
ENDBRANCH   3   4
ENDBRANCH   2   3
ENDBRANCH   1   2
BRANCH   1  28
ATOM     28  C   UNL     1       8.035   3.921  -9.249  1.00  0.00     0.002 C 
BRANCH  28  29
ATOM     29  C   UNL     1       7.807   5.377  -8.834  1.00  0.00     0.021 C 
BRANCH  29  30
ATOM     30  C   UNL     1       9.085   6.156  -8.543  1.00  0.00     0.116 C 
BRANCH  30  31
ATOM     31  N   UNL     1       9.904   6.307  -9.735  1.00  0.00    -0.352 N 
ATOM     32  C   UNL     1      10.417   7.451 -10.293  1.00  0.00     0.251 C 
ATOM     33  H   UNL     1      10.121   5.472 -10.208  1.00  0.00     0.163 HD
ATOM     34  O   UNL     1      10.888   7.423 -11.425  1.00  0.00    -0.269 OA
BRANCH  32  35
ATOM     35  C   UNL     1      10.391   8.717  -9.529  1.00  0.00     0.039 A 
ATOM     36  C   UNL     1      10.017   9.895 -10.181  1.00  0.00     0.014 A 
ATOM     37  C   UNL     1      10.757   8.745  -8.180  1.00  0.00     0.014 A 
ATOM     38  C   UNL     1       9.968  11.094  -9.467  1.00  0.00     0.010 A 
ATOM     39  C   UNL     1      10.642   9.927  -7.454  1.00  0.00     0.010 A 
ATOM     40  C   UNL     1      10.258  11.116  -8.092  1.00  0.00    -0.014 A 
BRANCH  40  41
ATOM     41  C   UNL     1      10.181  12.376  -7.310  1.00  0.00     0.031 A 
ATOM     42  C   UNL     1      11.425  12.955  -6.691  1.00  0.00     0.074 A 
ATOM     43  C   UNL     1       8.986  12.963  -7.107  1.00  0.00     0.049 A 
ATOM     44  N   UNL     1      11.553  14.004  -5.921  1.00  0.00    -0.248 NA
ATOM     45  C   UNL     1      12.688  12.244  -6.949  1.00  0.00     0.031 C 
ATOM     46  C   UNL     1       7.704  12.469  -7.615  1.00  0.00     0.029 A 
ATOM     47  N   UNL     1       8.651  14.097  -6.412  1.00  0.00    -0.354 N 
ATOM     48  C   UNL     1      12.901  14.071  -5.591  1.00  0.00     0.074 A 
ATOM     49  C   UNL     1      13.542  12.927  -6.200  1.00  0.00     0.031 C 
ATOM     50  C   UNL     1       6.726  13.306  -7.232  1.00  0.00     0.029 A 
ATOM     51  C   UNL     1       7.304  14.375  -6.424  1.00  0.00     0.049 A 
ATOM     52  H   UNL     1       9.313  14.660  -5.948  1.00  0.00     0.167 HD
ATOM     53  C   UNL     1      13.550  15.014  -4.866  1.00  0.00     0.037 A 
ATOM     54  C   UNL     1       6.613  15.376  -5.845  1.00  0.00     0.037 A 
ATOM     55  C   UNL     1      12.910  16.166  -4.288  1.00  0.00     0.049 A 
ATOM     56  C   UNL     1       7.357  16.418  -5.054  1.00  0.00     0.074 A 
ATOM     57  C   UNL     1      13.486  17.210  -3.586  1.00  0.00     0.029 A 
ATOM     58  N   UNL     1      11.548  16.429  -4.348  1.00  0.00    -0.354 N 
ATOM     59  N   UNL     1       8.642  16.498  -4.802  1.00  0.00    -0.248 NA
ATOM     60  C   UNL     1       6.561  17.509  -4.476  1.00  0.00     0.031 C 
ATOM     61  C   UNL     1      12.469  18.083  -3.187  1.00  0.00     0.029 A 
ATOM     62  C   UNL     1      11.264  17.609  -3.680  1.00  0.00     0.049 A 
ATOM     63  H   UNL     1      10.883  15.860  -4.797  1.00  0.00     0.167 HD
ATOM     64  C   UNL     1       8.812  17.663  -4.062  1.00  0.00     0.074 A 
ATOM     65  C   UNL     1       7.500  18.259  -3.915  1.00  0.00     0.031 C 
ATOM     66  C   UNL     1       9.952  18.192  -3.552  1.00  0.00     0.037 A 
BRANCH  53  67
ATOM     67  C   UNL     1      15.031  14.840  -4.662  1.00  0.00     0.058 A 
ATOM     68  C   UNL     1      15.944  14.998  -5.718  1.00  0.00     0.135 A 
ATOM     69  C   UNL     1      15.548  14.544  -3.391  1.00  0.00     0.135 A 
ATOM     70  F   UNL     1      15.504  15.267  -6.958  1.00  0.00    -0.206 F 
ATOM     71  C   UNL     1      17.312  14.837  -5.528  1.00  0.00     0.059 A 
ATOM     72  C   UNL     1      16.916  14.407  -3.171  1.00  0.00     0.059 A 
ATOM     73  F   UNL     1      14.722  14.383  -2.345  1.00  0.00    -0.206 F 
ATOM     74  C   UNL     1      17.789  14.540  -4.250  1.00  0.00     0.060 A 
BRANCH  74  75
ATOM     75  S   UNL     1      19.567  14.335  -4.019  1.00  0.00     0.124 S 
ATOM     76  O   UNL     1      19.793  13.034  -4.642  1.00  0.00    -0.237 OA
ATOM     77  O   UNL     1      20.111  15.483  -4.738  1.00  0.00    -0.237 OA
ATOM     78  O   UNL     1      19.729  14.372  -2.569  1.00  0.00    -0.744 OA
ENDBRANCH  74  75
ENDBRANCH  53  67
BRANCH  54  79
ATOM     79  C   UNL     1       5.138  15.455  -6.016  1.00  0.00     0.058 A 
ATOM     80  C   UNL     1       4.557  16.451  -6.814  1.00  0.00     0.135 A 
ATOM     81  C   UNL     1       4.282  14.528  -5.401  1.00  0.00     0.135 A 
ATOM     82  F   UNL     1       5.334  17.363  -7.419  1.00  0.00    -0.206 F 
ATOM     83  C   UNL     1       3.179  16.537  -6.985  1.00  0.00     0.059 A 
ATOM     84  C   UNL     1       2.903  14.579  -5.577  1.00  0.00     0.059 A 
ATOM     85  F   UNL     1       4.789  13.544  -4.642  1.00  0.00    -0.206 F 
ATOM     86  C   UNL     1       2.360  15.594  -6.363  1.00  0.00     0.060 A 
BRANCH  86  87
ATOM     87  S   UNL     1       0.576  15.685  -6.631  1.00  0.00     0.124 S 
ATOM     88  O   UNL     1       0.216  16.837  -5.813  1.00  0.00    -0.237 OA
ATOM     89  O   UNL     1       0.492  15.875  -8.075  1.00  0.00    -0.237 OA
ATOM     90  O   UNL     1       0.100  14.392  -6.148  1.00  0.00    -0.744 OA
ENDBRANCH  86  87
ENDBRANCH  54  79
BRANCH  66  91
ATOM     91  C   UNL     1       9.840  19.500  -2.819  1.00  0.00     0.058 A 
ATOM     92  C   UNL     1       9.277  19.581  -1.536  1.00  0.00     0.135 A 
ATOM     93  C   UNL     1      10.355  20.677  -3.387  1.00  0.00     0.135 A 
ATOM     94  F   UNL     1       8.765  18.486  -0.952  1.00  0.00    -0.206 F 
ATOM     95  C   UNL     1       9.208  20.789  -0.850  1.00  0.00     0.059 A 
ATOM     96  C   UNL     1      10.322  21.890  -2.707  1.00  0.00     0.059 A 
ATOM     97  F   UNL     1      10.914  20.651  -4.607  1.00  0.00    -0.206 F 
ATOM     98  C   UNL     1       9.736  21.938  -1.443  1.00  0.00     0.060 A 
BRANCH  98  99
ATOM     99  S   UNL     1       9.675  23.492  -0.526  1.00  0.00     0.124 S 
ATOM    100  O   UNL     1       8.265  23.848  -0.645  1.00  0.00    -0.237 OA
ATOM    101  O   UNL     1      10.116  23.087   0.806  1.00  0.00    -0.237 OA
ATOM    102  O   UNL     1      10.605  24.352  -1.252  1.00  0.00    -0.744 OA
ENDBRANCH  98  99
ENDBRANCH  66  91
ENDBRANCH  40  41
ENDBRANCH  32  35
ENDBRANCH  30  31
ENDBRANCH  29  30
ENDBRANCH  28  29
ENDBRANCH   1  28
TORSDOF 19
