REMARK SMILES C[N@@H+]1CC[N@H+](Cc2ccc(C#CC(C)(C)O)s2)C[C@H]1C(=O)NCCCCCCNC(=O)c1ccc(-c2c3nc(c(-c4c(F)cc(S(=O)(=O)[O-])cc4F)c4ccc([nH]4)c(-c4c(F)cc(S(=O)(=O)[O-])cc4F)c4nc(c(-c5c(F)cc(S(=O)(=O)[O-])cc5F)c5ccc2[nH]5)C=C4)C=C3)cc1
REMARK SMILES IDX 24 1 23 2 22 3 20 4 21 5 19 7 1 8 2 9 3 10 4 12 18 13 5 14
REMARK SMILES IDX 6 16 7 17 8 18 17 19 9 20 10 21 11 22 12 23 13 24 14 25
REMARK SMILES IDX 15 26 16 27 25 29 26 30 27 31 28 32 29 33 30 34 31 36 32 37
REMARK SMILES IDX 33 38 97 39 34 40 96 41 35 42 36 43 37 44 90 45 38 46 95 47
REMARK SMILES IDX 89 48 91 49 39 50 94 51 88 52 87 53 40 55 74 56 53 57 73 58
REMARK SMILES IDX 54 59 57 60 72 61 92 62 55 63 56 64 71 66 93 67 58 68 41 69
REMARK SMILES IDX 42 70 51 71 43 72 44 73 50 74 52 75 45 76 46 77 47 78 48 79
REMARK SMILES IDX 49 80 75 81 76 82 85 83 77 84 78 85 84 86 86 87 79 88 80 89
REMARK SMILES IDX 81 90 82 91 83 92 59 93 60 94 69 95 61 96 62 97 68 98 70 99
REMARK SMILES IDX 63 100 64 101 65 102 66 103 67 104
REMARK H PARENT 22 6 2 11 5 15 16 28 29 35 91 54 57 65
REMARK Flexibility Score: inf
ROOT
ATOM      1  C   UNL     1       1.737  -1.504  -3.665  1.00  0.00     0.021 C 
ENDROOT
BRANCH   1   2
ATOM      2  C   UNL     1       0.528  -1.841  -2.801  1.00  0.00     0.116 C 
BRANCH   2   3
ATOM      3  N   UNL     1       0.881  -2.743  -1.722  1.00  0.00    -0.351 N 
ATOM      4  C   UNL     1       0.902  -2.491  -0.381  1.00  0.00     0.284 C 
ATOM      5  O   UNL     1       1.269  -3.397   0.374  1.00  0.00    -0.268 OA
ATOM      6  H   UNL     1       1.137  -3.654  -1.991  1.00  0.00     0.163 HD
BRANCH   4   7
ATOM      7  C   UNL     1       0.407  -1.141   0.164  1.00  0.00     0.329 C 
ATOM      8  C   UNL     1       2.515   0.056  -0.089  1.00  0.00     0.333 C 
ATOM      9  N   UNL     1       1.105  -0.002  -0.491  1.00  0.00    -0.318 N 
ATOM     10  C   UNL     1       0.441   1.278  -0.201  1.00  0.00     0.325 C 
ATOM     11  H   UNL     1       1.060  -0.161  -1.498  1.00  0.00     0.348 HD
ATOM     12  C   UNL     1      -1.104   1.264  -0.325  1.00  0.00     0.324 C 
ATOM     13  C   UNL     1      -1.146  -1.133   0.040  1.00  0.00     0.339 C 
ATOM     14  N   UNL     1      -1.828   0.145   0.296  1.00  0.00    -0.320 N 
ATOM     15  H   UNL     1      -2.729   0.103  -0.180  1.00  0.00     0.348 HD
BRANCH  14  16
ATOM     16  C   UNL     1      -2.267   0.350   1.683  1.00  0.00     0.310 C 
BRANCH  16  17
ATOM     17  C   UNL     1      -1.166   0.342   2.694  1.00  0.00     0.060 A 
ATOM     18  C   UNL     1      -0.324   1.370   3.069  1.00  0.00     0.022 A 
ATOM     19  S   UNL     1      -0.796  -1.093   3.561  1.00  0.00    -0.126 S 
ATOM     20  C   UNL     1       0.823   0.879   3.756  1.00  0.00     0.029 A 
ATOM     21  C   UNL     1       0.736  -0.475   3.986  1.00  0.00     0.077 A 
BRANCH  21  22
ATOM     22  C   UNL     1       1.729  -1.265   4.614  1.00  0.00    -0.053 C 
ATOM     23  C   UNL     1       2.456  -1.930   5.468  1.00  0.00    -0.063 C 
BRANCH  23  24
ATOM     24  C   UNL     1       3.304  -2.705   6.463  1.00  0.00     0.120 C 
ATOM     25  C   UNL     1       2.564  -2.813   7.795  1.00  0.00     0.056 C 
ATOM     26  C   UNL     1       3.630  -4.085   5.898  1.00  0.00     0.056 C 
BRANCH  24  27
ATOM     27  O   UNL     1       4.514  -1.985   6.672  1.00  0.00    -0.378 OA
ATOM     28  H   UNL     1       4.311  -1.107   7.031  1.00  0.00     0.212 HD
ENDBRANCH  24  27
ENDBRANCH  23  24
ENDBRANCH  21  22
ENDBRANCH  16  17
ENDBRANCH  14  16
ENDBRANCH   4   7
ENDBRANCH   2   3
ENDBRANCH   1   2
BRANCH   1  29
ATOM     29  C   UNL     1       2.305  -2.708  -4.419  1.00  0.00     0.002 C 
BRANCH  29  30
ATOM     30  C   UNL     1       1.272  -3.543  -5.191  1.00  0.00     0.002 C 
BRANCH  30  31
ATOM     31  C   UNL     1       0.351  -2.762  -6.140  1.00  0.00     0.021 C 
BRANCH  31  32
ATOM     32  C   UNL     1       1.097  -2.058  -7.259  1.00  0.00     0.116 C 
BRANCH  32  33
ATOM     33  N   UNL     1       1.721  -3.006  -8.177  1.00  0.00    -0.352 N 
ATOM     34  C   UNL     1       2.422  -2.730  -9.328  1.00  0.00     0.251 C 
ATOM     35  H   UNL     1       1.629  -3.958  -7.944  1.00  0.00     0.163 HD
ATOM     36  O   UNL     1       2.577  -3.598 -10.188  1.00  0.00    -0.269 OA
BRANCH  34  37
ATOM     37  C   UNL     1       2.982  -1.383  -9.513  1.00  0.00     0.039 A 
ATOM     38  C   UNL     1       2.934  -0.745 -10.755  1.00  0.00     0.014 A 
ATOM     39  C   UNL     1       3.549  -0.750  -8.407  1.00  0.00     0.014 A 
ATOM     40  C   UNL     1       3.397   0.563 -10.857  1.00  0.00     0.010 A 
ATOM     41  C   UNL     1       3.871   0.582  -8.475  1.00  0.00     0.010 A 
ATOM     42  C   UNL     1       3.849   1.228  -9.706  1.00  0.00    -0.014 A 
BRANCH  42  43
ATOM     43  C   UNL     1       4.163   2.655  -9.740  1.00  0.00     0.031 A 
ATOM     44  C   UNL     1       3.026   3.498 -10.208  1.00  0.00     0.074 A 
ATOM     45  C   UNL     1       5.276   3.164  -9.164  1.00  0.00     0.049 A 
ATOM     46  N   UNL     1       2.930   4.160 -11.312  1.00  0.00    -0.248 NA
ATOM     47  C   UNL     1       1.765   3.449  -9.445  1.00  0.00     0.031 C 
ATOM     48  C   UNL     1       6.293   2.436  -8.390  1.00  0.00     0.029 A 
ATOM     49  N   UNL     1       5.685   4.458  -9.036  1.00  0.00    -0.354 N 
ATOM     50  C   UNL     1       1.710   4.835 -11.243  1.00  0.00     0.074 A 
ATOM     51  C   UNL     1       0.954   4.178 -10.215  1.00  0.00     0.031 C 
ATOM     52  C   UNL     1       7.037   3.308  -7.677  1.00  0.00     0.029 A 
ATOM     53  C   UNL     1       6.680   4.655  -8.078  1.00  0.00     0.049 A 
ATOM     54  H   UNL     1       5.310   5.193  -9.573  1.00  0.00     0.167 HD
ATOM     55  C   UNL     1       1.568   6.067 -11.812  1.00  0.00     0.037 A 
ATOM     56  C   UNL     1       7.171   5.840  -7.635  1.00  0.00     0.037 A 
ATOM     57  C   UNL     1       2.681   6.337 -12.689  1.00  0.00     0.049 A 
ATOM     58  C   UNL     1       6.850   6.849  -8.671  1.00  0.00     0.074 A 
ATOM     59  C   UNL     1       3.143   5.865 -13.898  1.00  0.00     0.029 A 
ATOM     60  N   UNL     1       3.724   6.979 -12.073  1.00  0.00    -0.354 N 
ATOM     61  N   UNL     1       7.349   6.824  -9.878  1.00  0.00    -0.248 NA
ATOM     62  C   UNL     1       5.662   7.675  -8.507  1.00  0.00     0.031 C 
ATOM     63  C   UNL     1       4.560   6.025 -13.858  1.00  0.00     0.029 A 
ATOM     64  C   UNL     1       4.913   6.641 -12.656  1.00  0.00     0.049 A 
ATOM     65  H   UNL     1       3.630   7.600 -11.314  1.00  0.00     0.167 HD
ATOM     66  C   UNL     1       6.318   7.259 -10.690  1.00  0.00     0.074 A 
ATOM     67  C   UNL     1       5.380   7.921  -9.790  1.00  0.00     0.031 C 
ATOM     68  C   UNL     1       6.174   6.764 -11.955  1.00  0.00     0.037 A 
BRANCH  55  69
ATOM     69  C   UNL     1       0.764   7.222 -11.226  1.00  0.00     0.058 A 
ATOM     70  C   UNL     1       0.728   8.447 -11.934  1.00  0.00     0.135 A 
ATOM     71  C   UNL     1       0.319   7.295  -9.887  1.00  0.00     0.135 A 
ATOM     72  F   UNL     1       1.110   8.506 -13.220  1.00  0.00    -0.206 F 
ATOM     73  C   UNL     1       0.384   9.659 -11.329  1.00  0.00     0.059 A 
ATOM     74  C   UNL     1      -0.073   8.484  -9.280  1.00  0.00     0.059 A 
ATOM     75  F   UNL     1       0.323   6.241  -9.065  1.00  0.00    -0.206 F 
ATOM     76  C   UNL     1       0.005   9.668  -9.992  1.00  0.00     0.060 A 
BRANCH  76  77
ATOM     77  S   UNL     1      -0.342  11.236  -9.176  1.00  0.00     0.124 S 
ATOM     78  O   UNL     1       0.982  11.845  -9.140  1.00  0.00    -0.237 OA
ATOM     79  O   UNL     1      -1.305  11.844 -10.087  1.00  0.00    -0.237 OA
ATOM     80  O   UNL     1      -0.884  10.826  -7.883  1.00  0.00    -0.744 OA
ENDBRANCH  76  77
ENDBRANCH  55  69
BRANCH  56  81
ATOM     81  C   UNL     1       7.651   6.206  -6.276  1.00  0.00     0.058 A 
ATOM     82  C   UNL     1       8.433   7.354  -6.049  1.00  0.00     0.135 A 
ATOM     83  C   UNL     1       7.110   5.589  -5.130  1.00  0.00     0.135 A 
ATOM     84  F   UNL     1       8.971   8.017  -7.083  1.00  0.00    -0.206 F 
ATOM     85  C   UNL     1       8.628   7.885  -4.767  1.00  0.00     0.059 A 
ATOM     86  C   UNL     1       7.294   6.098  -3.843  1.00  0.00     0.059 A 
ATOM     87  F   UNL     1       6.306   4.521  -5.241  1.00  0.00    -0.206 F 
ATOM     88  C   UNL     1       8.036   7.260  -3.670  1.00  0.00     0.060 A 
BRANCH  88  89
ATOM     89  S   UNL     1       8.145   8.030  -2.034  1.00  0.00     0.124 S 
ATOM     90  O   UNL     1       9.559   7.864  -1.716  1.00  0.00    -0.237 OA
ATOM     91  O   UNL     1       7.709   9.396  -2.304  1.00  0.00    -0.237 OA
ATOM     92  O   UNL     1       7.226   7.235  -1.223  1.00  0.00    -0.744 OA
ENDBRANCH  88  89
ENDBRANCH  56  81
BRANCH  68  93
ATOM     93  C   UNL     1       7.387   6.170 -12.614  1.00  0.00     0.058 A 
ATOM     94  C   UNL     1       8.018   4.976 -12.231  1.00  0.00     0.135 A 
ATOM     95  C   UNL     1       7.858   6.805 -13.773  1.00  0.00     0.135 A 
ATOM     96  F   UNL     1       7.575   4.265 -11.184  1.00  0.00    -0.206 F 
ATOM     97  C   UNL     1       9.094   4.453 -12.954  1.00  0.00     0.059 A 
ATOM     98  C   UNL     1       8.904   6.287 -14.526  1.00  0.00     0.059 A 
ATOM     99  F   UNL     1       7.260   7.923 -14.217  1.00  0.00    -0.206 F 
ATOM    100  C   UNL     1       9.528   5.116 -14.102  1.00  0.00     0.060 A 
BRANCH 100 101
ATOM    101  S   UNL     1      10.873   4.411 -15.078  1.00  0.00     0.124 S 
ATOM    102  O   UNL     1      12.026   4.625 -14.211  1.00  0.00    -0.237 OA
ATOM    103  O   UNL     1      10.450   3.023 -15.243  1.00  0.00    -0.237 OA
ATOM    104  O   UNL     1      10.859   5.206 -16.304  1.00  0.00    -0.744 OA
ENDBRANCH 100 101
ENDBRANCH  68  93
ENDBRANCH  42  43
ENDBRANCH  34  37
ENDBRANCH  32  33
ENDBRANCH  31  32
ENDBRANCH  30  31
ENDBRANCH  29  30
ENDBRANCH   1  29
TORSDOF 21
