REMARK SMILES Cn1ccc(C(=O)N[C@H]2CCCCC[C@H]2C(=O)NCCCCCCNC(=O)c2ccc(-c3c4nc(c(-c5c(F)cc(S(=O)(=O)[O-])cc5F)c5ccc([nH]5)c(-c5c(F)cc(S(=O)(=O)[O-])cc5F)c5nc(c(-c6c(F)cc(S(=O)(=O)[O-])cc6F)c6ccc3[nH]6)C=C5)C=C4)cc2)cc1=O
REMARK SMILES IDX 21 1 20 2 19 3 18 4 16 5 17 6 15 8 9 9 8 10 6 11 7 12 5 14
REMARK SMILES IDX 1 15 2 16 3 17 95 18 4 19 94 20 96 21 10 22 11 23 14 25
REMARK SMILES IDX 13 26 12 27 22 29 23 30 24 31 25 32 26 33 27 35 28 36 29 37
REMARK SMILES IDX 93 38 30 39 92 40 31 41 32 42 33 43 86 44 34 45 91 46 85 47
REMARK SMILES IDX 87 48 35 49 90 50 84 51 83 52 36 54 70 55 49 56 69 57 50 58
REMARK SMILES IDX 53 59 68 60 88 61 51 62 52 63 67 65 89 66 54 67 37 68 38 69
REMARK SMILES IDX 47 70 39 71 40 72 46 73 48 74 41 75 42 76 43 77 44 78 45 79
REMARK SMILES IDX 71 80 72 81 81 82 73 83 74 84 80 85 82 86 75 87 76 88 77 89
REMARK SMILES IDX 78 90 79 91 55 92 56 93 65 94 57 95 58 96 64 97 66 98 59 99
REMARK SMILES IDX 60 100 61 101 62 102 63 103
REMARK H PARENT 18 7 8 13 25 34 87 53 53 64
REMARK Flexibility Score: 90.00
ROOT
ATOM      1  C   UNL     1      -3.100   6.854  -0.530  1.00  0.00     0.002 C 
ENDROOT
BRANCH   1   2
ATOM      2  C   UNL     1      -1.755   6.127  -0.570  1.00  0.00     0.021 C 
BRANCH   2   3
ATOM      3  C   UNL     1      -1.744   4.807   0.191  1.00  0.00     0.116 C 
BRANCH   3   4
ATOM      4  N   UNL     1      -1.569   3.646  -0.643  1.00  0.00    -0.356 N 
ATOM      5  C   UNL     1      -0.666   2.637  -0.566  1.00  0.00     0.225 C 
ATOM      6  O   UNL     1      -0.820   1.699  -1.357  1.00  0.00    -0.275 OA
ATOM      7  H   UNL     1      -2.208   3.572  -1.389  1.00  0.00     0.163 HD
BRANCH   5   8
ATOM      8  C   UNL     1       0.525   2.615   0.409  1.00  0.00     0.101 C 
BRANCH   8   9
ATOM      9  C   UNL     1       1.665   3.660   0.193  1.00  0.00     0.094 C 
BRANCH   9  10
ATOM     10  N   UNL     1       1.445   4.514  -0.995  1.00  0.00    -0.349 N 
ATOM     11  C   UNL     1       1.832   5.716  -1.494  1.00  0.00     0.251 C 
ATOM     12  O   UNL     1       1.571   5.956  -2.675  1.00  0.00    -0.269 OA
ATOM     13  H   UNL     1       0.824   4.073  -1.619  1.00  0.00     0.164 HD
BRANCH  11  14
ATOM     14  C   UNL     1       2.397   6.787  -0.649  1.00  0.00     0.046 A 
ATOM     15  C   UNL     1       3.558   9.746   2.112  1.00  0.00     0.153 C 
ATOM     16  N   UNL     1       3.210   8.773   1.090  1.00  0.00    -0.319 N 
ATOM     17  C   UNL     1       2.103   8.988   0.293  1.00  0.00     0.089 A 
ATOM     18  C   UNL     1       4.031   7.657   0.934  1.00  0.00     0.251 A 
ATOM     19  C   UNL     1       1.690   8.048  -0.562  1.00  0.00     0.032 A 
ATOM     20  C   UNL     1       3.598   6.655  -0.075  1.00  0.00     0.085 A 
ATOM     21  O   UNL     1       5.041   7.429   1.597  1.00  0.00    -0.269 OA
ENDBRANCH  11  14
ENDBRANCH   9  10
BRANCH   9  22
ATOM     22  C   UNL     1       2.203   4.252   1.500  1.00  0.00     0.026 C 
BRANCH  22  23
ATOM     23  C   UNL     1       1.261   5.156   2.269  1.00  0.00     0.002 CG0
ATOM     24  G   UNL     1       0.406   4.404   3.285  1.00  0.00     0.000 G0
ENDBRANCH  22  23
ENDBRANCH   9  22
ENDBRANCH   8   9
BRANCH   8  25
ATOM     25  C   UNL     1       0.152   2.213   1.853  1.00  0.00     0.015 C 
BRANCH  25  26
ATOM     26  C   UNL     1      -0.456   3.231   2.815  1.00  0.00     0.001 C 
BRANCH  26  27
ATOM     27  C   UNL     1       0.406   4.404   3.285  1.00  0.00     0.000 CG0
ATOM     28  G   UNL     1       1.261   5.156   2.269  1.00  0.00     0.000 G0
ENDBRANCH  26  27
ENDBRANCH  25  26
ENDBRANCH   8  25
ENDBRANCH   5   8
ENDBRANCH   3   4
ENDBRANCH   2   3
ENDBRANCH   1   2
BRANCH   1  29
ATOM     29  C   UNL     1      -3.648   7.175   0.868  1.00  0.00     0.002 C 
BRANCH  29  30
ATOM     30  C   UNL     1      -2.739   8.005   1.781  1.00  0.00     0.021 C 
BRANCH  30  31
ATOM     31  C   UNL     1      -2.282   9.347   1.212  1.00  0.00     0.116 C 
BRANCH  31  32
ATOM     32  N   UNL     1      -3.394  10.149   0.732  1.00  0.00    -0.352 N 
ATOM     33  C   UNL     1      -3.817  11.402   1.083  1.00  0.00     0.251 C 
ATOM     34  H   UNL     1      -3.937   9.716   0.034  1.00  0.00     0.163 HD
ATOM     35  O   UNL     1      -4.917  11.790   0.688  1.00  0.00    -0.269 OA
BRANCH  33  36
ATOM     36  C   UNL     1      -2.983  12.294   1.919  1.00  0.00     0.039 A 
ATOM     37  C   UNL     1      -3.620  13.129   2.844  1.00  0.00     0.014 A 
ATOM     38  C   UNL     1      -1.600  12.387   1.738  1.00  0.00     0.014 A 
ATOM     39  C   UNL     1      -2.873  14.034   3.602  1.00  0.00     0.010 A 
ATOM     40  C   UNL     1      -0.847  13.245   2.540  1.00  0.00     0.010 A 
ATOM     41  C   UNL     1      -1.478  14.093   3.464  1.00  0.00    -0.014 A 
BRANCH  41  42
ATOM     42  C   UNL     1      -0.672  15.072   4.238  1.00  0.00     0.031 A 
ATOM     43  C   UNL     1       0.051  16.183   3.520  1.00  0.00     0.074 A 
ATOM     44  C   UNL     1      -0.552  14.936   5.573  1.00  0.00     0.049 A 
ATOM     45  N   UNL     1       0.864  17.087   4.003  1.00  0.00    -0.248 NA
ATOM     46  C   UNL     1      -0.144  16.272   2.063  1.00  0.00     0.031 C 
ATOM     47  C   UNL     1      -1.168  13.877   6.377  1.00  0.00     0.029 A 
ATOM     48  N   UNL     1       0.140  15.687   6.491  1.00  0.00    -0.354 N 
ATOM     49  C   UNL     1       1.297  17.831   2.911  1.00  0.00     0.074 A 
ATOM     50  C   UNL     1       0.687  17.252   1.735  1.00  0.00     0.031 C 
ATOM     51  C   UNL     1      -0.835  14.053   7.667  1.00  0.00     0.029 A 
ATOM     52  C   UNL     1       0.037  15.218   7.780  1.00  0.00     0.049 A 
ATOM     53  H   UNL     1       0.660  16.487   6.249  1.00  0.00     0.167 HD
ATOM     54  C   UNL     1       2.114  18.911   2.893  1.00  0.00     0.037 A 
ATOM     55  C   UNL     1       0.588  15.675   8.921  1.00  0.00     0.037 A 
ATOM     56  C   UNL     1       2.671  19.520   4.073  1.00  0.00     0.049 A 
ATOM     57  C   UNL     1       1.448  16.910   8.878  1.00  0.00     0.074 A 
ATOM     58  C   UNL     1       3.456  20.657   4.165  1.00  0.00     0.029 A 
ATOM     59  N   UNL     1       2.489  19.054   5.366  1.00  0.00    -0.354 N 
ATOM     60  N   UNL     1       1.803  17.631   7.841  1.00  0.00    -0.248 NA
ATOM     61  C   UNL     1       1.970  17.403  10.160  1.00  0.00     0.031 C 
ATOM     62  C   UNL     1       3.771  20.863   5.513  1.00  0.00     0.029 A 
ATOM     63  C   UNL     1       3.148  19.878   6.261  1.00  0.00     0.049 A 
ATOM     64  H   UNL     1       1.967  18.256   5.610  1.00  0.00     0.167 HD
ATOM     65  C   UNL     1       2.554  18.684   8.351  1.00  0.00     0.074 A 
ATOM     66  C   UNL     1       2.599  18.509   9.788  1.00  0.00     0.031 C 
ATOM     67  C   UNL     1       3.153  19.706   7.691  1.00  0.00     0.037 A 
BRANCH  54  68
ATOM     68  C   UNL     1       2.449  19.523   1.562  1.00  0.00     0.058 A 
ATOM     69  C   UNL     1       1.509  20.273   0.838  1.00  0.00     0.135 A 
ATOM     70  C   UNL     1       3.748  19.419   1.038  1.00  0.00     0.135 A 
ATOM     71  F   UNL     1       0.248  20.388   1.285  1.00  0.00    -0.206 F 
ATOM     72  C   UNL     1       1.841  20.889  -0.363  1.00  0.00     0.059 A 
ATOM     73  C   UNL     1       4.109  20.048  -0.150  1.00  0.00     0.059 A 
ATOM     74  F   UNL     1       4.684  18.710   1.688  1.00  0.00    -0.206 F 
ATOM     75  C   UNL     1       3.145  20.776  -0.848  1.00  0.00     0.060 A 
BRANCH  75  76
ATOM     76  S   UNL     1       3.572  21.616  -2.388  1.00  0.00     0.124 S 
ATOM     77  O   UNL     1       2.922  20.758  -3.375  1.00  0.00    -0.237 OA
ATOM     78  O   UNL     1       2.971  22.934  -2.202  1.00  0.00    -0.237 OA
ATOM     79  O   UNL     1       5.030  21.590  -2.396  1.00  0.00    -0.744 OA
ENDBRANCH  75  76
ENDBRANCH  54  68
BRANCH  55  80
ATOM     80  C   UNL     1       0.330  14.981  10.211  1.00  0.00     0.058 A 
ATOM     81  C   UNL     1      -0.463  15.574  11.204  1.00  0.00     0.135 A 
ATOM     82  C   UNL     1       0.894  13.726  10.488  1.00  0.00     0.135 A 
ATOM     83  F   UNL     1      -1.023  16.774  10.987  1.00  0.00    -0.206 F 
ATOM     84  C   UNL     1      -0.657  14.969  12.441  1.00  0.00     0.059 A 
ATOM     85  C   UNL     1       0.694  13.089  11.708  1.00  0.00     0.059 A 
ATOM     86  F   UNL     1       1.643  13.106   9.562  1.00  0.00    -0.206 F 
ATOM     87  C   UNL     1      -0.068  13.728  12.686  1.00  0.00     0.060 A 
BRANCH  87  88
ATOM     88  S   UNL     1      -0.328  12.941  14.291  1.00  0.00     0.124 S 
ATOM     89  O   UNL     1       0.590  13.695  15.137  1.00  0.00    -0.237 OA
ATOM     90  O   UNL     1      -1.750  13.176  14.524  1.00  0.00    -0.237 OA
ATOM     91  O   UNL     1       0.036  11.550  14.042  1.00  0.00    -0.744 OA
ENDBRANCH  87  88
ENDBRANCH  55  80
BRANCH  67  92
ATOM     92  C   UNL     1       3.848  20.749   8.518  1.00  0.00     0.058 A 
ATOM     93  C   UNL     1       5.080  20.502   9.141  1.00  0.00     0.135 A 
ATOM     94  C   UNL     1       3.287  22.030   8.653  1.00  0.00     0.135 A 
ATOM     95  F   UNL     1       5.655  19.293   9.044  1.00  0.00    -0.206 F 
ATOM     96  C   UNL     1       5.719  21.479   9.896  1.00  0.00     0.059 A 
ATOM     97  C   UNL     1       3.921  23.030   9.382  1.00  0.00     0.059 A 
ATOM     98  F   UNL     1       2.115  22.320   8.066  1.00  0.00    -0.206 F 
ATOM     99  C   UNL     1       5.130  22.740  10.013  1.00  0.00     0.060 A 
BRANCH  99 100
ATOM    100  S   UNL     1       5.976  24.009  10.979  1.00  0.00     0.124 S 
ATOM    101  O   UNL     1       5.665  23.594  12.342  1.00  0.00    -0.237 OA
ATOM    102  O   UNL     1       7.366  23.845  10.567  1.00  0.00    -0.237 OA
ATOM    103  O   UNL     1       5.341  25.248  10.538  1.00  0.00    -0.744 OA
ENDBRANCH  99 100
ENDBRANCH  67  92
ENDBRANCH  41  42
ENDBRANCH  33  36
ENDBRANCH  31  32
ENDBRANCH  30  31
ENDBRANCH  29  30
ENDBRANCH   1  29
TORSDOF 18
