REMARK SMILES COc1cc(-c2cc(C(=O)NCCCCCCNC(=O)c3ccc(-c4c5nc(c(-c6c(F)cc(S(=O)(=O)[O-])cc6F)c6ccc([nH]6)c(-c6c(F)cc(S(=O)(=O)[O-])cc6F)c6nc(c(-c7c(F)cc(S(=O)(=O)[O-])cc7F)c7ccc4[nH]7)C=C6)C=C5)cc3)c3cc(C)ccc3n2)cc(OC)c1OC
REMARK SMILES IDX 15 1 14 2 13 3 12 4 11 5 9 6 10 7 8 9 6 10 7 11 94 12 93 13
REMARK SMILES IDX 87 14 92 15 88 16 91 17 89 18 90 19 5 20 3 21 4 22 99 23
REMARK SMILES IDX 96 24 95 25 2 26 1 27 100 28 101 29 97 30 98 31 16 32 17 33
REMARK SMILES IDX 18 34 19 35 20 37 21 38 22 39 86 40 23 41 85 42 24 43 25 44
REMARK SMILES IDX 26 45 79 46 27 47 84 48 78 49 80 50 28 51 83 52 77 53 76 54
REMARK SMILES IDX 29 56 63 57 42 58 62 59 43 60 46 61 61 62 81 63 44 64 45 65
REMARK SMILES IDX 60 67 82 68 47 69 30 70 31 71 40 72 32 73 33 74 39 75 41 76
REMARK SMILES IDX 34 77 35 78 36 79 37 80 38 81 64 82 65 83 74 84 66 85 67 86
REMARK SMILES IDX 73 87 75 88 68 89 69 90 70 91 71 92 72 93 48 94 49 95 58 96
REMARK SMILES IDX 50 97 51 98 57 99 59 100 52 101 53 102 54 103 55 104 56 105
REMARK H PARENT 11 8 18 36 80 55 46 66
REMARK Flexibility Score: inf
ROOT
ATOM      1  C   UNL     1      -1.101   7.646  10.348  1.00  0.00     0.002 C 
ENDROOT
BRANCH   1   2
ATOM      2  C   UNL     1      -1.060   6.116  10.416  1.00  0.00     0.002 C 
BRANCH   2   3
ATOM      3  C   UNL     1      -1.462   5.397   9.117  1.00  0.00     0.021 C 
BRANCH   3   4
ATOM      4  C   UNL     1      -0.623   5.802   7.903  1.00  0.00     0.116 C 
BRANCH   4   5
ATOM      5  N   UNL     1       0.763   5.463   8.144  1.00  0.00    -0.352 N 
ATOM      6  C   UNL     1       1.289   4.197   8.037  1.00  0.00     0.252 C 
ATOM      7  O   UNL     1       1.871   3.702   8.995  1.00  0.00    -0.269 OA
ATOM      8  H   UNL     1       1.373   6.190   8.404  1.00  0.00     0.163 HD
BRANCH   6   9
ATOM      9  C   UNL     1       1.425   3.655   6.665  1.00  0.00     0.051 A 
ATOM     10  C   UNL     1       0.759   3.360   4.438  1.00  0.00     0.072 A 
ATOM     11  C   UNL     1       0.383   3.467   5.763  1.00  0.00     0.043 A 
ATOM     12  N   UNL     1       1.946   3.901   4.055  1.00  0.00    -0.248 NA
ATOM     13  C   UNL     1       2.965   3.658   4.876  1.00  0.00     0.072 A 
ATOM     14  C   UNL     1       2.725   3.381   6.217  1.00  0.00     0.013 A 
ATOM     15  C   UNL     1       4.217   3.419   4.341  1.00  0.00     0.029 A 
ATOM     16  C   UNL     1       3.672   2.631   6.942  1.00  0.00     0.014 A 
ATOM     17  C   UNL     1       5.134   2.631   5.037  1.00  0.00     0.005 A 
ATOM     18  C   UNL     1       4.802   2.130   6.295  1.00  0.00    -0.050 A 
ATOM     19  C   UNL     1       5.552   0.980   6.899  1.00  0.00     0.044 C 
BRANCH  10  20
ATOM     20  C   UNL     1       0.542   2.122   3.618  1.00  0.00     0.008 A 
ATOM     21  C   UNL     1       0.574   1.536   1.285  1.00  0.00     0.165 A 
ATOM     22  C   UNL     1      -0.025   2.218   2.349  1.00  0.00     0.061 A 
ATOM     23  C   UNL     1       1.801   0.870   1.459  1.00  0.00     0.203 A 
ATOM     24  C   UNL     1       2.216   0.567   2.754  1.00  0.00     0.165 A 
ATOM     25  C   UNL     1       1.481   1.077   3.832  1.00  0.00     0.061 A 
BRANCH  21  26
ATOM     26  O   UNL     1      -0.026   1.664   0.058  1.00  0.00    -0.493 OA
ATOM     27  C   UNL     1      -0.280   0.380  -0.521  1.00  0.00     0.278 C 
ENDBRANCH  21  26
BRANCH  23  28
ATOM     28  O   UNL     1       2.658   0.873   0.386  1.00  0.00    -0.490 OA
ATOM     29  C   UNL     1       2.943  -0.386  -0.192  1.00  0.00     0.278 C 
ENDBRANCH  23  28
BRANCH  24  30
ATOM     30  O   UNL     1       3.324  -0.155   3.108  1.00  0.00    -0.493 OA
ATOM     31  C   UNL     1       4.551   0.277   2.530  1.00  0.00     0.278 C 
ENDBRANCH  24  30
ENDBRANCH  10  20
ENDBRANCH   6   9
ENDBRANCH   4   5
ENDBRANCH   3   4
ENDBRANCH   2   3
ENDBRANCH   1   2
BRANCH   1  32
ATOM     32  C   UNL     1      -2.423   8.224   9.843  1.00  0.00     0.021 C 
BRANCH  32  33
ATOM     33  C   UNL     1      -3.643   7.773  10.635  1.00  0.00     0.116 C 
BRANCH  33  34
ATOM     34  N   UNL     1      -3.610   8.259  12.004  1.00  0.00    -0.352 N 
ATOM     35  C   UNL     1      -4.577   8.957  12.687  1.00  0.00     0.251 C 
ATOM     36  H   UNL     1      -2.787   8.064  12.508  1.00  0.00     0.163 HD
ATOM     37  O   UNL     1      -4.319   9.482  13.762  1.00  0.00    -0.269 OA
BRANCH  35  38
ATOM     38  C   UNL     1      -5.926   9.079  12.094  1.00  0.00     0.039 A 
ATOM     39  C   UNL     1      -6.544  10.330  12.071  1.00  0.00     0.014 A 
ATOM     40  C   UNL     1      -6.564   7.963  11.546  1.00  0.00     0.014 A 
ATOM     41  C   UNL     1      -7.788  10.470  11.453  1.00  0.00     0.010 A 
ATOM     42  C   UNL     1      -7.763   8.121  10.860  1.00  0.00     0.010 A 
ATOM     43  C   UNL     1      -8.394   9.373  10.818  1.00  0.00    -0.014 A 
BRANCH  43  44
ATOM     44  C   UNL     1      -9.690   9.517  10.109  1.00  0.00     0.031 A 
ATOM     45  C   UNL     1     -10.898   8.756  10.582  1.00  0.00     0.074 A 
ATOM     46  C   UNL     1      -9.760  10.275   8.998  1.00  0.00     0.049 A 
ATOM     47  N   UNL     1     -12.100   8.713  10.068  1.00  0.00    -0.248 NA
ATOM     48  C   UNL     1     -10.723   7.907  11.771  1.00  0.00     0.031 C 
ATOM     49  C   UNL     1      -8.639  11.006   8.404  1.00  0.00     0.029 A 
ATOM     50  N   UNL     1     -10.813  10.544   8.161  1.00  0.00    -0.354 N 
ATOM     51  C   UNL     1     -12.816   7.819  10.855  1.00  0.00     0.074 A 
ATOM     52  C   UNL     1     -11.898   7.301  11.846  1.00  0.00     0.031 C 
ATOM     53  C   UNL     1      -9.067  11.652   7.308  1.00  0.00     0.029 A 
ATOM     54  C   UNL     1     -10.481  11.352   7.100  1.00  0.00     0.049 A 
ATOM     55  H   UNL     1     -11.721  10.193   8.307  1.00  0.00     0.167 HD
ATOM     56  C   UNL     1     -14.125   7.476  10.772  1.00  0.00     0.037 A 
ATOM     57  C   UNL     1     -11.226  11.793   6.067  1.00  0.00     0.037 A 
ATOM     58  C   UNL     1     -15.033   8.012   9.791  1.00  0.00     0.049 A 
ATOM     59  C   UNL     1     -12.680  11.421   6.003  1.00  0.00     0.074 A 
ATOM     60  C   UNL     1     -16.394   7.798   9.671  1.00  0.00     0.029 A 
ATOM     61  N   UNL     1     -14.668   8.858   8.752  1.00  0.00    -0.354 N 
ATOM     62  N   UNL     1     -13.368  10.649   6.811  1.00  0.00    -0.248 NA
ATOM     63  C   UNL     1     -13.464  11.987   4.897  1.00  0.00     0.031 C 
ATOM     64  C   UNL     1     -16.841   8.464   8.525  1.00  0.00     0.029 A 
ATOM     65  C   UNL     1     -15.771   9.146   7.965  1.00  0.00     0.049 A 
ATOM     66  H   UNL     1     -13.759   9.201   8.596  1.00  0.00     0.167 HD
ATOM     67  C   UNL     1     -14.670  10.649   6.322  1.00  0.00     0.074 A 
ATOM     68  C   UNL     1     -14.675  11.511   5.157  1.00  0.00     0.031 C 
ATOM     69  C   UNL     1     -15.761   9.998   6.799  1.00  0.00     0.037 A 
BRANCH  56  70
ATOM     70  C   UNL     1     -14.639   6.459  11.758  1.00  0.00     0.058 A 
ATOM     71  C   UNL     1     -14.730   6.733  13.133  1.00  0.00     0.135 A 
ATOM     72  C   UNL     1     -15.041   5.186  11.320  1.00  0.00     0.135 A 
ATOM     73  F   UNL     1     -14.350   7.929  13.611  1.00  0.00    -0.206 F 
ATOM     74  C   UNL     1     -15.146   5.766  14.043  1.00  0.00     0.059 A 
ATOM     75  C   UNL     1     -15.494   4.215  12.209  1.00  0.00     0.059 A 
ATOM     76  F   UNL     1     -14.982   4.869  10.017  1.00  0.00    -0.206 F 
ATOM     77  C   UNL     1     -15.518   4.507  13.571  1.00  0.00     0.060 A 
BRANCH  77  78
ATOM     78  S   UNL     1     -16.019   3.251  14.767  1.00  0.00     0.124 S 
ATOM     79  O   UNL     1     -14.738   2.901  15.374  1.00  0.00    -0.237 OA
ATOM     80  O   UNL     1     -16.946   3.985  15.623  1.00  0.00    -0.237 OA
ATOM     81  O   UNL     1     -16.624   2.213  13.938  1.00  0.00    -0.744 OA
ENDBRANCH  77  78
ENDBRANCH  56  70
BRANCH  57  82
ATOM     82  C   UNL     1     -10.593  12.651   5.031  1.00  0.00     0.058 A 
ATOM     83  C   UNL     1     -10.864  14.024   4.961  1.00  0.00     0.135 A 
ATOM     84  C   UNL     1      -9.644  12.125   4.139  1.00  0.00     0.135 A 
ATOM     85  F   UNL     1     -11.768  14.572   5.787  1.00  0.00    -0.206 F 
ATOM     86  C   UNL     1     -10.212  14.850   4.050  1.00  0.00     0.059 A 
ATOM     87  C   UNL     1      -8.961  12.933   3.236  1.00  0.00     0.059 A 
ATOM     88  F   UNL     1      -9.337  10.819   4.178  1.00  0.00    -0.206 F 
ATOM     89  C   UNL     1      -9.252  14.296   3.200  1.00  0.00     0.060 A 
BRANCH  89  90
ATOM     90  S   UNL     1      -8.338  15.395   2.095  1.00  0.00     0.124 S 
ATOM     91  O   UNL     1      -9.359  15.740   1.113  1.00  0.00    -0.237 OA
ATOM     92  O   UNL     1      -7.932  16.466   2.998  1.00  0.00    -0.237 OA
ATOM     93  O   UNL     1      -7.251  14.551   1.607  1.00  0.00    -0.744 OA
ENDBRANCH  89  90
ENDBRANCH  57  82
BRANCH  69  94
ATOM     94  C   UNL     1     -17.063  10.203   6.073  1.00  0.00     0.058 A 
ATOM     95  C   UNL     1     -17.299   9.646   4.806  1.00  0.00     0.135 A 
ATOM     96  C   UNL     1     -18.109  10.917   6.679  1.00  0.00     0.135 A 
ATOM     97  F   UNL     1     -16.332   8.959   4.178  1.00  0.00    -0.206 F 
ATOM     98  C   UNL     1     -18.519   9.809   4.157  1.00  0.00     0.059 A 
ATOM     99  C   UNL     1     -19.347  11.067   6.062  1.00  0.00     0.059 A 
ATOM    100  F   UNL     1     -17.941  11.462   7.895  1.00  0.00    -0.206 F 
ATOM    101  C   UNL     1     -19.539  10.518   4.795  1.00  0.00     0.060 A 
BRANCH 101 102
ATOM    102  S   UNL     1     -21.128  10.692   3.957  1.00  0.00     0.124 S 
ATOM    103  O   UNL     1     -20.803  11.650   2.906  1.00  0.00    -0.237 OA
ATOM    104  O   UNL     1     -21.396   9.328   3.511  1.00  0.00    -0.237 OA
ATOM    105  O   UNL     1     -22.014  11.187   5.006  1.00  0.00    -0.744 OA
ENDBRANCH 101 102
ENDBRANCH  69  94
ENDBRANCH  43  44
ENDBRANCH  35  38
ENDBRANCH  33  34
ENDBRANCH  32  33
ENDBRANCH   1  32
TORSDOF 20
