REMARK SMILES O=C(NCCCCCCNC(=O)c1cc2c(c(S(=O)(=O)Nc3cc(C(F)(F)F)ccc3-n3cccn3)c1)CCC2)c1ccc(-c2c3nc(c(-c4c(F)cc(S(=O)(=O)[O-])cc4F)c4ccc([nH]4)c(-c4c(F)cc(S(=O)(=O)[O-])cc4F)c4nc(c(-c5c(F)cc(S(=O)(=O)[O-])cc5F)c5ccc2[nH]5)C=C4)C=C3)cc1
REMARK SMILES IDX 7 1 6 2 5 3 4 4 3 5 1 6 2 7 41 9 42 10 106 11 43 12 105 13
REMARK SMILES IDX 44 14 45 15 46 16 99 17 47 18 104 19 98 20 100 21 48 22
REMARK SMILES IDX 103 23 97 24 96 25 49 27 83 28 62 29 82 30 63 31 66 32 81 33
REMARK SMILES IDX 101 34 64 35 65 36 80 38 102 39 67 40 50 41 51 42 60 43
REMARK SMILES IDX 52 44 53 45 59 46 61 47 54 48 55 49 56 50 57 51 58 52 84 53
REMARK SMILES IDX 85 54 94 55 86 56 87 57 93 58 95 59 88 60 89 61 90 62 91 63
REMARK SMILES IDX 92 64 68 65 69 66 78 67 70 68 71 69 77 70 79 71 72 72 73 73
REMARK SMILES IDX 74 74 75 75 76 76 8 77 9 78 10 79 11 80 12 82 13 83 14 84
REMARK SMILES IDX 37 85 15 86 17 87 16 88 40 89 38 90 39 91 18 92 19 93 20 94
REMARK SMILES IDX 21 95 22 97 23 98 31 99 24 100 30 101 29 102 32 103 33 104
REMARK SMILES IDX 36 105 34 106 35 107 25 108 26 109 27 110 28 111
REMARK H PARENT 3 8 100 26 66 37 10 81 21 96
REMARK Flexibility Score: inf
ROOT
ATOM      1  C   UNL     1       4.632  -2.265   3.458  1.00  0.00     0.002 C 
ENDROOT
BRANCH   1   2
ATOM      2  C   UNL     1       4.153  -0.810   3.384  1.00  0.00     0.002 C 
BRANCH   2   3
ATOM      3  C   UNL     1       4.716   0.035   2.234  1.00  0.00     0.021 C 
BRANCH   3   4
ATOM      4  C   UNL     1       4.555  -0.573   0.842  1.00  0.00     0.116 C 
BRANCH   4   5
ATOM      5  N   UNL     1       3.186  -0.843   0.458  1.00  0.00    -0.352 N 
ATOM      6  O   UNL     1       1.147  -0.718  -0.378  1.00  0.00    -0.269 OA
ATOM      7  C   UNL     1       2.164  -0.095  -0.057  1.00  0.00     0.251 C 
ATOM      8  H   UNL     1       2.932  -1.783   0.601  1.00  0.00     0.163 HD
BRANCH   7   9
ATOM      9  C   UNL     1       2.167   1.388  -0.187  1.00  0.00     0.039 A 
ATOM     10  C   UNL     1       3.297   2.208  -0.196  1.00  0.00     0.014 A 
ATOM     11  C   UNL     1       0.899   1.989  -0.312  1.00  0.00     0.014 A 
ATOM     12  C   UNL     1       3.158   3.595  -0.247  1.00  0.00     0.010 A 
ATOM     13  C   UNL     1       0.756   3.371  -0.373  1.00  0.00     0.010 A 
ATOM     14  C   UNL     1       1.887   4.177  -0.312  1.00  0.00    -0.014 A 
BRANCH  14  15
ATOM     15  C   UNL     1       1.790   5.622  -0.513  1.00  0.00     0.031 A 
ATOM     16  C   UNL     1       2.296   6.084  -1.839  1.00  0.00     0.074 A 
ATOM     17  C   UNL     1       1.164   6.472   0.328  1.00  0.00     0.049 A 
ATOM     18  N   UNL     1       3.328   6.823  -2.085  1.00  0.00    -0.248 NA
ATOM     19  C   UNL     1       1.650   5.546  -3.048  1.00  0.00     0.031 C 
ATOM     20  C   UNL     1       0.357   6.143   1.504  1.00  0.00     0.029 A 
ATOM     21  N   UNL     1       1.040   7.829   0.246  1.00  0.00    -0.354 N 
ATOM     22  C   UNL     1       3.340   7.021  -3.465  1.00  0.00     0.074 A 
ATOM     23  C   UNL     1       2.397   6.082  -4.014  1.00  0.00     0.031 C 
ATOM     24  C   UNL     1      -0.344   7.237   1.885  1.00  0.00     0.029 A 
ATOM     25  C   UNL     1       0.057   8.372   1.070  1.00  0.00     0.049 A 
ATOM     26  H   UNL     1       1.601   8.380  -0.347  1.00  0.00     0.167 HD
ATOM     27  C   UNL     1       3.966   8.092  -4.030  1.00  0.00     0.037 A 
ATOM     28  C   UNL     1      -0.425   9.644   1.042  1.00  0.00     0.037 A 
ATOM     29  C   UNL     1       4.863   8.724  -3.099  1.00  0.00     0.049 A 
ATOM     30  C   UNL     1       0.587  10.483   0.350  1.00  0.00     0.074 A 
ATOM     31  C   UNL     1       5.984   8.324  -2.398  1.00  0.00     0.029 A 
ATOM     32  N   UNL     1       4.438   9.883  -2.498  1.00  0.00    -0.354 N 
ATOM     33  N   UNL     1       1.767  10.751   0.836  1.00  0.00    -0.248 NA
ATOM     34  C   UNL     1       0.449  10.662  -1.087  1.00  0.00     0.031 C 
ATOM     35  C   UNL     1       5.880   8.978  -1.136  1.00  0.00     0.029 A 
ATOM     36  C   UNL     1       4.741   9.785  -1.165  1.00  0.00     0.049 A 
ATOM     37  H   UNL     1       3.996  10.643  -2.941  1.00  0.00     0.167 HD
ATOM     38  C   UNL     1       2.618  10.698  -0.257  1.00  0.00     0.074 A 
ATOM     39  C   UNL     1       1.740  10.728  -1.425  1.00  0.00     0.031 C 
ATOM     40  C   UNL     1       3.931  10.354  -0.113  1.00  0.00     0.037 A 
BRANCH  27  41
ATOM     41  C   UNL     1       3.513   8.794  -5.290  1.00  0.00     0.058 A 
ATOM     42  C   UNL     1       4.337   9.789  -5.861  1.00  0.00     0.135 A 
ATOM     43  C   UNL     1       2.192   8.744  -5.785  1.00  0.00     0.135 A 
ATOM     44  F   UNL     1       5.612   9.934  -5.462  1.00  0.00    -0.206 F 
ATOM     45  C   UNL     1       3.861  10.712  -6.792  1.00  0.00     0.059 A 
ATOM     46  C   UNL     1       1.712   9.620  -6.753  1.00  0.00     0.059 A 
ATOM     47  F   UNL     1       1.274   7.909  -5.283  1.00  0.00    -0.206 F 
ATOM     48  C   UNL     1       2.541  10.627  -7.221  1.00  0.00     0.060 A 
BRANCH  48  49
ATOM     49  S   UNL     1       1.897  11.874  -8.350  1.00  0.00     0.124 S 
ATOM     50  O   UNL     1       1.878  13.057  -7.497  1.00  0.00    -0.237 OA
ATOM     51  O   UNL     1       2.899  11.866  -9.411  1.00  0.00    -0.237 OA
ATOM     52  O   UNL     1       0.590  11.343  -8.726  1.00  0.00    -0.744 OA
ENDBRANCH  48  49
ENDBRANCH  27  41
BRANCH  28  53
ATOM     53  C   UNL     1      -1.821  10.121   1.265  1.00  0.00     0.058 A 
ATOM     54  C   UNL     1      -2.115  11.493   1.401  1.00  0.00     0.135 A 
ATOM     55  C   UNL     1      -2.926   9.275   1.049  1.00  0.00     0.135 A 
ATOM     56  F   UNL     1      -1.126  12.380   1.589  1.00  0.00    -0.206 F 
ATOM     57  C   UNL     1      -3.416  11.998   1.273  1.00  0.00     0.059 A 
ATOM     58  C   UNL     1      -4.231   9.754   0.927  1.00  0.00     0.059 A 
ATOM     59  F   UNL     1      -2.760   7.959   0.850  1.00  0.00    -0.206 F 
ATOM     60  C   UNL     1      -4.467  11.121   1.012  1.00  0.00     0.060 A 
BRANCH  60  61
ATOM     61  S   UNL     1      -6.116  11.778   0.658  1.00  0.00     0.124 S 
ATOM     62  O   UNL     1      -6.529  12.278   1.965  1.00  0.00    -0.237 OA
ATOM     63  O   UNL     1      -5.835  12.792  -0.352  1.00  0.00    -0.237 OA
ATOM     64  O   UNL     1      -6.850  10.611   0.176  1.00  0.00    -0.744 OA
ENDBRANCH  60  61
ENDBRANCH  28  53
BRANCH  40  65
ATOM     65  C   UNL     1       4.528  10.356   1.269  1.00  0.00     0.058 A 
ATOM     66  C   UNL     1       4.122   9.515   2.320  1.00  0.00     0.135 A 
ATOM     67  C   UNL     1       5.670  11.143   1.482  1.00  0.00     0.135 A 
ATOM     68  F   UNL     1       3.104   8.656   2.167  1.00  0.00    -0.206 F 
ATOM     69  C   UNL     1       4.803   9.487   3.540  1.00  0.00     0.059 A 
ATOM     70  C   UNL     1       6.383  11.106   2.676  1.00  0.00     0.059 A 
ATOM     71  F   UNL     1       6.143  11.924   0.496  1.00  0.00    -0.206 F 
ATOM     72  C   UNL     1       5.936  10.283   3.706  1.00  0.00     0.060 A 
BRANCH  72  73
ATOM     73  S   UNL     1       6.867  10.182   5.250  1.00  0.00     0.124 S 
ATOM     74  O   UNL     1       5.969  10.838   6.194  1.00  0.00    -0.237 OA
ATOM     75  O   UNL     1       7.033   8.741   5.426  1.00  0.00    -0.237 OA
ATOM     76  O   UNL     1       8.100  10.907   4.954  1.00  0.00    -0.744 OA
ENDBRANCH  72  73
ENDBRANCH  40  65
ENDBRANCH  14  15
ENDBRANCH   7   9
ENDBRANCH   4   5
ENDBRANCH   3   4
ENDBRANCH   2   3
ENDBRANCH   1   2
BRANCH   1  77
ATOM     77  C   UNL     1       6.147  -2.466   3.493  1.00  0.00     0.021 C 
BRANCH  77  78
ATOM     78  C   UNL     1       6.859  -1.837   4.687  1.00  0.00     0.116 C 
BRANCH  78  79
ATOM     79  N   UNL     1       6.588  -2.526   5.947  1.00  0.00    -0.352 N 
ATOM     80  C   UNL     1       7.483  -2.995   6.891  1.00  0.00     0.251 C 
ATOM     81  H   UNL     1       5.637  -2.677   6.153  1.00  0.00     0.163 HD
ATOM     82  O   UNL     1       7.108  -3.679   7.838  1.00  0.00    -0.269 OA
BRANCH  80  83
ATOM     83  C   UNL     1       8.923  -2.691   6.723  1.00  0.00     0.041 A 
ATOM     84  C   UNL     1       9.298  -1.378   6.453  1.00  0.00     0.018 A 
ATOM     85  C   UNL     1       9.868  -3.737   6.687  1.00  0.00     0.036 A 
ATOM     86  C   UNL     1      10.535  -1.184   5.884  1.00  0.00    -0.043 A 
ATOM     87  C   UNL     1      11.173  -3.512   6.193  1.00  0.00     0.092 A 
ATOM     88  C   UNL     1      11.435  -2.251   5.670  1.00  0.00    -0.024 A 
ATOM     89  C   UNL     1      11.020   0.096   5.273  1.00  0.00     0.036 C 
ATOM     90  C   UNL     1      12.478  -1.758   4.717  1.00  0.00     0.037 C 
ATOM     91  C   UNL     1      12.485  -0.259   5.040  1.00  0.00     0.010 C 
BRANCH  87  92
ATOM     92  S   UNL     1      12.258  -4.916   6.050  1.00  0.00     0.262 S 
ATOM     93  O   UNL     1      11.665  -5.994   6.826  1.00  0.00    -0.201 OA
ATOM     94  O   UNL     1      12.518  -5.119   4.643  1.00  0.00    -0.201 OA
BRANCH  92  95
ATOM     95  N   UNL     1      13.793  -4.715   6.781  1.00  0.00    -0.277 N 
ATOM     96  H   UNL     1      14.218  -5.500   7.199  1.00  0.00     0.180 HD
BRANCH  95  97
ATOM     97  C   UNL     1      14.492  -3.463   6.817  1.00  0.00     0.075 A 
ATOM     98  C   UNL     1      15.435  -3.193   5.808  1.00  0.00     0.042 A 
ATOM     99  C   UNL     1      14.188  -2.465   7.753  1.00  0.00     0.089 A 
ATOM    100  C   UNL     1      16.011  -1.911   5.677  1.00  0.00     0.058 A 
ATOM    101  C   UNL     1      14.787  -1.199   7.651  1.00  0.00     0.031 A 
ATOM    102  C   UNL     1      15.694  -0.926   6.623  1.00  0.00     0.015 A 
BRANCH  99 103
ATOM    103  N   UNL     1      13.230  -2.675   8.772  1.00  0.00    -0.239 N 
ATOM    104  C   UNL     1      12.954  -3.839   9.452  1.00  0.00     0.115 A 
ATOM    105  N   UNL     1      12.364  -1.689   9.110  1.00  0.00    -0.177 NA
ATOM    106  C   UNL     1      11.751  -3.652  10.087  1.00  0.00     0.042 A 
ATOM    107  C   UNL     1      11.410  -2.321   9.799  1.00  0.00     0.135 A 
ENDBRANCH  99 103
BRANCH 100 108
ATOM    108  C   UNL     1      16.874  -1.583   4.479  1.00  0.00     0.416 C 
ATOM    109  F   UNL     1      18.104  -2.160   4.548  1.00  0.00    -0.166 F 
ATOM    110  F   UNL     1      16.320  -2.018   3.313  1.00  0.00    -0.166 F 
ATOM    111  F   UNL     1      17.090  -0.250   4.311  1.00  0.00    -0.166 F 
ENDBRANCH 100 108
ENDBRANCH  95  97
ENDBRANCH  92  95
ENDBRANCH  87  92
ENDBRANCH  80  83
ENDBRANCH  78  79
ENDBRANCH  77  78
ENDBRANCH   1  77
TORSDOF 21
