REMARK SMILES O=C(NCCCCCCNC(=O)[C@H](CO)NC(=O)[C@H](Cc1c[nH]c2ccccc12)NC(=O)[C@H](Cc1ccc(O)cc1)NC(=O)c1ccc(F)cc1)c1ccc(-c2c3nc(c(-c4c(F)cc(S(=O)(=O)[O-])cc4F)c4ccc([nH]4)c(-c4c(F)cc(S(=O)(=O)[O-])cc4F)c4nc(c(-c5c(F)cc(S(=O)(=O)[O-])cc5F)c5ccc2[nH]5)C=C4)C=C3)cc1
REMARK SMILES IDX 8 1 7 2 6 3 5 4 4 5 3 6 1 7 2 8 52 10 53 11 117 12 54 13
REMARK SMILES IDX 116 14 55 15 56 16 57 17 110 18 58 19 115 20 109 21 111 22
REMARK SMILES IDX 59 23 114 24 108 25 107 26 60 28 94 29 73 30 93 31 74 32
REMARK SMILES IDX 77 33 92 34 112 35 75 36 76 37 91 39 113 40 78 41 61 42
REMARK SMILES IDX 62 43 71 44 63 45 64 46 70 47 72 48 65 49 66 50 67 51 68 52
REMARK SMILES IDX 69 53 95 54 96 55 105 56 97 57 98 58 104 59 106 60 99 61
REMARK SMILES IDX 100 62 101 63 102 64 103 65 79 66 80 67 89 68 81 69 82 70
REMARK SMILES IDX 88 71 90 72 83 73 84 74 85 75 86 76 87 77 9 78 10 79 11 80
REMARK SMILES IDX 12 82 13 83 16 84 17 85 18 87 19 88 30 89 31 90 32 92 33 93
REMARK SMILES IDX 42 94 43 95 44 97 45 98 46 99 51 100 47 101 50 102 48 103
REMARK SMILES IDX 49 104 34 105 35 106 36 107 41 108 37 109 40 110 38 111
REMARK SMILES IDX 39 112 20 114 21 115 22 116 29 117 23 118 24 119 28 120
REMARK SMILES IDX 25 122 27 123 26 124 14 125 15 126
REMARK H PARENT 3 9 111 27 77 38 10 81 16 86 30 91 42 96 39 113 23 121 15 127
REMARK Flexibility Score: inf
ROOT
ATOM      1  C   UNL     1      14.868 -14.837   1.371  1.00  0.00     0.021 C 
ENDROOT
BRANCH   1   2
ATOM      2  C   UNL     1      13.681 -15.595   1.972  1.00  0.00     0.002 C 
BRANCH   2   3
ATOM      3  C   UNL     1      13.135 -16.760   1.139  1.00  0.00     0.002 C 
BRANCH   3   4
ATOM      4  C   UNL     1      14.166 -17.778   0.655  1.00  0.00     0.021 C 
BRANCH   4   5
ATOM      5  C   UNL     1      15.098 -18.325   1.727  1.00  0.00     0.116 C 
BRANCH   5   6
ATOM      6  N   UNL     1      14.399 -18.991   2.806  1.00  0.00    -0.352 N 
ATOM      7  O   UNL     1      13.920 -20.678   4.228  1.00  0.00    -0.269 OA
ATOM      8  C   UNL     1      14.677 -20.209   3.393  1.00  0.00     0.251 C 
ATOM      9  H   UNL     1      13.621 -18.511   3.170  1.00  0.00     0.163 HD
BRANCH   8  10
ATOM     10  C   UNL     1      15.882 -20.952   2.963  1.00  0.00     0.039 A 
ATOM     11  C   UNL     1      17.113 -20.305   2.842  1.00  0.00     0.014 A 
ATOM     12  C   UNL     1      15.761 -22.305   2.636  1.00  0.00     0.014 A 
ATOM     13  C   UNL     1      18.180 -20.965   2.244  1.00  0.00     0.010 A 
ATOM     14  C   UNL     1      16.863 -22.994   2.121  1.00  0.00     0.010 A 
ATOM     15  C   UNL     1      18.070 -22.319   1.882  1.00  0.00    -0.014 A 
BRANCH  15  16
ATOM     16  C   UNL     1      19.245 -23.008   1.288  1.00  0.00     0.031 A 
ATOM     17  C   UNL     1      19.208 -23.536  -0.121  1.00  0.00     0.074 A 
ATOM     18  C   UNL     1      20.372 -23.108   2.019  1.00  0.00     0.049 A 
ATOM     19  N   UNL     1      20.156 -24.132  -0.800  1.00  0.00    -0.248 NA
ATOM     20  C   UNL     1      17.947 -23.385  -0.863  1.00  0.00     0.031 C 
ATOM     21  C   UNL     1      20.522 -22.637   3.399  1.00  0.00     0.029 A 
ATOM     22  N   UNL     1      21.609 -23.608   1.705  1.00  0.00    -0.354 N 
ATOM     23  C   UNL     1      19.605 -24.439  -2.038  1.00  0.00     0.074 A 
ATOM     24  C   UNL     1      18.229 -23.992  -2.008  1.00  0.00     0.031 C 
ATOM     25  C   UNL     1      21.792 -22.812   3.788  1.00  0.00     0.029 A 
ATOM     26  C   UNL     1      22.531 -23.465   2.714  1.00  0.00     0.049 A 
ATOM     27  H   UNL     1      21.817 -24.029   0.839  1.00  0.00     0.167 HD
ATOM     28  C   UNL     1      20.198 -25.029  -3.105  1.00  0.00     0.037 A 
ATOM     29  C   UNL     1      23.827 -23.825   2.776  1.00  0.00     0.037 A 
ATOM     30  C   UNL     1      21.574 -25.459  -3.129  1.00  0.00     0.049 A 
ATOM     31  C   UNL     1      24.458 -24.484   1.585  1.00  0.00     0.074 A 
ATOM     32  C   UNL     1      22.268 -26.066  -4.162  1.00  0.00     0.029 A 
ATOM     33  N   UNL     1      22.467 -25.324  -2.076  1.00  0.00    -0.354 N 
ATOM     34  N   UNL     1      23.919 -24.772   0.425  1.00  0.00    -0.248 NA
ATOM     35  C   UNL     1      25.868 -24.872   1.710  1.00  0.00     0.031 C 
ATOM     36  C   UNL     1      23.570 -26.328  -3.722  1.00  0.00     0.029 A 
ATOM     37  C   UNL     1      23.702 -25.843  -2.431  1.00  0.00     0.049 A 
ATOM     38  H   UNL     1      22.254 -24.920  -1.204  1.00  0.00     0.167 HD
ATOM     39  C   UNL     1      24.927 -25.362  -0.326  1.00  0.00     0.074 A 
ATOM     40  C   UNL     1      26.113 -25.376   0.508  1.00  0.00     0.031 C 
ATOM     41  C   UNL     1      24.874 -25.849  -1.589  1.00  0.00     0.037 A 
BRANCH  28  42
ATOM     42  C   UNL     1      19.362 -25.255  -4.337  1.00  0.00     0.058 A 
ATOM     43  C   UNL     1      18.983 -26.552  -4.716  1.00  0.00     0.135 A 
ATOM     44  C   UNL     1      18.977 -24.192  -5.170  1.00  0.00     0.135 A 
ATOM     45  F   UNL     1      19.320 -27.605  -3.956  1.00  0.00    -0.206 F 
ATOM     46  C   UNL     1      18.257 -26.789  -5.880  1.00  0.00     0.059 A 
ATOM     47  C   UNL     1      18.231 -24.404  -6.327  1.00  0.00     0.059 A 
ATOM     48  F   UNL     1      19.294 -22.929  -4.844  1.00  0.00    -0.206 F 
ATOM     49  C   UNL     1      17.885 -25.708  -6.679  1.00  0.00     0.060 A 
BRANCH  49  50
ATOM     50  S   UNL     1      16.898 -26.025  -8.158  1.00  0.00     0.124 S 
ATOM     51  O   UNL     1      17.878 -26.634  -9.050  1.00  0.00    -0.237 OA
ATOM     52  O   UNL     1      15.858 -26.915  -7.649  1.00  0.00    -0.237 OA
ATOM     53  O   UNL     1      16.434 -24.695  -8.544  1.00  0.00    -0.744 OA
ENDBRANCH  49  50
ENDBRANCH  28  42
BRANCH  29  54
ATOM     54  C   UNL     1      24.602 -23.538   4.011  1.00  0.00     0.058 A 
ATOM     55  C   UNL     1      24.330 -24.215   5.210  1.00  0.00     0.135 A 
ATOM     56  C   UNL     1      25.573 -22.527   4.034  1.00  0.00     0.135 A 
ATOM     57  F   UNL     1      23.399 -25.181   5.242  1.00  0.00    -0.206 F 
ATOM     58  C   UNL     1      24.967 -23.875   6.397  1.00  0.00     0.059 A 
ATOM     59  C   UNL     1      26.244 -22.187   5.205  1.00  0.00     0.059 A 
ATOM     60  F   UNL     1      25.872 -21.859   2.909  1.00  0.00    -0.206 F 
ATOM     61  C   UNL     1      25.916 -22.852   6.386  1.00  0.00     0.060 A 
BRANCH  61  62
ATOM     62  S   UNL     1      26.706 -22.401   7.946  1.00  0.00     0.124 S 
ATOM     63  O   UNL     1      25.607 -21.749   8.650  1.00  0.00    -0.237 OA
ATOM     64  O   UNL     1      27.114 -23.701   8.470  1.00  0.00    -0.237 OA
ATOM     65  O   UNL     1      27.796 -21.524   7.530  1.00  0.00    -0.744 OA
ENDBRANCH  61  62
ENDBRANCH  29  54
BRANCH  41  66
ATOM     66  C   UNL     1      26.140 -26.421  -2.163  1.00  0.00     0.058 A 
ATOM     67  C   UNL     1      26.835 -25.735  -3.170  1.00  0.00     0.135 A 
ATOM     68  C   UNL     1      26.634 -27.670  -1.756  1.00  0.00     0.135 A 
ATOM     69  F   UNL     1      26.402 -24.538  -3.597  1.00  0.00    -0.206 F 
ATOM     70  C   UNL     1      27.971 -26.273  -3.764  1.00  0.00     0.059 A 
ATOM     71  C   UNL     1      27.783 -28.216  -2.319  1.00  0.00     0.059 A 
ATOM     72  F   UNL     1      26.011 -28.359  -0.786  1.00  0.00    -0.206 F 
ATOM     73  C   UNL     1      28.437 -27.516  -3.333  1.00  0.00     0.060 A 
BRANCH  73  74
ATOM     74  S   UNL     1      29.928 -28.189  -4.096  1.00  0.00     0.124 S 
ATOM     75  O   UNL     1      29.437 -28.588  -5.410  1.00  0.00    -0.237 OA
ATOM     76  O   UNL     1      30.831 -27.041  -4.077  1.00  0.00    -0.237 OA
ATOM     77  O   UNL     1      30.300 -29.283  -3.204  1.00  0.00    -0.744 OA
ENDBRANCH  73  74
ENDBRANCH  41  66
ENDBRANCH  15  16
ENDBRANCH   8  10
ENDBRANCH   5   6
ENDBRANCH   4   5
ENDBRANCH   3   4
ENDBRANCH   2   3
ENDBRANCH   1   2
BRANCH   1  78
ATOM     78  C   UNL     1      14.639 -14.323  -0.040  1.00  0.00     0.116 C 
BRANCH  78  79
ATOM     79  N   UNL     1      13.644 -13.273  -0.078  1.00  0.00    -0.354 N 
ATOM     80  C   UNL     1      13.579 -12.171  -0.876  1.00  0.00     0.244 C 
ATOM     81  H   UNL     1      12.907 -13.368   0.567  1.00  0.00     0.163 HD
ATOM     82  O   UNL     1      12.571 -11.467  -0.794  1.00  0.00    -0.273 OA
BRANCH  80  83
ATOM     83  C   UNL     1      14.685 -11.855  -1.889  1.00  0.00     0.197 C 
BRANCH  83  84
ATOM     84  N   UNL     1      15.989 -11.575  -1.274  1.00  0.00    -0.340 N 
ATOM     85  C   UNL     1      16.639 -10.413  -0.987  1.00  0.00     0.243 C 
ATOM     86  H   UNL     1      16.490 -12.383  -1.021  1.00  0.00     0.164 HD
ATOM     87  O   UNL     1      17.823 -10.542  -0.657  1.00  0.00    -0.273 OA
BRANCH  85  88
ATOM     88  C   UNL     1      16.053  -8.996  -1.287  1.00  0.00     0.175 C 
BRANCH  88  89
ATOM     89  N   UNL     1      14.609  -8.771  -1.173  1.00  0.00    -0.342 N 
ATOM     90  C   UNL     1      13.662  -8.489  -2.119  1.00  0.00     0.243 C 
ATOM     91  H   UNL     1      14.259  -8.833  -0.255  1.00  0.00     0.164 HD
ATOM     92  O   UNL     1      12.497  -8.366  -1.729  1.00  0.00    -0.273 OA
BRANCH  90  93
ATOM     93  C   UNL     1      13.997  -8.416  -3.636  1.00  0.00     0.176 C 
BRANCH  93  94
ATOM     94  N   UNL     1      13.631  -9.692  -4.293  1.00  0.00    -0.340 N 
ATOM     95  C   UNL     1      14.219 -10.422  -5.301  1.00  0.00     0.251 C 
ATOM     96  H   UNL     1      12.805 -10.096  -3.941  1.00  0.00     0.164 HD
ATOM     97  O   UNL     1      13.535 -11.252  -5.898  1.00  0.00    -0.269 OA
BRANCH  95  98
ATOM     98  C   UNL     1      15.659 -10.306  -5.654  1.00  0.00     0.040 A 
ATOM     99  C   UNL     1      16.623 -10.183  -4.657  1.00  0.00     0.017 A 
ATOM    100  C   UNL     1      16.090 -10.558  -6.960  1.00  0.00     0.017 A 
ATOM    101  C   UNL     1      17.988 -10.209  -4.932  1.00  0.00     0.040 A 
ATOM    102  C   UNL     1      17.462 -10.613  -7.249  1.00  0.00     0.040 A 
ATOM    103  C   UNL     1      18.397 -10.421  -6.236  1.00  0.00     0.123 A 
ATOM    104  F   UNL     1      19.705 -10.492  -6.511  1.00  0.00    -0.207 F 
ENDBRANCH  95  98
ENDBRANCH  93  94
BRANCH  93 105
ATOM    105  C   UNL     1      13.117  -7.285  -4.230  1.00  0.00     0.070 C 
BRANCH 105 106
ATOM    106  C   UNL     1      13.790  -6.587  -5.385  1.00  0.00    -0.045 A 
ATOM    107  C   UNL     1      14.362  -5.322  -5.194  1.00  0.00     0.007 A 
ATOM    108  C   UNL     1      13.886  -7.203  -6.639  1.00  0.00     0.007 A 
ATOM    109  C   UNL     1      15.048  -4.695  -6.232  1.00  0.00     0.046 A 
ATOM    110  C   UNL     1      14.586  -6.583  -7.672  1.00  0.00     0.046 A 
ATOM    111  C   UNL     1      15.165  -5.339  -7.460  1.00  0.00     0.115 A 
BRANCH 111 112
ATOM    112  O   UNL     1      15.850  -4.771  -8.493  1.00  0.00    -0.508 OA
ATOM    113  H   UNL     1      16.253  -3.932  -8.383  1.00  0.00     0.293 HD
ENDBRANCH 111 112
ENDBRANCH 105 106
ENDBRANCH  93 105
ENDBRANCH  90  93
ENDBRANCH  88  89
BRANCH  88 114
ATOM    114  C   UNL     1      16.893  -7.881  -0.643  1.00  0.00     0.072 C 
BRANCH 114 115
ATOM    115  C   UNL     1      17.063  -7.794   0.847  1.00  0.00    -0.020 A 
ATOM    116  C   UNL     1      17.960  -6.902   1.417  1.00  0.00     0.087 A 
ATOM    117  C   UNL     1      16.464  -8.516   1.936  1.00  0.00     0.003 A 
ATOM    118  N   UNL     1      17.924  -7.044   2.772  1.00  0.00    -0.361 N 
ATOM    119  C   UNL     1      17.007  -8.003   3.119  1.00  0.00     0.046 A 
ATOM    120  C   UNL     1      15.523  -9.562   2.062  1.00  0.00     0.010 A 
ATOM    121  H   UNL     1      18.475  -6.533   3.408  1.00  0.00     0.166 HD
ATOM    122  C   UNL     1      16.642  -8.455   4.394  1.00  0.00     0.026 A 
ATOM    123  C   UNL     1      15.145 -10.026   3.328  1.00  0.00     0.001 A 
ATOM    124  C   UNL     1      15.694  -9.474   4.478  1.00  0.00     0.002 A 
ENDBRANCH 114 115
ENDBRANCH  88 114
ENDBRANCH  85  88
ENDBRANCH  83  84
BRANCH  83 125
ATOM    125  C   UNL     1      14.727 -12.950  -2.976  1.00  0.00     0.191 C 
BRANCH 125 126
ATOM    126  O   UNL     1      15.937 -12.893  -3.722  1.00  0.00    -0.394 OA
ATOM    127  H   UNL     1      16.004 -12.032  -4.164  1.00  0.00     0.210 HD
ENDBRANCH 125 126
ENDBRANCH  83 125
ENDBRANCH  80  83
ENDBRANCH  78  79
ENDBRANCH   1  78
TORSDOF 29
