REMARK SMILES COc1ccccc1C(=O)Nc1sc2c(c1C(=O)NCCCCCCNC(=O)c1ccc(-c3c4nc(c(-c5c(F)cc(S(=O)(=O)[O-])cc5F)c5ccc([nH]5)c(-c5c(F)cc(S(=O)(=O)[O-])cc5F)c5nc(c(-c6c(F)cc(S(=O)(=O)[O-])cc6F)c6ccc3[nH]6)C=C5)C=C4)cc1)CCCC2
REMARK SMILES IDX 22 1 21 2 20 3 19 4 17 5 18 6 16 8 12 9 13 10 14 11 15 12
REMARK SMILES IDX 98 13 95 14 97 15 96 16 11 17 9 18 10 19 8 21 3 22 4 23 5 24
REMARK SMILES IDX 7 25 6 26 2 27 1 28 23 29 24 30 25 31 26 32 27 33 28 35
REMARK SMILES IDX 29 36 30 37 94 38 31 39 93 40 32 41 33 42 34 43 87 44 35 45
REMARK SMILES IDX 92 46 86 47 88 48 36 49 91 50 85 51 84 52 37 54 71 55 50 56
REMARK SMILES IDX 70 57 51 58 54 59 69 60 89 61 52 62 53 63 68 65 90 66 55 67
REMARK SMILES IDX 38 68 39 69 48 70 40 71 41 72 47 73 49 74 42 75 43 76 44 77
REMARK SMILES IDX 45 78 46 79 72 80 73 81 82 82 74 83 75 84 81 85 83 86 76 87
REMARK SMILES IDX 77 88 78 89 79 90 80 91 56 92 57 93 66 94 58 95 59 96 65 97
REMARK SMILES IDX 67 98 60 99 61 100 62 101 63 102 64 103
REMARK H PARENT 19 7 11 20 26 34 88 53 54 64
REMARK Flexibility Score: inf
ROOT
ATOM      1  C   UNL     1      -0.889   3.759   4.879  1.00  0.00     0.002 C 
ENDROOT
BRANCH   1   2
ATOM      2  C   UNL     1      -0.991   2.470   4.060  1.00  0.00     0.021 C 
BRANCH   2   3
ATOM      3  C   UNL     1      -0.533   2.644   2.610  1.00  0.00     0.116 C 
BRANCH   3   4
ATOM      4  N   UNL     1       0.822   2.177   2.478  1.00  0.00    -0.352 N 
ATOM      5  C   UNL     1       1.391   0.997   2.098  1.00  0.00     0.254 C 
ATOM      6  O   UNL     1       2.627   0.999   2.171  1.00  0.00    -0.269 OA
ATOM      7  H   UNL     1       1.487   2.863   2.715  1.00  0.00     0.163 HD
BRANCH   5   8
ATOM      8  C   UNL     1       0.690  -0.172   1.529  1.00  0.00     0.078 A 
ATOM      9  C   UNL     1       1.366  -0.874   0.528  1.00  0.00     0.109 A 
ATOM     10  S   UNL     1       0.671  -2.359   0.120  1.00  0.00    -0.122 S 
ATOM     11  C   UNL     1      -0.765  -1.919   0.903  1.00  0.00     0.011 A 
ATOM     12  C   UNL     1      -0.631  -0.780   1.693  1.00  0.00    -0.019 A 
ATOM     13  C   UNL     1      -2.004  -2.744   0.729  1.00  0.00     0.047 C 
ATOM     14  C   UNL     1      -1.808  -0.329   2.513  1.00  0.00     0.037 C 
ATOM     15  C   UNL     1      -3.230  -1.974   1.222  1.00  0.00     0.006 C 
ATOM     16  C   UNL     1      -2.949  -1.355   2.592  1.00  0.00     0.005 C 
BRANCH   9  17
ATOM     17  N   UNL     1       2.553  -0.504  -0.065  1.00  0.00    -0.313 N 
ATOM     18  C   UNL     1       2.910  -0.507  -1.395  1.00  0.00     0.260 C 
ATOM     19  O   UNL     1       4.064  -0.162  -1.677  1.00  0.00    -0.269 OA
ATOM     20  H   UNL     1       3.251  -0.192   0.555  1.00  0.00     0.171 HD
BRANCH  18  21
ATOM     21  C   UNL     1       1.993  -0.815  -2.535  1.00  0.00     0.082 A 
ATOM     22  C   UNL     1       0.620  -0.533  -2.623  1.00  0.00     0.131 A 
ATOM     23  C   UNL     1      -0.126  -0.994  -3.716  1.00  0.00     0.047 A 
ATOM     24  C   UNL     1       0.503  -1.608  -4.796  1.00  0.00     0.004 A 
ATOM     25  C   UNL     1       2.617  -1.393  -3.659  1.00  0.00     0.018 A 
ATOM     26  C   UNL     1       1.882  -1.773  -4.784  1.00  0.00     0.001 A 
BRANCH  22  27
ATOM     27  O   UNL     1      -0.123   0.113  -1.673  1.00  0.00    -0.496 OA
ATOM     28  C   UNL     1       0.174   1.501  -1.587  1.00  0.00     0.278 C 
ENDBRANCH  22  27
ENDBRANCH  18  21
ENDBRANCH   9  17
ENDBRANCH   5   8
ENDBRANCH   3   4
ENDBRANCH   2   3
ENDBRANCH   1   2
BRANCH   1  29
ATOM     29  C   UNL     1      -1.949   4.804   4.513  1.00  0.00     0.002 C 
BRANCH  29  30
ATOM     30  C   UNL     1      -3.400   4.342   4.687  1.00  0.00     0.021 C 
BRANCH  30  31
ATOM     31  C   UNL     1      -3.748   3.857   6.091  1.00  0.00     0.116 C 
BRANCH  31  32
ATOM     32  N   UNL     1      -3.558   4.905   7.081  1.00  0.00    -0.352 N 
ATOM     33  C   UNL     1      -4.479   5.495   7.911  1.00  0.00     0.251 C 
ATOM     34  H   UNL     1      -2.637   5.240   7.169  1.00  0.00     0.163 HD
ATOM     35  O   UNL     1      -4.202   6.540   8.489  1.00  0.00    -0.269 OA
BRANCH  33  36
ATOM     36  C   UNL     1      -5.804   4.867   8.099  1.00  0.00     0.039 A 
ATOM     37  C   UNL     1      -6.945   5.673   8.104  1.00  0.00     0.014 A 
ATOM     38  C   UNL     1      -5.916   3.486   8.287  1.00  0.00     0.014 A 
ATOM     39  C   UNL     1      -8.204   5.085   8.247  1.00  0.00     0.010 A 
ATOM     40  C   UNL     1      -7.174   2.896   8.351  1.00  0.00     0.010 A 
ATOM     41  C   UNL     1      -8.330   3.689   8.342  1.00  0.00    -0.014 A 
BRANCH  41  42
ATOM     42  C   UNL     1      -9.663   3.041   8.434  1.00  0.00     0.031 A 
ATOM     43  C   UNL     1     -10.040   2.257   9.662  1.00  0.00     0.074 A 
ATOM     44  C   UNL     1     -10.507   3.105   7.386  1.00  0.00     0.049 A 
ATOM     45  N   UNL     1     -11.131   1.579   9.907  1.00  0.00    -0.248 NA
ATOM     46  C   UNL     1      -9.046   2.205  10.746  1.00  0.00     0.031 C 
ATOM     47  C   UNL     1     -10.236   3.797   6.125  1.00  0.00     0.029 A 
ATOM     48  N   UNL     1     -11.760   2.575   7.212  1.00  0.00    -0.354 N 
ATOM     49  C   UNL     1     -10.951   1.011  11.163  1.00  0.00     0.074 A 
ATOM     50  C   UNL     1      -9.620   1.373  11.601  1.00  0.00     0.031 C 
ATOM     51  C   UNL     1     -11.303   3.678   5.320  1.00  0.00     0.029 A 
ATOM     52  C   UNL     1     -12.316   2.865   5.988  1.00  0.00     0.049 A 
ATOM     53  H   UNL     1     -12.219   2.039   7.898  1.00  0.00     0.167 HD
ATOM     54  C   UNL     1     -11.822   0.274  11.894  1.00  0.00     0.037 A 
ATOM     55  C   UNL     1     -13.505   2.514   5.461  1.00  0.00     0.037 A 
ATOM     56  C   UNL     1     -13.149  -0.071  11.451  1.00  0.00     0.049 A 
ATOM     57  C   UNL     1     -14.451   1.681   6.281  1.00  0.00     0.074 A 
ATOM     58  C   UNL     1     -14.132  -0.764  12.136  1.00  0.00     0.029 A 
ATOM     59  N   UNL     1     -13.676   0.241  10.206  1.00  0.00    -0.354 N 
ATOM     60  N   UNL     1     -14.293   1.208   7.495  1.00  0.00    -0.248 NA
ATOM     61  C   UNL     1     -15.739   1.339   5.664  1.00  0.00     0.031 C 
ATOM     62  C   UNL     1     -15.231  -0.919  11.285  1.00  0.00     0.029 A 
ATOM     63  C   UNL     1     -14.958  -0.271  10.090  1.00  0.00     0.049 A 
ATOM     64  H   UNL     1     -13.207   0.751   9.506  1.00  0.00     0.167 HD
ATOM     65  C   UNL     1     -15.471   0.535   7.798  1.00  0.00     0.074 A 
ATOM     66  C   UNL     1     -16.336   0.672   6.643  1.00  0.00     0.031 C 
ATOM     67  C   UNL     1     -15.808  -0.130   8.932  1.00  0.00     0.037 A 
BRANCH  54  68
ATOM     68  C   UNL     1     -11.356  -0.216  13.240  1.00  0.00     0.058 A 
ATOM     69  C   UNL     1     -11.108   0.666  14.305  1.00  0.00     0.135 A 
ATOM     70  C   UNL     1     -11.152  -1.587  13.469  1.00  0.00     0.135 A 
ATOM     71  F   UNL     1     -11.274   1.988  14.142  1.00  0.00    -0.206 F 
ATOM     72  C   UNL     1     -10.625   0.214  15.529  1.00  0.00     0.059 A 
ATOM     73  C   UNL     1     -10.703  -2.065  14.697  1.00  0.00     0.059 A 
ATOM     74  F   UNL     1     -11.378  -2.478  12.491  1.00  0.00    -0.206 F 
ATOM     75  C   UNL     1     -10.419  -1.154  15.713  1.00  0.00     0.060 A 
BRANCH  75  76
ATOM     76  S   UNL     1      -9.760  -1.722  17.295  1.00  0.00     0.124 S 
ATOM     77  O   UNL     1      -8.371  -1.280  17.205  1.00  0.00    -0.237 OA
ATOM     78  O   UNL     1     -10.592  -1.004  18.255  1.00  0.00    -0.237 OA
ATOM     79  O   UNL     1      -9.963  -3.166  17.249  1.00  0.00    -0.744 OA
ENDBRANCH  75  76
ENDBRANCH  54  68
BRANCH  55  80
ATOM     80  C   UNL     1     -13.875   2.989   4.101  1.00  0.00     0.058 A 
ATOM     81  C   UNL     1     -14.860   3.973   3.928  1.00  0.00     0.135 A 
ATOM     82  C   UNL     1     -13.223   2.507   2.955  1.00  0.00     0.135 A 
ATOM     83  F   UNL     1     -15.516   4.459   4.993  1.00  0.00    -0.206 F 
ATOM     84  C   UNL     1     -15.186   4.463   2.668  1.00  0.00     0.059 A 
ATOM     85  C   UNL     1     -13.514   3.000   1.687  1.00  0.00     0.059 A 
ATOM     86  F   UNL     1     -12.262   1.577   3.069  1.00  0.00    -0.206 F 
ATOM     87  C   UNL     1     -14.501   3.977   1.554  1.00  0.00     0.060 A 
BRANCH  87  88
ATOM     88  S   UNL     1     -14.877   4.680  -0.066  1.00  0.00     0.124 S 
ATOM     89  O   UNL     1     -16.205   4.136  -0.323  1.00  0.00    -0.237 OA
ATOM     90  O   UNL     1     -14.813   6.113   0.202  1.00  0.00    -0.237 OA
ATOM     91  O   UNL     1     -13.807   4.161  -0.914  1.00  0.00    -0.744 OA
ENDBRANCH  87  88
ENDBRANCH  55  80
BRANCH  67  92
ATOM     92  C   UNL     1     -17.183  -0.739   8.995  1.00  0.00     0.058 A 
ATOM     93  C   UNL     1     -17.527  -1.872   8.241  1.00  0.00     0.135 A 
ATOM     94  C   UNL     1     -18.152  -0.211   9.864  1.00  0.00     0.135 A 
ATOM     95  F   UNL     1     -16.641  -2.412   7.390  1.00  0.00    -0.206 F 
ATOM     96  C   UNL     1     -18.791  -2.446   8.329  1.00  0.00     0.059 A 
ATOM     97  C   UNL     1     -19.412  -0.787   9.990  1.00  0.00     0.059 A 
ATOM     98  F   UNL     1     -17.873   0.866  10.615  1.00  0.00    -0.206 F 
ATOM     99  C   UNL     1     -19.727  -1.898   9.209  1.00  0.00     0.060 A 
BRANCH  99 100
ATOM    100  S   UNL     1     -21.351  -2.675   9.338  1.00  0.00     0.124 S 
ATOM    101  O   UNL     1     -21.965  -2.284   8.074  1.00  0.00    -0.237 OA
ATOM    102  O   UNL     1     -21.011  -4.089   9.467  1.00  0.00    -0.237 OA
ATOM    103  O   UNL     1     -21.927  -2.063  10.532  1.00  0.00    -0.744 OA
ENDBRANCH  99 100
ENDBRANCH  67  92
ENDBRANCH  41  42
ENDBRANCH  33  36
ENDBRANCH  31  32
ENDBRANCH  30  31
ENDBRANCH  29  30
ENDBRANCH   1  29
TORSDOF 19
