REMARK SMILES CC1(C)[C@H](C(=O)NCCCCCCNC(=O)c2ccc(-c3c4nc(c(-c5c(F)cc(S(=O)(=O)[O-])cc5F)c5ccc([nH]5)c(-c5c(F)cc(S(=O)(=O)[O-])cc5F)c5nc(c(-c6c(F)cc(S(=O)(=O)[O-])cc6F)c6ccc3[nH]6)C=C5)C=C4)cc2)[C@H]1C(=O)Nc1cccc2[nH]ccc12
REMARK SMILES IDX 11 1 10 2 9 3 8 4 7 5 5 6 6 7 4 9 1 10 2 11 3 12 83 13 84 14
REMARK SMILES IDX 85 15 86 16 87 18 88 19 95 20 89 21 91 22 94 23 90 24 92 25
REMARK SMILES IDX 93 26 12 28 13 29 14 30 15 31 16 33 17 34 18 35 82 36 19 37
REMARK SMILES IDX 81 38 20 39 21 40 22 41 75 42 23 43 80 44 74 45 76 46 24 47
REMARK SMILES IDX 79 48 73 49 72 50 25 52 59 53 38 54 58 55 39 56 42 57 57 58
REMARK SMILES IDX 77 59 40 60 41 61 56 63 78 64 43 65 26 66 27 67 36 68 28 69
REMARK SMILES IDX 29 70 35 71 37 72 30 73 31 74 32 75 33 76 34 77 60 78 61 79
REMARK SMILES IDX 70 80 62 81 63 82 69 83 71 84 64 85 65 86 66 87 67 88 68 89
REMARK SMILES IDX 44 90 45 91 54 92 46 93 47 94 53 95 55 96 48 97 49 98 50 99
REMARK SMILES IDX 51 100 52 101
REMARK H PARENT 7 8 86 17 92 27 14 32 76 51 42 62
REMARK Flexibility Score: inf
ROOT
ATOM      1  C   UNL     1      -1.999   6.209  -1.017  1.00  0.00     0.002 C 
ENDROOT
BRANCH   1   2
ATOM      2  C   UNL     1      -1.124   5.214  -1.786  1.00  0.00     0.002 C 
BRANCH   2   3
ATOM      3  C   UNL     1      -0.623   4.022  -0.964  1.00  0.00     0.021 C 
BRANCH   3   4
ATOM      4  C   UNL     1      -1.732   3.145  -0.381  1.00  0.00     0.116 C 
BRANCH   4   5
ATOM      5  N   UNL     1      -2.145   2.131  -1.314  1.00  0.00    -0.356 N 
ATOM      6  C   UNL     1      -1.821   0.818  -1.490  1.00  0.00     0.224 C 
ATOM      7  O   UNL     1      -2.413   0.251  -2.415  1.00  0.00    -0.275 OA
ATOM      8  H   UNL     1      -2.806   2.455  -1.968  1.00  0.00     0.163 HD
BRANCH   6   9
ATOM      9  C   UNL     1      -0.858  -0.003  -0.708  1.00  0.00     0.098 C 
ATOM     10  C   UNL     1       1.594  -0.476  -0.339  1.00  0.00     0.013 C 
ATOM     11  C   UNL     1       0.413   0.362   0.073  1.00  0.00    -0.011 C 
ATOM     12  C   UNL     1       0.918   1.658   0.646  1.00  0.00     0.013 C 
ATOM     13  C   UNL     1      -0.861  -0.159   0.769  1.00  0.00     0.098 C 
BRANCH  13  14
ATOM     14  C   UNL     1      -0.890  -1.376   1.637  1.00  0.00     0.228 C 
ATOM     15  O   UNL     1      -0.846  -1.191   2.854  1.00  0.00    -0.274 OA
ATOM     16  N   UNL     1      -1.238  -2.628   1.189  1.00  0.00    -0.325 N 
ATOM     17  H   UNL     1      -1.848  -3.131   1.775  1.00  0.00     0.169 HD
BRANCH  16  18
ATOM     18  C   UNL     1      -0.850  -3.290   0.022  1.00  0.00     0.050 A 
ATOM     19  C   UNL     1      -1.852  -3.816  -0.800  1.00  0.00     0.027 A 
ATOM     20  C   UNL     1       0.498  -3.579  -0.288  1.00  0.00     0.023 A 
ATOM     21  C   UNL     1      -1.530  -4.425  -2.011  1.00  0.00     0.004 A 
ATOM     22  C   UNL     1       0.792  -4.126  -1.540  1.00  0.00     0.047 A 
ATOM     23  C   UNL     1       1.740  -3.508   0.413  1.00  0.00     0.030 A 
ATOM     24  C   UNL     1      -0.202  -4.532  -2.435  1.00  0.00     0.027 A 
ATOM     25  N   UNL     1       2.163  -4.139  -1.668  1.00  0.00    -0.361 N 
ATOM     26  C   UNL     1       2.748  -3.813  -0.474  1.00  0.00     0.083 A 
ATOM     27  H   UNL     1       2.651  -4.351  -2.496  1.00  0.00     0.166 HD
ENDBRANCH  16  18
ENDBRANCH  13  14
ENDBRANCH   6   9
ENDBRANCH   4   5
ENDBRANCH   3   4
ENDBRANCH   2   3
ENDBRANCH   1   2
BRANCH   1  28
ATOM     28  C   UNL     1      -1.406   6.721   0.299  1.00  0.00     0.021 C 
BRANCH  28  29
ATOM     29  C   UNL     1      -0.070   7.445   0.155  1.00  0.00     0.116 C 
BRANCH  29  30
ATOM     30  N   UNL     1      -0.194   8.635  -0.672  1.00  0.00    -0.352 N 
ATOM     31  C   UNL     1       0.034   9.948  -0.347  1.00  0.00     0.251 C 
ATOM     32  H   UNL     1      -0.484   8.475  -1.599  1.00  0.00     0.163 HD
ATOM     33  O   UNL     1      -0.375  10.838  -1.087  1.00  0.00    -0.269 OA
BRANCH  31  34
ATOM     34  C   UNL     1       0.768  10.287   0.890  1.00  0.00     0.039 A 
ATOM     35  C   UNL     1       0.313  11.345   1.681  1.00  0.00     0.014 A 
ATOM     36  C   UNL     1       1.925   9.589   1.249  1.00  0.00     0.014 A 
ATOM     37  C   UNL     1       0.995  11.676   2.853  1.00  0.00     0.010 A 
ATOM     38  C   UNL     1       2.564   9.875   2.453  1.00  0.00     0.010 A 
ATOM     39  C   UNL     1       2.113  10.930   3.261  1.00  0.00    -0.014 A 
BRANCH  39  40
ATOM     40  C   UNL     1       2.832  11.250   4.521  1.00  0.00     0.031 A 
ATOM     41  C   UNL     1       4.258  11.727   4.476  1.00  0.00     0.074 A 
ATOM     42  C   UNL     1       2.216  11.058   5.704  1.00  0.00     0.049 A 
ATOM     43  N   UNL     1       5.067  12.005   5.466  1.00  0.00    -0.248 NA
ATOM     44  C   UNL     1       4.865  11.888   3.145  1.00  0.00     0.031 C 
ATOM     45  C   UNL     1       0.853  10.551   5.875  1.00  0.00     0.029 A 
ATOM     46  N   UNL     1       2.658  11.259   6.987  1.00  0.00    -0.354 N 
ATOM     47  C   UNL     1       6.278  12.359   4.880  1.00  0.00     0.074 A 
ATOM     48  C   UNL     1       6.114  12.210   3.451  1.00  0.00     0.031 C 
ATOM     49  C   UNL     1       0.564  10.499   7.186  1.00  0.00     0.029 A 
ATOM     50  C   UNL     1       1.729  10.937   7.948  1.00  0.00     0.049 A 
ATOM     51  H   UNL     1       3.556  11.601   7.200  1.00  0.00     0.167 HD
ATOM     52  C   UNL     1       7.414  12.790   5.478  1.00  0.00     0.037 A 
ATOM     53  C   UNL     1       1.809  10.984   9.292  1.00  0.00     0.037 A 
ATOM     54  C   UNL     1       7.559  12.963   6.901  1.00  0.00     0.049 A 
ATOM     55  C   UNL     1       3.077  11.482   9.932  1.00  0.00     0.074 A 
ATOM     56  C   UNL     1       8.648  13.450   7.602  1.00  0.00     0.029 A 
ATOM     57  N   UNL     1       6.585  12.656   7.840  1.00  0.00    -0.354 N 
ATOM     58  N   UNL     1       4.191  11.872   9.359  1.00  0.00    -0.248 NA
ATOM     59  C   UNL     1       3.096  11.556  11.399  1.00  0.00     0.031 C 
ATOM     60  C   UNL     1       8.348  13.399   8.967  1.00  0.00     0.029 A 
ATOM     61  C   UNL     1       7.053  12.928   9.115  1.00  0.00     0.049 A 
ATOM     62  H   UNL     1       5.692  12.298   7.631  1.00  0.00     0.167 HD
ATOM     63  C   UNL     1       5.032  12.267  10.394  1.00  0.00     0.074 A 
ATOM     64  C   UNL     1       4.293  12.079  11.626  1.00  0.00     0.031 C 
ATOM     65  C   UNL     1       6.300  12.743  10.330  1.00  0.00     0.037 A 
BRANCH  52  66
ATOM     66  C   UNL     1       8.590  13.113   4.596  1.00  0.00     0.058 A 
ATOM     67  C   UNL     1       8.592  14.234   3.751  1.00  0.00     0.135 A 
ATOM     68  C   UNL     1       9.746  12.316   4.626  1.00  0.00     0.135 A 
ATOM     69  F   UNL     1       7.508  15.023   3.671  1.00  0.00    -0.206 F 
ATOM     70  C   UNL     1       9.685  14.538   2.946  1.00  0.00     0.059 A 
ATOM     71  C   UNL     1      10.862  12.617   3.850  1.00  0.00     0.059 A 
ATOM     72  F   UNL     1       9.799  11.231   5.415  1.00  0.00    -0.206 F 
ATOM     73  C   UNL     1      10.817  13.723   3.003  1.00  0.00     0.060 A 
BRANCH  73  74
ATOM     74  S   UNL     1      12.231  14.137   1.961  1.00  0.00     0.124 S 
ATOM     75  O   UNL     1      11.741  13.754   0.640  1.00  0.00    -0.237 OA
ATOM     76  O   UNL     1      12.379  15.571   2.190  1.00  0.00    -0.237 OA
ATOM     77  O   UNL     1      13.305  13.307   2.497  1.00  0.00    -0.744 OA
ENDBRANCH  73  74
ENDBRANCH  52  66
BRANCH  53  78
ATOM     78  C   UNL     1       0.644  10.573  10.121  1.00  0.00     0.058 A 
ATOM     79  C   UNL     1      -0.099  11.520  10.842  1.00  0.00     0.135 A 
ATOM     80  C   UNL     1       0.246   9.230  10.203  1.00  0.00     0.135 A 
ATOM     81  F   UNL     1       0.245  12.816  10.799  1.00  0.00    -0.206 F 
ATOM     82  C   UNL     1      -1.183  11.149  11.631  1.00  0.00     0.059 A 
ATOM     83  C   UNL     1      -0.851   8.837  10.964  1.00  0.00     0.059 A 
ATOM     84  F   UNL     1       0.912   8.288   9.517  1.00  0.00    -0.206 F 
ATOM     85  C   UNL     1      -1.552   9.803  11.685  1.00  0.00     0.060 A 
BRANCH  85  86
ATOM     86  S   UNL     1      -2.986   9.338  12.679  1.00  0.00     0.124 S 
ATOM     87  O   UNL     1      -2.456   9.459  14.032  1.00  0.00    -0.237 OA
ATOM     88  O   UNL     1      -3.970  10.341  12.286  1.00  0.00    -0.237 OA
ATOM     89  O   UNL     1      -3.275   7.978  12.232  1.00  0.00    -0.744 OA
ENDBRANCH  85  86
ENDBRANCH  53  78
BRANCH  65  90
ATOM     90  C   UNL     1       6.957  13.132  11.626  1.00  0.00     0.058 A 
ATOM     91  C   UNL     1       7.386  12.173  12.556  1.00  0.00     0.135 A 
ATOM     92  C   UNL     1       7.194  14.485  11.921  1.00  0.00     0.135 A 
ATOM     93  F   UNL     1       7.179  10.867  12.324  1.00  0.00    -0.206 F 
ATOM     94  C   UNL     1       8.002  12.542  13.747  1.00  0.00     0.059 A 
ATOM     95  C   UNL     1       7.834  14.875  13.093  1.00  0.00     0.059 A 
ATOM     96  F   UNL     1       6.814  15.442  11.060  1.00  0.00    -0.206 F 
ATOM     97  C   UNL     1       8.221  13.896  14.007  1.00  0.00     0.060 A 
BRANCH  97  98
ATOM     98  S   UNL     1       9.041  14.361  15.546  1.00  0.00     0.124 S 
ATOM     99  O   UNL     1       7.975  14.155  16.521  1.00  0.00    -0.237 OA
ATOM    100  O   UNL     1      10.150  13.415  15.609  1.00  0.00    -0.237 OA
ATOM    101  O   UNL     1       9.425  15.752  15.320  1.00  0.00    -0.744 OA
ENDBRANCH  97  98
ENDBRANCH  65  90
ENDBRANCH  39  40
ENDBRANCH  31  34
ENDBRANCH  29  30
ENDBRANCH  28  29
ENDBRANCH   1  28
TORSDOF 18
