REMARK SMILES O=C(NCCCCCCNC(=O)[C@H]1C=C[C@@H](NC(=O)c2cn3ccccc3n2)C1)c1ccc(-c2c3nc(c(-c4c(F)cc(S(=O)(=O)[O-])cc4F)c4ccc([nH]4)c(-c4c(F)cc(S(=O)(=O)[O-])cc4F)c4nc(c(-c5c(F)cc(S(=O)(=O)[O-])cc5F)c5ccc2[nH]5)C=C4)C=C3)cc1
REMARK SMILES IDX 6 1 5 2 4 3 3 4 1 5 2 6 30 8 31 9 95 10 32 11 94 12 33 13
REMARK SMILES IDX 34 14 35 15 88 16 36 17 93 18 87 19 89 20 37 21 92 22 86 23
REMARK SMILES IDX 85 24 38 26 72 27 51 28 71 29 52 30 55 31 70 32 90 33 53 34
REMARK SMILES IDX 54 35 69 37 91 38 56 39 39 40 40 41 49 42 41 43 42 44 48 45
REMARK SMILES IDX 50 46 43 47 44 48 45 49 46 50 47 51 73 52 74 53 83 54 75 55
REMARK SMILES IDX 76 56 82 57 84 58 77 59 78 60 79 61 80 62 81 63 57 64 58 65
REMARK SMILES IDX 67 66 59 67 60 68 66 69 68 70 61 71 62 72 63 73 64 74 65 75
REMARK SMILES IDX 7 76 8 77 9 78 10 79 11 80 12 82 13 83 14 84 29 85 15 86
REMARK SMILES IDX 16 87 17 88 18 89 19 91 20 92 21 93 28 94 22 95 27 96 23 97
REMARK SMILES IDX 26 98 24 99 25 100
REMARK H PARENT 3 7 89 25 55 36 10 81 17 90
REMARK Flexibility Score: inf
ROOT
ATOM      1  C   UNL     1       3.964  -3.546  -1.547  1.00  0.00     0.002 C 
ENDROOT
BRANCH   1   2
ATOM      2  C   UNL     1       4.394  -2.652  -0.383  1.00  0.00     0.021 C 
BRANCH   2   3
ATOM      3  C   UNL     1       4.294  -1.158  -0.665  1.00  0.00     0.116 C 
BRANCH   3   4
ATOM      4  N   UNL     1       2.917  -0.720  -0.839  1.00  0.00    -0.352 N 
ATOM      5  O   UNL     1       1.015   0.373  -0.314  1.00  0.00    -0.269 OA
ATOM      6  C   UNL     1       2.228   0.260  -0.165  1.00  0.00     0.251 C 
ATOM      7  H   UNL     1       2.408  -1.192  -1.538  1.00  0.00     0.163 HD
BRANCH   6   8
ATOM      8  C   UNL     1       2.954   1.159   0.758  1.00  0.00     0.039 A 
ATOM      9  C   UNL     1       4.171   1.730   0.379  1.00  0.00     0.014 A 
ATOM     10  C   UNL     1       2.419   1.422   2.022  1.00  0.00     0.014 A 
ATOM     11  C   UNL     1       4.924   2.431   1.313  1.00  0.00     0.010 A 
ATOM     12  C   UNL     1       3.141   2.202   2.932  1.00  0.00     0.010 A 
ATOM     13  C   UNL     1       4.418   2.678   2.600  1.00  0.00    -0.014 A 
BRANCH  13  14
ATOM     14  C   UNL     1       5.239   3.460   3.562  1.00  0.00     0.031 A 
ATOM     15  C   UNL     1       5.756   2.837   4.831  1.00  0.00     0.074 A 
ATOM     16  C   UNL     1       5.556   4.734   3.257  1.00  0.00     0.049 A 
ATOM     17  N   UNL     1       6.529   3.360   5.748  1.00  0.00    -0.248 NA
ATOM     18  C   UNL     1       5.349   1.451   5.113  1.00  0.00     0.031 C 
ATOM     19  C   UNL     1       5.099   5.453   2.064  1.00  0.00     0.029 A 
ATOM     20  N   UNL     1       6.354   5.642   3.904  1.00  0.00    -0.354 N 
ATOM     21  C   UNL     1       6.680   2.384   6.727  1.00  0.00     0.074 A 
ATOM     22  C   UNL     1       5.900   1.241   6.301  1.00  0.00     0.031 C 
ATOM     23  C   UNL     1       5.668   6.666   2.035  1.00  0.00     0.029 A 
ATOM     24  C   UNL     1       6.485   6.835   3.232  1.00  0.00     0.049 A 
ATOM     25  H   UNL     1       6.791   5.458   4.766  1.00  0.00     0.167 HD
ATOM     26  C   UNL     1       7.406   2.434   7.871  1.00  0.00     0.037 A 
ATOM     27  C   UNL     1       7.182   7.944   3.543  1.00  0.00     0.037 A 
ATOM     28  C   UNL     1       8.203   3.565   8.275  1.00  0.00     0.049 A 
ATOM     29  C   UNL     1       7.990   7.967   4.809  1.00  0.00     0.074 A 
ATOM     30  C   UNL     1       9.006   3.697   9.395  1.00  0.00     0.029 A 
ATOM     31  N   UNL     1       8.298   4.759   7.574  1.00  0.00    -0.354 N 
ATOM     32  N   UNL     1       8.144   7.021   5.704  1.00  0.00    -0.248 NA
ATOM     33  C   UNL     1       8.720   9.206   5.105  1.00  0.00     0.031 C 
ATOM     34  C   UNL     1       9.558   4.984   9.390  1.00  0.00     0.029 A 
ATOM     35  C   UNL     1       9.135   5.638   8.245  1.00  0.00     0.049 A 
ATOM     36  H   UNL     1       7.839   4.954   6.725  1.00  0.00     0.167 HD
ATOM     37  C   UNL     1       9.007   7.543   6.660  1.00  0.00     0.074 A 
ATOM     38  C   UNL     1       9.351   8.882   6.226  1.00  0.00     0.031 C 
ATOM     39  C   UNL     1       9.472   6.965   7.795  1.00  0.00     0.037 A 
BRANCH  26  40
ATOM     40  C   UNL     1       7.359   1.238   8.783  1.00  0.00     0.058 A 
ATOM     41  C   UNL     1       8.006   0.034   8.464  1.00  0.00     0.135 A 
ATOM     42  C   UNL     1       6.687   1.312  10.015  1.00  0.00     0.135 A 
ATOM     43  F   UNL     1       8.651  -0.096   7.294  1.00  0.00    -0.206 F 
ATOM     44  C   UNL     1       7.967  -1.063   9.320  1.00  0.00     0.059 A 
ATOM     45  C   UNL     1       6.655   0.235  10.897  1.00  0.00     0.059 A 
ATOM     46  F   UNL     1       6.053   2.439  10.372  1.00  0.00    -0.206 F 
ATOM     47  C   UNL     1       7.285  -0.954  10.534  1.00  0.00     0.060 A 
BRANCH  47  48
ATOM     48  S   UNL     1       7.238  -2.385  11.634  1.00  0.00     0.124 S 
ATOM     49  O   UNL     1       6.276  -3.244  10.951  1.00  0.00    -0.237 OA
ATOM     50  O   UNL     1       8.624  -2.843  11.613  1.00  0.00    -0.237 OA
ATOM     51  O   UNL     1       6.788  -1.823  12.903  1.00  0.00    -0.744 OA
ENDBRANCH  47  48
ENDBRANCH  26  40
BRANCH  27  52
ATOM     52  C   UNL     1       7.156   9.112   2.627  1.00  0.00     0.058 A 
ATOM     53  C   UNL     1       8.285   9.464   1.874  1.00  0.00     0.135 A 
ATOM     54  C   UNL     1       5.993   9.881   2.462  1.00  0.00     0.135 A 
ATOM     55  F   UNL     1       9.421   8.760   1.999  1.00  0.00    -0.206 F 
ATOM     56  C   UNL     1       8.269  10.545   0.999  1.00  0.00     0.059 A 
ATOM     57  C   UNL     1       5.943  10.950   1.574  1.00  0.00     0.059 A 
ATOM     58  F   UNL     1       4.880   9.571   3.146  1.00  0.00    -0.206 F 
ATOM     59  C   UNL     1       7.091  11.280   0.855  1.00  0.00     0.060 A 
BRANCH  59  60
ATOM     60  S   UNL     1       7.060  12.647  -0.325  1.00  0.00     0.124 S 
ATOM     61  O   UNL     1       7.798  13.675   0.399  1.00  0.00    -0.237 OA
ATOM     62  O   UNL     1       7.736  12.071  -1.483  1.00  0.00    -0.237 OA
ATOM     63  O   UNL     1       5.633  12.900  -0.505  1.00  0.00    -0.744 OA
ENDBRANCH  59  60
ENDBRANCH  27  52
BRANCH  39  64
ATOM     64  C   UNL     1      10.436   7.767   8.624  1.00  0.00     0.058 A 
ATOM     65  C   UNL     1      10.015   8.862   9.394  1.00  0.00     0.135 A 
ATOM     66  C   UNL     1      11.796   7.420   8.662  1.00  0.00     0.135 A 
ATOM     67  F   UNL     1       8.727   9.239   9.386  1.00  0.00    -0.206 F 
ATOM     68  C   UNL     1      10.916   9.607  10.148  1.00  0.00     0.059 A 
ATOM     69  C   UNL     1      12.710   8.135   9.428  1.00  0.00     0.059 A 
ATOM     70  F   UNL     1      12.247   6.375   7.950  1.00  0.00    -0.206 F 
ATOM     71  C   UNL     1      12.263   9.238  10.155  1.00  0.00     0.060 A 
BRANCH  71  72
ATOM     72  S   UNL     1      13.424  10.205  11.143  1.00  0.00     0.124 S 
ATOM     73  O   UNL     1      13.609  11.385  10.305  1.00  0.00    -0.237 OA
ATOM     74  O   UNL     1      12.683  10.418  12.382  1.00  0.00    -0.237 OA
ATOM     75  O   UNL     1      14.584   9.326  11.257  1.00  0.00    -0.744 OA
ENDBRANCH  71  72
ENDBRANCH  39  64
ENDBRANCH  13  14
ENDBRANCH   6   8
ENDBRANCH   3   4
ENDBRANCH   2   3
ENDBRANCH   1   2
BRANCH   1  76
ATOM     76  C   UNL     1       4.750  -3.342  -2.848  1.00  0.00     0.002 C 
BRANCH  76  77
ATOM     77  C   UNL     1       6.277  -3.433  -2.708  1.00  0.00     0.021 C 
BRANCH  77  78
ATOM     78  C   UNL     1       6.763  -4.781  -2.175  1.00  0.00     0.116 C 
BRANCH  78  79
ATOM     79  N   UNL     1       6.590  -5.814  -3.179  1.00  0.00    -0.356 N 
ATOM     80  C   UNL     1       7.492  -6.420  -3.996  1.00  0.00     0.227 C 
ATOM     81  H   UNL     1       5.664  -6.130  -3.286  1.00  0.00     0.163 HD
ATOM     82  O   UNL     1       7.049  -7.157  -4.883  1.00  0.00    -0.274 OA
BRANCH  80  83
ATOM     83  C   UNL     1       9.003  -6.298  -3.790  1.00  0.00     0.103 C 
ATOM     84  C   UNL     1       9.572  -4.924  -3.607  1.00  0.00    -0.016 C 
ATOM     85  C   UNL     1       9.448  -7.041  -2.524  1.00  0.00     0.047 C 
ATOM     86  C   UNL     1      10.445  -4.888  -2.591  1.00  0.00    -0.006 C 
ATOM     87  C   UNL     1      10.618  -6.230  -1.960  1.00  0.00     0.106 C 
BRANCH  87  88
ATOM     88  N   UNL     1      10.542  -6.100  -0.525  1.00  0.00    -0.344 N 
ATOM     89  C   UNL     1      11.500  -6.446   0.403  1.00  0.00     0.271 C 
ATOM     90  H   UNL     1       9.708  -5.719  -0.166  1.00  0.00     0.164 HD
ATOM     91  O   UNL     1      11.179  -6.531   1.586  1.00  0.00    -0.267 OA
BRANCH  89  92
ATOM     92  C   UNL     1      12.858  -6.696  -0.074  1.00  0.00     0.147 A 
ATOM     93  C   UNL     1      13.605  -5.870  -0.897  1.00  0.00     0.127 A 
ATOM     94  N   UNL     1      13.580  -7.837   0.233  1.00  0.00    -0.223 NA
ATOM     95  N   UNL     1      14.759  -6.552  -1.164  1.00  0.00    -0.306 N 
ATOM     96  C   UNL     1      14.712  -7.729  -0.428  1.00  0.00     0.137 A 
ATOM     97  C   UNL     1      15.804  -6.216  -2.021  1.00  0.00     0.093 A 
ATOM     98  C   UNL     1      15.831  -8.602  -0.534  1.00  0.00     0.048 A 
ATOM     99  C   UNL     1      16.842  -7.061  -2.147  1.00  0.00     0.018 A 
ATOM    100  C   UNL     1      16.849  -8.287  -1.360  1.00  0.00     0.005 A 
ENDBRANCH  89  92
ENDBRANCH  87  88
ENDBRANCH  80  83
ENDBRANCH  78  79
ENDBRANCH  77  78
ENDBRANCH  76  77
ENDBRANCH   1  76
TORSDOF 18
