REMARK SMILES Cc1cccc(NC(=O)COc2ccc(N3C[C@@H](C(=O)NCCCCCCNC(=O)c4ccc(-c5c6nc(c(-c7c(F)cc(S(=O)(=O)[O-])cc7F)c7ccc([nH]7)c(-c7c(F)cc(S(=O)(=O)[O-])cc7F)c7nc(c(-c8c(F)cc(S(=O)(=O)[O-])cc8F)c8ccc5[nH]8)C=C7)C=C6)cc4)CC3=O)cc2)c1
REMARK SMILES IDX 23 1 22 2 21 3 19 4 20 5 18 7 16 8 17 9 98 10 97 11 99 12
REMARK SMILES IDX 15 13 12 14 13 15 101 16 14 17 100 18 11 19 10 20 8 21 7 22
REMARK SMILES IDX 9 24 6 25 1 26 2 27 3 28 102 29 4 30 5 31 24 32 25 33 26 34
REMARK SMILES IDX 27 35 28 36 29 37 30 39 31 40 32 41 96 42 33 43 95 44 34 45
REMARK SMILES IDX 35 46 36 47 89 48 37 49 94 50 88 51 90 52 38 53 93 54 87 55
REMARK SMILES IDX 86 56 39 58 73 59 52 60 72 61 53 62 56 63 71 64 91 65 54 66
REMARK SMILES IDX 55 67 70 69 92 70 57 71 40 72 41 73 50 74 42 75 43 76 49 77
REMARK SMILES IDX 51 78 44 79 45 80 46 81 47 82 48 83 74 84 75 85 84 86 76 87
REMARK SMILES IDX 77 88 83 89 85 90 78 91 79 92 80 93 81 94 82 95 58 96 59 97
REMARK SMILES IDX 68 98 60 99 61 100 67 101 69 102 62 103 63 104 64 105 65 106
REMARK SMILES IDX 66 107
REMARK H PARENT 21 6 7 23 28 38 90 57 56 68
REMARK Flexibility Score: inf
ROOT
ATOM      1  C   UNL     1      -6.922   6.664  -7.908  1.00  0.00     0.021 C 
ENDROOT
BRANCH   1   2
ATOM      2  C   UNL     1      -7.195   5.213  -7.509  1.00  0.00     0.116 C 
BRANCH   2   3
ATOM      3  N   UNL     1      -7.574   4.386  -8.642  1.00  0.00    -0.356 N 
ATOM      4  C   UNL     1      -7.055   3.240  -9.148  1.00  0.00     0.225 C 
ATOM      5  O   UNL     1      -7.674   2.695 -10.068  1.00  0.00    -0.275 OA
ATOM      6  H   UNL     1      -8.356   4.722  -9.137  1.00  0.00     0.163 HD
BRANCH   4   7
ATOM      7  C   UNL     1      -5.798   2.583  -8.615  1.00  0.00     0.107 C 
ATOM      8  N   UNL     1      -4.837   2.404  -6.460  1.00  0.00    -0.312 N 
ATOM      9  C   UNL     1      -5.985   1.994  -7.231  1.00  0.00     0.139 C 
ATOM     10  C   UNL     1      -4.003   3.267  -7.174  1.00  0.00     0.227 C 
ATOM     11  C   UNL     1      -4.565   3.465  -8.557  1.00  0.00     0.116 C 
ATOM     12  O   UNL     1      -2.954   3.782  -6.813  1.00  0.00    -0.274 OA
BRANCH   8  13
ATOM     13  C   UNL     1      -4.638   1.990  -5.115  1.00  0.00     0.044 A 
ATOM     14  C   UNL     1      -4.237   1.156  -2.443  1.00  0.00     0.120 A 
ATOM     15  C   UNL     1      -5.002   0.386  -3.315  1.00  0.00     0.048 A 
ATOM     16  C   UNL     1      -3.657   2.332  -2.904  1.00  0.00     0.048 A 
ATOM     17  C   UNL     1      -5.225   0.813  -4.630  1.00  0.00     0.030 A 
ATOM     18  C   UNL     1      -3.850   2.736  -4.231  1.00  0.00     0.030 A 
BRANCH  14  19
ATOM     19  O   UNL     1      -4.030   0.634  -1.200  1.00  0.00    -0.484 OA
BRANCH  19  20
ATOM     20  C   UNL     1      -4.236   1.526  -0.118  1.00  0.00     0.329 C 
BRANCH  20  21
ATOM     21  C   UNL     1      -3.132   2.503   0.286  1.00  0.00     0.262 C 
ATOM     22  N   UNL     1      -1.816   2.166   0.365  1.00  0.00    -0.323 N 
ATOM     23  H   UNL     1      -1.233   2.944   0.524  1.00  0.00     0.170 HD
ATOM     24  O   UNL     1      -3.426   3.675   0.557  1.00  0.00    -0.271 OA
BRANCH  22  25
ATOM     25  C   UNL     1      -1.099   0.962   0.271  1.00  0.00     0.041 A 
ATOM     26  C   UNL     1       2.608   0.100  -0.100  1.00  0.00     0.044 C 
ATOM     27  C   UNL     1       1.122  -0.045   0.046  1.00  0.00    -0.049 A 
ATOM     28  C   UNL     1       0.542  -1.314   0.077  1.00  0.00     0.003 A 
ATOM     29  C   UNL     1       0.295   1.083   0.149  1.00  0.00     0.029 A 
ATOM     30  C   UNL     1      -0.837  -1.446   0.223  1.00  0.00     0.002 A 
ATOM     31  C   UNL     1      -1.652  -0.314   0.330  1.00  0.00     0.026 A 
ENDBRANCH  22  25
ENDBRANCH  20  21
ENDBRANCH  19  20
ENDBRANCH  14  19
ENDBRANCH   8  13
ENDBRANCH   4   7
ENDBRANCH   2   3
ENDBRANCH   1   2
BRANCH   1  32
ATOM     32  C   UNL     1      -8.118   7.443  -8.476  1.00  0.00     0.002 C 
BRANCH  32  33
ATOM     33  C   UNL     1      -9.394   7.503  -7.618  1.00  0.00     0.002 C 
BRANCH  33  34
ATOM     34  C   UNL     1      -9.225   7.870  -6.141  1.00  0.00     0.021 C 
BRANCH  34  35
ATOM     35  C   UNL     1      -8.551   9.213  -5.892  1.00  0.00     0.116 C 
BRANCH  35  36
ATOM     36  N   UNL     1      -9.440  10.268  -5.436  1.00  0.00    -0.352 N 
ATOM     37  C   UNL     1      -8.960  11.367  -4.713  1.00  0.00     0.251 C 
ATOM     38  H   UNL     1     -10.401  10.208  -5.640  1.00  0.00     0.163 HD
ATOM     39  O   UNL     1      -9.398  11.739  -3.662  1.00  0.00    -0.269 OA
BRANCH  37  40
ATOM     40  C   UNL     1      -7.842  12.082  -5.385  1.00  0.00     0.039 A 
ATOM     41  C   UNL     1      -8.120  13.214  -6.155  1.00  0.00     0.014 A 
ATOM     42  C   UNL     1      -6.591  11.472  -5.429  1.00  0.00     0.014 A 
ATOM     43  C   UNL     1      -7.175  13.653  -7.087  1.00  0.00     0.010 A 
ATOM     44  C   UNL     1      -5.696  11.856  -6.412  1.00  0.00     0.010 A 
ATOM     45  C   UNL     1      -5.996  12.925  -7.268  1.00  0.00    -0.014 A 
BRANCH  45  46
ATOM     46  C   UNL     1      -5.080  13.115  -8.396  1.00  0.00     0.031 A 
ATOM     47  C   UNL     1      -3.689  13.598  -8.196  1.00  0.00     0.074 A 
ATOM     48  C   UNL     1      -5.454  12.729  -9.637  1.00  0.00     0.049 A 
ATOM     49  N   UNL     1      -2.946  14.078  -9.139  1.00  0.00    -0.248 NA
ATOM     50  C   UNL     1      -3.029  13.598  -6.894  1.00  0.00     0.031 C 
ATOM     51  C   UNL     1      -4.580  12.491 -10.783  1.00  0.00     0.029 A 
ATOM     52  N   UNL     1      -6.741  12.659 -10.167  1.00  0.00    -0.354 N 
ATOM     53  C   UNL     1      -1.667  14.204  -8.649  1.00  0.00     0.074 A 
ATOM     54  C   UNL     1      -1.777  13.924  -7.235  1.00  0.00     0.031 C 
ATOM     55  C   UNL     1      -5.309  12.546 -11.906  1.00  0.00     0.029 A 
ATOM     56  C   UNL     1      -6.650  12.962 -11.541  1.00  0.00     0.049 A 
ATOM     57  H   UNL     1      -7.564  12.438  -9.673  1.00  0.00     0.167 HD
ATOM     58  C   UNL     1      -0.622  14.426  -9.498  1.00  0.00     0.037 A 
ATOM     59  C   UNL     1      -7.302  14.046 -12.060  1.00  0.00     0.037 A 
ATOM     60  C   UNL     1      -1.050  14.575 -10.884  1.00  0.00     0.049 A 
ATOM     61  C   UNL     1      -6.394  15.138 -12.588  1.00  0.00     0.074 A 
ATOM     62  C   UNL     1      -1.093  13.732 -11.983  1.00  0.00     0.029 A 
ATOM     63  N   UNL     1      -1.788  15.691 -11.232  1.00  0.00    -0.354 N 
ATOM     64  N   UNL     1      -5.091  15.065 -12.628  1.00  0.00    -0.248 NA
ATOM     65  C   UNL     1      -6.887  16.442 -13.043  1.00  0.00     0.031 C 
ATOM     66  C   UNL     1      -1.903  14.342 -12.982  1.00  0.00     0.029 A 
ATOM     67  C   UNL     1      -2.351  15.552 -12.486  1.00  0.00     0.049 A 
ATOM     68  H   UNL     1      -1.899  16.483 -10.659  1.00  0.00     0.167 HD
ATOM     69  C   UNL     1      -4.584  16.285 -12.988  1.00  0.00     0.074 A 
ATOM     70  C   UNL     1      -5.742  17.104 -13.283  1.00  0.00     0.031 C 
ATOM     71  C   UNL     1      -3.255  16.578 -12.964  1.00  0.00     0.037 A 
BRANCH  58  72
ATOM     72  C   UNL     1       0.817  14.284  -9.067  1.00  0.00     0.058 A 
ATOM     73  C   UNL     1       1.775  13.693  -9.916  1.00  0.00     0.135 A 
ATOM     74  C   UNL     1       1.296  14.672  -7.801  1.00  0.00     0.135 A 
ATOM     75  F   UNL     1       1.477  13.346 -11.175  1.00  0.00    -0.206 F 
ATOM     76  C   UNL     1       3.074  13.401  -9.500  1.00  0.00     0.059 A 
ATOM     77  C   UNL     1       2.574  14.340  -7.340  1.00  0.00     0.059 A 
ATOM     78  F   UNL     1       0.536  15.403  -6.971  1.00  0.00    -0.206 F 
ATOM     79  C   UNL     1       3.454  13.690  -8.196  1.00  0.00     0.060 A 
BRANCH  79  80
ATOM     80  S   UNL     1       5.083  13.162  -7.632  1.00  0.00     0.124 S 
ATOM     81  O   UNL     1       5.151  11.786  -8.115  1.00  0.00    -0.237 OA
ATOM     82  O   UNL     1       5.959  14.114  -8.305  1.00  0.00    -0.237 OA
ATOM     83  O   UNL     1       4.999  13.301  -6.181  1.00  0.00    -0.744 OA
ENDBRANCH  79  80
ENDBRANCH  58  72
BRANCH  59  84
ATOM     84  C   UNL     1      -8.637  14.248 -11.434  1.00  0.00     0.058 A 
ATOM     85  C   UNL     1      -9.610  13.254 -11.658  1.00  0.00     0.135 A 
ATOM     86  C   UNL     1      -8.797  15.076 -10.316  1.00  0.00     0.135 A 
ATOM     87  F   UNL     1      -9.516  12.454 -12.734  1.00  0.00    -0.206 F 
ATOM     88  C   UNL     1     -10.580  12.958 -10.709  1.00  0.00     0.059 A 
ATOM     89  C   UNL     1      -9.776  14.807  -9.358  1.00  0.00     0.059 A 
ATOM     90  F   UNL     1      -7.911  16.049 -10.060  1.00  0.00    -0.206 F 
ATOM     91  C   UNL     1     -10.597  13.689  -9.524  1.00  0.00     0.060 A 
BRANCH  91  92
ATOM     92  S   UNL     1     -11.586  13.057  -8.146  1.00  0.00     0.124 S 
ATOM     93  O   UNL     1     -12.886  12.846  -8.772  1.00  0.00    -0.237 OA
ATOM     94  O   UNL     1     -10.855  11.842  -7.779  1.00  0.00    -0.237 OA
ATOM     95  O   UNL     1     -11.522  14.138  -7.170  1.00  0.00    -0.744 OA
ENDBRANCH  91  92
ENDBRANCH  59  84
BRANCH  71  96
ATOM     96  C   UNL     1      -2.716  17.900 -13.401  1.00  0.00     0.058 A 
ATOM     97  C   UNL     1      -2.937  18.380 -14.700  1.00  0.00     0.135 A 
ATOM     98  C   UNL     1      -1.843  18.643 -12.584  1.00  0.00     0.135 A 
ATOM     99  F   UNL     1      -3.745  17.715 -15.543  1.00  0.00    -0.206 F 
ATOM    100  C   UNL     1      -2.323  19.539 -15.169  1.00  0.00     0.059 A 
ATOM    101  C   UNL     1      -1.194  19.785 -13.041  1.00  0.00     0.059 A 
ATOM    102  F   UNL     1      -1.612  18.274 -11.313  1.00  0.00    -0.206 F 
ATOM    103  C   UNL     1      -1.447  20.231 -14.334  1.00  0.00     0.060 A 
BRANCH 103 104
ATOM    104  S   UNL     1      -0.593  21.695 -14.954  1.00  0.00     0.124 S 
ATOM    105  O   UNL     1      -0.492  21.433 -16.387  1.00  0.00    -0.237 OA
ATOM    106  O   UNL     1      -1.520  22.755 -14.572  1.00  0.00    -0.237 OA
ATOM    107  O   UNL     1       0.674  21.670 -14.230  1.00  0.00    -0.744 OA
ENDBRANCH 103 104
ENDBRANCH  71  96
ENDBRANCH  45  46
ENDBRANCH  37  40
ENDBRANCH  35  36
ENDBRANCH  34  35
ENDBRANCH  33  34
ENDBRANCH  32  33
ENDBRANCH   1  32
TORSDOF 21
