REMARK SMILES COc1ccc([C@H]2CC(c3ccc(S(C)(=O)=O)cc3)=NN2c2ccc(C(=O)NCCCCCCNC(=O)c3ccc(-c4c5nc(c(-c6c(F)cc(S(=O)(=O)[O-])cc6F)c6ccc([nH]6)c(-c6c(F)cc(S(=O)(=O)[O-])cc6F)c6nc(c(-c7c(F)cc(S(=O)(=O)[O-])cc7F)c7ccc4[nH]7)C=C6)C=C5)cc3)cc2)cc1
REMARK SMILES IDX 31 1 30 2 29 3 28 4 26 5 27 6 25 8 22 9 23 10 105 11 24 12
REMARK SMILES IDX 104 13 21 14 7 15 8 16 9 17 20 18 6 19 3 20 4 21 107 22 5 23
REMARK SMILES IDX 106 24 2 25 1 26 10 27 11 28 19 29 12 30 18 31 13 32 14 33
REMARK SMILES IDX 15 34 16 35 17 36 32 37 33 38 34 39 35 40 36 41 37 43 38 44
REMARK SMILES IDX 39 45 103 46 40 47 102 48 41 49 42 50 43 51 96 52 44 53
REMARK SMILES IDX 101 54 95 55 97 56 45 57 100 58 94 59 93 60 46 62 80 63
REMARK SMILES IDX 59 64 79 65 60 66 63 67 78 68 98 69 61 70 62 71 77 73 99 74
REMARK SMILES IDX 64 75 47 76 48 77 57 78 49 79 50 80 56 81 58 82 51 83 52 84
REMARK SMILES IDX 53 85 54 86 55 87 81 88 82 89 91 90 83 91 84 92 90 93 92 94
REMARK SMILES IDX 85 95 86 96 87 97 88 98 89 99 65 100 66 101 75 102 67 103
REMARK SMILES IDX 68 104 74 105 76 106 69 107 70 108 71 109 72 110 73 111
REMARK H PARENT 28 7 35 42 97 61 63 72
REMARK Flexibility Score: inf
ROOT
ATOM      1  C   UNL     1      -0.202 -12.319   6.524  1.00  0.00     0.002 C 
ENDROOT
BRANCH   1   2
ATOM      2  C   UNL     1       0.003 -11.547   5.212  1.00  0.00     0.021 C 
BRANCH   2   3
ATOM      3  C   UNL     1       0.297 -10.061   5.429  1.00  0.00     0.116 C 
BRANCH   3   4
ATOM      4  N   UNL     1       1.679  -9.890   5.835  1.00  0.00    -0.352 N 
ATOM      5  C   UNL     1       2.799  -9.450   5.183  1.00  0.00     0.251 C 
ATOM      6  O   UNL     1       3.856  -9.454   5.817  1.00  0.00    -0.269 OA
ATOM      7  H   UNL     1       1.845 -10.141   6.773  1.00  0.00     0.163 HD
BRANCH   5   8
ATOM      8  C   UNL     1       2.793  -8.915   3.792  1.00  0.00     0.039 A 
ATOM      9  C   UNL     1       2.903  -7.704   1.226  1.00  0.00     0.060 A 
ATOM     10  C   UNL     1       3.864  -7.416   2.200  1.00  0.00     0.029 A 
ATOM     11  C   UNL     1       1.925  -8.655   1.536  1.00  0.00     0.029 A 
ATOM     12  C   UNL     1       3.799  -7.994   3.472  1.00  0.00     0.016 A 
ATOM     13  C   UNL     1       1.896  -9.287   2.789  1.00  0.00     0.016 A 
BRANCH   9  14
ATOM     14  N   UNL     1       2.984  -7.097  -0.018  1.00  0.00    -0.257 N 
ATOM     15  C   UNL     1       1.844  -6.529  -0.742  1.00  0.00     0.144 C 
ATOM     16  C   UNL     1       2.330  -6.516  -2.197  1.00  0.00     0.091 C 
ATOM     17  C   UNL     1       3.702  -7.091  -2.018  1.00  0.00     0.071 C 
ATOM     18  N   UNL     1       4.047  -7.408  -0.812  1.00  0.00    -0.176 NA
BRANCH  15  19
ATOM     19  C   UNL     1       1.508  -5.127  -0.254  1.00  0.00    -0.023 A 
ATOM     20  C   UNL     1       0.828  -2.496   0.490  1.00  0.00     0.118 A 
ATOM     21  C   UNL     1      -0.144  -3.495   0.474  1.00  0.00     0.047 A 
ATOM     22  C   UNL     1       2.151  -2.814   0.192  1.00  0.00     0.047 A 
ATOM     23  C   UNL     1       0.189  -4.799   0.093  1.00  0.00     0.010 A 
ATOM     24  C   UNL     1       2.488  -4.120  -0.176  1.00  0.00     0.010 A 
BRANCH  20  25
ATOM     25  O   UNL     1       0.410  -1.248   0.864  1.00  0.00    -0.497 OA
ATOM     26  C   UNL     1       0.938  -0.201   0.053  1.00  0.00     0.278 C 
ENDBRANCH  20  25
ENDBRANCH  15  19
BRANCH  17  27
ATOM     27  C   UNL     1       4.567  -7.317  -3.173  1.00  0.00    -0.002 A 
ATOM     28  C   UNL     1       4.742  -8.622  -3.642  1.00  0.00     0.011 A 
ATOM     29  C   UNL     1       5.213  -6.236  -3.774  1.00  0.00     0.011 A 
ATOM     30  C   UNL     1       5.567  -8.849  -4.742  1.00  0.00     0.021 A 
ATOM     31  C   UNL     1       6.054  -6.464  -4.863  1.00  0.00     0.021 A 
ATOM     32  C   UNL     1       6.229  -7.769  -5.338  1.00  0.00     0.067 A 
BRANCH  32  33
ATOM     33  S   UNL     1       7.293  -8.069  -6.730  1.00  0.00     0.175 S 
ATOM     34  C   UNL     1       8.576  -9.107  -6.080  1.00  0.00     0.163 C 
ATOM     35  O   UNL     1       6.525  -8.834  -7.691  1.00  0.00    -0.224 OA
ATOM     36  O   UNL     1       7.903  -6.804  -7.099  1.00  0.00    -0.224 OA
ENDBRANCH  32  33
ENDBRANCH  17  27
ENDBRANCH   9  14
ENDBRANCH   5   8
ENDBRANCH   3   4
ENDBRANCH   2   3
ENDBRANCH   1   2
BRANCH   1  37
ATOM     37  C   UNL     1      -1.427 -11.885   7.341  1.00  0.00     0.002 C 
BRANCH  37  38
ATOM     38  C   UNL     1      -2.757 -11.931   6.585  1.00  0.00     0.021 C 
BRANCH  38  39
ATOM     39  C   UNL     1      -3.149 -13.319   6.086  1.00  0.00     0.116 C 
BRANCH  39  40
ATOM     40  N   UNL     1      -3.414 -14.231   7.188  1.00  0.00    -0.352 N 
ATOM     41  C   UNL     1      -4.536 -14.980   7.440  1.00  0.00     0.251 C 
ATOM     42  H   UNL     1      -2.686 -14.323   7.845  1.00  0.00     0.163 HD
ATOM     43  O   UNL     1      -4.681 -15.520   8.533  1.00  0.00    -0.269 OA
BRANCH  41  44
ATOM     44  C   UNL     1      -5.572 -15.125   6.396  1.00  0.00     0.039 A 
ATOM     45  C   UNL     1      -6.917 -14.988   6.750  1.00  0.00     0.014 A 
ATOM     46  C   UNL     1      -5.217 -15.412   5.074  1.00  0.00     0.014 A 
ATOM     47  C   UNL     1      -7.904 -15.087   5.767  1.00  0.00     0.010 A 
ATOM     48  C   UNL     1      -6.197 -15.447   4.086  1.00  0.00     0.010 A 
ATOM     49  C   UNL     1      -7.550 -15.290   4.423  1.00  0.00    -0.014 A 
BRANCH  49  50
ATOM     50  C   UNL     1      -8.581 -15.350   3.355  1.00  0.00     0.031 A 
ATOM     51  C   UNL     1      -8.798 -16.625   2.587  1.00  0.00     0.074 A 
ATOM     52  C   UNL     1      -9.274 -14.239   3.037  1.00  0.00     0.049 A 
ATOM     53  N   UNL     1      -9.591 -16.853   1.572  1.00  0.00    -0.248 NA
ATOM     54  C   UNL     1      -7.999 -17.791   2.998  1.00  0.00     0.031 C 
ATOM     55  C   UNL     1      -9.121 -12.932   3.680  1.00  0.00     0.029 A 
ATOM     56  N   UNL     1     -10.239 -14.028   2.083  1.00  0.00    -0.354 N 
ATOM     57  C   UNL     1      -9.378 -18.179   1.215  1.00  0.00     0.074 A 
ATOM     58  C   UNL     1      -8.344 -18.691   2.089  1.00  0.00     0.031 C 
ATOM     59  C   UNL     1      -9.973 -12.061   3.115  1.00  0.00     0.029 A 
ATOM     60  C   UNL     1     -10.707 -12.736   2.049  1.00  0.00     0.049 A 
ATOM     61  H   UNL     1     -10.564 -14.735   1.481  1.00  0.00     0.167 HD
ATOM     62  C   UNL     1     -10.002 -18.910   0.261  1.00  0.00     0.037 A 
ATOM     63  C   UNL     1     -11.620 -12.159   1.243  1.00  0.00     0.037 A 
ATOM     64  C   UNL     1     -11.049 -18.402  -0.588  1.00  0.00     0.049 A 
ATOM     65  C   UNL     1     -12.303 -12.992   0.193  1.00  0.00     0.074 A 
ATOM     66  C   UNL     1     -11.781 -19.076  -1.550  1.00  0.00     0.029 A 
ATOM     67  N   UNL     1     -11.514 -17.096  -0.575  1.00  0.00    -0.354 N 
ATOM     68  N   UNL     1     -12.127 -14.259  -0.095  1.00  0.00    -0.248 NA
ATOM     69  C   UNL     1     -13.311 -12.320  -0.638  1.00  0.00     0.031 C 
ATOM     70  C   UNL     1     -12.664 -18.168  -2.143  1.00  0.00     0.029 A 
ATOM     71  C   UNL     1     -12.513 -16.939  -1.522  1.00  0.00     0.049 A 
ATOM     72  H   UNL     1     -11.183 -16.384   0.020  1.00  0.00     0.167 HD
ATOM     73  C   UNL     1     -13.021 -14.543  -1.121  1.00  0.00     0.074 A 
ATOM     74  C   UNL     1     -13.743 -13.318  -1.396  1.00  0.00     0.031 C 
ATOM     75  C   UNL     1     -13.227 -15.713  -1.776  1.00  0.00     0.037 A 
BRANCH  62  76
ATOM     76  C   UNL     1      -9.574 -20.342   0.090  1.00  0.00     0.058 A 
ATOM     77  C   UNL     1      -9.878 -21.320   1.051  1.00  0.00     0.135 A 
ATOM     78  C   UNL     1      -8.878 -20.750  -1.060  1.00  0.00     0.135 A 
ATOM     79  F   UNL     1     -10.528 -20.982   2.176  1.00  0.00    -0.206 F 
ATOM     80  C   UNL     1      -9.480 -22.643   0.895  1.00  0.00     0.059 A 
ATOM     81  C   UNL     1      -8.494 -22.074  -1.250  1.00  0.00     0.059 A 
ATOM     82  F   UNL     1      -8.562 -19.857  -2.011  1.00  0.00    -0.206 F 
ATOM     83  C   UNL     1      -8.785 -23.010  -0.259  1.00  0.00     0.060 A 
BRANCH  83  84
ATOM     84  S   UNL     1      -8.274 -24.731  -0.447  1.00  0.00     0.124 S 
ATOM     85  O   UNL     1      -7.159 -24.807   0.492  1.00  0.00    -0.237 OA
ATOM     86  O   UNL     1      -9.478 -25.460  -0.061  1.00  0.00    -0.237 OA
ATOM     87  O   UNL     1      -7.913 -24.826  -1.858  1.00  0.00    -0.744 OA
ENDBRANCH  83  84
ENDBRANCH  62  76
BRANCH  63  88
ATOM     88  C   UNL     1     -11.958 -10.721   1.414  1.00  0.00     0.058 A 
ATOM     89  C   UNL     1     -13.198 -10.330   1.939  1.00  0.00     0.135 A 
ATOM     90  C   UNL     1     -11.047  -9.711   1.066  1.00  0.00     0.135 A 
ATOM     91  F   UNL     1     -14.104 -11.258   2.281  1.00  0.00    -0.206 F 
ATOM     92  C   UNL     1     -13.533  -8.989   2.097  1.00  0.00     0.059 A 
ATOM     93  C   UNL     1     -11.349  -8.364   1.238  1.00  0.00     0.059 A 
ATOM     94  F   UNL     1      -9.839 -10.034   0.577  1.00  0.00    -0.206 F 
ATOM     95  C   UNL     1     -12.600  -8.013   1.743  1.00  0.00     0.060 A 
BRANCH  95  96
ATOM     96  S   UNL     1     -13.025  -6.275   1.992  1.00  0.00     0.124 S 
ATOM     97  O   UNL     1     -13.957  -6.042   0.895  1.00  0.00    -0.237 OA
ATOM     98  O   UNL     1     -13.605  -6.289   3.332  1.00  0.00    -0.237 OA
ATOM     99  O   UNL     1     -11.737  -5.597   1.883  1.00  0.00    -0.744 OA
ENDBRANCH  95  96
ENDBRANCH  63  88
BRANCH  75 100
ATOM    100  C   UNL     1     -14.297 -15.735  -2.831  1.00  0.00     0.058 A 
ATOM    101  C   UNL     1     -14.113 -15.124  -4.080  1.00  0.00     0.135 A 
ATOM    102  C   UNL     1     -15.502 -16.420  -2.605  1.00  0.00     0.135 A 
ATOM    103  F   UNL     1     -12.982 -14.450  -4.343  1.00  0.00    -0.206 F 
ATOM    104  C   UNL     1     -15.095 -15.174  -5.064  1.00  0.00     0.059 A 
ATOM    105  C   UNL     1     -16.487 -16.505  -3.584  1.00  0.00     0.059 A 
ATOM    106  F   UNL     1     -15.724 -17.029  -1.430  1.00  0.00    -0.206 F 
ATOM    107  C   UNL     1     -16.278 -15.869  -4.807  1.00  0.00     0.060 A 
BRANCH 107 108
ATOM    108  S   UNL     1     -17.530 -15.958  -6.105  1.00  0.00     0.124 S 
ATOM    109  O   UNL     1     -18.102 -14.617  -6.054  1.00  0.00    -0.237 OA
ATOM    110  O   UNL     1     -16.732 -16.263  -7.289  1.00  0.00    -0.237 OA
ATOM    111  O   UNL     1     -18.409 -17.034  -5.655  1.00  0.00    -0.744 OA
ENDBRANCH 107 108
ENDBRANCH  75 100
ENDBRANCH  49  50
ENDBRANCH  41  44
ENDBRANCH  39  40
ENDBRANCH  38  39
ENDBRANCH  37  38
ENDBRANCH   1  37
TORSDOF 21
