REMARK SMILES COc1ccc(OC)c(C[NH2+][C@@H](C(=O)NCCCCCCNC(=O)c2ccc(-c3c4nc(c(-c5c(F)cc(S(=O)(=O)[O-])cc5F)c5ccc([nH]5)c(-c5c(F)cc(S(=O)(=O)[O-])cc5F)c5nc(c(-c6c(F)cc(S(=O)(=O)[O-])cc6F)c6ccc3[nH]6)C=C5)C=C4)cc2)C(C)C)c1
REMARK SMILES IDX 18 1 17 2 16 3 15 4 13 5 14 6 12 8 11 9 10 12 9 13 3 14 4 15
REMARK SMILES IDX 94 16 5 17 6 18 2 19 1 20 7 21 8 22 91 23 92 24 93 25 19 26
REMARK SMILES IDX 20 27 21 28 22 29 23 30 24 32 25 33 26 34 90 35 27 36 89 37
REMARK SMILES IDX 28 38 29 39 30 40 83 41 31 42 88 43 82 44 84 45 32 46 87 47
REMARK SMILES IDX 81 48 80 49 33 51 67 52 46 53 66 54 47 55 50 56 65 57 85 58
REMARK SMILES IDX 48 59 49 60 64 62 86 63 51 64 34 65 35 66 44 67 36 68 37 69
REMARK SMILES IDX 43 70 45 71 38 72 39 73 40 74 41 75 42 76 68 77 69 78 78 79
REMARK SMILES IDX 70 80 71 81 77 82 79 83 72 84 73 85 74 86 75 87 76 88 52 89
REMARK SMILES IDX 53 90 62 91 54 92 55 93 61 94 63 95 56 96 57 97 58 98 59 99
REMARK SMILES IDX 60 100
REMARK H PARENT 15 7 11 10 11 11 22 31 84 50 50 61
REMARK Flexibility Score: inf
ROOT
ATOM      1  C   UNL     1       5.654  -1.042   2.315  1.00  0.00     0.002 C 
ENDROOT
BRANCH   1   2
ATOM      2  C   UNL     1       5.165   0.337   2.760  1.00  0.00     0.021 C 
BRANCH   2   3
ATOM      3  C   UNL     1       6.245   1.239   3.382  1.00  0.00     0.116 C 
BRANCH   3   4
ATOM      4  N   UNL     1       6.904   2.030   2.352  1.00  0.00    -0.351 N 
ATOM      5  C   UNL     1       6.809   3.354   2.017  1.00  0.00     0.278 C 
ATOM      6  O   UNL     1       7.312   3.686   0.938  1.00  0.00    -0.268 OA
ATOM      7  H   UNL     1       7.532   1.519   1.793  1.00  0.00     0.163 HD
BRANCH   5   8
ATOM      8  C   UNL     1       6.094   4.394   2.937  1.00  0.00     0.275 C 
BRANCH   8   9
ATOM      9  N   UNL     1       4.683   4.614   2.502  1.00  0.00    -0.332 N 
ATOM     10  H   UNL     1       4.284   5.380   3.044  1.00  0.00     0.347 HD
ATOM     11  H   UNL     1       4.685   4.836   1.507  1.00  0.00     0.347 HD
BRANCH   9  12
ATOM     12  C   UNL     1       3.875   3.425   2.701  1.00  0.00     0.302 C 
BRANCH  12  13
ATOM     13  C   UNL     1       2.398   3.510   2.426  1.00  0.00     0.052 A 
ATOM     14  C   UNL     1       0.527   2.447   1.235  1.00  0.00     0.119 A 
ATOM     15  C   UNL     1      -0.360   3.283   1.899  1.00  0.00     0.050 A 
ATOM     16  C   UNL     1       1.891   2.580   1.482  1.00  0.00     0.059 A 
ATOM     17  C   UNL     1       0.116   4.219   2.821  1.00  0.00     0.051 A 
ATOM     18  C   UNL     1       1.485   4.326   3.107  1.00  0.00     0.127 A 
BRANCH  14  19
ATOM     19  O   UNL     1      -0.019   1.564   0.347  1.00  0.00    -0.497 OA
ATOM     20  C   UNL     1       0.682   0.332   0.197  1.00  0.00     0.278 C 
ENDBRANCH  14  19
BRANCH  18  21
ATOM     21  O   UNL     1       1.792   5.311   4.004  1.00  0.00    -0.496 OA
ATOM     22  C   UNL     1       2.608   4.918   5.100  1.00  0.00     0.278 C 
ENDBRANCH  18  21
ENDBRANCH  12  13
ENDBRANCH   9  12
ENDBRANCH   8   9
BRANCH   8  23
ATOM     23  C   UNL     1       6.846   5.759   2.859  1.00  0.00     0.051 C 
ATOM     24  C   UNL     1       6.130   6.878   3.629  1.00  0.00     0.014 C 
ATOM     25  C   UNL     1       8.279   5.640   3.397  1.00  0.00     0.014 C 
ENDBRANCH   8  23
ENDBRANCH   5   8
ENDBRANCH   3   4
ENDBRANCH   2   3
ENDBRANCH   1   2
BRANCH   1  26
ATOM     26  C   UNL     1       5.840  -2.057   3.442  1.00  0.00     0.002 C 
BRANCH  26  27
ATOM     27  C   UNL     1       4.610  -2.312   4.322  1.00  0.00     0.021 C 
BRANCH  27  28
ATOM     28  C   UNL     1       3.319  -2.655   3.577  1.00  0.00     0.116 C 
BRANCH  28  29
ATOM     29  N   UNL     1       3.442  -3.870   2.788  1.00  0.00    -0.352 N 
ATOM     30  C   UNL     1       2.802  -5.077   2.928  1.00  0.00     0.251 C 
ATOM     31  H   UNL     1       4.082  -3.820   2.041  1.00  0.00     0.163 HD
ATOM     32  O   UNL     1       3.193  -6.049   2.291  1.00  0.00    -0.269 OA
BRANCH  30  33
ATOM     33  C   UNL     1       1.654  -5.212   3.852  1.00  0.00     0.039 A 
ATOM     34  C   UNL     1       1.604  -6.314   4.710  1.00  0.00     0.014 A 
ATOM     35  C   UNL     1       0.615  -4.277   3.853  1.00  0.00     0.014 A 
ATOM     36  C   UNL     1       0.543  -6.447   5.610  1.00  0.00     0.010 A 
ATOM     37  C   UNL     1      -0.412  -4.379   4.790  1.00  0.00     0.010 A 
ATOM     38  C   UNL     1      -0.459  -5.465   5.678  1.00  0.00    -0.014 A 
BRANCH  38  39
ATOM     39  C   UNL     1      -1.563  -5.557   6.669  1.00  0.00     0.031 A 
ATOM     40  C   UNL     1      -2.982  -5.745   6.207  1.00  0.00     0.074 A 
ATOM     41  C   UNL     1      -1.294  -5.405   7.981  1.00  0.00     0.049 A 
ATOM     42  N   UNL     1      -4.084  -5.768   6.912  1.00  0.00    -0.248 NA
ATOM     43  C   UNL     1      -3.193  -5.904   4.759  1.00  0.00     0.031 C 
ATOM     44  C   UNL     1       0.035  -5.172   8.551  1.00  0.00     0.029 A 
ATOM     45  N   UNL     1      -2.126  -5.409   9.073  1.00  0.00    -0.354 N 
ATOM     46  C   UNL     1      -5.118  -5.925   5.997  1.00  0.00     0.074 A 
ATOM     47  C   UNL     1      -4.516  -5.949   4.681  1.00  0.00     0.031 C 
ATOM     48  C   UNL     1      -0.071  -5.068   9.886  1.00  0.00     0.029 A 
ATOM     49  C   UNL     1      -1.475  -5.195  10.265  1.00  0.00     0.049 A 
ATOM     50  H   UNL     1      -3.098  -5.552   9.008  1.00  0.00     0.167 HD
ATOM     51  C   UNL     1      -6.446  -6.056   6.231  1.00  0.00     0.037 A 
ATOM     52  C   UNL     1      -1.955  -5.104  11.520  1.00  0.00     0.037 A 
ATOM     53  C   UNL     1      -7.038  -6.062   7.544  1.00  0.00     0.049 A 
ATOM     54  C   UNL     1      -3.431  -5.269  11.758  1.00  0.00     0.074 A 
ATOM     55  C   UNL     1      -8.366  -6.248   7.889  1.00  0.00     0.029 A 
ATOM     56  N   UNL     1      -6.341  -5.876   8.728  1.00  0.00    -0.354 N 
ATOM     57  N   UNL     1      -4.388  -5.473  10.883  1.00  0.00    -0.248 NA
ATOM     58  C   UNL     1      -3.893  -5.199  13.151  1.00  0.00     0.031 C 
ATOM     59  C   UNL     1      -8.476  -6.143   9.280  1.00  0.00     0.029 A 
ATOM     60  C   UNL     1      -7.212  -5.930   9.804  1.00  0.00     0.049 A 
ATOM     61  H   UNL     1      -5.370  -5.728   8.794  1.00  0.00     0.167 HD
ATOM     62  C   UNL     1      -5.561  -5.579  11.622  1.00  0.00     0.074 A 
ATOM     63  C   UNL     1      -5.193  -5.428  13.015  1.00  0.00     0.031 C 
ATOM     64  C   UNL     1      -6.828  -5.785  11.186  1.00  0.00     0.037 A 
BRANCH  51  65
ATOM     65  C   UNL     1      -7.351  -6.212   5.041  1.00  0.00     0.058 A 
ATOM     66  C   UNL     1      -7.376  -7.396   4.287  1.00  0.00     0.135 A 
ATOM     67  C   UNL     1      -8.227  -5.179   4.668  1.00  0.00     0.135 A 
ATOM     68  F   UNL     1      -6.548  -8.408   4.591  1.00  0.00    -0.206 F 
ATOM     69  C   UNL     1      -8.215  -7.541   3.188  1.00  0.00     0.059 A 
ATOM     70  C   UNL     1      -9.094  -5.312   3.586  1.00  0.00     0.059 A 
ATOM     71  F   UNL     1      -8.245  -4.026   5.354  1.00  0.00    -0.206 F 
ATOM     72  C   UNL     1      -9.069  -6.492   2.843  1.00  0.00     0.060 A 
BRANCH  72  73
ATOM     73  S   UNL     1     -10.154  -6.695   1.415  1.00  0.00     0.124 S 
ATOM     74  O   UNL     1      -9.213  -6.534   0.311  1.00  0.00    -0.237 OA
ATOM     75  O   UNL     1     -10.678  -8.044   1.608  1.00  0.00    -0.237 OA
ATOM     76  O   UNL     1     -11.128  -5.620   1.572  1.00  0.00    -0.744 OA
ENDBRANCH  72  73
ENDBRANCH  51  65
BRANCH  52  77
ATOM     77  C   UNL     1      -1.024  -4.866  12.654  1.00  0.00     0.058 A 
ATOM     78  C   UNL     1      -0.723  -5.890  13.565  1.00  0.00     0.135 A 
ATOM     79  C   UNL     1      -0.405  -3.621  12.840  1.00  0.00     0.135 A 
ATOM     80  F   UNL     1      -1.295  -7.096  13.431  1.00  0.00    -0.206 F 
ATOM     81  C   UNL     1       0.149  -5.685  14.629  1.00  0.00     0.059 A 
ATOM     82  C   UNL     1       0.487  -3.398  13.884  1.00  0.00     0.059 A 
ATOM     83  F   UNL     1      -0.646  -2.615  11.985  1.00  0.00    -0.206 F 
ATOM     84  C   UNL     1       0.751  -4.434  14.780  1.00  0.00     0.060 A 
BRANCH  84  85
ATOM     85  S   UNL     1       1.924  -4.192  16.131  1.00  0.00     0.124 S 
ATOM     86  O   UNL     1       1.030  -4.073  17.277  1.00  0.00    -0.237 OA
ATOM     87  O   UNL     1       2.724  -5.411  16.068  1.00  0.00    -0.237 OA
ATOM     88  O   UNL     1       2.627  -2.971  15.747  1.00  0.00    -0.744 OA
ENDBRANCH  84  85
ENDBRANCH  52  77
BRANCH  64  89
ATOM     89  C   UNL     1      -7.907  -5.890  12.226  1.00  0.00     0.058 A 
ATOM     90  C   UNL     1      -8.390  -4.759  12.902  1.00  0.00     0.135 A 
ATOM     91  C   UNL     1      -8.500  -7.130  12.512  1.00  0.00     0.135 A 
ATOM     92  F   UNL     1      -7.851  -3.552  12.669  1.00  0.00    -0.206 F 
ATOM     93  C   UNL     1      -9.411  -4.857  13.841  1.00  0.00     0.059 A 
ATOM     94  C   UNL     1      -9.538  -7.247  13.431  1.00  0.00     0.059 A 
ATOM     95  F   UNL     1      -8.080  -8.241  11.885  1.00  0.00    -0.206 F 
ATOM     96  C   UNL     1      -9.979  -6.106  14.099  1.00  0.00     0.060 A 
BRANCH  96  97
ATOM     97  S   UNL     1     -11.327  -6.216  15.295  1.00  0.00     0.124 S 
ATOM     98  O   UNL     1     -10.606  -6.118  16.559  1.00  0.00    -0.237 OA
ATOM     99  O   UNL     1     -12.154  -5.065  14.944  1.00  0.00    -0.237 OA
ATOM    100  O   UNL     1     -11.925  -7.518  15.012  1.00  0.00    -0.744 OA
ENDBRANCH  96  97
ENDBRANCH  64  89
ENDBRANCH  38  39
ENDBRANCH  30  33
ENDBRANCH  28  29
ENDBRANCH  27  28
ENDBRANCH  26  27
ENDBRANCH   1  26
TORSDOF 22
