REMARK SMILES O=C(NCCCCCCNC(=O)c1sccc1NS(=O)(=O)N1CCCC1)c1ccc(-c2c3nc(c(-c4c(F)cc(S(=O)(=O)[O-])cc4F)c4ccc([nH]4)c(-c4c(F)cc(S(=O)(=O)[O-])cc4F)c4nc(c(-c5c(F)cc(S(=O)(=O)[O-])cc5F)c5ccc2[nH]5)C=C4)C=C3)cc1
REMARK SMILES IDX 6 1 5 2 4 3 3 4 1 5 2 6 27 8 28 9 92 10 29 11 91 12 30 13
REMARK SMILES IDX 31 14 32 15 85 16 33 17 90 18 84 19 86 20 34 21 89 22 83 23
REMARK SMILES IDX 82 24 35 26 69 27 48 28 68 29 49 30 52 31 67 32 87 33 50 34
REMARK SMILES IDX 51 35 66 37 88 38 53 39 36 40 37 41 46 42 38 43 39 44 45 45
REMARK SMILES IDX 47 46 40 47 41 48 42 49 43 50 44 51 70 52 71 53 80 54 72 55
REMARK SMILES IDX 73 56 79 57 81 58 74 59 75 60 76 61 77 62 78 63 54 64 55 65
REMARK SMILES IDX 64 66 56 67 57 68 63 69 65 70 58 71 59 72 60 73 61 74 62 75
REMARK SMILES IDX 7 76 8 77 9 78 10 79 11 80 12 82 13 83 14 84 17 85 15 86
REMARK SMILES IDX 16 87 18 88 19 90 20 91 21 92 22 93 23 94 26 95 24 96 25 97
REMARK H PARENT 3 7 86 25 52 36 10 81 18 89
REMARK Flexibility Score: inf
ROOT
ATOM      1  C   UNL     1       4.107   2.246  -3.208  1.00  0.00     0.002 C 
ENDROOT
BRANCH   1   2
ATOM      2  C   UNL     1       4.569   0.936  -2.576  1.00  0.00     0.021 C 
BRANCH   2   3
ATOM      3  C   UNL     1       4.319   0.838  -1.082  1.00  0.00     0.116 C 
BRANCH   3   4
ATOM      4  N   UNL     1       2.902   0.819  -0.749  1.00  0.00    -0.352 N 
ATOM      5  O   UNL     1       0.993  -0.065   0.080  1.00  0.00    -0.269 OA
ATOM      6  C   UNL     1       2.217  -0.095   0.018  1.00  0.00     0.251 C 
ATOM      7  H   UNL     1       2.364   1.555  -1.121  1.00  0.00     0.163 HD
BRANCH   6   8
ATOM      8  C   UNL     1       2.985  -1.129   0.744  1.00  0.00     0.039 A 
ATOM      9  C   UNL     1       4.146  -0.772   1.430  1.00  0.00     0.014 A 
ATOM     10  C   UNL     1       2.577  -2.465   0.694  1.00  0.00     0.014 A 
ATOM     11  C   UNL     1       4.990  -1.762   1.906  1.00  0.00     0.010 A 
ATOM     12  C   UNL     1       3.369  -3.451   1.293  1.00  0.00     0.010 A 
ATOM     13  C   UNL     1       4.597  -3.111   1.881  1.00  0.00    -0.014 A 
BRANCH  13  14
ATOM     14  C   UNL     1       5.456  -4.104   2.576  1.00  0.00     0.031 A 
ATOM     15  C   UNL     1       6.110  -5.243   1.846  1.00  0.00     0.074 A 
ATOM     16  C   UNL     1       5.690  -3.912   3.891  1.00  0.00     0.049 A 
ATOM     17  N   UNL     1       6.931  -6.149   2.314  1.00  0.00    -0.248 NA
ATOM     18  C   UNL     1       5.804  -5.397   0.415  1.00  0.00     0.031 C 
ATOM     19  C   UNL     1       5.085  -2.851   4.705  1.00  0.00     0.029 A 
ATOM     20  N   UNL     1       6.513  -4.567   4.768  1.00  0.00    -0.354 N 
ATOM     21  C   UNL     1       7.238  -6.982   1.244  1.00  0.00     0.074 A 
ATOM     22  C   UNL     1       6.486  -6.495   0.107  1.00  0.00     0.031 C 
ATOM     23  C   UNL     1       5.606  -2.886   5.938  1.00  0.00     0.029 A 
ATOM     24  C   UNL     1       6.513  -4.021   6.031  1.00  0.00     0.049 A 
ATOM     25  H   UNL     1       7.053  -5.351   4.519  1.00  0.00     0.167 HD
ATOM     26  C   UNL     1       8.079  -8.045   1.216  1.00  0.00     0.037 A 
ATOM     27  C   UNL     1       7.147  -4.405   7.153  1.00  0.00     0.037 A 
ATOM     28  C   UNL     1       8.823  -8.518   2.360  1.00  0.00     0.049 A 
ATOM     29  C   UNL     1       8.049  -5.603   7.094  1.00  0.00     0.074 A 
ATOM     30  C   UNL     1       9.708  -9.580   2.431  1.00  0.00     0.029 A 
ATOM     31  N   UNL     1       8.771  -7.962   3.631  1.00  0.00    -0.354 N 
ATOM     32  N   UNL     1       8.344  -6.360   6.065  1.00  0.00    -0.248 NA
ATOM     33  C   UNL     1       8.703  -5.999   8.346  1.00  0.00     0.031 C 
ATOM     34  C   UNL     1      10.153  -9.696   3.752  1.00  0.00     0.029 A 
ATOM     35  C   UNL     1       9.593  -8.670   4.495  1.00  0.00     0.049 A 
ATOM     36  H   UNL     1       8.229  -7.179   3.882  1.00  0.00     0.167 HD
ATOM     37  C   UNL     1       9.227  -7.319   6.544  1.00  0.00     0.074 A 
ATOM     38  C   UNL     1       9.447  -7.018   7.944  1.00  0.00     0.031 C 
ATOM     39  C   UNL     1       9.796  -8.361   5.889  1.00  0.00     0.037 A 
BRANCH  26  40
ATOM     40  C   UNL     1       8.249  -8.782  -0.087  1.00  0.00     0.058 A 
ATOM     41  C   UNL     1       8.952  -8.220  -1.164  1.00  0.00     0.135 A 
ATOM     42  C   UNL     1       7.782 -10.100  -0.232  1.00  0.00     0.135 A 
ATOM     43  F   UNL     1       9.410  -6.960  -1.089  1.00  0.00    -0.206 F 
ATOM     44  C   UNL     1       9.178  -8.932  -2.339  1.00  0.00     0.059 A 
ATOM     45  C   UNL     1       8.020 -10.840  -1.387  1.00  0.00     0.059 A 
ATOM     46  F   UNL     1       7.103 -10.689   0.765  1.00  0.00    -0.206 F 
ATOM     47  C   UNL     1       8.715 -10.245  -2.438  1.00  0.00     0.060 A 
BRANCH  47  48
ATOM     48  S   UNL     1       9.057 -11.166  -3.953  1.00  0.00     0.124 S 
ATOM     49  O   UNL     1       8.196 -10.482  -4.912  1.00  0.00    -0.237 OA
ATOM     50  O   UNL     1      10.491 -10.956  -4.126  1.00  0.00    -0.237 OA
ATOM     51  O   UNL     1       8.663 -12.531  -3.620  1.00  0.00    -0.744 OA
ENDBRANCH  47  48
ENDBRANCH  26  40
BRANCH  27  52
ATOM     52  C   UNL     1       6.914  -3.673   8.426  1.00  0.00     0.058 A 
ATOM     53  C   UNL     1       7.941  -2.959   9.059  1.00  0.00     0.135 A 
ATOM     54  C   UNL     1       5.649  -3.679   9.038  1.00  0.00     0.135 A 
ATOM     55  F   UNL     1       9.167  -2.921   8.514  1.00  0.00    -0.206 F 
ATOM     56  C   UNL     1       7.734  -2.307  10.270  1.00  0.00     0.059 A 
ATOM     57  C   UNL     1       5.407  -3.002  10.227  1.00  0.00     0.059 A 
ATOM     58  F   UNL     1       4.625  -4.327   8.462  1.00  0.00    -0.206 F 
ATOM     59  C   UNL     1       6.463  -2.337  10.847  1.00  0.00     0.060 A 
BRANCH  59  60
ATOM     60  S   UNL     1       6.199  -1.480  12.413  1.00  0.00     0.124 S 
ATOM     61  O   UNL     1       6.884  -2.365  13.348  1.00  0.00    -0.237 OA
ATOM     62  O   UNL     1       6.837  -0.191  12.169  1.00  0.00    -0.237 OA
ATOM     63  O   UNL     1       4.744  -1.439  12.532  1.00  0.00    -0.744 OA
ENDBRANCH  59  60
ENDBRANCH  27  52
BRANCH  39  64
ATOM     64  C   UNL     1      10.730  -9.232   6.684  1.00  0.00     0.058 A 
ATOM     65  C   UNL     1      10.263 -10.076   7.704  1.00  0.00     0.135 A 
ATOM     66  C   UNL     1      12.110  -9.219   6.425  1.00  0.00     0.135 A 
ATOM     67  F   UNL     1       8.953 -10.121   7.998  1.00  0.00    -0.206 F 
ATOM     68  C   UNL     1      11.135 -10.841   8.471  1.00  0.00     0.059 A 
ATOM     69  C   UNL     1      12.997 -10.002   7.156  1.00  0.00     0.059 A 
ATOM     70  F   UNL     1      12.610  -8.438   5.454  1.00  0.00    -0.206 F 
ATOM     71  C   UNL     1      12.502 -10.794   8.192  1.00  0.00     0.060 A 
BRANCH  71  72
ATOM     72  S   UNL     1      13.624 -11.787   9.197  1.00  0.00     0.124 S 
ATOM     73  O   UNL     1      13.625 -11.046  10.454  1.00  0.00    -0.237 OA
ATOM     74  O   UNL     1      12.954 -13.083   9.225  1.00  0.00    -0.237 OA
ATOM     75  O   UNL     1      14.875 -11.751   8.447  1.00  0.00    -0.744 OA
ENDBRANCH  71  72
ENDBRANCH  39  64
ENDBRANCH  13  14
ENDBRANCH   6   8
ENDBRANCH   3   4
ENDBRANCH   2   3
ENDBRANCH   1   2
BRANCH   1  76
ATOM     76  C   UNL     1       4.665   3.517  -2.560  1.00  0.00     0.002 C 
BRANCH  76  77
ATOM     77  C   UNL     1       6.188   3.577  -2.417  1.00  0.00     0.021 C 
BRANCH  77  78
ATOM     78  C   UNL     1       6.962   3.286  -3.695  1.00  0.00     0.116 C 
BRANCH  78  79
ATOM     79  N   UNL     1       6.588   4.161  -4.780  1.00  0.00    -0.351 N 
ATOM     80  C   UNL     1       7.373   5.024  -5.490  1.00  0.00     0.263 C 
ATOM     81  H   UNL     1       5.639   4.133  -5.043  1.00  0.00     0.163 HD
ATOM     82  O   UNL     1       6.813   5.770  -6.293  1.00  0.00    -0.268 OA
BRANCH  80  83
ATOM     83  C   UNL     1       8.800   5.045  -5.274  1.00  0.00     0.116 A 
ATOM     84  S   UNL     1       9.403   6.401  -4.401  1.00  0.00    -0.136 S 
ATOM     85  C   UNL     1       9.818   4.216  -5.734  1.00  0.00     0.073 A 
ATOM     86  C   UNL     1      10.997   6.074  -4.888  1.00  0.00     0.068 A 
ATOM     87  C   UNL     1      11.056   4.935  -5.656  1.00  0.00     0.039 A 
BRANCH  85  88
ATOM     88  N   UNL     1       9.732   2.989  -6.461  1.00  0.00    -0.269 N 
ATOM     89  H   UNL     1       9.657   3.024  -7.442  1.00  0.00     0.181 HD
BRANCH  88  90
ATOM     90  S   UNL     1       9.752   1.467  -5.694  1.00  0.00     0.301 S 
ATOM     91  O   UNL     1       9.112   1.611  -4.405  1.00  0.00    -0.189 OA
ATOM     92  O   UNL     1       9.200   0.547  -6.657  1.00  0.00    -0.189 OA
BRANCH  90  93
ATOM     93  N   UNL     1      11.349   0.997  -5.413  1.00  0.00    -0.185 NA
ATOM     94  C   UNL     1      11.463   0.033  -4.259  1.00  0.00     0.104 C 
ATOM     95  C   UNL     1      12.406   1.960  -5.096  1.00  0.00     0.104 C 
ATOM     96  C   UNL     1      11.729   0.929  -3.041  1.00  0.00     0.018 C 
ATOM     97  C   UNL     1      12.271   2.237  -3.613  1.00  0.00     0.018 C 
ENDBRANCH  90  93
ENDBRANCH  88  90
ENDBRANCH  85  88
ENDBRANCH  80  83
ENDBRANCH  78  79
ENDBRANCH  77  78
ENDBRANCH  76  77
ENDBRANCH   1  76
TORSDOF 19
