REMARK SMILES O=C(NCCCCCCNC(=O)c1ccc(CNC(=O)c2cccnc2)o1)c1ccc(-c2c3nc(c(-c4c(F)cc(S(=O)(=O)[O-])cc4F)c4ccc([nH]4)c(-c4c(F)cc(S(=O)(=O)[O-])cc4F)c4nc(c(-c5c(F)cc(S(=O)(=O)[O-])cc5F)c5ccc2[nH]5)C=C4)C=C3)cc1
REMARK SMILES IDX 6 1 5 2 4 3 3 4 1 5 2 6 28 8 29 9 93 10 30 11 92 12 31 13
REMARK SMILES IDX 32 14 33 15 86 16 34 17 91 18 85 19 87 20 35 21 90 22 84 23
REMARK SMILES IDX 83 24 36 26 70 27 49 28 69 29 50 30 53 31 68 32 88 33 51 34
REMARK SMILES IDX 52 35 67 37 89 38 54 39 37 40 38 41 47 42 39 43 40 44 46 45
REMARK SMILES IDX 48 46 41 47 42 48 43 49 44 50 45 51 71 52 72 53 81 54 73 55
REMARK SMILES IDX 74 56 80 57 82 58 75 59 76 60 77 61 78 62 79 63 55 64 56 65
REMARK SMILES IDX 65 66 57 67 58 68 64 69 66 70 59 71 60 72 61 73 62 74 63 75
REMARK SMILES IDX 7 76 8 77 9 78 10 79 11 80 12 82 13 83 14 84 27 85 15 86
REMARK SMILES IDX 16 87 17 88 18 89 19 90 20 92 21 93 22 94 26 95 23 96 25 97
REMARK SMILES IDX 24 98
REMARK H PARENT 3 7 87 25 53 36 10 81 18 91
REMARK Flexibility Score: inf
ROOT
ATOM      1  C   UNL     1       4.172   1.431  -3.802  1.00  0.00     0.002 C 
ENDROOT
BRANCH   1   2
ATOM      2  C   UNL     1       4.611   0.263  -2.920  1.00  0.00     0.021 C 
BRANCH   2   3
ATOM      3  C   UNL     1       4.407   0.462  -1.424  1.00  0.00     0.116 C 
BRANCH   3   4
ATOM      4  N   UNL     1       3.006   0.523  -1.042  1.00  0.00    -0.352 N 
ATOM      5  O   UNL     1       1.140  -0.074   0.079  1.00  0.00    -0.269 OA
ATOM      6  C   UNL     1       2.361  -0.142  -0.023  1.00  0.00     0.251 C 
ATOM      7  H   UNL     1       2.442   1.119  -1.585  1.00  0.00     0.163 HD
BRANCH   6   8
ATOM      8  C   UNL     1       3.145  -0.963   0.929  1.00  0.00     0.039 A 
ATOM      9  C   UNL     1       4.337  -0.480   1.471  1.00  0.00     0.014 A 
ATOM     10  C   UNL     1       2.685  -2.237   1.278  1.00  0.00     0.014 A 
ATOM     11  C   UNL     1       5.138  -1.320   2.236  1.00  0.00     0.010 A 
ATOM     12  C   UNL     1       3.452  -3.050   2.122  1.00  0.00     0.010 A 
ATOM     13  C   UNL     1       4.701  -2.610   2.583  1.00  0.00    -0.014 A 
BRANCH  13  14
ATOM     14  C   UNL     1       5.550  -3.430   3.486  1.00  0.00     0.031 A 
ATOM     15  C   UNL     1       6.194  -4.708   3.021  1.00  0.00     0.074 A 
ATOM     16  C   UNL     1       5.793  -2.964   4.728  1.00  0.00     0.049 A 
ATOM     17  N   UNL     1       7.032  -5.484   3.661  1.00  0.00    -0.248 NA
ATOM     18  C   UNL     1       5.853  -5.182   1.671  1.00  0.00     0.031 C 
ATOM     19  C   UNL     1       5.196  -1.753   5.301  1.00  0.00     0.029 A 
ATOM     20  N   UNL     1       6.623  -3.422   5.717  1.00  0.00    -0.354 N 
ATOM     21  C   UNL     1       7.313  -6.540   2.802  1.00  0.00     0.074 A 
ATOM     22  C   UNL     1       6.534  -6.320   1.601  1.00  0.00     0.031 C 
ATOM     23  C   UNL     1       5.723  -1.533   6.513  1.00  0.00     0.029 A 
ATOM     24  C   UNL     1       6.654  -2.611   6.826  1.00  0.00     0.049 A 
ATOM     25  H   UNL     1       7.147  -4.253   5.640  1.00  0.00     0.167 HD
ATOM     26  C   UNL     1       8.151  -7.588   2.994  1.00  0.00     0.037 A 
ATOM     27  C   UNL     1       7.351  -2.719   7.972  1.00  0.00     0.037 A 
ATOM     28  C   UNL     1       8.930  -7.797   4.189  1.00  0.00     0.049 A 
ATOM     29  C   UNL     1       8.291  -3.875   8.146  1.00  0.00     0.074 A 
ATOM     30  C   UNL     1       9.810  -8.827   4.477  1.00  0.00     0.029 A 
ATOM     31  N   UNL     1       8.927  -6.959   5.295  1.00  0.00    -0.354 N 
ATOM     32  N   UNL     1       8.553  -4.853   7.312  1.00  0.00    -0.248 NA
ATOM     33  C   UNL     1       9.030  -3.944   9.412  1.00  0.00     0.031 C 
ATOM     34  C   UNL     1      10.319  -8.626   5.765  1.00  0.00     0.029 A 
ATOM     35  C   UNL     1       9.785  -7.450   6.267  1.00  0.00     0.049 A 
ATOM     36  H   UNL     1       8.394  -6.135   5.377  1.00  0.00     0.167 HD
ATOM     37  C   UNL     1       9.482  -5.659   7.957  1.00  0.00     0.074 A 
ATOM     38  C   UNL     1       9.766  -5.032   9.232  1.00  0.00     0.031 C 
ATOM     39  C   UNL     1      10.042  -6.820   7.537  1.00  0.00     0.037 A 
BRANCH  26  40
ATOM     40  C   UNL     1       8.278  -8.596   1.884  1.00  0.00     0.058 A 
ATOM     41  C   UNL     1       8.993  -8.309   0.712  1.00  0.00     0.135 A 
ATOM     42  C   UNL     1       7.732  -9.884   2.019  1.00  0.00     0.135 A 
ATOM     43  F   UNL     1       9.523  -7.089   0.525  1.00  0.00    -0.206 F 
ATOM     44  C   UNL     1       9.152  -9.256  -0.295  1.00  0.00     0.059 A 
ATOM     45  C   UNL     1       7.896 -10.854   1.033  1.00  0.00     0.059 A 
ATOM     46  F   UNL     1       7.038 -10.212   3.120  1.00  0.00    -0.206 F 
ATOM     47  C   UNL     1       8.600 -10.527  -0.125  1.00  0.00     0.060 A 
BRANCH  47  48
ATOM     48  S   UNL     1       8.830 -11.751  -1.433  1.00  0.00     0.124 S 
ATOM     49  O   UNL     1       7.904 -11.264  -2.451  1.00  0.00    -0.237 OA
ATOM     50  O   UNL     1      10.248 -11.608  -1.749  1.00  0.00    -0.237 OA
ATOM     51  O   UNL     1       8.457 -13.008  -0.793  1.00  0.00    -0.744 OA
ENDBRANCH  47  48
ENDBRANCH  26  40
BRANCH  27  52
ATOM     52  C   UNL     1       7.174  -1.702   9.039  1.00  0.00     0.058 A 
ATOM     53  C   UNL     1       8.184  -0.779   9.341  1.00  0.00     0.135 A 
ATOM     54  C   UNL     1       5.971  -1.618   9.759  1.00  0.00     0.135 A 
ATOM     55  F   UNL     1       9.351  -0.821   8.680  1.00  0.00    -0.206 F 
ATOM     56  C   UNL     1       8.016   0.185  10.329  1.00  0.00     0.059 A 
ATOM     57  C   UNL     1       5.770  -0.647  10.732  1.00  0.00     0.059 A 
ATOM     58  F   UNL     1       4.967  -2.467   9.491  1.00  0.00    -0.206 F 
ATOM     59  C   UNL     1       6.803   0.243  11.019  1.00  0.00     0.060 A 
BRANCH  59  60
ATOM     60  S   UNL     1       6.566   1.530  12.263  1.00  0.00     0.124 S 
ATOM     61  O   UNL     1       7.272   0.964  13.406  1.00  0.00    -0.237 OA
ATOM     62  O   UNL     1       7.191   2.690  11.635  1.00  0.00    -0.237 OA
ATOM     63  O   UNL     1       5.113   1.605  12.389  1.00  0.00    -0.744 OA
ENDBRANCH  59  60
ENDBRANCH  27  52
BRANCH  39  64
ATOM     64  C   UNL     1      11.012  -7.478   8.475  1.00  0.00     0.058 A 
ATOM     65  C   UNL     1      10.574  -8.140   9.632  1.00  0.00     0.135 A 
ATOM     66  C   UNL     1      12.391  -7.445   8.217  1.00  0.00     0.135 A 
ATOM     67  F   UNL     1       9.265  -8.192   9.925  1.00  0.00    -0.206 F 
ATOM     68  C   UNL     1      11.473  -8.715  10.523  1.00  0.00     0.059 A 
ATOM     69  C   UNL     1      13.307  -8.034   9.082  1.00  0.00     0.059 A 
ATOM     70  F   UNL     1      12.860  -6.832   7.118  1.00  0.00    -0.206 F 
ATOM     71  C   UNL     1      12.839  -8.650  10.243  1.00  0.00     0.060 A 
BRANCH  71  72
ATOM     72  S   UNL     1      14.001  -9.393  11.407  1.00  0.00     0.124 S 
ATOM     73  O   UNL     1      14.053  -8.379  12.455  1.00  0.00    -0.237 OA
ATOM     74  O   UNL     1      13.335 -10.642  11.766  1.00  0.00    -0.237 OA
ATOM     75  O   UNL     1      15.219  -9.546  10.617  1.00  0.00    -0.744 OA
ENDBRANCH  71  72
ENDBRANCH  39  64
ENDBRANCH  13  14
ENDBRANCH   6   8
ENDBRANCH   3   4
ENDBRANCH   2   3
ENDBRANCH   1   2
BRANCH   1  76
ATOM     76  C   UNL     1       4.799   2.788  -3.470  1.00  0.00     0.002 C 
BRANCH  76  77
ATOM     77  C   UNL     1       6.329   2.816  -3.374  1.00  0.00     0.021 C 
BRANCH  77  78
ATOM     78  C   UNL     1       7.074   2.289  -4.600  1.00  0.00     0.116 C 
BRANCH  78  79
ATOM     79  N   UNL     1       6.819   3.096  -5.778  1.00  0.00    -0.349 N 
ATOM     80  C   UNL     1       7.726   3.697  -6.619  1.00  0.00     0.286 C 
ATOM     81  H   UNL     1       5.871   3.232  -6.006  1.00  0.00     0.163 HD
ATOM     82  O   UNL     1       7.296   4.490  -7.458  1.00  0.00    -0.266 OA
BRANCH  80  83
ATOM     83  C   UNL     1       9.123   3.366  -6.473  1.00  0.00     0.191 A 
ATOM     84  C   UNL     1       9.801   2.160  -6.482  1.00  0.00     0.056 A 
ATOM     85  O   UNL     1      10.012   4.384  -6.268  1.00  0.00    -0.454 OA
ATOM     86  C   UNL     1      11.166   2.456  -6.245  1.00  0.00     0.048 A 
ATOM     87  C   UNL     1      11.244   3.825  -6.103  1.00  0.00     0.124 A 
BRANCH  87  88
ATOM     88  C   UNL     1      12.344   4.756  -5.759  1.00  0.00     0.191 C 
BRANCH  88  89
ATOM     89  N   UNL     1      12.659   5.586  -6.903  1.00  0.00    -0.345 N 
ATOM     90  C   UNL     1      12.815   6.946  -6.961  1.00  0.00     0.253 C 
ATOM     91  H   UNL     1      12.776   5.108  -7.756  1.00  0.00     0.164 HD
ATOM     92  O   UNL     1      12.950   7.510  -8.044  1.00  0.00    -0.269 OA
BRANCH  90  93
ATOM     93  C   UNL     1      12.808   7.754  -5.729  1.00  0.00     0.058 A 
ATOM     94  C   UNL     1      13.585   7.446  -4.613  1.00  0.00     0.017 A 
ATOM     95  C   UNL     1      12.023   8.898  -5.690  1.00  0.00     0.124 A 
ATOM     96  C   UNL     1      13.498   8.254  -3.482  1.00  0.00     0.021 A 
ATOM     97  N   UNL     1      11.927   9.706  -4.604  1.00  0.00    -0.264 NA
ATOM     98  C   UNL     1      12.659   9.358  -3.523  1.00  0.00     0.111 A 
ENDBRANCH  90  93
ENDBRANCH  88  89
ENDBRANCH  87  88
ENDBRANCH  80  83
ENDBRANCH  78  79
ENDBRANCH  77  78
ENDBRANCH  76  77
ENDBRANCH   1  76
TORSDOF 19
