REMARK SMILES O=C(CSc1ccccc1C(=O)NCCCCCCNC(=O)c1ccc(-c2c3nc(c(-c4c(F)cc(S(=O)(=O)[O-])cc4F)c4ccc([nH]4)c(-c4c(F)cc(S(=O)(=O)[O-])cc4F)c4nc(c(-c5c(F)cc(S(=O)(=O)[O-])cc5F)c5ccc2[nH]5)C=C4)C=C3)cc1)NCc1ccc(Cl)cc1
REMARK SMILES IDX 15 1 14 2 13 3 11 4 12 5 10 7 5 8 6 9 7 10 9 11 8 12 4 13
REMARK SMILES IDX 3 14 2 15 1 16 89 17 90 19 91 20 92 21 97 22 93 23 96 24
REMARK SMILES IDX 94 25 95 26 16 27 17 28 18 29 19 30 20 31 21 32 22 34 23 35
REMARK SMILES IDX 24 36 88 37 25 38 87 39 26 40 27 41 28 42 81 43 29 44 86 45
REMARK SMILES IDX 80 46 82 47 30 48 85 49 79 50 78 51 31 53 65 54 44 55 64 56
REMARK SMILES IDX 45 57 48 58 63 59 83 60 46 61 47 62 62 64 84 65 49 66 32 67
REMARK SMILES IDX 33 68 42 69 34 70 35 71 41 72 43 73 36 74 37 75 38 76 39 77
REMARK SMILES IDX 40 78 66 79 67 80 76 81 68 82 69 83 75 84 77 85 70 86 71 87
REMARK SMILES IDX 72 88 73 89 74 90 50 91 51 92 60 93 52 94 53 95 59 96 61 97
REMARK SMILES IDX 54 98 55 99 56 100 57 101 58 102
REMARK H PARENT 13 6 89 18 20 33 82 52 48 63
REMARK Flexibility Score: inf
ROOT
ATOM      1  C   UNL     1       5.950   0.231   0.273  1.00  0.00     0.021 C 
ENDROOT
BRANCH   1   2
ATOM      2  C   UNL     1       4.735   1.133   0.514  1.00  0.00     0.116 C 
BRANCH   2   3
ATOM      3  N   UNL     1       3.830   0.588   1.506  1.00  0.00    -0.352 N 
ATOM      4  C   UNL     1       2.807   1.188   2.191  1.00  0.00     0.252 C 
ATOM      5  O   UNL     1       2.310   0.575   3.136  1.00  0.00    -0.269 OA
ATOM      6  H   UNL     1       3.974  -0.362   1.722  1.00  0.00     0.163 HD
BRANCH   4   7
ATOM      7  C   UNL     1       2.405   2.585   1.937  1.00  0.00     0.053 A 
ATOM      8  C   UNL     1       2.051   3.174   0.717  1.00  0.00     0.020 A 
ATOM      9  C   UNL     1       1.927   4.589   0.711  1.00  0.00     0.016 A 
ATOM     10  C   UNL     1       2.022   5.366   1.868  1.00  0.00     0.001 A 
ATOM     11  C   UNL     1       2.428   3.371   3.116  1.00  0.00     0.015 A 
ATOM     12  C   UNL     1       2.227   4.748   3.086  1.00  0.00     0.001 A 
BRANCH   8  13
ATOM     13  S   UNL     1       1.681   2.534  -0.909  1.00  0.00    -0.115 SA
BRANCH  13  14
ATOM     14  C   UNL     1       1.287   0.773  -0.916  1.00  0.00     0.174 C 
BRANCH  14  15
ATOM     15  C   UNL     1       0.707   0.106   0.307  1.00  0.00     0.230 C 
ATOM     16  O   UNL     1      -0.201   0.578   0.981  1.00  0.00    -0.274 OA
ATOM     17  N   UNL     1       1.258  -1.146   0.532  1.00  0.00    -0.351 N 
ATOM     18  H   UNL     1       1.936  -1.479  -0.099  1.00  0.00     0.163 HD
BRANCH  17  19
ATOM     19  C   UNL     1       0.887  -1.988   1.646  1.00  0.00     0.151 C 
BRANCH  19  20
ATOM     20  C   UNL     1       1.543  -3.346   1.528  1.00  0.00    -0.029 A 
ATOM     21  C   UNL     1       0.790  -4.471   1.167  1.00  0.00     0.007 A 
ATOM     22  C   UNL     1       2.922  -3.502   1.751  1.00  0.00     0.007 A 
ATOM     23  C   UNL     1       1.397  -5.725   1.043  1.00  0.00     0.021 A 
ATOM     24  C   UNL     1       3.534  -4.751   1.607  1.00  0.00     0.021 A 
ATOM     25  C   UNL     1       2.767  -5.859   1.260  1.00  0.00     0.041 A 
ATOM     26  Cl  UNL     1       3.509  -7.404   1.108  1.00  0.00    -0.084 Cl
ENDBRANCH  19  20
ENDBRANCH  17  19
ENDBRANCH  14  15
ENDBRANCH  13  14
ENDBRANCH   8  13
ENDBRANCH   4   7
ENDBRANCH   2   3
ENDBRANCH   1   2
BRANCH   1  27
ATOM     27  C   UNL     1       5.650  -1.232  -0.091  1.00  0.00     0.002 C 
BRANCH  27  28
ATOM     28  C   UNL     1       4.695  -1.462  -1.262  1.00  0.00     0.002 C 
BRANCH  28  29
ATOM     29  C   UNL     1       5.121  -0.879  -2.604  1.00  0.00     0.021 C 
BRANCH  29  30
ATOM     30  C   UNL     1       6.469  -1.374  -3.101  1.00  0.00     0.116 C 
BRANCH  30  31
ATOM     31  N   UNL     1       6.523  -2.811  -3.298  1.00  0.00    -0.352 N 
ATOM     32  C   UNL     1       7.290  -3.505  -4.220  1.00  0.00     0.251 C 
ATOM     33  H   UNL     1       5.950  -3.354  -2.709  1.00  0.00     0.163 HD
ATOM     34  O   UNL     1       7.185  -4.713  -4.345  1.00  0.00    -0.269 OA
BRANCH  32  35
ATOM     35  C   UNL     1       8.201  -2.723  -5.080  1.00  0.00     0.039 A 
ATOM     36  C   UNL     1       8.089  -2.835  -6.467  1.00  0.00     0.014 A 
ATOM     37  C   UNL     1       9.078  -1.802  -4.506  1.00  0.00     0.014 A 
ATOM     38  C   UNL     1       8.802  -1.956  -7.285  1.00  0.00     0.010 A 
ATOM     39  C   UNL     1       9.717  -0.875  -5.316  1.00  0.00     0.010 A 
ATOM     40  C   UNL     1       9.586  -0.941  -6.712  1.00  0.00    -0.014 A 
BRANCH  40  41
ATOM     41  C   UNL     1      10.316   0.055  -7.533  1.00  0.00     0.031 A 
ATOM     42  C   UNL     1      11.816   0.118  -7.434  1.00  0.00     0.074 A 
ATOM     43  C   UNL     1       9.641   0.964  -8.263  1.00  0.00     0.049 A 
ATOM     44  N   UNL     1      12.638   1.031  -7.878  1.00  0.00    -0.248 NA
ATOM     45  C   UNL     1      12.469  -0.971  -6.689  1.00  0.00     0.031 C 
ATOM     46  C   UNL     1       8.185   1.030  -8.407  1.00  0.00     0.029 A 
ATOM     47  N   UNL     1      10.094   2.025  -9.006  1.00  0.00    -0.354 N 
ATOM     48  C   UNL     1      13.896   0.651  -7.428  1.00  0.00     0.074 A 
ATOM     49  C   UNL     1      13.723  -0.550  -6.641  1.00  0.00     0.031 C 
ATOM     50  C   UNL     1       7.867   2.065  -9.202  1.00  0.00     0.029 A 
ATOM     51  C   UNL     1       9.089   2.762  -9.588  1.00  0.00     0.049 A 
ATOM     52  H   UNL     1      11.049   2.239  -9.112  1.00  0.00     0.167 HD
ATOM     53  C   UNL     1      15.091   1.241  -7.666  1.00  0.00     0.037 A 
ATOM     54  C   UNL     1       9.150   3.880 -10.338  1.00  0.00     0.037 A 
ATOM     55  C   UNL     1      15.259   2.399  -8.500  1.00  0.00     0.049 A 
ATOM     56  C   UNL     1      10.495   4.490 -10.633  1.00  0.00     0.074 A 
ATOM     57  C   UNL     1      16.430   3.047  -8.851  1.00  0.00     0.029 A 
ATOM     58  N   UNL     1      14.222   3.070  -9.133  1.00  0.00    -0.354 N 
ATOM     59  N   UNL     1      11.679   4.108 -10.217  1.00  0.00    -0.248 NA
ATOM     60  C   UNL     1      10.514   5.677 -11.498  1.00  0.00     0.031 C 
ATOM     61  C   UNL     1      16.099   4.120  -9.685  1.00  0.00     0.029 A 
ATOM     62  C   UNL     1      14.726   4.121  -9.877  1.00  0.00     0.049 A 
ATOM     63  H   UNL     1      13.269   2.833  -9.062  1.00  0.00     0.167 HD
ATOM     64  C   UNL     1      12.587   4.987 -10.797  1.00  0.00     0.074 A 
ATOM     65  C   UNL     1      11.815   5.921 -11.591  1.00  0.00     0.031 C 
ATOM     66  C   UNL     1      13.937   5.017 -10.685  1.00  0.00     0.037 A 
BRANCH  53  67
ATOM     67  C   UNL     1      16.302   0.630  -7.019  1.00  0.00     0.058 A 
ATOM     68  C   UNL     1      16.813  -0.609  -7.436  1.00  0.00     0.135 A 
ATOM     69  C   UNL     1      16.955   1.287  -5.964  1.00  0.00     0.135 A 
ATOM     70  F   UNL     1      16.213  -1.288  -8.428  1.00  0.00    -0.206 F 
ATOM     71  C   UNL     1      17.903  -1.196  -6.804  1.00  0.00     0.059 A 
ATOM     72  C   UNL     1      18.065   0.732  -5.335  1.00  0.00     0.059 A 
ATOM     73  F   UNL     1      16.507   2.474  -5.525  1.00  0.00    -0.206 F 
ATOM     74  C   UNL     1      18.518  -0.521  -5.748  1.00  0.00     0.060 A 
BRANCH  74  75
ATOM     75  S   UNL     1      19.919  -1.302  -4.921  1.00  0.00     0.124 S 
ATOM     76  O   UNL     1      19.244  -2.283  -4.076  1.00  0.00    -0.237 OA
ATOM     77  O   UNL     1      20.682  -1.848  -6.039  1.00  0.00    -0.237 OA
ATOM     78  O   UNL     1      20.554  -0.194  -4.214  1.00  0.00    -0.744 OA
ENDBRANCH  74  75
ENDBRANCH  53  67
BRANCH  54  79
ATOM     79  C   UNL     1       7.905   4.475 -10.890  1.00  0.00     0.058 A 
ATOM     80  C   UNL     1       7.603   4.361 -12.255  1.00  0.00     0.135 A 
ATOM     81  C   UNL     1       6.987   5.150 -10.071  1.00  0.00     0.135 A 
ATOM     82  F   UNL     1       8.453   3.729 -13.078  1.00  0.00    -0.206 F 
ATOM     83  C   UNL     1       6.441   4.904 -12.793  1.00  0.00     0.059 A 
ATOM     84  C   UNL     1       5.808   5.685 -10.582  1.00  0.00     0.059 A 
ATOM     85  F   UNL     1       7.222   5.271  -8.755  1.00  0.00    -0.206 F 
ATOM     86  C   UNL     1       5.549   5.564 -11.947  1.00  0.00     0.060 A 
BRANCH  86  87
ATOM     87  S   UNL     1       4.017   6.221 -12.646  1.00  0.00     0.124 S 
ATOM     88  O   UNL     1       4.497   7.413 -13.335  1.00  0.00    -0.237 OA
ATOM     89  O   UNL     1       3.573   5.124 -13.500  1.00  0.00    -0.237 OA
ATOM     90  O   UNL     1       3.190   6.461 -11.468  1.00  0.00    -0.744 OA
ENDBRANCH  86  87
ENDBRANCH  54  79
BRANCH  66  91
ATOM     91  C   UNL     1      14.679   6.051 -11.479  1.00  0.00     0.058 A 
ATOM     92  C   UNL     1      14.742   7.390 -11.066  1.00  0.00     0.135 A 
ATOM     93  C   UNL     1      15.412   5.673 -12.615  1.00  0.00     0.135 A 
ATOM     94  F   UNL     1      14.052   7.798  -9.990  1.00  0.00    -0.206 F 
ATOM     95  C   UNL     1      15.509   8.323 -11.756  1.00  0.00     0.059 A 
ATOM     96  C   UNL     1      16.201   6.585 -13.308  1.00  0.00     0.059 A 
ATOM     97  F   UNL     1      15.388   4.401 -13.043  1.00  0.00    -0.206 F 
ATOM     98  C   UNL     1      16.240   7.909 -12.872  1.00  0.00     0.060 A 
BRANCH  98  99
ATOM     99  S   UNL     1      17.289   9.112 -13.716  1.00  0.00     0.124 S 
ATOM    100  O   UNL     1      16.305   9.880 -14.472  1.00  0.00    -0.237 OA
ATOM    101  O   UNL     1      17.922   9.813 -12.603  1.00  0.00    -0.237 OA
ATOM    102  O   UNL     1      18.185   8.279 -14.514  1.00  0.00    -0.744 OA
ENDBRANCH  98  99
ENDBRANCH  66  91
ENDBRANCH  40  41
ENDBRANCH  32  35
ENDBRANCH  30  31
ENDBRANCH  29  30
ENDBRANCH  28  29
ENDBRANCH  27  28
ENDBRANCH   1  27
TORSDOF 21
