REMARK SMILES O=C(NCCCCCCNC(=O)c1ccc(-c2c3nc(c(-c4c(F)cc(S(=O)(=O)[O-])cc4F)c4ccc([nH]4)c(-c4c(F)cc(S(=O)(=O)[O-])cc4F)c4nc(c(-c5c(F)cc(S(=O)(=O)[O-])cc5F)c5ccc2[nH]5)C=C4)C=C3)cc1)C1=Cc2cc(S(F)(F)(F)(F)F)ccc2O[C@@H]1C(F)(F)F
REMARK SMILES IDX 7 1 6 2 5 3 4 4 3 5 1 6 2 7 79 9 80 10 94 11 81 12 93 13
REMARK SMILES IDX 82 14 92 15 83 16 91 17 90 18 95 19 96 20 97 21 98 22 84 23
REMARK SMILES IDX 85 24 86 25 87 26 88 27 89 28 8 29 9 30 10 31 11 32 12 34
REMARK SMILES IDX 13 35 14 36 78 37 15 38 77 39 16 40 17 41 18 42 71 43 19 44
REMARK SMILES IDX 76 45 70 46 72 47 20 48 75 49 69 50 68 51 21 53 55 54 34 55
REMARK SMILES IDX 54 56 35 57 38 58 53 59 73 60 36 61 37 62 52 64 74 65 39 66
REMARK SMILES IDX 22 67 23 68 32 69 24 70 25 71 31 72 33 73 26 74 27 75 28 76
REMARK SMILES IDX 29 77 30 78 56 79 57 80 66 81 58 82 59 83 65 84 67 85 60 86
REMARK SMILES IDX 61 87 62 88 63 89 64 90 40 91 41 92 50 93 42 94 43 95 49 96
REMARK SMILES IDX 51 97 44 98 45 99 46 100 47 101 48 102
REMARK H PARENT 3 8 10 33 72 52 38 63
REMARK Flexibility Score: inf
ROOT
ATOM      1  C   UNL     1       4.918   3.652   1.803  1.00  0.00     0.002 C 
ENDROOT
BRANCH   1   2
ATOM      2  C   UNL     1       4.412   3.572   0.372  1.00  0.00     0.002 C 
BRANCH   2   3
ATOM      3  C   UNL     1       4.918   2.293  -0.274  1.00  0.00     0.021 C 
BRANCH   3   4
ATOM      4  C   UNL     1       4.412   1.094   0.510  1.00  0.00     0.116 C 
BRANCH   4   5
ATOM      5  N   UNL     1       2.942   1.094   0.510  1.00  0.00    -0.352 N 
ATOM      6  O   UNL     1       0.936  -0.042  -0.064  1.00  0.00    -0.270 OA
ATOM      7  C   UNL     1       2.207  -0.042  -0.064  1.00  0.00     0.251 C 
ATOM      8  H   UNL     1       2.449   1.855   0.895  1.00  0.00     0.163 HD
BRANCH   7   9
ATOM      9  C   UNL     1       2.967  -1.217  -0.658  1.00  0.00     0.067 C 
ATOM     10  C   UNL     1       4.327  -1.217  -0.658  1.00  0.00     0.025 C 
ATOM     11  C   UNL     1       2.207  -2.392  -1.251  1.00  0.00     0.314 C 
ATOM     12  C   UNL     1       5.087  -0.042  -0.064  1.00  0.00     0.019 A 
ATOM     13  O   UNL     1       3.410  -0.029   1.620  1.00  0.00    -0.475 OA
ATOM     14  C   UNL     1       6.219   0.480  -0.668  1.00  0.00     0.036 A 
ATOM     15  C   UNL     1       4.658   0.414   1.107  1.00  0.00     0.128 A 
ATOM     16  C   UNL     1       7.002   1.292   0.187  1.00  0.00     0.107 A 
ATOM     17  C   UNL     1       5.410   1.311   1.827  1.00  0.00     0.048 A 
ATOM     18  C   UNL     1       6.571   1.824   1.317  1.00  0.00     0.028 A 
BRANCH  11  19
ATOM     19  C   UNL     1       2.574  -3.663  -0.503  1.00  0.00     0.429 C 
ATOM     20  F   UNL     1       2.253  -3.530   0.781  1.00  0.00    -0.167 F 
ATOM     21  F   UNL     1       1.909  -4.691  -1.023  1.00  0.00    -0.167 F 
ATOM     22  F   UNL     1       3.881  -3.880  -0.613  1.00  0.00    -0.167 F 
ENDBRANCH  11  19
BRANCH  16  23
ATOM     23  S   UNL     1       8.712   1.625  -0.301  1.00  0.00     0.310 S 
ATOM     24  F   UNL     1       9.208   1.655   1.205  1.00  0.00    -0.094 F 
ATOM     25  F   UNL     1       8.418   3.167  -0.163  1.00  0.00    -0.094 F 
ATOM     26  F   UNL     1      10.180   1.914  -0.726  1.00  0.00    -0.094 F 
ATOM     27  F   UNL     1       9.027   0.077  -0.298  1.00  0.00    -0.094 F 
ATOM     28  F   UNL     1       7.259   1.316   0.237  1.00  0.00    -0.094 F 
ENDBRANCH  16  23
ENDBRANCH   7   9
ENDBRANCH   4   5
ENDBRANCH   3   4
ENDBRANCH   2   3
ENDBRANCH   1   2
BRANCH   1  29
ATOM     29  C   UNL     1       6.438   3.652   1.803  1.00  0.00     0.021 C 
BRANCH  29  30
ATOM     30  C   UNL     1       6.945   4.851   1.018  1.00  0.00     0.116 C 
BRANCH  30  31
ATOM     31  N   UNL     1       6.455   6.088   1.643  1.00  0.00    -0.352 N 
ATOM     32  C   UNL     1       7.410   7.085   2.147  1.00  0.00     0.251 C 
ATOM     33  H   UNL     1       5.487   6.249   1.725  1.00  0.00     0.163 HD
ATOM     34  O   UNL     1       6.987   8.155   2.688  1.00  0.00    -0.269 OA
BRANCH  32  35
ATOM     35  C   UNL     1       8.905   6.838   2.022  1.00  0.00     0.039 A 
ATOM     36  C   UNL     1       9.729   7.091   3.106  1.00  0.00     0.014 A 
ATOM     37  C   UNL     1       9.395   6.382   0.875  1.00  0.00     0.014 A 
ATOM     38  C   UNL     1      11.107   7.106   2.787  1.00  0.00     0.010 A 
ATOM     39  C   UNL     1      10.752   6.295   0.680  1.00  0.00     0.010 A 
ATOM     40  C   UNL     1      11.628   6.587   1.689  1.00  0.00    -0.014 A 
BRANCH  40  41
ATOM     41  C   UNL     1      13.120   6.328   1.555  1.00  0.00     0.031 A 
ATOM     42  C   UNL     1      13.809   6.976   0.529  1.00  0.00     0.074 A 
ATOM     43  C   UNL     1      13.712   5.462   2.459  1.00  0.00     0.049 A 
ATOM     44  N   UNL     1      15.113   6.914   0.259  1.00  0.00    -0.248 NA
ATOM     45  C   UNL     1      13.175   7.869  -0.453  1.00  0.00     0.031 C 
ATOM     46  C   UNL     1      13.025   4.811   3.502  1.00  0.00     0.029 A 
ATOM     47  N   UNL     1      15.033   5.078   2.519  1.00  0.00    -0.354 N 
ATOM     48  C   UNL     1      15.405   7.688  -0.789  1.00  0.00     0.074 A 
ATOM     49  C   UNL     1      14.161   8.308  -1.265  1.00  0.00     0.031 C 
ATOM     50  C   UNL     1      13.917   4.036   4.174  1.00  0.00     0.029 A 
ATOM     51  C   UNL     1      15.176   4.191   3.563  1.00  0.00     0.049 A 
ATOM     52  H   UNL     1      15.751   5.384   1.920  1.00  0.00     0.167 HD
ATOM     53  C   UNL     1      16.659   7.902  -1.364  1.00  0.00     0.037 A 
ATOM     54  C   UNL     1      16.329   3.541   3.974  1.00  0.00     0.037 A 
ATOM     55  C   UNL     1      17.820   7.285  -0.926  1.00  0.00     0.049 A 
ATOM     56  C   UNL     1      17.573   3.710   3.362  1.00  0.00     0.074 A 
ATOM     57  C   UNL     1      19.093   7.495  -1.489  1.00  0.00     0.029 A 
ATOM     58  N   UNL     1      17.958   6.379   0.103  1.00  0.00    -0.354 N 
ATOM     59  N   UNL     1      17.871   4.513   2.339  1.00  0.00    -0.248 NA
ATOM     60  C   UNL     1      18.795   3.003   3.767  1.00  0.00     0.031 C 
ATOM     61  C   UNL     1      19.985   6.720  -0.817  1.00  0.00     0.029 A 
ATOM     62  C   UNL     1      19.284   6.012   0.178  1.00  0.00     0.049 A 
ATOM     63  H   UNL     1      17.234   6.051   0.684  1.00  0.00     0.167 HD
ATOM     64  C   UNL     1      19.169   4.419   2.044  1.00  0.00     0.074 A 
ATOM     65  C   UNL     1      19.781   3.441   2.953  1.00  0.00     0.031 C 
ATOM     66  C   UNL     1      19.869   5.112   1.054  1.00  0.00     0.037 A 
BRANCH  53  67
ATOM     67  C   UNL     1      16.755   8.864  -2.536  1.00  0.00     0.058 A 
ATOM     68  C   UNL     1      16.427  10.203  -2.406  1.00  0.00     0.135 A 
ATOM     69  C   UNL     1      17.210   8.375  -3.684  1.00  0.00     0.135 A 
ATOM     70  F   UNL     1      16.214  10.787  -1.230  1.00  0.00    -0.206 F 
ATOM     71  C   UNL     1      16.340  10.895  -3.637  1.00  0.00     0.059 A 
ATOM     72  C   UNL     1      17.223   9.150  -4.818  1.00  0.00     0.059 A 
ATOM     73  F   UNL     1      17.657   7.123  -3.736  1.00  0.00    -0.206 F 
ATOM     74  C   UNL     1      16.856  10.466  -4.775  1.00  0.00     0.060 A 
BRANCH  74  75
ATOM     75  S   UNL     1      17.065  11.562  -6.200  1.00  0.00     0.124 S 
ATOM     76  O   UNL     1      15.701  12.112  -6.625  1.00  0.00    -0.237 OA
ATOM     77  O   UNL     1      17.987  12.723  -5.820  1.00  0.00    -0.237 OA
ATOM     78  O   UNL     1      17.755  10.686  -7.496  1.00  0.00    -0.744 OA
ENDBRANCH  74  75
ENDBRANCH  53  67
BRANCH  54  79
ATOM     79  C   UNL     1      16.235   2.592   5.157  1.00  0.00     0.058 A 
ATOM     80  C   UNL     1      17.051   2.847   6.247  1.00  0.00     0.135 A 
ATOM     81  C   UNL     1      15.438   1.531   5.127  1.00  0.00     0.135 A 
ATOM     82  F   UNL     1      17.668   4.010   6.434  1.00  0.00    -0.206 F 
ATOM     83  C   UNL     1      17.169   1.758   7.142  1.00  0.00     0.059 A 
ATOM     84  C   UNL     1      15.512   0.572   6.109  1.00  0.00     0.059 A 
ATOM     85  F   UNL     1      14.559   1.394   4.138  1.00  0.00    -0.206 F 
ATOM     86  C   UNL     1      16.340   0.731   7.185  1.00  0.00     0.060 A 
BRANCH  86  87
ATOM     87  S   UNL     1      16.303  -0.406   8.593  1.00  0.00     0.124 S 
ATOM     88  O   UNL     1      17.675  -1.064   8.755  1.00  0.00    -0.237 OA
ATOM     89  O   UNL     1      15.956   0.370   9.866  1.00  0.00    -0.237 OA
ATOM     90  O   UNL     1      15.121  -1.612   8.321  1.00  0.00    -0.744 OA
ENDBRANCH  86  87
ENDBRANCH  54  79
BRANCH  66  91
ATOM     91  C   UNL     1      21.364   4.865   0.931  1.00  0.00     0.058 A 
ATOM     92  C   UNL     1      21.822   3.587   0.660  1.00  0.00     0.135 A 
ATOM     93  C   UNL     1      22.206   5.880   1.086  1.00  0.00     0.135 A 
ATOM     94  F   UNL     1      21.026   2.603   0.251  1.00  0.00    -0.206 F 
ATOM     95  C   UNL     1      23.213   3.422   0.858  1.00  0.00     0.059 A 
ATOM     96  C   UNL     1      23.562   5.663   1.134  1.00  0.00     0.059 A 
ATOM     97  F   UNL     1      21.733   7.119   1.195  1.00  0.00    -0.206 F 
ATOM     98  C   UNL     1      24.081   4.414   0.934  1.00  0.00     0.060 A 
BRANCH  98  99
ATOM     99  S   UNL     1      25.863   4.136   0.780  1.00  0.00     0.124 S 
ATOM    100  O   UNL     1      26.328   3.185   1.886  1.00  0.00    -0.237 OA
ATOM    101  O   UNL     1      26.167   3.516  -0.586  1.00  0.00    -0.237 OA
ATOM    102  O   UNL     1      26.688   5.627   0.925  1.00  0.00    -0.744 OA
ENDBRANCH  98  99
ENDBRANCH  66  91
ENDBRANCH  40  41
ENDBRANCH  32  35
ENDBRANCH  30  31
ENDBRANCH  29  30
ENDBRANCH   1  29
TORSDOF 18
