REMARK SMILES CC(C)(C)OC(=O)N1CCC(c2c(C(=O)NCCCCCCNC(=O)c3ccc(-c4c5nc(c(-c6c(F)cc(S(=O)(=O)[O-])cc6F)c6ccc([nH]6)c(-c6c(F)cc(S(=O)(=O)[O-])cc6F)c6nc(c(-c7c(F)cc(S(=O)(=O)[O-])cc7F)c7ccc4[nH]7)C=C6)C=C5)cc3)cnn2-c2ccccc2)CC1
REMARK SMILES IDX 19 1 18 2 17 3 16 4 14 5 15 6 13 8 12 9 94 10 92 11 93 12
REMARK SMILES IDX 11 13 6 14 7 15 8 16 9 17 102 18 10 19 101 20 5 21 2 22 1 23
REMARK SMILES IDX 3 24 4 25 95 26 96 27 100 28 97 29 99 30 98 31 20 32 21 33
REMARK SMILES IDX 22 34 23 35 24 36 25 38 26 39 27 40 91 41 28 42 90 43 29 44
REMARK SMILES IDX 30 45 31 46 84 47 32 48 89 49 83 50 85 51 33 52 88 53 82 54
REMARK SMILES IDX 81 55 34 57 68 58 47 59 67 60 48 61 51 62 66 63 86 64 49 65
REMARK SMILES IDX 50 66 65 68 87 69 52 70 35 71 36 72 45 73 37 74 38 75 44 76
REMARK SMILES IDX 46 77 39 78 40 79 41 80 42 81 43 82 69 83 70 84 79 85 71 86
REMARK SMILES IDX 72 87 78 88 80 89 73 90 74 91 75 92 76 93 77 94 53 95 54 96
REMARK SMILES IDX 63 97 55 98 56 99 62 100 64 101 57 102 58 103 59 104 60 105
REMARK SMILES IDX 61 106
REMARK H PARENT 16 7 23 37 85 56 51 67
REMARK Flexibility Score: inf
ROOT
ATOM      1  C   UNL     1      -1.535 -11.468   8.241  1.00  0.00     0.002 C 
ENDROOT
BRANCH   1   2
ATOM      2  C   UNL     1      -0.362 -10.551   8.593  1.00  0.00     0.021 C 
BRANCH   2   3
ATOM      3  C   UNL     1       0.783 -10.531   7.586  1.00  0.00     0.116 C 
BRANCH   3   4
ATOM      4  N   UNL     1       0.445  -9.873   6.340  1.00  0.00    -0.352 N 
ATOM      5  C   UNL     1       0.993  -8.836   5.627  1.00  0.00     0.254 C 
ATOM      6  O   UNL     1       0.455  -8.608   4.540  1.00  0.00    -0.269 OA
ATOM      7  H   UNL     1      -0.355 -10.254   5.910  1.00  0.00     0.163 HD
BRANCH   5   8
ATOM      8  C   UNL     1       2.146  -8.055   6.088  1.00  0.00     0.081 A 
ATOM      9  C   UNL     1       2.586  -6.821   5.550  1.00  0.00     0.060 A 
ATOM     10  N   UNL     1       3.718  -6.480   6.292  1.00  0.00    -0.237 N 
ATOM     11  C   UNL     1       3.128  -8.364   7.047  1.00  0.00     0.149 A 
ATOM     12  N   UNL     1       4.112  -7.481   7.103  1.00  0.00    -0.175 NA
BRANCH   9  13
ATOM     13  C   UNL     1       2.017  -6.081   4.332  1.00  0.00     0.043 C 
ATOM     14  C   UNL     1       0.447  -2.614   2.770  1.00  0.00     0.410 C 
ATOM     15  O   UNL     1      -0.469  -2.205   3.487  1.00  0.00    -0.224 OA
ATOM     16  N   UNL     1       0.870  -3.925   2.782  1.00  0.00    -0.308 N 
ATOM     17  C   UNL     1       0.009  -4.938   3.367  1.00  0.00     0.124 C 
ATOM     18  C   UNL     1       2.211  -4.367   2.422  1.00  0.00     0.124 C 
ATOM     19  C   UNL     1       0.627  -5.495   4.641  1.00  0.00     0.032 C 
ATOM     20  C   UNL     1       2.888  -5.003   3.649  1.00  0.00     0.032 C 
BRANCH  14  21
ATOM     21  O   UNL     1       1.067  -1.858   1.829  1.00  0.00    -0.444 OA
BRANCH  21  22
ATOM     22  C   UNL     1       0.575  -0.519   1.536  1.00  0.00     0.106 C 
ATOM     23  C   UNL     1       1.205  -0.143   0.186  1.00  0.00     0.056 C 
ATOM     24  C   UNL     1       1.059   0.462   2.607  1.00  0.00     0.056 C 
ATOM     25  C   UNL     1      -0.954  -0.451   1.359  1.00  0.00     0.056 C 
ENDBRANCH  21  22
ENDBRANCH  14  21
ENDBRANCH   9  13
BRANCH  10  26
ATOM     26  C   UNL     1       4.574  -5.365   6.208  1.00  0.00     0.065 A 
ATOM     27  C   UNL     1       5.925  -5.592   5.910  1.00  0.00     0.028 A 
ATOM     28  C   UNL     1       4.103  -4.077   6.465  1.00  0.00     0.028 A 
ATOM     29  C   UNL     1       6.788  -4.511   5.766  1.00  0.00     0.002 A 
ATOM     30  C   UNL     1       4.979  -2.999   6.328  1.00  0.00     0.002 A 
ATOM     31  C   UNL     1       6.311  -3.215   5.961  1.00  0.00     0.000 A 
ENDBRANCH  10  26
ENDBRANCH   5   8
ENDBRANCH   3   4
ENDBRANCH   2   3
ENDBRANCH   1   2
BRANCH   1  32
ATOM     32  C   UNL     1      -1.179 -12.915   7.866  1.00  0.00     0.002 C 
BRANCH  32  33
ATOM     33  C   UNL     1      -0.252 -13.672   8.830  1.00  0.00     0.021 C 
BRANCH  33  34
ATOM     34  C   UNL     1      -0.854 -13.916  10.205  1.00  0.00     0.116 C 
BRANCH  34  35
ATOM     35  N   UNL     1      -1.993 -14.831  10.154  1.00  0.00    -0.352 N 
ATOM     36  C   UNL     1      -2.792 -15.261  11.194  1.00  0.00     0.251 C 
ATOM     37  H   UNL     1      -2.220 -15.186   9.264  1.00  0.00     0.163 HD
ATOM     38  O   UNL     1      -3.459 -16.284  11.090  1.00  0.00    -0.269 OA
BRANCH  36  39
ATOM     39  C   UNL     1      -2.833 -14.464  12.431  1.00  0.00     0.039 A 
ATOM     40  C   UNL     1      -2.850 -15.070  13.692  1.00  0.00     0.014 A 
ATOM     41  C   UNL     1      -2.835 -13.079  12.304  1.00  0.00     0.014 A 
ATOM     42  C   UNL     1      -2.791 -14.268  14.829  1.00  0.00     0.010 A 
ATOM     43  C   UNL     1      -2.621 -12.302  13.410  1.00  0.00     0.010 A 
ATOM     44  C   UNL     1      -2.662 -12.883  14.678  1.00  0.00    -0.014 A 
BRANCH  44  45
ATOM     45  C   UNL     1      -2.435 -12.000  15.820  1.00  0.00     0.031 A 
ATOM     46  C   UNL     1      -1.182 -12.275  16.585  1.00  0.00     0.074 A 
ATOM     47  C   UNL     1      -3.145 -10.854  15.933  1.00  0.00     0.049 A 
ATOM     48  N   UNL     1      -1.056 -12.508  17.850  1.00  0.00    -0.248 NA
ATOM     49  C   UNL     1       0.076 -12.446  15.832  1.00  0.00     0.031 C 
ATOM     50  C   UNL     1      -4.213 -10.377  15.042  1.00  0.00     0.029 A 
ATOM     51  N   UNL     1      -2.951  -9.783  16.748  1.00  0.00    -0.354 N 
ATOM     52  C   UNL     1       0.315 -12.610  18.087  1.00  0.00     0.074 A 
ATOM     53  C   UNL     1       0.933 -12.776  16.800  1.00  0.00     0.031 C 
ATOM     54  C   UNL     1      -4.368  -9.046  15.192  1.00  0.00     0.029 A 
ATOM     55  C   UNL     1      -3.525  -8.599  16.282  1.00  0.00     0.049 A 
ATOM     56  H   UNL     1      -2.450  -9.838  17.593  1.00  0.00     0.167 HD
ATOM     57  C   UNL     1       0.853 -12.287  19.297  1.00  0.00     0.037 A 
ATOM     58  C   UNL     1      -3.260  -7.339  16.718  1.00  0.00     0.037 A 
ATOM     59  C   UNL     1      -0.165 -12.228  20.316  1.00  0.00     0.049 A 
ATOM     60  C   UNL     1      -2.652  -7.481  18.070  1.00  0.00     0.074 A 
ATOM     61  C   UNL     1      -1.098 -13.126  20.799  1.00  0.00     0.029 A 
ATOM     62  N   UNL     1      -0.592 -10.986  20.725  1.00  0.00    -0.354 N 
ATOM     63  N   UNL     1      -3.298  -7.952  19.104  1.00  0.00    -0.248 NA
ATOM     64  C   UNL     1      -1.201  -7.568  18.155  1.00  0.00     0.031 C 
ATOM     65  C   UNL     1      -2.272 -12.349  21.018  1.00  0.00     0.029 A 
ATOM     66  C   UNL     1      -1.964 -11.015  20.747  1.00  0.00     0.049 A 
ATOM     67  H   UNL     1      -0.021 -10.219  20.957  1.00  0.00     0.167 HD
ATOM     68  C   UNL     1      -2.387  -8.779  19.746  1.00  0.00     0.074 A 
ATOM     69  C   UNL     1      -1.089  -8.438  19.164  1.00  0.00     0.031 C 
ATOM     70  C   UNL     1      -2.800  -9.870  20.460  1.00  0.00     0.037 A 
BRANCH  57  71
ATOM     71  C   UNL     1       2.217 -11.660  19.492  1.00  0.00     0.058 A 
ATOM     72  C   UNL     1       2.726 -11.509  20.800  1.00  0.00     0.135 A 
ATOM     73  C   UNL     1       2.911 -10.949  18.488  1.00  0.00     0.135 A 
ATOM     74  F   UNL     1       2.146 -12.137  21.836  1.00  0.00    -0.206 F 
ATOM     75  C   UNL     1       3.787 -10.652  21.097  1.00  0.00     0.059 A 
ATOM     76  C   UNL     1       4.005 -10.134  18.754  1.00  0.00     0.059 A 
ATOM     77  F   UNL     1       2.505 -10.926  17.213  1.00  0.00    -0.206 F 
ATOM     78  C   UNL     1       4.408  -9.955  20.066  1.00  0.00     0.060 A 
BRANCH  78  79
ATOM     79  S   UNL     1       5.700  -8.762  20.455  1.00  0.00     0.124 S 
ATOM     80  O   UNL     1       4.937  -7.717  21.126  1.00  0.00    -0.237 OA
ATOM     81  O   UNL     1       6.592  -9.549  21.301  1.00  0.00    -0.237 OA
ATOM     82  O   UNL     1       6.238  -8.412  19.143  1.00  0.00    -0.744 OA
ENDBRANCH  78  79
ENDBRANCH  57  71
BRANCH  58  83
ATOM     83  C   UNL     1      -3.166  -6.092  15.901  1.00  0.00     0.058 A 
ATOM     84  C   UNL     1      -3.001  -4.832  16.508  1.00  0.00     0.135 A 
ATOM     85  C   UNL     1      -2.966  -6.125  14.504  1.00  0.00     0.135 A 
ATOM     86  F   UNL     1      -3.160  -4.697  17.834  1.00  0.00    -0.206 F 
ATOM     87  C   UNL     1      -2.596  -3.697  15.790  1.00  0.00     0.059 A 
ATOM     88  C   UNL     1      -2.583  -5.006  13.765  1.00  0.00     0.059 A 
ATOM     89  F   UNL     1      -3.040  -7.271  13.812  1.00  0.00    -0.206 F 
ATOM     90  C   UNL     1      -2.364  -3.802  14.419  1.00  0.00     0.060 A 
BRANCH  90  91
ATOM     91  S   UNL     1      -1.631  -2.415  13.518  1.00  0.00     0.124 S 
ATOM     92  O   UNL     1      -2.740  -1.470  13.462  1.00  0.00    -0.237 OA
ATOM     93  O   UNL     1      -0.516  -2.041  14.381  1.00  0.00    -0.237 OA
ATOM     94  O   UNL     1      -1.250  -3.008  12.238  1.00  0.00    -0.744 OA
ENDBRANCH  90  91
ENDBRANCH  58  83
BRANCH  70  95
ATOM     95  C   UNL     1      -4.269 -10.020  20.770  1.00  0.00     0.058 A 
ATOM     96  C   UNL     1      -5.277 -10.181  19.801  1.00  0.00     0.135 A 
ATOM     97  C   UNL     1      -4.647 -10.189  22.110  1.00  0.00     0.135 A 
ATOM     98  F   UNL     1      -4.990 -10.150  18.494  1.00  0.00    -0.206 F 
ATOM     99  C   UNL     1      -6.602 -10.452  20.148  1.00  0.00     0.059 A 
ATOM    100  C   UNL     1      -5.955 -10.493  22.479  1.00  0.00     0.059 A 
ATOM    101  F   UNL     1      -3.723 -10.117  23.082  1.00  0.00    -0.206 F 
ATOM    102  C   UNL     1      -6.931 -10.609  21.492  1.00  0.00     0.060 A 
BRANCH 102 103
ATOM    103  S   UNL     1      -8.629 -11.031  21.938  1.00  0.00     0.124 S 
ATOM    104  O   UNL     1      -9.335  -9.783  21.666  1.00  0.00    -0.237 OA
ATOM    105  O   UNL     1      -8.929 -12.139  21.036  1.00  0.00    -0.237 OA
ATOM    106  O   UNL     1      -8.530 -11.397  23.349  1.00  0.00    -0.744 OA
ENDBRANCH 102 103
ENDBRANCH  70  95
ENDBRANCH  44  45
ENDBRANCH  36  39
ENDBRANCH  34  35
ENDBRANCH  33  34
ENDBRANCH  32  33
ENDBRANCH   1  32
TORSDOF 20
