REMARK SMILES Nc1oc2ccc(F)cc2c(=O)c1[C@@H]1[NH2+][C@H](C(=O)NCCCCCCNC(=O)c2ccc(-c3c4nc(c(-c5c(F)cc(S(=O)(=O)[O-])cc5F)c5ccc([nH]5)c(-c5c(F)cc(S(=O)(=O)[O-])cc5F)c5nc(c(-c6c(F)cc(S(=O)(=O)[O-])cc6F)c6ccc3[nH]6)C=C5)C=C4)cc2)CS1
REMARK SMILES IDX 23 1 22 2 21 3 20 4 19 5 17 6 18 7 16 9 14 10 15 11 96 12
REMARK SMILES IDX 95 15 13 16 2 17 3 18 4 19 11 20 5 21 10 22 12 23 6 24 9 25
REMARK SMILES IDX 7 26 8 27 1 28 24 31 25 32 26 33 27 34 28 36 29 37 30 38
REMARK SMILES IDX 94 39 31 40 93 41 32 42 33 43 34 44 87 45 35 46 92 47 86 48
REMARK SMILES IDX 88 49 36 50 91 51 85 52 84 53 37 55 71 56 50 57 70 58 51 59
REMARK SMILES IDX 54 60 69 61 89 62 52 63 53 64 68 66 90 67 55 68 38 69 39 70
REMARK SMILES IDX 48 71 40 72 41 73 47 74 49 75 42 76 43 77 44 78 45 79 46 80
REMARK SMILES IDX 72 81 73 82 82 83 74 84 75 85 81 86 83 87 76 88 77 89 78 90
REMARK SMILES IDX 79 91 80 92 56 93 57 94 66 95 58 96 59 97 65 98 67 99 60 100
REMARK SMILES IDX 61 101 62 102 63 103 64 104
REMARK H PARENT 19 8 15 13 15 14 1 29 1 30 26 35 88 54 54 65
REMARK Flexibility Score: inf
ROOT
ATOM      1  C   UNL     1      -2.946  -0.655  -2.069  1.00  0.00     0.002 C 
ENDROOT
BRANCH   1   2
ATOM      2  C   UNL     1      -3.249  -0.994  -0.597  1.00  0.00     0.002 C 
BRANCH   2   3
ATOM      3  C   UNL     1      -2.028  -1.385   0.269  1.00  0.00     0.021 C 
BRANCH   3   4
ATOM      4  C   UNL     1      -0.837  -0.409   0.300  1.00  0.00     0.116 C 
BRANCH   4   5
ATOM      5  N   UNL     1      -0.729   0.418   1.490  1.00  0.00    -0.351 N 
ATOM      6  C   UNL     1       0.332   0.647   2.325  1.00  0.00     0.279 C 
ATOM      7  O   UNL     1       0.224   1.622   3.084  1.00  0.00    -0.268 OA
ATOM      8  H   UNL     1      -1.555   0.892   1.736  1.00  0.00     0.163 HD
BRANCH   6   9
ATOM      9  C   UNL     1       1.655  -0.162   2.346  1.00  0.00     0.283 C 
ATOM     10  C   UNL     1       2.570  -2.136   1.243  1.00  0.00     0.283 C 
ATOM     11  N   UNL     1       1.475  -1.604   2.081  1.00  0.00    -0.320 N 
ATOM     12  S   UNL     1       3.849  -0.868   1.089  1.00  0.00    -0.087 SA
ATOM     13  H   UNL     1       1.463  -2.106   2.969  1.00  0.00     0.348 HD
ATOM     14  H   UNL     1       0.595  -1.733   1.582  1.00  0.00     0.348 HD
ATOM     15  C   UNL     1       2.702   0.477   1.449  1.00  0.00     0.151 C 
BRANCH  10  16
ATOM     16  C   UNL     1       1.973  -2.632  -0.053  1.00  0.00     0.128 A 
ATOM     17  C   UNL     1       1.794  -1.971  -1.221  1.00  0.00     0.205 A 
ATOM     18  O   UNL     1       0.988  -2.429  -2.240  1.00  0.00    -0.440 OA
ATOM     19  C   UNL     1       0.337  -3.612  -2.099  1.00  0.00     0.140 A 
ATOM     20  C   UNL     1       1.387  -4.001   0.069  1.00  0.00     0.205 A 
ATOM     21  C   UNL     1      -0.520  -3.959  -3.127  1.00  0.00     0.051 A 
ATOM     22  C   UNL     1       0.526  -4.463  -1.019  1.00  0.00     0.068 A 
ATOM     23  O   UNL     1       1.574  -4.718   1.050  1.00  0.00    -0.288 OA
ATOM     24  C   UNL     1      -1.140  -5.197  -3.086  1.00  0.00     0.043 A 
ATOM     25  C   UNL     1      -0.110  -5.706  -0.971  1.00  0.00     0.055 A 
ATOM     26  C   UNL     1      -0.939  -6.064  -2.021  1.00  0.00     0.124 A 
ATOM     27  F   UNL     1      -1.564  -7.247  -2.012  1.00  0.00    -0.207 F 
BRANCH  17  28
ATOM     28  N   UNL     1       2.273  -0.732  -1.525  1.00  0.00    -0.369 N 
ATOM     29  H   UNL     1       2.088  -0.335  -2.407  1.00  0.00     0.159 HD
ATOM     30  H   UNL     1       2.804  -0.234  -0.863  1.00  0.00     0.159 HD
ENDBRANCH  17  28
ENDBRANCH  10  16
ENDBRANCH   6   9
ENDBRANCH   4   5
ENDBRANCH   3   4
ENDBRANCH   2   3
ENDBRANCH   1   2
BRANCH   1  31
ATOM     31  C   UNL     1      -3.533  -1.464  -3.256  1.00  0.00     0.021 C 
BRANCH  31  32
ATOM     32  C   UNL     1      -4.092  -2.883  -3.084  1.00  0.00     0.116 C 
BRANCH  32  33
ATOM     33  N   UNL     1      -5.343  -3.052  -3.826  1.00  0.00    -0.352 N 
ATOM     34  C   UNL     1      -5.681  -3.819  -4.918  1.00  0.00     0.251 C 
ATOM     35  H   UNL     1      -6.088  -2.512  -3.476  1.00  0.00     0.163 HD
ATOM     36  O   UNL     1      -6.795  -3.682  -5.420  1.00  0.00    -0.269 OA
BRANCH  34  37
ATOM     37  C   UNL     1      -4.739  -4.787  -5.525  1.00  0.00     0.039 A 
ATOM     38  C   UNL     1      -4.169  -5.817  -4.784  1.00  0.00     0.014 A 
ATOM     39  C   UNL     1      -4.495  -4.727  -6.901  1.00  0.00     0.014 A 
ATOM     40  C   UNL     1      -3.250  -6.692  -5.394  1.00  0.00     0.010 A 
ATOM     41  C   UNL     1      -3.608  -5.631  -7.511  1.00  0.00     0.010 A 
ATOM     42  C   UNL     1      -2.922  -6.598  -6.759  1.00  0.00    -0.014 A 
BRANCH  42  43
ATOM     43  C   UNL     1      -1.872  -7.471  -7.392  1.00  0.00     0.031 A 
ATOM     44  C   UNL     1      -0.709  -6.869  -8.163  1.00  0.00     0.074 A 
ATOM     45  C   UNL     1      -1.924  -8.817  -7.285  1.00  0.00     0.049 A 
ATOM     46  N   UNL     1       0.201  -7.462  -8.901  1.00  0.00    -0.248 NA
ATOM     47  C   UNL     1      -0.549  -5.408  -8.096  1.00  0.00     0.031 C 
ATOM     48  C   UNL     1      -2.929  -9.571  -6.537  1.00  0.00     0.029 A 
ATOM     49  N   UNL     1      -1.105  -9.795  -7.806  1.00  0.00    -0.354 N 
ATOM     50  C   UNL     1       1.017  -6.451  -9.407  1.00  0.00     0.074 A 
ATOM     51  C   UNL     1       0.474  -5.202  -8.916  1.00  0.00     0.031 C 
ATOM     52  C   UNL     1      -2.643 -10.879  -6.604  1.00  0.00     0.029 A 
ATOM     53  C   UNL     1      -1.493 -11.075  -7.481  1.00  0.00     0.049 A 
ATOM     54  H   UNL     1      -0.315  -9.596  -8.359  1.00  0.00     0.167 HD
ATOM     55  C   UNL     1       2.121  -6.545 -10.195  1.00  0.00     0.037 A 
ATOM     56  C   UNL     1      -1.017 -12.277  -7.864  1.00  0.00     0.037 A 
ATOM     57  C   UNL     1       2.686  -7.784 -10.675  1.00  0.00     0.049 A 
ATOM     58  C   UNL     1       0.138 -12.360  -8.823  1.00  0.00     0.074 A 
ATOM     59  C   UNL     1       3.790  -7.966 -11.493  1.00  0.00     0.029 A 
ATOM     60  N   UNL     1       2.208  -9.051 -10.376  1.00  0.00    -0.354 N 
ATOM     61  N   UNL     1       0.849 -11.391  -9.345  1.00  0.00    -0.248 NA
ATOM     62  C   UNL     1       0.547 -13.705  -9.255  1.00  0.00     0.031 C 
ATOM     63  C   UNL     1       3.950  -9.336 -11.727  1.00  0.00     0.029 A 
ATOM     64  C   UNL     1       2.984 -10.015 -11.004  1.00  0.00     0.049 A 
ATOM     65  H   UNL     1       1.430  -9.239  -9.802  1.00  0.00     0.167 HD
ATOM     66  C   UNL     1       1.808 -12.010 -10.141  1.00  0.00     0.074 A 
ATOM     67  C   UNL     1       1.591 -13.436 -10.027  1.00  0.00     0.031 C 
ATOM     68  C   UNL     1       2.782 -11.439 -10.893  1.00  0.00     0.037 A 
BRANCH  55  69
ATOM     69  C   UNL     1       2.802  -5.262 -10.611  1.00  0.00     0.058 A 
ATOM     70  C   UNL     1       3.513  -4.471  -9.694  1.00  0.00     0.135 A 
ATOM     71  C   UNL     1       2.792  -4.847 -11.954  1.00  0.00     0.135 A 
ATOM     72  F   UNL     1       3.553  -4.810  -8.396  1.00  0.00    -0.206 F 
ATOM     73  C   UNL     1       4.155  -3.299 -10.085  1.00  0.00     0.059 A 
ATOM     74  C   UNL     1       3.455  -3.696 -12.374  1.00  0.00     0.059 A 
ATOM     75  F   UNL     1       2.139  -5.569 -12.880  1.00  0.00    -0.206 F 
ATOM     76  C   UNL     1       4.119  -2.918 -11.428  1.00  0.00     0.060 A 
BRANCH  76  77
ATOM     77  S   UNL     1       4.938  -1.382 -11.908  1.00  0.00     0.124 S 
ATOM     78  O   UNL     1       4.088  -0.386 -11.261  1.00  0.00    -0.237 OA
ATOM     79  O   UNL     1       6.269  -1.547 -11.334  1.00  0.00    -0.237 OA
ATOM     80  O   UNL     1       4.878  -1.403 -13.366  1.00  0.00    -0.744 OA
ENDBRANCH  76  77
ENDBRANCH  55  69
BRANCH  56  81
ATOM     81  C   UNL     1      -1.644 -13.518  -7.330  1.00  0.00     0.058 A 
ATOM     82  C   UNL     1      -0.950 -14.340  -6.431  1.00  0.00     0.135 A 
ATOM     83  C   UNL     1      -2.955 -13.887  -7.674  1.00  0.00     0.135 A 
ATOM     84  F   UNL     1       0.313 -14.041  -6.087  1.00  0.00    -0.206 F 
ATOM     85  C   UNL     1      -1.533 -15.477  -5.883  1.00  0.00     0.059 A 
ATOM     86  C   UNL     1      -3.571 -15.002  -7.116  1.00  0.00     0.059 A 
ATOM     87  F   UNL     1      -3.664 -13.133  -8.528  1.00  0.00    -0.206 F 
ATOM     88  C   UNL     1      -2.850 -15.792  -6.221  1.00  0.00     0.060 A 
BRANCH  88  89
ATOM     89  S   UNL     1      -3.622 -17.222  -5.435  1.00  0.00     0.124 S 
ATOM     90  O   UNL     1      -2.875 -18.325  -6.029  1.00  0.00    -0.237 OA
ATOM     91  O   UNL     1      -3.366 -16.965  -4.021  1.00  0.00    -0.237 OA
ATOM     92  O   UNL     1      -5.020 -17.116  -5.841  1.00  0.00    -0.744 OA
ENDBRANCH  88  89
ENDBRANCH  56  81
BRANCH  68  93
ATOM     93  C   UNL     1       3.733 -12.352 -11.623  1.00  0.00     0.058 A 
ATOM     94  C   UNL     1       3.333 -13.110 -12.735  1.00  0.00     0.135 A 
ATOM     95  C   UNL     1       5.081 -12.434 -11.232  1.00  0.00     0.135 A 
ATOM     96  F   UNL     1       2.057 -13.076 -13.152  1.00  0.00    -0.206 F 
ATOM     97  C   UNL     1       4.226 -13.934 -13.416  1.00  0.00     0.059 A 
ATOM     98  C   UNL     1       5.998 -13.229 -11.916  1.00  0.00     0.059 A 
ATOM     99  F   UNL     1       5.524 -11.726 -10.181  1.00  0.00    -0.206 F 
ATOM    100  C   UNL     1       5.558 -13.985 -13.000  1.00  0.00     0.060 A 
BRANCH 100 101
ATOM    101  S   UNL     1       6.707 -15.040 -13.910  1.00  0.00     0.124 S 
ATOM    102  O   UNL     1       6.231 -16.373 -13.553  1.00  0.00    -0.237 OA
ATOM    103  O   UNL     1       6.474 -14.633 -15.292  1.00  0.00    -0.237 OA
ATOM    104  O   UNL     1       8.011 -14.674 -13.366  1.00  0.00    -0.744 OA
ENDBRANCH 100 101
ENDBRANCH  68  93
ENDBRANCH  42  43
ENDBRANCH  34  37
ENDBRANCH  32  33
ENDBRANCH  31  32
ENDBRANCH   1  31
TORSDOF 18
