REMARK SMILES CCc1nc(=O)n([C@H]2CCCOC2)c(CC)c1CC(=O)NCCCCCCNC(=O)c1ccc(-c2c3nc(c(-c4c(F)cc(S(=O)(=O)[O-])cc4F)c4ccc([nH]4)c(-c4c(F)cc(S(=O)(=O)[O-])cc4F)c4nc(c(-c5c(F)cc(S(=O)(=O)[O-])cc5F)c5ccc2[nH]5)C=C4)C=C3)cc1
REMARK SMILES IDX 25 1 24 2 23 3 22 4 21 5 19 6 20 7 18 9 17 10 3 11 4 12 5 13
REMARK SMILES IDX 14 14 6 15 7 16 2 17 1 18 15 19 16 20 8 21 9 22 13 23 10 24
REMARK SMILES IDX 12 25 11 26 26 27 27 28 28 29 29 30 30 32 31 33 32 34 96 35
REMARK SMILES IDX 33 36 95 37 34 38 35 39 36 40 89 41 37 42 94 43 88 44 90 45
REMARK SMILES IDX 38 46 93 47 87 48 86 49 39 51 73 52 52 53 72 54 53 55 56 56
REMARK SMILES IDX 71 57 91 58 54 59 55 60 70 62 92 63 57 64 40 65 41 66 50 67
REMARK SMILES IDX 42 68 43 69 49 70 51 71 44 72 45 73 46 74 47 75 48 76 74 77
REMARK SMILES IDX 75 78 84 79 76 80 77 81 83 82 85 83 78 84 79 85 80 86 81 87
REMARK SMILES IDX 82 88 58 89 59 90 68 91 60 92 61 93 67 94 69 95 62 96 63 97
REMARK SMILES IDX 64 98 65 99 66 100
REMARK H PARENT 21 8 28 31 90 50 56 61
REMARK Flexibility Score: inf
ROOT
ATOM      1  C   UNL     1       7.159   5.554  -3.281  1.00  0.00     0.002 C 
ENDROOT
BRANCH   1   2
ATOM      2  C   UNL     1       6.246   4.341  -3.494  1.00  0.00     0.002 C 
BRANCH   2   3
ATOM      3  C   UNL     1       5.488   4.342  -4.824  1.00  0.00     0.021 C 
BRANCH   3   4
ATOM      4  C   UNL     1       6.384   4.576  -6.034  1.00  0.00     0.116 C 
BRANCH   4   5
ATOM      5  N   UNL     1       7.322   3.495  -6.231  1.00  0.00    -0.356 N 
ATOM      6  C   UNL     1       7.379   2.593  -7.247  1.00  0.00     0.224 C 
ATOM      7  O   UNL     1       8.288   1.762  -7.247  1.00  0.00    -0.275 OA
ATOM      8  H   UNL     1       8.014   3.400  -5.537  1.00  0.00     0.163 HD
BRANCH   6   9
ATOM      9  C   UNL     1       6.363   2.666  -8.382  1.00  0.00     0.139 C 
BRANCH   9  10
ATOM     10  C   UNL     1       4.910   2.422  -8.031  1.00  0.00     0.003 A 
ATOM     11  C   UNL     1       3.908   3.474  -8.400  1.00  0.00     0.051 A 
ATOM     12  N   UNL     1       2.698   3.477  -7.966  1.00  0.00    -0.198 NA
ATOM     13  C   UNL     1       2.250   2.465  -7.170  1.00  0.00     0.348 A 
ATOM     14  C   UNL     1       4.398   1.338  -7.385  1.00  0.00     0.028 A 
ATOM     15  O   UNL     1       1.191   2.587  -6.566  1.00  0.00    -0.246 OA
ATOM     16  N   UNL     1       3.013   1.272  -7.100  1.00  0.00    -0.291 N 
BRANCH  11  17
ATOM     17  C   UNL     1       4.272   4.704  -9.252  1.00  0.00     0.053 C 
ATOM     18  C   UNL     1       4.737   4.445 -10.672  1.00  0.00     0.011 C 
ENDBRANCH  11  17
BRANCH  14  19
ATOM     19  C   UNL     1       5.342   0.267  -6.868  1.00  0.00     0.051 C 
ATOM     20  C   UNL     1       5.548   0.349  -5.355  1.00  0.00     0.010 C 
ENDBRANCH  14  19
BRANCH  16  21
ATOM     21  C   UNL     1       2.204   0.104  -6.612  1.00  0.00     0.118 C 
ATOM     22  C   UNL     1       0.978  -0.145  -7.543  1.00  0.00     0.030 C 
ATOM     23  C   UNL     1       2.801  -1.309  -6.439  1.00  0.00     0.185 C 
ATOM     24  C   UNL     1       1.427  -0.752  -8.868  1.00  0.00     0.031 C 
ATOM     25  O   UNL     1       3.241  -1.880  -7.675  1.00  0.00    -0.379 OA
ATOM     26  C   UNL     1       2.206  -2.037  -8.637  1.00  0.00     0.160 C 
ENDBRANCH  16  21
ENDBRANCH   9  10
ENDBRANCH   6   9
ENDBRANCH   4   5
ENDBRANCH   3   4
ENDBRANCH   2   3
ENDBRANCH   1   2
BRANCH   1  27
ATOM     27  C   UNL     1       6.473   6.910  -3.447  1.00  0.00     0.021 C 
BRANCH  27  28
ATOM     28  C   UNL     1       5.311   7.141  -2.492  1.00  0.00     0.116 C 
BRANCH  28  29
ATOM     29  N   UNL     1       5.739   7.159  -1.100  1.00  0.00    -0.352 N 
ATOM     30  C   UNL     1       5.478   8.100  -0.131  1.00  0.00     0.251 C 
ATOM     31  H   UNL     1       6.289   6.394  -0.813  1.00  0.00     0.163 HD
ATOM     32  O   UNL     1       6.064   8.062   0.946  1.00  0.00    -0.269 OA
BRANCH  30  33
ATOM     33  C   UNL     1       4.508   9.176  -0.425  1.00  0.00     0.039 A 
ATOM     34  C   UNL     1       3.297   8.870  -1.047  1.00  0.00     0.014 A 
ATOM     35  C   UNL     1       4.846  10.502  -0.149  1.00  0.00     0.014 A 
ATOM     36  C   UNL     1       2.526   9.895  -1.576  1.00  0.00     0.010 A 
ATOM     37  C   UNL     1       4.008  11.532  -0.589  1.00  0.00     0.010 A 
ATOM     38  C   UNL     1       2.874  11.240  -1.365  1.00  0.00    -0.014 A 
BRANCH  38  39
ATOM     39  C   UNL     1       2.057  12.306  -2.009  1.00  0.00     0.031 A 
ATOM     40  C   UNL     1       2.668  13.228  -3.037  1.00  0.00     0.074 A 
ATOM     41  C   UNL     1       0.737  12.376  -1.739  1.00  0.00     0.049 A 
ATOM     42  N   UNL     1       2.092  14.168  -3.742  1.00  0.00    -0.248 NA
ATOM     43  C   UNL     1       4.108  13.081  -3.313  1.00  0.00     0.031 C 
ATOM     44  C   UNL     1       0.028  11.529  -0.775  1.00  0.00     0.029 A 
ATOM     45  N   UNL     1      -0.253  13.162  -2.274  1.00  0.00    -0.354 N 
ATOM     46  C   UNL     1       3.091  14.723  -4.535  1.00  0.00     0.074 A 
ATOM     47  C   UNL     1       4.323  14.050  -4.193  1.00  0.00     0.031 C 
ATOM     48  C   UNL     1      -1.286  11.791  -0.839  1.00  0.00     0.029 A 
ATOM     49  C   UNL     1      -1.509  12.871  -1.792  1.00  0.00     0.049 A 
ATOM     50  H   UNL     1      -0.081  13.868  -2.938  1.00  0.00     0.167 HD
ATOM     51  C   UNL     1       2.986  15.684  -5.483  1.00  0.00     0.037 A 
ATOM     52  C   UNL     1      -2.707  13.420  -2.076  1.00  0.00     0.037 A 
ATOM     53  C   UNL     1       1.751  16.326  -5.848  1.00  0.00     0.049 A 
ATOM     54  C   UNL     1      -2.776  14.540  -3.078  1.00  0.00     0.074 A 
ATOM     55  C   UNL     1       1.544  17.298  -6.812  1.00  0.00     0.029 A 
ATOM     56  N   UNL     1       0.516  16.058  -5.278  1.00  0.00    -0.354 N 
ATOM     57  N   UNL     1      -1.821  15.030  -3.832  1.00  0.00    -0.248 NA
ATOM     58  C   UNL     1      -4.080  15.195  -3.256  1.00  0.00     0.031 C 
ATOM     59  C   UNL     1       0.193  17.651  -6.793  1.00  0.00     0.029 A 
ATOM     60  C   UNL     1      -0.451  16.867  -5.849  1.00  0.00     0.049 A 
ATOM     61  H   UNL     1       0.352  15.391  -4.573  1.00  0.00     0.167 HD
ATOM     62  C   UNL     1      -2.413  16.041  -4.581  1.00  0.00     0.074 A 
ATOM     63  C   UNL     1      -3.812  16.075  -4.212  1.00  0.00     0.031 C 
ATOM     64  C   UNL     1      -1.844  16.877  -5.483  1.00  0.00     0.037 A 
BRANCH  51  65
ATOM     65  C   UNL     1       4.227  16.097  -6.227  1.00  0.00     0.058 A 
ATOM     66  C   UNL     1       4.795  15.271  -7.209  1.00  0.00     0.135 A 
ATOM     67  C   UNL     1       4.780  17.375  -6.045  1.00  0.00     0.135 A 
ATOM     68  F   UNL     1       4.317  14.033  -7.412  1.00  0.00    -0.206 F 
ATOM     69  C   UNL     1       5.864  15.700  -7.988  1.00  0.00     0.059 A 
ATOM     70  C   UNL     1       5.834  17.834  -6.829  1.00  0.00     0.059 A 
ATOM     71  F   UNL     1       4.274  18.204  -5.117  1.00  0.00    -0.206 F 
ATOM     72  C   UNL     1       6.369  16.988  -7.800  1.00  0.00     0.060 A 
BRANCH  72  73
ATOM     73  S   UNL     1       7.718  17.541  -8.864  1.00  0.00     0.124 S 
ATOM     74  O   UNL     1       8.809  16.674  -8.428  1.00  0.00    -0.237 OA
ATOM     75  O   UNL     1       7.189  17.271 -10.197  1.00  0.00    -0.237 OA
ATOM     76  O   UNL     1       7.867  18.953  -8.524  1.00  0.00    -0.744 OA
ENDBRANCH  72  73
ENDBRANCH  51  65
BRANCH  52  77
ATOM     77  C   UNL     1      -3.938  12.939  -1.391  1.00  0.00     0.058 A 
ATOM     78  C   UNL     1      -4.972  12.322  -2.112  1.00  0.00     0.135 A 
ATOM     79  C   UNL     1      -4.120  13.111  -0.010  1.00  0.00     0.135 A 
ATOM     80  F   UNL     1      -4.851  12.139  -3.436  1.00  0.00    -0.206 F 
ATOM     81  C   UNL     1      -6.153  11.922  -1.495  1.00  0.00     0.059 A 
ATOM     82  C   UNL     1      -5.277  12.690   0.636  1.00  0.00     0.059 A 
ATOM     83  F   UNL     1      -3.158  13.684   0.731  1.00  0.00    -0.206 F 
ATOM     84  C   UNL     1      -6.297  12.114  -0.119  1.00  0.00     0.060 A 
BRANCH  84  85
ATOM     85  S   UNL     1      -7.835  11.595   0.670  1.00  0.00     0.124 S 
ATOM     86  O   UNL     1      -8.779  12.575   0.143  1.00  0.00    -0.237 OA
ATOM     87  O   UNL     1      -7.988  10.231   0.175  1.00  0.00    -0.237 OA
ATOM     88  O   UNL     1      -7.538  11.710   2.095  1.00  0.00    -0.744 OA
ENDBRANCH  84  85
ENDBRANCH  52  77
BRANCH  64  89
ATOM     89  C   UNL     1      -2.720  17.904  -6.141  1.00  0.00     0.058 A 
ATOM     90  C   UNL     1      -3.151  19.042  -5.444  1.00  0.00     0.135 A 
ATOM     91  C   UNL     1      -3.032  17.811  -7.507  1.00  0.00     0.135 A 
ATOM     92  F   UNL     1      -2.886  19.172  -4.134  1.00  0.00    -0.206 F 
ATOM     93  C   UNL     1      -3.855  20.058  -6.079  1.00  0.00     0.059 A 
ATOM     94  C   UNL     1      -3.713  18.827  -8.170  1.00  0.00     0.059 A 
ATOM     95  F   UNL     1      -2.636  16.744  -8.220  1.00  0.00    -0.206 F 
ATOM     96  C   UNL     1      -4.117  19.949  -7.446  1.00  0.00     0.060 A 
BRANCH  96  97
ATOM     97  S   UNL     1      -4.952  21.320  -8.270  1.00  0.00     0.124 S 
ATOM     98  O   UNL     1      -6.288  21.248  -7.687  1.00  0.00    -0.237 OA
ATOM     99  O   UNL     1      -4.143  22.464  -7.861  1.00  0.00    -0.237 OA
ATOM    100  O   UNL     1      -4.867  20.973  -9.685  1.00  0.00    -0.744 OA
ENDBRANCH  96  97
ENDBRANCH  64  89
ENDBRANCH  38  39
ENDBRANCH  30  33
ENDBRANCH  28  29
ENDBRANCH  27  28
ENDBRANCH   1  27
TORSDOF 20
