REMARK SMILES Cc1n[nH]c(CN(C)C(=O)N[C@](C)(C(=O)NCCCCCCNC(=O)c2ccc(-c3c4nc(c(-c5c(F)cc(S(=O)(=O)[O-])cc5F)c5ccc([nH]5)c(-c5c(F)cc(S(=O)(=O)[O-])cc5F)c5nc(c(-c6c(F)cc(S(=O)(=O)[O-])cc6F)c6ccc3[nH]6)C=C5)C=C4)cc2)C(F)(F)F)n1
REMARK SMILES IDX 19 1 18 2 17 3 16 4 14 5 15 6 12 8 13 9 11 10 9 11 10 12
REMARK SMILES IDX 7 14 8 15 6 16 5 17 1 18 2 19 3 20 96 21 4 22 92 24 93 25
REMARK SMILES IDX 94 26 95 27 20 28 21 29 22 30 23 31 24 32 25 34 26 35 27 36
REMARK SMILES IDX 91 37 28 38 90 39 29 40 30 41 31 42 84 43 32 44 89 45 83 46
REMARK SMILES IDX 85 47 33 48 88 49 82 50 81 51 34 53 68 54 47 55 67 56 48 57
REMARK SMILES IDX 51 58 66 59 86 60 49 61 50 62 65 64 87 65 52 66 35 67 36 68
REMARK SMILES IDX 45 69 37 70 38 71 44 72 46 73 39 74 40 75 41 76 42 77 43 78
REMARK SMILES IDX 69 79 70 80 79 81 71 82 72 83 78 84 80 85 73 86 74 87 75 88
REMARK SMILES IDX 76 89 77 90 53 91 54 92 63 93 55 94 56 95 62 96 64 97 57 98
REMARK SMILES IDX 58 99 59 100 60 101 61 102
REMARK H PARENT 16 7 11 13 4 23 23 33 85 52 51 63
REMARK Flexibility Score: inf
ROOT
ATOM      1  C   UNL     1       5.665   0.668   7.451  1.00  0.00     0.002 C 
ENDROOT
BRANCH   1   2
ATOM      2  C   UNL     1       5.129  -0.721   7.088  1.00  0.00     0.021 C 
BRANCH   2   3
ATOM      3  C   UNL     1       3.646  -0.909   7.384  1.00  0.00     0.116 C 
BRANCH   3   4
ATOM      4  N   UNL     1       2.802  -0.152   6.471  1.00  0.00    -0.354 N 
ATOM      5  C   UNL     1       1.453  -0.209   6.237  1.00  0.00     0.255 C 
ATOM      6  O   UNL     1       1.008   0.612   5.430  1.00  0.00    -0.272 OA
ATOM      7  H   UNL     1       3.282   0.515   5.929  1.00  0.00     0.163 HD
BRANCH   5   8
ATOM      8  C   UNL     1       0.562  -1.300   6.854  1.00  0.00     0.213 C 
ATOM      9  C   UNL     1       0.924  -2.607   6.093  1.00  0.00     0.056 C 
BRANCH   8  10
ATOM     10  N   UNL     1       0.823  -1.546   8.309  1.00  0.00    -0.316 N 
ATOM     11  C   UNL     1       1.018  -0.830   9.429  1.00  0.00     0.318 C 
ATOM     12  O   UNL     1       1.127  -1.504  10.461  1.00  0.00    -0.249 OA
ATOM     13  H   UNL     1       0.863  -2.511   8.500  1.00  0.00     0.166 HD
BRANCH  11  14
ATOM     14  N   UNL     1       1.270   0.508   9.445  1.00  0.00    -0.320 N 
ATOM     15  C   UNL     1       0.803   1.543   8.536  1.00  0.00     0.149 C 
BRANCH  14  16
ATOM     16  C   UNL     1       1.996   1.019  10.610  1.00  0.00     0.197 C 
BRANCH  16  17
ATOM     17  C   UNL     1       1.031   1.405  11.668  1.00  0.00     0.144 A 
ATOM     18  C   UNL     1      -1.905   2.781  13.016  1.00  0.00     0.092 C 
ATOM     19  C   UNL     1      -0.613   2.119  12.765  1.00  0.00     0.147 A 
ATOM     20  N   UNL     1      -0.055   1.248  13.615  1.00  0.00    -0.159 NA
ATOM     21  N   UNL     1       0.067   2.299  11.595  1.00  0.00    -0.215 NA
ATOM     22  N   UNL     1       0.970   0.781  12.880  1.00  0.00    -0.262 N 
ATOM     23  H   UNL     1       1.594   0.081  13.177  1.00  0.00     0.192 HD
ENDBRANCH  16  17
ENDBRANCH  14  16
ENDBRANCH  11  14
ENDBRANCH   8  10
BRANCH   8  24
ATOM     24  C   UNL     1      -0.932  -1.053   6.525  1.00  0.00     0.420 C 
ATOM     25  F   UNL     1      -1.178  -0.979   5.197  1.00  0.00    -0.168 F 
ATOM     26  F   UNL     1      -1.674  -2.106   6.981  1.00  0.00    -0.168 F 
ATOM     27  F   UNL     1      -1.467   0.040   7.102  1.00  0.00    -0.168 F 
ENDBRANCH   8  24
ENDBRANCH   5   8
ENDBRANCH   3   4
ENDBRANCH   2   3
ENDBRANCH   1   2
BRANCH   1  28
ATOM     28  C   UNL     1       5.636   1.066   8.933  1.00  0.00     0.002 C 
BRANCH  28  29
ATOM     29  C   UNL     1       6.198   0.080   9.967  1.00  0.00     0.021 C 
BRANCH  29  30
ATOM     30  C   UNL     1       7.661  -0.314   9.795  1.00  0.00     0.116 C 
BRANCH  30  31
ATOM     31  N   UNL     1       8.589   0.816   9.885  1.00  0.00    -0.352 N 
ATOM     32  C   UNL     1       9.908   0.881   9.459  1.00  0.00     0.251 C 
ATOM     33  H   UNL     1       8.231   1.634  10.300  1.00  0.00     0.163 HD
ATOM     34  O   UNL     1      10.673   1.721   9.912  1.00  0.00    -0.269 OA
BRANCH  32  35
ATOM     35  C   UNL     1      10.363  -0.086   8.442  1.00  0.00     0.039 A 
ATOM     36  C   UNL     1      11.588  -0.750   8.518  1.00  0.00     0.014 A 
ATOM     37  C   UNL     1       9.476  -0.367   7.415  1.00  0.00     0.014 A 
ATOM     38  C   UNL     1      11.860  -1.766   7.598  1.00  0.00     0.010 A 
ATOM     39  C   UNL     1       9.649  -1.492   6.656  1.00  0.00     0.010 A 
ATOM     40  C   UNL     1      10.874  -2.147   6.675  1.00  0.00    -0.014 A 
BRANCH  40  41
ATOM     41  C   UNL     1      11.083  -3.232   5.718  1.00  0.00     0.031 A 
ATOM     42  C   UNL     1      11.491  -4.559   6.269  1.00  0.00     0.074 A 
ATOM     43  C   UNL     1      10.702  -3.122   4.425  1.00  0.00     0.049 A 
ATOM     44  N   UNL     1      12.576  -5.224   6.040  1.00  0.00    -0.248 NA
ATOM     45  C   UNL     1      10.603  -5.201   7.251  1.00  0.00     0.031 C 
ATOM     46  C   UNL     1       9.979  -2.025   3.759  1.00  0.00     0.029 A 
ATOM     47  N   UNL     1      10.786  -4.054   3.442  1.00  0.00    -0.354 N 
ATOM     48  C   UNL     1      12.448  -6.442   6.709  1.00  0.00     0.074 A 
ATOM     49  C   UNL     1      11.276  -6.318   7.538  1.00  0.00     0.031 C 
ATOM     50  C   UNL     1       9.479  -2.458   2.583  1.00  0.00     0.029 A 
ATOM     51  C   UNL     1      10.021  -3.775   2.320  1.00  0.00     0.049 A 
ATOM     52  H   UNL     1      11.344  -4.862   3.520  1.00  0.00     0.167 HD
ATOM     53  C   UNL     1      13.227  -7.524   6.412  1.00  0.00     0.037 A 
ATOM     54  C   UNL     1       9.830  -4.578   1.249  1.00  0.00     0.037 A 
ATOM     55  C   UNL     1      14.358  -7.149   5.604  1.00  0.00     0.049 A 
ATOM     56  C   UNL     1      10.950  -5.553   1.238  1.00  0.00     0.074 A 
ATOM     57  C   UNL     1      15.450  -6.324   5.791  1.00  0.00     0.029 A 
ATOM     58  N   UNL     1      14.284  -7.361   4.248  1.00  0.00    -0.354 N 
ATOM     59  N   UNL     1      12.201  -5.222   1.056  1.00  0.00    -0.248 NA
ATOM     60  C   UNL     1      10.736  -6.840   1.880  1.00  0.00     0.031 C 
ATOM     61  C   UNL     1      15.649  -5.688   4.530  1.00  0.00     0.029 A 
ATOM     62  C   UNL     1      14.704  -6.204   3.640  1.00  0.00     0.049 A 
ATOM     63  H   UNL     1      13.987  -8.185   3.799  1.00  0.00     0.167 HD
ATOM     64  C   UNL     1      12.922  -6.046   1.909  1.00  0.00     0.074 A 
ATOM     65  C   UNL     1      11.975  -7.082   2.317  1.00  0.00     0.031 C 
ATOM     66  C   UNL     1      14.131  -5.666   2.422  1.00  0.00     0.037 A 
BRANCH  53  67
ATOM     67  C   UNL     1      12.840  -8.971   6.619  1.00  0.00     0.058 A 
ATOM     68  C   UNL     1      13.816  -9.985   6.501  1.00  0.00     0.135 A 
ATOM     69  C   UNL     1      11.504  -9.420   6.674  1.00  0.00     0.135 A 
ATOM     70  F   UNL     1      15.121  -9.676   6.434  1.00  0.00    -0.206 F 
ATOM     71  C   UNL     1      13.483 -11.337   6.379  1.00  0.00     0.059 A 
ATOM     72  C   UNL     1      11.153 -10.766   6.608  1.00  0.00     0.059 A 
ATOM     73  F   UNL     1      10.471  -8.568   6.694  1.00  0.00    -0.206 F 
ATOM     74  C   UNL     1      12.145 -11.714   6.415  1.00  0.00     0.060 A 
BRANCH  74  75
ATOM     75  S   UNL     1      11.702 -13.438   6.127  1.00  0.00     0.124 S 
ATOM     76  O   UNL     1      12.000 -13.581   4.707  1.00  0.00    -0.237 OA
ATOM     77  O   UNL     1      12.594 -14.142   7.042  1.00  0.00    -0.237 OA
ATOM     78  O   UNL     1      10.286 -13.484   6.482  1.00  0.00    -0.744 OA
ENDBRANCH  74  75
ENDBRANCH  53  67
BRANCH  54  79
ATOM     79  C   UNL     1       8.575  -4.747   0.479  1.00  0.00     0.058 A 
ATOM     80  C   UNL     1       8.572  -5.356  -0.784  1.00  0.00     0.135 A 
ATOM     81  C   UNL     1       7.314  -4.552   1.085  1.00  0.00     0.135 A 
ATOM     82  F   UNL     1       9.729  -5.594  -1.419  1.00  0.00    -0.206 F 
ATOM     83  C   UNL     1       7.391  -5.792  -1.394  1.00  0.00     0.059 A 
ATOM     84  C   UNL     1       6.125  -4.968   0.492  1.00  0.00     0.059 A 
ATOM     85  F   UNL     1       7.211  -4.030   2.318  1.00  0.00    -0.206 F 
ATOM     86  C   UNL     1       6.173  -5.612  -0.737  1.00  0.00     0.060 A 
BRANCH  86  87
ATOM     87  S   UNL     1       4.672  -6.340  -1.433  1.00  0.00     0.124 S 
ATOM     88  O   UNL     1       4.448  -5.502  -2.606  1.00  0.00    -0.237 OA
ATOM     89  O   UNL     1       5.091  -7.712  -1.698  1.00  0.00    -0.237 OA
ATOM     90  O   UNL     1       3.694  -6.188  -0.359  1.00  0.00    -0.744 OA
ENDBRANCH  86  87
ENDBRANCH  54  79
BRANCH  66  91
ATOM     91  C   UNL     1      14.805  -4.440   1.850  1.00  0.00     0.058 A 
ATOM     92  C   UNL     1      14.296  -3.134   1.970  1.00  0.00     0.135 A 
ATOM     93  C   UNL     1      16.101  -4.568   1.330  1.00  0.00     0.135 A 
ATOM     94  F   UNL     1      13.112  -2.908   2.552  1.00  0.00    -0.206 F 
ATOM     95  C   UNL     1      15.024  -2.014   1.566  1.00  0.00     0.059 A 
ATOM     96  C   UNL     1      16.860  -3.463   0.947  1.00  0.00     0.059 A 
ATOM     97  F   UNL     1      16.675  -5.780   1.248  1.00  0.00    -0.206 F 
ATOM     98  C   UNL     1      16.310  -2.187   1.059  1.00  0.00     0.060 A 
BRANCH  98  99
ATOM     99  S   UNL     1      17.289  -0.730   0.634  1.00  0.00     0.124 S 
ATOM    100  O   UNL     1      16.650  -0.280  -0.599  1.00  0.00    -0.237 OA
ATOM    101  O   UNL     1      17.099   0.134   1.796  1.00  0.00    -0.237 OA
ATOM    102  O   UNL     1      18.641  -1.260   0.479  1.00  0.00    -0.744 OA
ENDBRANCH  98  99
ENDBRANCH  66  91
ENDBRANCH  40  41
ENDBRANCH  32  35
ENDBRANCH  30  31
ENDBRANCH  29  30
ENDBRANCH  28  29
ENDBRANCH   1  28
TORSDOF 21
