REMARK SMILES CC[C@H]1SC[C@H](C(=O)NCCCCCCNC(=O)c2ccc(-c3c4nc(c(-c5c(F)cc(S(=O)(=O)[O-])cc5F)c5ccc([nH]5)c(-c5c(F)cc(S(=O)(=O)[O-])cc5F)c5nc(c(-c6c(F)cc(S(=O)(=O)[O-])cc6F)c6ccc3[nH]6)C=C5)C=C4)cc2)N1C(=O)Cc1ccc(F)c(F)c1
REMARK SMILES IDX 12 1 11 2 10 3 9 4 7 5 8 6 6 8 3 9 4 10 85 11 5 12 2 13 1 14
REMARK SMILES IDX 86 15 87 16 88 17 89 18 90 19 96 20 91 21 94 22 92 23 95 24
REMARK SMILES IDX 93 25 13 26 14 27 15 28 16 29 17 30 18 32 19 33 20 34 84 35
REMARK SMILES IDX 21 36 83 37 22 38 23 39 24 40 77 41 25 42 82 43 76 44 78 45
REMARK SMILES IDX 26 46 81 47 75 48 74 49 27 51 61 52 40 53 60 54 41 55 44 56
REMARK SMILES IDX 59 57 79 58 42 59 43 60 58 62 80 63 45 64 28 65 29 66 38 67
REMARK SMILES IDX 30 68 31 69 37 70 39 71 32 72 33 73 34 74 35 75 36 76 62 77
REMARK SMILES IDX 63 78 72 79 64 80 65 81 71 82 73 83 66 84 67 85 68 86 69 87
REMARK SMILES IDX 70 88 46 89 47 90 56 91 48 92 49 93 55 94 57 95 50 96 51 97
REMARK SMILES IDX 52 98 53 99 54 100
REMARK H PARENT 9 7 16 31 78 50 44 61
REMARK Flexibility Score: inf
ROOT
ATOM      1  C   UNL     1       7.263   0.749  -0.123  1.00  0.00     0.002 C 
ENDROOT
BRANCH   1   2
ATOM      2  C   UNL     1       5.746   0.542  -0.213  1.00  0.00     0.021 C 
BRANCH   2   3
ATOM      3  C   UNL     1       5.028   0.524   1.135  1.00  0.00     0.116 C 
BRANCH   3   4
ATOM      4  N   UNL     1       5.146   1.799   1.806  1.00  0.00    -0.354 N 
ATOM      5  C   UNL     1       4.199   2.729   2.109  1.00  0.00     0.243 C 
ATOM      6  O   UNL     1       4.576   3.696   2.780  1.00  0.00    -0.273 OA
ATOM      7  H   UNL     1       6.059   2.032   2.091  1.00  0.00     0.163 HD
BRANCH   5   8
ATOM      8  C   UNL     1       2.695   2.461   1.858  1.00  0.00     0.185 C 
ATOM      9  C   UNL     1       0.682   1.961   0.650  1.00  0.00     0.143 C 
ATOM     10  S   UNL     1       0.269   3.556   1.459  1.00  0.00    -0.134 SA
ATOM     11  N   UNL     1       2.137   1.990   0.568  1.00  0.00    -0.318 N 
ATOM     12  C   UNL     1       1.847   3.638   2.360  1.00  0.00     0.107 C 
BRANCH   9  13
ATOM     13  C   UNL     1       0.085   0.855   1.534  1.00  0.00     0.033 C 
ATOM     14  C   UNL     1       0.576  -0.544   1.219  1.00  0.00     0.007 C 
ENDBRANCH   9  13
BRANCH  11  15
ATOM     15  C   UNL     1       2.745   2.394  -0.612  1.00  0.00     0.228 C 
ATOM     16  O   UNL     1       3.634   3.255  -0.583  1.00  0.00    -0.274 OA
BRANCH  15  17
ATOM     17  C   UNL     1       2.435   1.758  -1.974  1.00  0.00     0.135 C 
BRANCH  17  18
ATOM     18  C   UNL     1       1.454   0.621  -2.145  1.00  0.00    -0.036 A 
ATOM     19  C   UNL     1       0.116   0.890  -2.494  1.00  0.00     0.007 A 
ATOM     20  C   UNL     1       1.860  -0.719  -2.042  1.00  0.00     0.046 A 
ATOM     21  C   UNL     1      -0.812  -0.143  -2.642  1.00  0.00     0.043 A 
ATOM     22  C   UNL     1       0.934  -1.749  -2.228  1.00  0.00     0.159 A 
ATOM     23  C   UNL     1      -0.397  -1.461  -2.504  1.00  0.00     0.158 A 
ATOM     24  F   UNL     1       1.334  -3.021  -2.102  1.00  0.00    -0.204 F 
ATOM     25  F   UNL     1      -1.298  -2.446  -2.619  1.00  0.00    -0.204 F 
ENDBRANCH  17  18
ENDBRANCH  15  17
ENDBRANCH  11  15
ENDBRANCH   5   8
ENDBRANCH   3   4
ENDBRANCH   2   3
ENDBRANCH   1   2
BRANCH   1  26
ATOM     26  C   UNL     1       8.024  -0.348   0.626  1.00  0.00     0.002 C 
BRANCH  26  27
ATOM     27  C   UNL     1       7.782  -1.768   0.111  1.00  0.00     0.021 C 
BRANCH  27  28
ATOM     28  C   UNL     1       8.006  -1.953  -1.387  1.00  0.00     0.116 C 
BRANCH  28  29
ATOM     29  N   UNL     1       9.377  -1.668  -1.778  1.00  0.00    -0.352 N 
ATOM     30  C   UNL     1      10.272  -2.476  -2.438  1.00  0.00     0.251 C 
ATOM     31  H   UNL     1       9.711  -0.774  -1.537  1.00  0.00     0.163 HD
ATOM     32  O   UNL     1      11.450  -2.155  -2.525  1.00  0.00    -0.269 OA
BRANCH  30  33
ATOM     33  C   UNL     1       9.798  -3.749  -3.022  1.00  0.00     0.039 A 
ATOM     34  C   UNL     1      10.499  -4.923  -2.742  1.00  0.00     0.014 A 
ATOM     35  C   UNL     1       8.649  -3.781  -3.817  1.00  0.00     0.014 A 
ATOM     36  C   UNL     1      10.004  -6.145  -3.203  1.00  0.00     0.010 A 
ATOM     37  C   UNL     1       8.122  -5.005  -4.218  1.00  0.00     0.010 A 
ATOM     38  C   UNL     1       8.791  -6.200  -3.910  1.00  0.00    -0.014 A 
BRANCH  38  39
ATOM     39  C   UNL     1       8.191  -7.500  -4.306  1.00  0.00     0.031 A 
ATOM     40  C   UNL     1       8.022  -7.847  -5.759  1.00  0.00     0.074 A 
ATOM     41  C   UNL     1       7.736  -8.336  -3.351  1.00  0.00     0.049 A 
ATOM     42  N   UNL     1       7.460  -8.899  -6.295  1.00  0.00    -0.248 NA
ATOM     43  C   UNL     1       8.529  -6.872  -6.738  1.00  0.00     0.031 C 
ATOM     44  C   UNL     1       7.798  -8.086  -1.909  1.00  0.00     0.029 A 
ATOM     45  N   UNL     1       7.118  -9.557  -3.448  1.00  0.00    -0.354 N 
ATOM     46  C   UNL     1       7.538  -8.712  -7.670  1.00  0.00     0.074 A 
ATOM     47  C   UNL     1       8.155  -7.421  -7.885  1.00  0.00     0.031 C 
ATOM     48  C   UNL     1       7.257  -9.127  -1.258  1.00  0.00     0.029 A 
ATOM     49  C   UNL     1       6.773 -10.100  -2.232  1.00  0.00     0.049 A 
ATOM     50  H   UNL     1       6.939 -10.004  -4.307  1.00  0.00     0.167 HD
ATOM     51  C   UNL     1       7.150  -9.550  -8.661  1.00  0.00     0.037 A 
ATOM     52  C   UNL     1       6.126 -11.244  -1.935  1.00  0.00     0.037 A 
ATOM     53  C   UNL     1       6.551 -10.840  -8.437  1.00  0.00     0.049 A 
ATOM     54  C   UNL     1       5.690 -12.150  -3.053  1.00  0.00     0.074 A 
ATOM     55  C   UNL     1       6.181 -11.791  -9.372  1.00  0.00     0.029 A 
ATOM     56  N   UNL     1       6.226 -11.359  -7.191  1.00  0.00    -0.354 N 
ATOM     57  N   UNL     1       5.839 -11.992  -4.347  1.00  0.00    -0.248 NA
ATOM     58  C   UNL     1       5.001 -13.391  -2.674  1.00  0.00     0.031 C 
ATOM     59  C   UNL     1       5.587 -12.862  -8.697  1.00  0.00     0.029 A 
ATOM     60  C   UNL     1       5.633 -12.603  -7.336  1.00  0.00     0.049 A 
ATOM     61  H   UNL     1       6.392 -10.910  -6.332  1.00  0.00     0.167 HD
ATOM     62  C   UNL     1       5.278 -13.119  -4.936  1.00  0.00     0.074 A 
ATOM     63  C   UNL     1       4.804 -13.961  -3.856  1.00  0.00     0.031 C 
ATOM     64  C   UNL     1       5.163 -13.428  -6.251  1.00  0.00     0.037 A 
BRANCH  51  65
ATOM     65  C   UNL     1       7.363  -9.099 -10.080  1.00  0.00     0.058 A 
ATOM     66  C   UNL     1       8.649  -9.007 -10.639  1.00  0.00     0.135 A 
ATOM     67  C   UNL     1       6.269  -8.794 -10.906  1.00  0.00     0.135 A 
ATOM     68  F   UNL     1       9.731  -9.273  -9.891  1.00  0.00    -0.206 F 
ATOM     69  C   UNL     1       8.844  -8.602 -11.955  1.00  0.00     0.059 A 
ATOM     70  C   UNL     1       6.439  -8.414 -12.235  1.00  0.00     0.059 A 
ATOM     71  F   UNL     1       5.018  -8.866 -10.425  1.00  0.00    -0.206 F 
ATOM     72  C   UNL     1       7.732  -8.307 -12.746  1.00  0.00     0.060 A 
BRANCH  72  73
ATOM     73  S   UNL     1       8.003  -7.788 -14.453  1.00  0.00     0.124 S 
ATOM     74  O   UNL     1       8.532  -6.441 -14.267  1.00  0.00    -0.237 OA
ATOM     75  O   UNL     1       8.958  -8.782 -14.933  1.00  0.00    -0.237 OA
ATOM     76  O   UNL     1       6.673  -7.863 -15.048  1.00  0.00    -0.744 OA
ENDBRANCH  72  73
ENDBRANCH  51  65
BRANCH  52  77
ATOM     77  C   UNL     1       5.858 -11.597  -0.515  1.00  0.00     0.058 A 
ATOM     78  C   UNL     1       6.532 -12.658   0.106  1.00  0.00     0.135 A 
ATOM     79  C   UNL     1       4.936 -10.868   0.255  1.00  0.00     0.135 A 
ATOM     80  F   UNL     1       7.417 -13.389  -0.589  1.00  0.00    -0.206 F 
ATOM     81  C   UNL     1       6.294 -12.995   1.435  1.00  0.00     0.059 A 
ATOM     82  C   UNL     1       4.700 -11.170   1.592  1.00  0.00     0.059 A 
ATOM     83  F   UNL     1       4.277  -9.832  -0.287  1.00  0.00    -0.206 F 
ATOM     84  C   UNL     1       5.378 -12.242   2.171  1.00  0.00     0.060 A 
BRANCH  84  85
ATOM     85  S   UNL     1       5.117 -12.653   3.910  1.00  0.00     0.124 S 
ATOM     86  O   UNL     1       4.347 -13.887   3.808  1.00  0.00    -0.237 OA
ATOM     87  O   UNL     1       6.484 -12.790   4.402  1.00  0.00    -0.237 OA
ATOM     88  O   UNL     1       4.389 -11.495   4.422  1.00  0.00    -0.744 OA
ENDBRANCH  84  85
ENDBRANCH  52  77
BRANCH  64  89
ATOM     89  C   UNL     1       4.511 -14.738  -6.600  1.00  0.00     0.058 A 
ATOM     90  C   UNL     1       3.127 -14.929  -6.462  1.00  0.00     0.135 A 
ATOM     91  C   UNL     1       5.269 -15.793  -7.132  1.00  0.00     0.135 A 
ATOM     92  F   UNL     1       2.358 -13.956  -5.950  1.00  0.00    -0.206 F 
ATOM     93  C   UNL     1       2.520 -16.128  -6.823  1.00  0.00     0.059 A 
ATOM     94  C   UNL     1       4.679 -16.990  -7.526  1.00  0.00     0.059 A 
ATOM     95  F   UNL     1       6.595 -15.659  -7.293  1.00  0.00    -0.206 F 
ATOM     96  C   UNL     1       3.304 -17.151  -7.359  1.00  0.00     0.060 A 
BRANCH  96  97
ATOM     97  S   UNL     1       2.497 -18.685  -7.863  1.00  0.00     0.124 S 
ATOM     98  O   UNL     1       2.191 -19.295  -6.573  1.00  0.00    -0.237 OA
ATOM     99  O   UNL     1       1.349 -18.198  -8.622  1.00  0.00    -0.237 OA
ATOM    100  O   UNL     1       3.519 -19.365  -8.652  1.00  0.00    -0.744 OA
ENDBRANCH  96  97
ENDBRANCH  64  89
ENDBRANCH  38  39
ENDBRANCH  30  33
ENDBRANCH  28  29
ENDBRANCH  27  28
ENDBRANCH  26  27
ENDBRANCH   1  26
TORSDOF 20
