REMARK SMILES Cc1ccc(-c2ccc(C(=O)Nc3ccc(C(=O)NCCCCCCNC(=O)c4ccc(-c5c6nc(c(-c7c(F)cc(S(=O)(=O)[O-])cc7F)c7ccc([nH]7)c(-c7c(F)cc(S(=O)(=O)[O-])cc7F)c7nc(c(-c8c(F)cc(S(=O)(=O)[O-])cc8F)c8ccc5[nH]8)C=C7)C=C6)cc4)c(O)c3)o2)c([N+](=O)[O-])c1
REMARK SMILES IDX 22 1 21 2 20 3 19 4 17 5 18 6 16 8 13 9 14 10 97 11 15 12
REMARK SMILES IDX 95 13 12 14 10 15 11 16 9 18 6 19 7 20 98 21 8 22 5 23 1 24
REMARK SMILES IDX 2 25 3 26 103 27 4 28 99 29 100 30 101 31 102 32 96 33 23 35
REMARK SMILES IDX 24 36 25 37 26 38 27 39 28 41 29 42 30 43 94 44 31 45 93 46
REMARK SMILES IDX 32 47 33 48 34 49 87 50 35 51 92 52 86 53 88 54 36 55 91 56
REMARK SMILES IDX 85 57 84 58 37 60 71 61 50 62 70 63 51 64 54 65 69 66 89 67
REMARK SMILES IDX 52 68 53 69 68 71 90 72 55 73 38 74 39 75 48 76 40 77 41 78
REMARK SMILES IDX 47 79 49 80 42 81 43 82 44 83 45 84 46 85 72 86 73 87 82 88
REMARK SMILES IDX 74 89 75 90 81 91 83 92 76 93 77 94 78 95 79 96 80 97 56 98
REMARK SMILES IDX 57 99 66 100 58 101 59 102 65 103 67 104 60 105 61 106
REMARK SMILES IDX 62 107 63 108 64 109
REMARK H PARENT 19 7 12 17 96 34 26 40 88 59 54 70
REMARK Flexibility Score: inf
ROOT
ATOM      1  C   UNL     1      -6.653   1.070  -7.780  1.00  0.00     0.002 C 
ENDROOT
BRANCH   1   2
ATOM      2  C   UNL     1      -6.687   0.477  -6.362  1.00  0.00     0.021 C 
BRANCH   2   3
ATOM      3  C   UNL     1      -6.584   1.511  -5.240  1.00  0.00     0.116 C 
BRANCH   3   4
ATOM      4  N   UNL     1      -7.831   2.247  -5.085  1.00  0.00    -0.352 N 
ATOM      5  C   UNL     1      -8.758   2.305  -4.075  1.00  0.00     0.255 C 
ATOM      6  O   UNL     1      -9.651   3.154  -4.141  1.00  0.00    -0.269 OA
ATOM      7  H   UNL     1      -8.054   2.815  -5.857  1.00  0.00     0.163 HD
BRANCH   5   8
ATOM      8  C   UNL     1      -8.686   1.475  -2.844  1.00  0.00     0.081 A 
ATOM      9  C   UNL     1      -8.226   0.170  -0.412  1.00  0.00     0.045 A 
ATOM     10  C   UNL     1      -7.905  -0.461  -1.618  1.00  0.00     0.027 A 
ATOM     11  C   UNL     1      -8.944   1.362  -0.416  1.00  0.00     0.073 A 
ATOM     12  C   UNL     1      -8.169   0.177  -2.834  1.00  0.00     0.020 A 
ATOM     13  C   UNL     1      -9.142   2.024  -1.629  1.00  0.00     0.130 A 
BRANCH   9  14
ATOM     14  N   UNL     1      -7.745  -0.319   0.807  1.00  0.00    -0.319 N 
ATOM     15  C   UNL     1      -6.425  -0.608   1.139  1.00  0.00     0.291 C 
ATOM     16  O   UNL     1      -6.235  -1.235   2.185  1.00  0.00    -0.265 OA
ATOM     17  H   UNL     1      -8.417  -0.478   1.510  1.00  0.00     0.170 HD
BRANCH  15  18
ATOM     18  C   UNL     1      -5.332  -0.047   0.343  1.00  0.00     0.192 A 
ATOM     19  C   UNL     1      -3.199   0.290  -0.153  1.00  0.00     0.142 A 
ATOM     20  C   UNL     1      -3.919   1.106  -0.992  1.00  0.00     0.052 A 
ATOM     21  O   UNL     1      -4.040  -0.450   0.625  1.00  0.00    -0.451 OA
ATOM     22  C   UNL     1      -5.267   0.946  -0.624  1.00  0.00     0.057 A 
BRANCH  19  23
ATOM     23  C   UNL     1      -1.770   0.140   0.067  1.00  0.00     0.095 A 
ATOM     24  C   UNL     1       2.544  -0.315   0.148  1.00  0.00     0.044 C 
ATOM     25  C   UNL     1       1.053  -0.150   0.163  1.00  0.00    -0.044 A 
ATOM     26  C   UNL     1       0.214  -1.272   0.089  1.00  0.00     0.004 A 
ATOM     27  C   UNL     1       0.480   1.120   0.238  1.00  0.00     0.089 A 
ATOM     28  C   UNL     1      -1.181  -1.130   0.043  1.00  0.00     0.019 A 
ATOM     29  C   UNL     1      -0.915   1.247   0.200  1.00  0.00     0.280 A 
BRANCH  29  30
ATOM     30  N   UNL     1      -1.454   2.589   0.315  1.00  0.00     0.063 N 
ATOM     31  O   UNL     1      -2.158   2.841   1.302  1.00  0.00    -0.258 OA
ATOM     32  O   UNL     1      -1.137   3.398  -0.568  1.00  0.00    -0.258 OA
ENDBRANCH  29  30
ENDBRANCH  19  23
ENDBRANCH  15  18
ENDBRANCH   9  14
BRANCH  13  33
ATOM     33  O   UNL     1      -9.742   3.255  -1.545  1.00  0.00    -0.507 OA
ATOM     34  H   UNL     1      -9.904   3.752  -2.323  1.00  0.00     0.293 HD
ENDBRANCH  13  33
ENDBRANCH   5   8
ENDBRANCH   3   4
ENDBRANCH   2   3
ENDBRANCH   1   2
BRANCH   1  35
ATOM     35  C   UNL     1      -5.373   1.826  -8.178  1.00  0.00     0.002 C 
BRANCH  35  36
ATOM     36  C   UNL     1      -4.050   1.106  -7.908  1.00  0.00     0.021 C 
BRANCH  36  37
ATOM     37  C   UNL     1      -3.894  -0.204  -8.673  1.00  0.00     0.116 C 
BRANCH  37  38
ATOM     38  N   UNL     1      -2.898  -0.148  -9.727  1.00  0.00    -0.352 N 
ATOM     39  C   UNL     1      -2.360  -1.221 -10.431  1.00  0.00     0.251 C 
ATOM     40  H   UNL     1      -2.566   0.746  -9.970  1.00  0.00     0.163 HD
ATOM     41  O   UNL     1      -1.291  -1.169 -10.982  1.00  0.00    -0.269 OA
BRANCH  39  42
ATOM     42  C   UNL     1      -3.256  -2.389 -10.608  1.00  0.00     0.039 A 
ATOM     43  C   UNL     1      -3.796  -2.588 -11.884  1.00  0.00     0.014 A 
ATOM     44  C   UNL     1      -3.743  -3.085  -9.507  1.00  0.00     0.014 A 
ATOM     45  C   UNL     1      -4.935  -3.379 -12.035  1.00  0.00     0.010 A 
ATOM     46  C   UNL     1      -4.918  -3.799  -9.647  1.00  0.00     0.010 A 
ATOM     47  C   UNL     1      -5.538  -3.922 -10.902  1.00  0.00    -0.014 A 
BRANCH  47  48
ATOM     48  C   UNL     1      -6.861  -4.546 -10.897  1.00  0.00     0.031 A 
ATOM     49  C   UNL     1      -7.022  -5.992 -10.590  1.00  0.00     0.074 A 
ATOM     50  C   UNL     1      -7.973  -3.790 -11.037  1.00  0.00     0.049 A 
ATOM     51  N   UNL     1      -8.095  -6.672 -10.830  1.00  0.00    -0.248 NA
ATOM     52  C   UNL     1      -5.957  -6.802 -10.009  1.00  0.00     0.031 C 
ATOM     53  C   UNL     1      -9.327  -4.149 -10.622  1.00  0.00     0.029 A 
ATOM     54  N   UNL     1      -8.141  -2.613 -11.758  1.00  0.00    -0.354 N 
ATOM     55  C   UNL     1      -7.981  -7.884 -10.187  1.00  0.00     0.074 A 
ATOM     56  C   UNL     1      -6.609  -7.936  -9.735  1.00  0.00     0.031 C 
ATOM     57  C   UNL     1     -10.206  -3.369 -11.264  1.00  0.00     0.029 A 
ATOM     58  C   UNL     1      -9.464  -2.583 -12.230  1.00  0.00     0.049 A 
ATOM     59  H   UNL     1      -7.455  -1.923 -11.911  1.00  0.00     0.167 HD
ATOM     60  C   UNL     1      -9.090  -8.655  -9.988  1.00  0.00     0.037 A 
ATOM     61  C   UNL     1      -9.757  -2.527 -13.563  1.00  0.00     0.037 A 
ATOM     62  C   UNL     1     -10.277  -8.066 -10.601  1.00  0.00     0.049 A 
ATOM     63  C   UNL     1     -10.569  -3.692 -14.081  1.00  0.00     0.074 A 
ATOM     64  C   UNL     1     -11.326  -7.314 -10.096  1.00  0.00     0.029 A 
ATOM     65  N   UNL     1     -10.370  -7.984 -11.986  1.00  0.00    -0.354 N 
ATOM     66  N   UNL     1     -10.749  -4.806 -13.427  1.00  0.00    -0.248 NA
ATOM     67  C   UNL     1     -11.228  -3.708 -15.384  1.00  0.00     0.031 C 
ATOM     68  C   UNL     1     -12.044  -6.765 -11.185  1.00  0.00     0.029 A 
ATOM     69  C   UNL     1     -11.432  -7.182 -12.353  1.00  0.00     0.049 A 
ATOM     70  H   UNL     1      -9.762  -8.435 -12.616  1.00  0.00     0.167 HD
ATOM     71  C   UNL     1     -11.480  -5.685 -14.190  1.00  0.00     0.074 A 
ATOM     72  C   UNL     1     -11.789  -4.931 -15.390  1.00  0.00     0.031 C 
ATOM     73  C   UNL     1     -11.746  -6.956 -13.758  1.00  0.00     0.037 A 
BRANCH  60  74
ATOM     74  C   UNL     1      -9.136  -9.789  -8.984  1.00  0.00     0.058 A 
ATOM     75  C   UNL     1     -10.298 -10.043  -8.221  1.00  0.00     0.135 A 
ATOM     76  C   UNL     1      -8.042 -10.623  -8.683  1.00  0.00     0.135 A 
ATOM     77  F   UNL     1     -11.453  -9.410  -8.462  1.00  0.00    -0.206 F 
ATOM     78  C   UNL     1     -10.328 -10.947  -7.159  1.00  0.00     0.059 A 
ATOM     79  C   UNL     1      -8.028 -11.495  -7.588  1.00  0.00     0.059 A 
ATOM     80  F   UNL     1      -6.954 -10.644  -9.465  1.00  0.00    -0.206 F 
ATOM     81  C   UNL     1      -9.175 -11.637  -6.818  1.00  0.00     0.060 A 
BRANCH  81  82
ATOM     82  S   UNL     1      -9.196 -12.691  -5.356  1.00  0.00     0.124 S 
ATOM     83  O   UNL     1      -9.759 -11.803  -4.342  1.00  0.00    -0.237 OA
ATOM     84  O   UNL     1     -10.054 -13.789  -5.785  1.00  0.00    -0.237 OA
ATOM     85  O   UNL     1      -7.788 -13.030  -5.163  1.00  0.00    -0.744 OA
ENDBRANCH  81  82
ENDBRANCH  60  74
BRANCH  61  86
ATOM     86  C   UNL     1      -8.767  -1.738 -14.343  1.00  0.00     0.058 A 
ATOM     87  C   UNL     1      -8.737  -0.349 -14.114  1.00  0.00     0.135 A 
ATOM     88  C   UNL     1      -7.612  -2.341 -14.860  1.00  0.00     0.135 A 
ATOM     89  F   UNL     1      -9.829   0.277 -13.644  1.00  0.00    -0.206 F 
ATOM     90  C   UNL     1      -7.555   0.375 -14.199  1.00  0.00     0.059 A 
ATOM     91  C   UNL     1      -6.416  -1.629 -14.964  1.00  0.00     0.059 A 
ATOM     92  F   UNL     1      -7.591  -3.659 -15.108  1.00  0.00    -0.206 F 
ATOM     93  C   UNL     1      -6.384  -0.297 -14.546  1.00  0.00     0.060 A 
BRANCH  93  94
ATOM     94  S   UNL     1      -4.811   0.542 -14.242  1.00  0.00     0.124 S 
ATOM     95  O   UNL     1      -4.993   1.805 -14.951  1.00  0.00    -0.237 OA
ATOM     96  O   UNL     1      -4.806   0.633 -12.783  1.00  0.00    -0.237 OA
ATOM     97  O   UNL     1      -3.829  -0.369 -14.817  1.00  0.00    -0.744 OA
ENDBRANCH  93  94
ENDBRANCH  61  86
BRANCH  73  98
ATOM     98  C   UNL     1     -12.386  -8.088 -14.542  1.00  0.00     0.058 A 
ATOM     99  C   UNL     1     -12.388  -8.195 -15.942  1.00  0.00     0.135 A 
ATOM    100  C   UNL     1     -12.929  -9.210 -13.858  1.00  0.00     0.135 A 
ATOM    101  F   UNL     1     -11.806  -7.269 -16.716  1.00  0.00    -0.206 F 
ATOM    102  C   UNL     1     -12.939  -9.291 -16.616  1.00  0.00     0.059 A 
ATOM    103  C   UNL     1     -13.431 -10.337 -14.507  1.00  0.00     0.059 A 
ATOM    104  F   UNL     1     -12.977  -9.263 -12.518  1.00  0.00    -0.206 F 
ATOM    105  C   UNL     1     -13.457 -10.360 -15.891  1.00  0.00     0.060 A 
BRANCH 105 106
ATOM    106  S   UNL     1     -14.090 -11.813 -16.748  1.00  0.00     0.124 S 
ATOM    107  O   UNL     1     -15.505 -11.480 -16.884  1.00  0.00    -0.237 OA
ATOM    108  O   UNL     1     -13.323 -11.818 -17.991  1.00  0.00    -0.237 OA
ATOM    109  O   UNL     1     -13.781 -12.903 -15.828  1.00  0.00    -0.744 OA
ENDBRANCH 105 106
ENDBRANCH  73  98
ENDBRANCH  47  48
ENDBRANCH  39  42
ENDBRANCH  37  38
ENDBRANCH  36  37
ENDBRANCH  35  36
ENDBRANCH   1  35
TORSDOF 21
