REMARK SMILES C[C@@]1(Oc2c[nH]c3ccc(Br)c(Cl)c23)O[C@@H](C(=O)NCCCCCCNC(=O)c2ccc(-c3c4nc(c(-c5c(F)cc(S(=O)(=O)[O-])cc5F)c5ccc([nH]5)c(-c5c(F)cc(S(=O)(=O)[O-])cc5F)c5nc(c(-c6c(F)cc(S(=O)(=O)[O-])cc6F)c6ccc3[nH]6)C=C5)C=C4)cc2)[C@@](C)(O)[C@@](C)(O)[C@@]1(C)O
REMARK SMILES IDX 23 1 22 2 21 3 20 4 19 5 17 6 18 7 16 9 1 10 2 11 15 12
REMARK SMILES IDX 101 13 98 14 102 15 95 16 99 17 96 18 3 19 4 20 5 21 14 22
REMARK SMILES IDX 6 23 7 24 12 25 8 27 10 28 13 29 9 30 11 31 103 32 100 34
REMARK SMILES IDX 97 36 24 38 25 39 26 40 27 41 28 43 29 44 30 45 94 46 31 47
REMARK SMILES IDX 93 48 32 49 33 50 34 51 87 52 35 53 92 54 86 55 88 56 36 57
REMARK SMILES IDX 91 58 85 59 84 60 37 62 71 63 50 64 70 65 51 66 54 67 69 68
REMARK SMILES IDX 89 69 52 70 53 71 68 73 90 74 55 75 38 76 39 77 48 78 40 79
REMARK SMILES IDX 41 80 47 81 49 82 42 83 43 84 44 85 45 86 46 87 72 88 73 89
REMARK SMILES IDX 82 90 74 91 75 92 81 93 83 94 76 95 77 96 78 97 79 98 80 99
REMARK SMILES IDX 56 100 57 101 66 102 58 103 59 104 65 105 67 106 60 107
REMARK SMILES IDX 61 108 62 109 63 110 64 111
REMARK H PARENT 19 8 6 26 103 33 100 35 97 37 26 42 88 61 54 72
REMARK Flexibility Score: inf
ROOT
ATOM      1  C   UNL     1       2.035  -2.847   2.645  1.00  0.00     0.002 C 
ENDROOT
BRANCH   1   2
ATOM      2  C   UNL     1       3.480  -2.529   2.211  1.00  0.00     0.002 C 
BRANCH   2   3
ATOM      3  C   UNL     1       3.678  -1.769   0.898  1.00  0.00     0.021 C 
BRANCH   3   4
ATOM      4  C   UNL     1       2.711  -0.604   0.688  1.00  0.00     0.116 C 
BRANCH   4   5
ATOM      5  N   UNL     1       3.236   0.717   0.320  1.00  0.00    -0.354 N 
ATOM      6  C   UNL     1       2.737   1.709  -0.493  1.00  0.00     0.252 C 
ATOM      7  O   UNL     1       2.999   2.861  -0.103  1.00  0.00    -0.272 OA
ATOM      8  H   UNL     1       4.105   0.932   0.730  1.00  0.00     0.163 HD
BRANCH   6   9
ATOM      9  C   UNL     1       1.951   1.550  -1.909  1.00  0.00     0.246 C 
ATOM     10  C   UNL     1       0.049  -0.069  -0.295  1.00  0.00     0.094 C 
ATOM     11  C   UNL     1       0.262  -0.178  -1.829  1.00  0.00     0.240 C 
ATOM     12  O   UNL     1       0.558   1.190  -2.156  1.00  0.00    -0.322 OA
ATOM     13  C   UNL     1       1.336  -1.121  -2.659  1.00  0.00     0.158 C 
ATOM     14  C   UNL     1       2.842  -0.610  -2.843  1.00  0.00     0.128 C 
ATOM     15  C   UNL     1       0.845  -1.254  -4.129  1.00  0.00     0.053 C 
ATOM     16  C   UNL     1       2.878   0.929  -3.011  1.00  0.00     0.129 C 
ATOM     17  C   UNL     1       3.684  -1.401  -3.891  1.00  0.00     0.049 C 
ATOM     18  C   UNL     1       2.445   1.460  -4.396  1.00  0.00     0.049 C 
BRANCH  11  19
ATOM     19  O   UNL     1      -1.100  -0.751  -1.954  1.00  0.00    -0.457 OA
BRANCH  19  20
ATOM     20  C   UNL     1      -1.840  -0.641  -3.056  1.00  0.00     0.150 A 
ATOM     21  C   UNL     1      -2.548   0.471  -3.421  1.00  0.00     0.130 A 
ATOM     22  C   UNL     1      -2.153  -1.706  -3.953  1.00  0.00     0.061 A 
ATOM     23  N   UNL     1      -3.120   0.183  -4.633  1.00  0.00    -0.358 N 
ATOM     24  C   UNL     1      -2.725  -1.071  -5.056  1.00  0.00     0.051 A 
ATOM     25  C   UNL     1      -1.840  -3.082  -4.055  1.00  0.00     0.068 A 
ATOM     26  H   UNL     1      -3.724   0.781  -5.129  1.00  0.00     0.166 HD
ATOM     27  C   UNL     1      -2.808  -1.687  -6.309  1.00  0.00     0.028 A 
ATOM     28  C   UNL     1      -1.792  -3.671  -5.321  1.00  0.00     0.037 A 
ATOM     29  Cl  UNL     1      -1.379  -3.869  -2.603  1.00  0.00    -0.082 Cl
ATOM     30  C   UNL     1      -2.246  -2.965  -6.436  1.00  0.00     0.019 A 
ATOM     31  Br  UNL     1      -0.963  -5.356  -5.611  1.00  0.00    -0.049 Br
ENDBRANCH  19  20
ENDBRANCH  11  19
BRANCH  13  32
ATOM     32  O   UNL     1       1.347  -2.422  -2.045  1.00  0.00    -0.380 OA
ATOM     33  H   UNL     1       1.652  -2.345  -1.128  1.00  0.00     0.211 HD
ENDBRANCH  13  32
BRANCH  14  34
ATOM     34  O   UNL     1       3.640  -0.928  -1.703  1.00  0.00    -0.384 OA
ATOM     35  H   UNL     1       3.260  -0.508  -0.915  1.00  0.00     0.211 HD
ENDBRANCH  14  34
BRANCH  16  36
ATOM     36  O   UNL     1       4.248   1.357  -2.839  1.00  0.00    -0.384 OA
ATOM     37  H   UNL     1       4.577   1.050  -1.980  1.00  0.00     0.211 HD
ENDBRANCH  16  36
ENDBRANCH   6   9
ENDBRANCH   4   5
ENDBRANCH   3   4
ENDBRANCH   2   3
ENDBRANCH   1   2
BRANCH   1  38
ATOM     38  C   UNL     1       1.178  -3.731   1.727  1.00  0.00     0.021 C 
BRANCH  38  39
ATOM     39  C   UNL     1       1.787  -5.091   1.439  1.00  0.00     0.116 C 
BRANCH  39  40
ATOM     40  N   UNL     1       2.140  -5.810   2.659  1.00  0.00    -0.352 N 
ATOM     41  C   UNL     1       2.709  -7.050   2.843  1.00  0.00     0.251 C 
ATOM     42  H   UNL     1       1.936  -5.326   3.492  1.00  0.00     0.163 HD
ATOM     43  O   UNL     1       2.684  -7.562   3.950  1.00  0.00    -0.269 OA
BRANCH  41  44
ATOM     44  C   UNL     1       3.343  -7.754   1.711  1.00  0.00     0.039 A 
ATOM     45  C   UNL     1       3.391  -9.153   1.702  1.00  0.00     0.014 A 
ATOM     46  C   UNL     1       3.958  -7.026   0.694  1.00  0.00     0.014 A 
ATOM     47  C   UNL     1       4.043  -9.799   0.658  1.00  0.00     0.010 A 
ATOM     48  C   UNL     1       4.464  -7.656  -0.409  1.00  0.00     0.010 A 
ATOM     49  C   UNL     1       4.580  -9.034  -0.384  1.00  0.00    -0.014 A 
BRANCH  49  50
ATOM     50  C   UNL     1       5.266  -9.659  -1.493  1.00  0.00     0.031 A 
ATOM     51  C   UNL     1       4.419 -10.534  -2.331  1.00  0.00     0.074 A 
ATOM     52  C   UNL     1       6.522  -9.319  -1.842  1.00  0.00     0.049 A 
ATOM     53  N   UNL     1       4.438 -11.823  -2.372  1.00  0.00    -0.248 NA
ATOM     54  C   UNL     1       3.317  -9.928  -3.091  1.00  0.00     0.031 C 
ATOM     55  C   UNL     1       7.377  -8.255  -1.303  1.00  0.00     0.029 A 
ATOM     56  N   UNL     1       7.274  -9.829  -2.847  1.00  0.00    -0.354 N 
ATOM     57  C   UNL     1       3.495 -12.192  -3.322  1.00  0.00     0.074 A 
ATOM     58  C   UNL     1       2.712 -11.011  -3.585  1.00  0.00     0.031 C 
ATOM     59  C   UNL     1       8.435  -8.071  -2.125  1.00  0.00     0.029 A 
ATOM     60  C   UNL     1       8.412  -9.098  -3.151  1.00  0.00     0.049 A 
ATOM     61  H   UNL     1       7.030 -10.654  -3.325  1.00  0.00     0.167 HD
ATOM     62  C   UNL     1       3.580 -13.388  -3.968  1.00  0.00     0.037 A 
ATOM     63  C   UNL     1       9.244  -9.318  -4.199  1.00  0.00     0.037 A 
ATOM     64  C   UNL     1       4.548 -14.250  -3.331  1.00  0.00     0.049 A 
ATOM     65  C   UNL     1       9.048 -10.742  -4.599  1.00  0.00     0.074 A 
ATOM     66  C   UNL     1       4.662 -14.800  -2.068  1.00  0.00     0.029 A 
ATOM     67  N   UNL     1       5.806 -14.318  -3.887  1.00  0.00    -0.354 N 
ATOM     68  N   UNL     1       9.373 -11.754  -3.837  1.00  0.00    -0.248 NA
ATOM     69  C   UNL     1       8.047 -11.035  -5.617  1.00  0.00     0.031 C 
ATOM     70  C   UNL     1       6.050 -14.717  -1.755  1.00  0.00     0.029 A 
ATOM     71  C   UNL     1       6.714 -14.190  -2.865  1.00  0.00     0.049 A 
ATOM     72  H   UNL     1       6.015 -14.436  -4.842  1.00  0.00     0.167 HD
ATOM     73  C   UNL     1       8.341 -12.671  -3.991  1.00  0.00     0.074 A 
ATOM     74  C   UNL     1       7.601 -12.212  -5.166  1.00  0.00     0.031 C 
ATOM     75  C   UNL     1       8.006 -13.546  -2.995  1.00  0.00     0.037 A 
BRANCH  62  76
ATOM     76  C   UNL     1       3.059 -13.667  -5.354  1.00  0.00     0.058 A 
ATOM     77  C   UNL     1       3.044 -14.996  -5.826  1.00  0.00     0.135 A 
ATOM     78  C   UNL     1       2.837 -12.671  -6.328  1.00  0.00     0.135 A 
ATOM     79  F   UNL     1       3.238 -16.024  -4.984  1.00  0.00    -0.206 F 
ATOM     80  C   UNL     1       2.911 -15.306  -7.178  1.00  0.00     0.059 A 
ATOM     81  C   UNL     1       2.644 -12.960  -7.673  1.00  0.00     0.059 A 
ATOM     82  F   UNL     1       2.900 -11.364  -6.044  1.00  0.00    -0.206 F 
ATOM     83  C   UNL     1       2.732 -14.276  -8.097  1.00  0.00     0.060 A 
BRANCH  83  84
ATOM     84  S   UNL     1       2.703 -14.659  -9.856  1.00  0.00     0.124 S 
ATOM     85  O   UNL     1       4.076 -15.097 -10.080  1.00  0.00    -0.237 OA
ATOM     86  O   UNL     1       1.680 -15.697  -9.922  1.00  0.00    -0.237 OA
ATOM     87  O   UNL     1       2.338 -13.386 -10.471  1.00  0.00    -0.744 OA
ENDBRANCH  83  84
ENDBRANCH  62  76
BRANCH  63  88
ATOM     88  C   UNL     1       9.919  -8.301  -5.050  1.00  0.00     0.058 A 
ATOM     89  C   UNL     1      10.879  -8.672  -6.008  1.00  0.00     0.135 A 
ATOM     90  C   UNL     1       9.448  -6.973  -5.133  1.00  0.00     0.135 A 
ATOM     91  F   UNL     1      11.374  -9.919  -6.018  1.00  0.00    -0.206 F 
ATOM     92  C   UNL     1      11.302  -7.801  -7.021  1.00  0.00     0.059 A 
ATOM     93  C   UNL     1       9.863  -6.085  -6.124  1.00  0.00     0.059 A 
ATOM     94  F   UNL     1       8.494  -6.518  -4.308  1.00  0.00    -0.206 F 
ATOM     95  C   UNL     1      10.768  -6.515  -7.085  1.00  0.00     0.060 A 
BRANCH  95  96
ATOM     96  S   UNL     1      11.159  -5.452  -8.495  1.00  0.00     0.124 S 
ATOM     97  O   UNL     1      12.576  -5.177  -8.285  1.00  0.00    -0.237 OA
ATOM     98  O   UNL     1      10.836  -6.314  -9.627  1.00  0.00    -0.237 OA
ATOM     99  O   UNL     1      10.269  -4.308  -8.316  1.00  0.00    -0.744 OA
ENDBRANCH  95  96
ENDBRANCH  63  88
BRANCH  75 100
ATOM    100  C   UNL     1       8.932 -13.678  -1.809  1.00  0.00     0.058 A 
ATOM    101  C   UNL     1       9.166 -12.652  -0.875  1.00  0.00     0.135 A 
ATOM    102  C   UNL     1       9.435 -14.949  -1.494  1.00  0.00     0.135 A 
ATOM    103  F   UNL     1       8.639 -11.433  -1.044  1.00  0.00    -0.206 F 
ATOM    104  C   UNL     1       9.884 -12.871   0.302  1.00  0.00     0.059 A 
ATOM    105  C   UNL     1      10.129 -15.199  -0.312  1.00  0.00     0.059 A 
ATOM    106  F   UNL     1       9.193 -15.987  -2.312  1.00  0.00    -0.206 F 
ATOM    107  C   UNL     1      10.355 -14.153   0.580  1.00  0.00     0.060 A 
BRANCH 107 108
ATOM    108  S   UNL     1      11.192 -14.458   2.151  1.00  0.00     0.124 S 
ATOM    109  O   UNL     1      12.464 -13.768   1.960  1.00  0.00    -0.237 OA
ATOM    110  O   UNL     1      10.282 -13.853   3.119  1.00  0.00    -0.237 OA
ATOM    111  O   UNL     1      11.277 -15.915   2.216  1.00  0.00    -0.744 OA
ENDBRANCH 107 108
ENDBRANCH  75 100
ENDBRANCH  49  50
ENDBRANCH  41  44
ENDBRANCH  39  40
ENDBRANCH  38  39
ENDBRANCH   1  38
TORSDOF 21
