REMARK SMILES N#Cc1cccnc1N1CC[NH+]([C@@H](C(=O)NCCCCCCNC(=O)c2ccc(-c3c4nc(c(-c5c(F)cc(S(=O)(=O)[O-])cc5F)c5ccc([nH]5)c(-c5c(F)cc(S(=O)(=O)[O-])cc5F)c5nc(c(-c6c(F)cc(S(=O)(=O)[O-])cc6F)c6ccc3[nH]6)C=C5)C=C4)cc2)c2c[nH]c3cc(CO)ccc23)CC1
REMARK SMILES IDX 19 1 18 2 17 3 16 4 14 5 15 6 13 8 12 9 9 10 10 11 104 12
REMARK SMILES IDX 11 13 103 14 8 16 3 17 4 18 5 19 7 20 6 21 2 22 1 23 92 24
REMARK SMILES IDX 93 25 102 26 94 27 95 28 101 29 96 31 100 32 97 33 98 34
REMARK SMILES IDX 99 35 20 37 21 38 22 39 23 40 24 41 25 43 26 44 27 45 91 46
REMARK SMILES IDX 28 47 90 48 29 49 30 50 31 51 84 52 32 53 89 54 83 55 85 56
REMARK SMILES IDX 33 57 88 58 82 59 81 60 34 62 68 63 47 64 67 65 48 66 51 67
REMARK SMILES IDX 66 68 86 69 49 70 50 71 65 73 87 74 52 75 35 76 36 77 45 78
REMARK SMILES IDX 37 79 38 80 44 81 46 82 39 83 40 84 41 85 42 86 43 87 69 88
REMARK SMILES IDX 70 89 79 90 71 91 72 92 78 93 80 94 73 95 74 96 75 97 76 98
REMARK SMILES IDX 77 99 53 100 54 101 63 102 55 103 56 104 62 105 64 106
REMARK SMILES IDX 57 107 58 108 59 109 60 110 61 111
REMARK H PARENT 16 7 12 15 94 30 99 36 23 42 85 61 51 72
REMARK Flexibility Score: inf
ROOT
ATOM      1  C   UNL     1       0.918  -2.198   3.674  1.00  0.00     0.002 C 
ENDROOT
BRANCH   1   2
ATOM      2  C   UNL     1       1.864  -3.365   3.329  1.00  0.00     0.021 C 
BRANCH   2   3
ATOM      3  C   UNL     1       1.212  -4.695   2.855  1.00  0.00     0.116 C 
BRANCH   3   4
ATOM      4  N   UNL     1      -0.032  -4.556   2.106  1.00  0.00    -0.351 N 
ATOM      5  C   UNL     1      -0.472  -4.832   0.837  1.00  0.00     0.283 C 
ATOM      6  O   UNL     1      -1.683  -4.624   0.701  1.00  0.00    -0.268 OA
ATOM      7  H   UNL     1      -0.744  -4.159   2.657  1.00  0.00     0.163 HD
BRANCH   5   8
ATOM      8  C   UNL     1       0.429  -5.407  -0.295  1.00  0.00     0.307 C 
BRANCH   8   9
ATOM      9  N   UNL     1       1.425  -4.466  -0.954  1.00  0.00    -0.318 N 
ATOM     10  N   UNL     1       0.643  -1.602  -0.960  1.00  0.00    -0.344 N 
ATOM     11  C   UNL     1       0.022  -2.566  -1.877  1.00  0.00     0.179 C 
ATOM     12  C   UNL     1       1.258  -2.210   0.234  1.00  0.00     0.179 C 
ATOM     13  C   UNL     1       1.020  -3.700  -2.152  1.00  0.00     0.284 C 
ATOM     14  C   UNL     1       2.089  -3.482  -0.096  1.00  0.00     0.284 C 
ATOM     15  H   UNL     1       2.054  -5.221  -1.229  1.00  0.00     0.349 HD
BRANCH  10  16
ATOM     16  C   UNL     1      -0.130  -0.469  -0.680  1.00  0.00     0.146 A 
ATOM     17  C   UNL     1       0.464   0.746  -0.316  1.00  0.00     0.095 A 
ATOM     18  C   UNL     1      -0.348   1.825   0.048  1.00  0.00     0.025 A 
ATOM     19  C   UNL     1      -1.729   1.677   0.038  1.00  0.00     0.022 A 
ATOM     20  N   UNL     1      -1.481  -0.593  -0.728  1.00  0.00    -0.238 NA
ATOM     21  C   UNL     1      -2.244   0.460  -0.362  1.00  0.00     0.113 A 
BRANCH  17  22
ATOM     22  C   UNL     1       1.891   0.914  -0.321  1.00  0.00     0.103 C 
ATOM     23  N   UNL     1       3.034   1.052  -0.281  1.00  0.00    -0.192 NA
ENDBRANCH  17  22
ENDBRANCH  10  16
ENDBRANCH   8   9
BRANCH   8  24
ATOM     24  C   UNL     1      -0.319  -6.162  -1.432  1.00  0.00     0.044 A 
ATOM     25  C   UNL     1       0.241  -7.207  -2.159  1.00  0.00     0.094 A 
ATOM     26  C   UNL     1      -1.441  -5.734  -2.242  1.00  0.00     0.009 A 
ATOM     27  N   UNL     1      -0.059  -6.943  -3.479  1.00  0.00    -0.361 N 
ATOM     28  C   UNL     1      -1.006  -5.946  -3.554  1.00  0.00     0.046 A 
ATOM     29  C   UNL     1      -2.592  -4.943  -2.066  1.00  0.00     0.011 A 
ATOM     30  H   UNL     1       0.344  -7.400  -4.253  1.00  0.00     0.166 HD
ATOM     31  C   UNL     1      -1.407  -5.114  -4.615  1.00  0.00     0.032 A 
ATOM     32  C   UNL     1      -3.085  -4.191  -3.136  1.00  0.00     0.007 A 
ATOM     33  C   UNL     1      -2.396  -4.149  -4.351  1.00  0.00    -0.021 A 
BRANCH  33  34
ATOM     34  C   UNL     1      -2.692  -3.046  -5.338  1.00  0.00     0.191 C 
BRANCH  34  35
ATOM     35  O   UNL     1      -2.811  -1.777  -4.693  1.00  0.00    -0.392 OA
ATOM     36  H   UNL     1      -3.544  -1.804  -4.059  1.00  0.00     0.211 HD
ENDBRANCH  34  35
ENDBRANCH  33  34
ENDBRANCH   8  24
ENDBRANCH   5   8
ENDBRANCH   3   4
ENDBRANCH   2   3
ENDBRANCH   1   2
BRANCH   1  37
ATOM     37  C   UNL     1       1.092  -1.622   5.082  1.00  0.00     0.002 C 
BRANCH  37  38
ATOM     38  C   UNL     1       2.443  -0.963   5.374  1.00  0.00     0.021 C 
BRANCH  38  39
ATOM     39  C   UNL     1       2.744   0.302   4.570  1.00  0.00     0.116 C 
BRANCH  39  40
ATOM     40  N   UNL     1       1.924   1.431   4.991  1.00  0.00    -0.352 N 
ATOM     41  C   UNL     1       2.307   2.596   5.615  1.00  0.00     0.251 C 
ATOM     42  H   UNL     1       0.961   1.349   4.801  1.00  0.00     0.163 HD
ATOM     43  O   UNL     1       1.461   3.348   6.088  1.00  0.00    -0.269 OA
BRANCH  41  44
ATOM     44  C   UNL     1       3.744   2.931   5.729  1.00  0.00     0.039 A 
ATOM     45  C   UNL     1       4.266   3.299   6.972  1.00  0.00     0.014 A 
ATOM     46  C   UNL     1       4.573   2.885   4.604  1.00  0.00     0.014 A 
ATOM     47  C   UNL     1       5.634   3.559   7.099  1.00  0.00     0.010 A 
ATOM     48  C   UNL     1       5.945   3.085   4.746  1.00  0.00     0.010 A 
ATOM     49  C   UNL     1       6.491   3.425   5.994  1.00  0.00    -0.014 A 
BRANCH  49  50
ATOM     50  C   UNL     1       7.957   3.645   6.120  1.00  0.00     0.031 A 
ATOM     51  C   UNL     1       8.616   4.782   5.386  1.00  0.00     0.074 A 
ATOM     52  C   UNL     1       8.704   2.787   6.844  1.00  0.00     0.049 A 
ATOM     53  N   UNL     1       9.885   5.091   5.308  1.00  0.00    -0.248 NA
ATOM     54  C   UNL     1       7.732   5.677   4.620  1.00  0.00     0.031 C 
ATOM     55  C   UNL     1       8.193   1.617   7.561  1.00  0.00     0.029 A 
ATOM     56  N   UNL     1      10.056   2.757   7.084  1.00  0.00    -0.354 N 
ATOM     57  C   UNL     1       9.953   6.209   4.484  1.00  0.00     0.074 A 
ATOM     58  C   UNL     1       8.604   6.489   4.041  1.00  0.00     0.031 C 
ATOM     59  C   UNL     1       9.216   0.988   8.163  1.00  0.00     0.029 A 
ATOM     60  C   UNL     1      10.458   1.689   7.853  1.00  0.00     0.049 A 
ATOM     61  H   UNL     1      10.679   3.436   6.738  1.00  0.00     0.167 HD
ATOM     62  C   UNL     1      11.035   6.952   4.149  1.00  0.00     0.037 A 
ATOM     63  C   UNL     1      11.689   1.311   8.252  1.00  0.00     0.037 A 
ATOM     64  C   UNL     1      12.374   6.679   4.603  1.00  0.00     0.049 A 
ATOM     65  C   UNL     1      12.877   2.151   7.868  1.00  0.00     0.074 A 
ATOM     66  C   UNL     1      13.533   7.391   4.345  1.00  0.00     0.029 A 
ATOM     67  N   UNL     1      12.734   5.612   5.412  1.00  0.00    -0.354 N 
ATOM     68  N   UNL     1      12.915   3.236   7.131  1.00  0.00    -0.248 NA
ATOM     69  C   UNL     1      14.188   1.726   8.377  1.00  0.00     0.031 C 
ATOM     70  C   UNL     1      14.599   6.735   4.970  1.00  0.00     0.029 A 
ATOM     71  C   UNL     1      14.097   5.640   5.656  1.00  0.00     0.049 A 
ATOM     72  H   UNL     1      12.112   4.933   5.761  1.00  0.00     0.167 HD
ATOM     73  C   UNL     1      14.247   3.635   7.108  1.00  0.00     0.074 A 
ATOM     74  C   UNL     1      14.981   2.685   7.918  1.00  0.00     0.031 C 
ATOM     75  C   UNL     1      14.812   4.692   6.474  1.00  0.00     0.037 A 
BRANCH  62  76
ATOM     76  C   UNL     1      10.811   8.146   3.261  1.00  0.00     0.058 A 
ATOM     77  C   UNL     1      10.147   9.291   3.731  1.00  0.00     0.135 A 
ATOM     78  C   UNL     1      11.294   8.165   1.943  1.00  0.00     0.135 A 
ATOM     79  F   UNL     1       9.651   9.321   4.978  1.00  0.00    -0.206 F 
ATOM     80  C   UNL     1       9.945  10.401   2.918  1.00  0.00     0.059 A 
ATOM     81  C   UNL     1      11.128   9.277   1.120  1.00  0.00     0.059 A 
ATOM     82  F   UNL     1      11.938   7.099   1.442  1.00  0.00    -0.206 F 
ATOM     83  C   UNL     1      10.440  10.385   1.613  1.00  0.00     0.060 A 
BRANCH  83  84
ATOM     84  S   UNL     1      10.179  11.839   0.576  1.00  0.00     0.124 S 
ATOM     85  O   UNL     1       8.753  11.734   0.280  1.00  0.00    -0.237 OA
ATOM     86  O   UNL     1      10.561  12.931   1.466  1.00  0.00    -0.237 OA
ATOM     87  O   UNL     1      11.073  11.616  -0.556  1.00  0.00    -0.744 OA
ENDBRANCH  83  84
ENDBRANCH  62  76
BRANCH  63  88
ATOM     88  C   UNL     1      11.860   0.080   9.070  1.00  0.00     0.058 A 
ATOM     89  C   UNL     1      12.227   0.151  10.423  1.00  0.00     0.135 A 
ATOM     90  C   UNL     1      11.659  -1.194   8.515  1.00  0.00     0.135 A 
ATOM     91  F   UNL     1      12.437   1.345  10.998  1.00  0.00    -0.206 F 
ATOM     92  C   UNL     1      12.410  -0.995  11.191  1.00  0.00     0.059 A 
ATOM     93  C   UNL     1      11.810  -2.353   9.270  1.00  0.00     0.059 A 
ATOM     94  F   UNL     1      11.289  -1.318   7.231  1.00  0.00    -0.206 F 
ATOM     95  C   UNL     1      12.199  -2.244  10.604  1.00  0.00     0.060 A 
BRANCH  95  96
ATOM     96  S   UNL     1      12.399  -3.725  11.618  1.00  0.00     0.124 S 
ATOM     97  O   UNL     1      13.851  -3.815  11.723  1.00  0.00    -0.237 OA
ATOM     98  O   UNL     1      11.691  -3.359  12.841  1.00  0.00    -0.237 OA
ATOM     99  O   UNL     1      11.757  -4.766  10.820  1.00  0.00    -0.744 OA
ENDBRANCH  95  96
ENDBRANCH  63  88
BRANCH  75 100
ATOM    100  C   UNL     1      16.290   4.900   6.654  1.00  0.00     0.058 A 
ATOM    101  C   UNL     1      17.234   4.071   6.029  1.00  0.00     0.135 A 
ATOM    102  C   UNL     1      16.767   5.976   7.420  1.00  0.00     0.135 A 
ATOM    103  F   UNL     1      16.830   3.025   5.291  1.00  0.00    -0.206 F 
ATOM    104  C   UNL     1      18.600   4.288   6.175  1.00  0.00     0.059 A 
ATOM    105  C   UNL     1      18.128   6.228   7.558  1.00  0.00     0.059 A 
ATOM    106  F   UNL     1      15.905   6.806   8.031  1.00  0.00    -0.206 F 
ATOM    107  C   UNL     1      19.038   5.371   6.940  1.00  0.00     0.060 A 
BRANCH 107 108
ATOM    108  S   UNL     1      20.813   5.663   7.093  1.00  0.00     0.124 S 
ATOM    109  O   UNL     1      21.206   4.605   8.018  1.00  0.00    -0.237 OA
ATOM    110  O   UNL     1      21.275   5.506   5.717  1.00  0.00    -0.237 OA
ATOM    111  O   UNL     1      20.890   7.021   7.622  1.00  0.00    -0.744 OA
ENDBRANCH 107 108
ENDBRANCH  75 100
ENDBRANCH  49  50
ENDBRANCH  41  44
ENDBRANCH  39  40
ENDBRANCH  38  39
ENDBRANCH  37  38
ENDBRANCH   1  37
TORSDOF 22
