REMARK SMILES COc1ccc(CSc2ncccc2C(=O)NCCCCCCNC(=O)c2ccc(-c3c4nc(c(-c5c(F)cc(S(=O)(=O)[O-])cc5F)c5ccc([nH]5)c(-c5c(F)cc(S(=O)(=O)[O-])cc5F)c5nc(c(-c6c(F)cc(S(=O)(=O)[O-])cc6F)c6ccc3[nH]6)C=C5)C=C4)cc2)cc1
REMARK SMILES IDX 20 1 19 2 18 3 17 4 15 5 16 6 14 8 9 9 10 10 11 11 13 12
REMARK SMILES IDX 12 13 8 14 7 15 6 16 3 17 4 18 94 19 5 20 93 21 2 22 1 23
REMARK SMILES IDX 21 24 22 25 23 26 24 27 25 28 26 30 27 31 28 32 92 33 29 34
REMARK SMILES IDX 91 35 30 36 31 37 32 38 85 39 33 40 90 41 84 42 86 43 34 44
REMARK SMILES IDX 89 45 83 46 82 47 35 49 69 50 48 51 68 52 49 53 52 54 67 55
REMARK SMILES IDX 87 56 50 57 51 58 66 60 88 61 53 62 36 63 37 64 46 65 38 66
REMARK SMILES IDX 39 67 45 68 47 69 40 70 41 71 42 72 43 73 44 74 70 75 71 76
REMARK SMILES IDX 80 77 72 78 73 79 79 80 81 81 74 82 75 83 76 84 77 85 78 86
REMARK SMILES IDX 54 87 55 88 64 89 56 90 57 91 63 92 65 93 58 94 59 95 60 96
REMARK SMILES IDX 61 97 62 98
REMARK H PARENT 17 7 24 29 86 48 52 59
REMARK Flexibility Score: inf
ROOT
ATOM      1  C   UNL     1       8.351   0.810   4.410  1.00  0.00     0.002 C 
ENDROOT
BRANCH   1   2
ATOM      2  C   UNL     1       7.695   2.188   4.597  1.00  0.00     0.021 C 
BRANCH   2   3
ATOM      3  C   UNL     1       6.234   2.215   4.134  1.00  0.00     0.116 C 
BRANCH   3   4
ATOM      4  N   UNL     1       5.441   1.506   5.125  1.00  0.00    -0.352 N 
ATOM      5  C   UNL     1       4.749   1.958   6.223  1.00  0.00     0.254 C 
ATOM      6  O   UNL     1       4.689   1.214   7.199  1.00  0.00    -0.269 OA
ATOM      7  H   UNL     1       5.392   0.532   4.986  1.00  0.00     0.163 HD
BRANCH   5   8
ATOM      8  C   UNL     1       4.019   3.242   6.215  1.00  0.00     0.072 A 
ATOM      9  C   UNL     1       2.689   3.341   6.650  1.00  0.00     0.109 A 
ATOM     10  N   UNL     1       2.030   4.539   6.635  1.00  0.00    -0.249 NA
ATOM     11  C   UNL     1       2.683   5.644   6.220  1.00  0.00     0.112 A 
ATOM     12  C   UNL     1       4.682   4.426   5.855  1.00  0.00     0.018 A 
ATOM     13  C   UNL     1       4.003   5.640   5.833  1.00  0.00     0.021 A 
BRANCH   9  14
ATOM     14  S   UNL     1       1.672   2.113   7.456  1.00  0.00    -0.101 SA
BRANCH  14  15
ATOM     15  C   UNL     1       1.781   0.613   6.442  1.00  0.00     0.112 C 
BRANCH  15  16
ATOM     16  C   UNL     1       1.443   0.760   4.983  1.00  0.00    -0.037 A 
ATOM     17  C   UNL     1       0.791   0.861   2.246  1.00  0.00     0.118 A 
ATOM     18  C   UNL     1      -0.129   1.278   3.209  1.00  0.00     0.047 A 
ATOM     19  C   UNL     1       2.046   0.412   2.649  1.00  0.00     0.047 A 
ATOM     20  C   UNL     1       0.188   1.221   4.568  1.00  0.00     0.008 A 
ATOM     21  C   UNL     1       2.363   0.351   4.008  1.00  0.00     0.008 A 
BRANCH  17  22
ATOM     22  O   UNL     1       0.362   0.956   0.950  1.00  0.00    -0.497 OA
ATOM     23  C   UNL     1       1.024   0.110   0.016  1.00  0.00     0.278 C 
ENDBRANCH  17  22
ENDBRANCH  15  16
ENDBRANCH  14  15
ENDBRANCH   9  14
ENDBRANCH   5   8
ENDBRANCH   3   4
ENDBRANCH   2   3
ENDBRANCH   1   2
BRANCH   1  24
ATOM     24  C   UNL     1       8.478   0.361   2.949  1.00  0.00     0.002 C 
BRANCH  24  25
ATOM     25  C   UNL     1       9.195   1.362   2.043  1.00  0.00     0.021 C 
BRANCH  25  26
ATOM     26  C   UNL     1      10.617   1.681   2.487  1.00  0.00     0.116 C 
BRANCH  26  27
ATOM     27  N   UNL     1      11.487   0.521   2.361  1.00  0.00    -0.352 N 
ATOM     28  C   UNL     1      12.681   0.426   1.692  1.00  0.00     0.251 C 
ATOM     29  H   UNL     1      11.181  -0.298   2.814  1.00  0.00     0.163 HD
ATOM     30  O   UNL     1      13.185  -0.672   1.469  1.00  0.00    -0.269 OA
BRANCH  28  31
ATOM     31  C   UNL     1      13.340   1.664   1.232  1.00  0.00     0.039 A 
ATOM     32  C   UNL     1      13.811   1.746  -0.080  1.00  0.00     0.014 A 
ATOM     33  C   UNL     1      13.462   2.752   2.102  1.00  0.00     0.014 A 
ATOM     34  C   UNL     1      14.363   2.945  -0.536  1.00  0.00     0.010 A 
ATOM     35  C   UNL     1      13.939   3.965   1.622  1.00  0.00     0.010 A 
ATOM     36  C   UNL     1      14.408   4.070   0.303  1.00  0.00    -0.014 A 
BRANCH  36  37
ATOM     37  C   UNL     1      14.972   5.365  -0.153  1.00  0.00     0.031 A 
ATOM     38  C   UNL     1      16.188   5.923   0.535  1.00  0.00     0.074 A 
ATOM     39  C   UNL     1      14.350   6.072  -1.117  1.00  0.00     0.049 A 
ATOM     40  N   UNL     1      16.758   7.091   0.390  1.00  0.00    -0.248 NA
ATOM     41  C   UNL     1      16.827   5.065   1.547  1.00  0.00     0.031 C 
ATOM     42  C   UNL     1      13.145   5.649  -1.834  1.00  0.00     0.029 A 
ATOM     43  N   UNL     1      14.635   7.305  -1.647  1.00  0.00    -0.354 N 
ATOM     44  C   UNL     1      17.805   7.115   1.305  1.00  0.00     0.074 A 
ATOM     45  C   UNL     1      17.756   5.870   2.039  1.00  0.00     0.031 C 
ATOM     46  C   UNL     1      12.803   6.601  -2.718  1.00  0.00     0.029 A 
ATOM     47  C   UNL     1      13.734   7.719  -2.600  1.00  0.00     0.049 A 
ATOM     48  H   UNL     1      15.412   7.843  -1.370  1.00  0.00     0.167 HD
ATOM     49  C   UNL     1      18.736   8.079   1.499  1.00  0.00     0.037 A 
ATOM     50  C   UNL     1      13.659   8.876  -3.287  1.00  0.00     0.037 A 
ATOM     51  C   UNL     1      18.792   9.302   0.743  1.00  0.00     0.049 A 
ATOM     52  C   UNL     1      14.700   9.938  -3.048  1.00  0.00     0.074 A 
ATOM     53  C   UNL     1      19.724  10.322   0.825  1.00  0.00     0.029 A 
ATOM     54  N   UNL     1      17.880   9.671  -0.235  1.00  0.00    -0.354 N 
ATOM     55  N   UNL     1      15.712   9.927  -2.213  1.00  0.00    -0.248 NA
ATOM     56  C   UNL     1      14.594  11.167  -3.847  1.00  0.00     0.031 C 
ATOM     57  C   UNL     1      19.347  11.329  -0.069  1.00  0.00     0.029 A 
ATOM     58  C   UNL     1      18.215  10.911  -0.752  1.00  0.00     0.049 A 
ATOM     59  H   UNL     1      17.107   9.131  -0.520  1.00  0.00     0.167 HD
ATOM     60  C   UNL     1      16.384  11.128  -2.413  1.00  0.00     0.074 A 
ATOM     61  C   UNL     1      15.665  11.839  -3.450  1.00  0.00     0.031 C 
ATOM     62  C   UNL     1      17.499  11.596  -1.799  1.00  0.00     0.037 A 
BRANCH  49  63
ATOM     63  C   UNL     1      19.767   7.848   2.571  1.00  0.00     0.058 A 
ATOM     64  C   UNL     1      20.758   6.861   2.444  1.00  0.00     0.135 A 
ATOM     65  C   UNL     1      19.782   8.643   3.729  1.00  0.00     0.135 A 
ATOM     66  F   UNL     1      20.782   6.060   1.367  1.00  0.00    -0.206 F 
ATOM     67  C   UNL     1      21.704   6.647   3.441  1.00  0.00     0.059 A 
ATOM     68  C   UNL     1      20.740   8.469   4.723  1.00  0.00     0.059 A 
ATOM     69  F   UNL     1      18.858   9.601   3.904  1.00  0.00    -0.206 F 
ATOM     70  C   UNL     1      21.687   7.457   4.577  1.00  0.00     0.060 A 
BRANCH  70  71
ATOM     71  S   UNL     1      22.924   7.167   5.859  1.00  0.00     0.124 S 
ATOM     72  O   UNL     1      22.454   5.913   6.438  1.00  0.00    -0.237 OA
ATOM     73  O   UNL     1      24.160   7.085   5.086  1.00  0.00    -0.237 OA
ATOM     74  O   UNL     1      22.804   8.339   6.720  1.00  0.00    -0.744 OA
ENDBRANCH  70  71
ENDBRANCH  49  63
BRANCH  50  75
ATOM     75  C   UNL     1      12.570   9.083  -4.280  1.00  0.00     0.058 A 
ATOM     76  C   UNL     1      12.845   9.125  -5.655  1.00  0.00     0.135 A 
ATOM     77  C   UNL     1      11.233   9.231  -3.878  1.00  0.00     0.135 A 
ATOM     78  F   UNL     1      14.108   8.994  -6.089  1.00  0.00    -0.206 F 
ATOM     79  C   UNL     1      11.840   9.325  -6.595  1.00  0.00     0.059 A 
ATOM     80  C   UNL     1      10.206   9.404  -4.801  1.00  0.00     0.059 A 
ATOM     81  F   UNL     1      10.912   9.181  -2.575  1.00  0.00    -0.206 F 
ATOM     82  C   UNL     1      10.521   9.460  -6.157  1.00  0.00     0.060 A 
BRANCH  82  83
ATOM     83  S   UNL     1       9.218   9.672  -7.390  1.00  0.00     0.124 S 
ATOM     84  O   UNL     1       9.466  11.034  -7.848  1.00  0.00    -0.237 OA
ATOM     85  O   UNL     1       9.524   8.610  -8.343  1.00  0.00    -0.237 OA
ATOM     86  O   UNL     1       7.994   9.478  -6.619  1.00  0.00    -0.744 OA
ENDBRANCH  82  83
ENDBRANCH  50  75
BRANCH  62  87
ATOM     87  C   UNL     1      18.052  12.915  -2.266  1.00  0.00     0.058 A 
ATOM     88  C   UNL     1      17.423  14.133  -1.968  1.00  0.00     0.135 A 
ATOM     89  C   UNL     1      19.274  12.959  -2.959  1.00  0.00     0.135 A 
ATOM     90  F   UNL     1      16.251  14.146  -1.313  1.00  0.00    -0.206 F 
ATOM     91  C   UNL     1      17.976  15.349  -2.357  1.00  0.00     0.059 A 
ATOM     92  C   UNL     1      19.860  14.164  -3.331  1.00  0.00     0.059 A 
ATOM     93  F   UNL     1      19.922  11.823  -3.260  1.00  0.00    -0.206 F 
ATOM     94  C   UNL     1      19.198  15.354  -3.032  1.00  0.00     0.060 A 
BRANCH  94  95
ATOM     95  S   UNL     1      19.929  16.942  -3.486  1.00  0.00     0.124 S 
ATOM     96  O   UNL     1      19.060  17.364  -4.579  1.00  0.00    -0.237 OA
ATOM     97  O   UNL     1      19.808  17.705  -2.248  1.00  0.00    -0.237 OA
ATOM     98  O   UNL     1      21.294  16.592  -3.868  1.00  0.00    -0.744 OA
ENDBRANCH  94  95
ENDBRANCH  62  87
ENDBRANCH  36  37
ENDBRANCH  28  31
ENDBRANCH  26  27
ENDBRANCH  25  26
ENDBRANCH  24  25
ENDBRANCH   1  24
TORSDOF 20
