REMARK SMILES CCOCC[C@@H]1CCC[C@@]1([NH2+]C1CC1)C(=O)NCCCCCCNC(=O)c1ccc(-c2c3nc(c(-c4c(F)cc(S(=O)(=O)[O-])cc4F)c4ccc([nH]4)c(-c4c(F)cc(S(=O)(=O)[O-])cc4F)c4nc(c(-c5c(F)cc(S(=O)(=O)[O-])cc5F)c5ccc2[nH]5)C=C4)C=C3)cc1
REMARK SMILES IDX 20 1 19 2 18 3 17 4 15 5 16 6 10 8 6 9 7 10 8 11 9 12 5 13
REMARK SMILES IDX 4 14 3 15 2 16 1 17 11 18 12 21 13 22 14 23 21 24 22 25
REMARK SMILES IDX 23 26 24 27 25 28 26 30 27 31 28 32 92 33 29 34 91 35 30 36
REMARK SMILES IDX 31 37 32 38 85 39 33 40 90 41 84 42 86 43 34 44 89 45 83 46
REMARK SMILES IDX 82 47 35 49 69 50 48 51 68 52 49 53 52 54 67 55 87 56 50 57
REMARK SMILES IDX 51 58 66 60 88 61 53 62 36 63 37 64 46 65 38 66 39 67 45 68
REMARK SMILES IDX 47 69 40 70 41 71 42 72 43 73 44 74 70 75 71 76 80 77 72 78
REMARK SMILES IDX 73 79 79 80 81 81 74 82 75 83 76 84 77 85 78 86 54 87 55 88
REMARK SMILES IDX 64 89 56 90 57 91 63 92 65 93 58 94 59 95 60 96 61 97 62 98
REMARK H PARENT 17 7 11 19 11 20 24 29 86 48 52 59
REMARK Flexibility Score: inf
ROOT
ATOM      1  C   UNL     1      -2.966  -0.812   3.024  1.00  0.00     0.002 C 
ENDROOT
BRANCH   1   2
ATOM      2  C   UNL     1      -1.571  -1.161   3.553  1.00  0.00     0.021 C 
BRANCH   2   3
ATOM      3  C   UNL     1      -0.572  -1.712   2.541  1.00  0.00     0.116 C 
BRANCH   3   4
ATOM      4  N   UNL     1      -0.465  -0.903   1.347  1.00  0.00    -0.351 N 
ATOM      5  C   UNL     1       0.565  -0.668   0.486  1.00  0.00     0.281 C 
ATOM      6  O   UNL     1       0.194  -0.231  -0.610  1.00  0.00    -0.268 OA
ATOM      7  H   UNL     1      -1.296  -0.431   1.110  1.00  0.00     0.163 HD
BRANCH   5   8
ATOM      8  C   UNL     1       2.069  -0.951   0.849  1.00  0.00     0.178 C 
ATOM      9  C   UNL     1       2.498  -0.285   2.203  1.00  0.00     0.063 C 
ATOM     10  C   UNL     1       3.443  -1.332   2.830  1.00  0.00     0.011 C 
ATOM     11  C   UNL     1       2.886  -2.683   2.443  1.00  0.00     0.008 C 
ATOM     12  C   UNL     1       2.262  -2.482   1.070  1.00  0.00     0.079 C 
BRANCH   9  13
ATOM     13  C   UNL     1       3.216   1.089   2.282  1.00  0.00     0.039 C 
BRANCH  13  14
ATOM     14  C   UNL     1       2.873   2.240   1.344  1.00  0.00     0.160 C 
BRANCH  14  15
ATOM     15  O   UNL     1       1.710   2.965   1.714  1.00  0.00    -0.382 OA
BRANCH  15  16
ATOM     16  C   UNL     1       0.526   2.682   0.978  1.00  0.00     0.156 C 
ATOM     17  C   UNL     1       0.676   2.803  -0.530  1.00  0.00     0.035 C 
ENDBRANCH  15  16
ENDBRANCH  14  15
ENDBRANCH  13  14
ENDBRANCH   9  13
BRANCH   8  18
ATOM     18  N   UNL     1       3.010  -0.513  -0.226  1.00  0.00    -0.331 N 
ATOM     19  H   UNL     1       3.939  -0.858   0.013  1.00  0.00     0.347 HD
ATOM     20  H   UNL     1       2.940   0.504  -0.257  1.00  0.00     0.347 HD
BRANCH  18  21
ATOM     21  C   UNL     1       2.690  -0.978  -1.588  1.00  0.00     0.183 C 
ATOM     22  C   UNL     1       2.538   0.047  -2.680  1.00  0.00     0.071 C 
ATOM     23  C   UNL     1       3.730  -0.857  -2.668  1.00  0.00     0.071 C 
ENDBRANCH  18  21
ENDBRANCH   8  18
ENDBRANCH   5   8
ENDBRANCH   3   4
ENDBRANCH   2   3
ENDBRANCH   1   2
BRANCH   1  24
ATOM     24  C   UNL     1      -3.639  -1.829   2.099  1.00  0.00     0.002 C 
BRANCH  24  25
ATOM     25  C   UNL     1      -3.718  -3.268   2.605  1.00  0.00     0.021 C 
BRANCH  25  26
ATOM     26  C   UNL     1      -4.287  -3.441   4.005  1.00  0.00     0.116 C 
BRANCH  26  27
ATOM     27  N   UNL     1      -5.640  -2.933   4.127  1.00  0.00    -0.352 N 
ATOM     28  C   UNL     1      -6.731  -3.522   4.712  1.00  0.00     0.251 C 
ATOM     29  H   UNL     1      -5.796  -2.043   3.736  1.00  0.00     0.163 HD
ATOM     30  O   UNL     1      -7.841  -3.004   4.591  1.00  0.00    -0.269 OA
BRANCH  28  31
ATOM     31  C   UNL     1      -6.580  -4.792   5.455  1.00  0.00     0.039 A 
ATOM     32  C   UNL     1      -7.526  -5.798   5.254  1.00  0.00     0.014 A 
ATOM     33  C   UNL     1      -5.516  -4.998   6.340  1.00  0.00     0.014 A 
ATOM     34  C   UNL     1      -7.379  -7.023   5.905  1.00  0.00     0.010 A 
ATOM     35  C   UNL     1      -5.324  -6.250   6.922  1.00  0.00     0.010 A 
ATOM     36  C   UNL     1      -6.261  -7.272   6.721  1.00  0.00    -0.014 A 
BRANCH  36  37
ATOM     37  C   UNL     1      -6.081  -8.605   7.351  1.00  0.00     0.031 A 
ATOM     38  C   UNL     1      -6.110  -8.759   8.848  1.00  0.00     0.074 A 
ATOM     39  C   UNL     1      -5.887  -9.682   6.563  1.00  0.00     0.049 A 
ATOM     40  N   UNL     1      -6.054  -9.852   9.564  1.00  0.00    -0.248 NA
ATOM     41  C   UNL     1      -6.187  -7.526   9.647  1.00  0.00     0.031 C 
ATOM     42  C   UNL     1      -5.763  -9.648   5.103  1.00  0.00     0.029 A 
ATOM     43  N   UNL     1      -5.775 -11.013   6.873  1.00  0.00    -0.354 N 
ATOM     44  C   UNL     1      -6.093  -9.441  10.892  1.00  0.00     0.074 A 
ATOM     45  C   UNL     1      -6.108  -7.995  10.884  1.00  0.00     0.031 C 
ATOM     46  C   UNL     1      -5.644 -10.902   4.642  1.00  0.00     0.029 A 
ATOM     47  C   UNL     1      -5.654 -11.827   5.771  1.00  0.00     0.049 A 
ATOM     48  H   UNL     1      -5.781 -11.354   7.796  1.00  0.00     0.167 HD
ATOM     49  C   UNL     1      -6.141 -10.200  12.014  1.00  0.00     0.037 A 
ATOM     50  C   UNL     1      -5.575 -13.168   5.678  1.00  0.00     0.037 A 
ATOM     51  C   UNL     1      -6.139 -11.641  12.010  1.00  0.00     0.049 A 
ATOM     52  C   UNL     1      -5.657 -13.990   6.936  1.00  0.00     0.074 A 
ATOM     53  C   UNL     1      -6.243 -12.505  13.086  1.00  0.00     0.029 A 
ATOM     54  N   UNL     1      -6.022 -12.431  10.875  1.00  0.00    -0.354 N 
ATOM     55  N   UNL     1      -5.780 -13.586   8.179  1.00  0.00    -0.248 NA
ATOM     56  C   UNL     1      -5.607 -15.448   6.777  1.00  0.00     0.031 C 
ATOM     57  C   UNL     1      -6.139 -13.816  12.606  1.00  0.00     0.029 A 
ATOM     58  C   UNL     1      -6.027 -13.771  11.226  1.00  0.00     0.049 A 
ATOM     59  H   UNL     1      -5.946 -12.089   9.955  1.00  0.00     0.167 HD
ATOM     60  C   UNL     1      -5.839 -14.742   8.949  1.00  0.00     0.074 A 
ATOM     61  C   UNL     1      -5.768 -15.858   8.027  1.00  0.00     0.031 C 
ATOM     62  C   UNL     1      -5.939 -14.870  10.296  1.00  0.00     0.037 A 
BRANCH  49  63
ATOM     63  C   UNL     1      -6.208  -9.485  13.338  1.00  0.00     0.058 A 
ATOM     64  C   UNL     1      -7.349  -8.766  13.732  1.00  0.00     0.135 A 
ATOM     65  C   UNL     1      -5.135  -9.549  14.241  1.00  0.00     0.135 A 
ATOM     66  F   UNL     1      -8.400  -8.658  12.903  1.00  0.00    -0.206 F 
ATOM     67  C   UNL     1      -7.412  -8.111  14.958  1.00  0.00     0.059 A 
ATOM     68  C   UNL     1      -5.187  -8.927  15.486  1.00  0.00     0.059 A 
ATOM     69  F   UNL     1      -4.018 -10.220  13.918  1.00  0.00    -0.206 F 
ATOM     70  C   UNL     1      -6.325  -8.198  15.829  1.00  0.00     0.060 A 
BRANCH  70  71
ATOM     71  S   UNL     1      -6.427  -7.351  17.420  1.00  0.00     0.124 S 
ATOM     72  O   UNL     1      -6.308  -5.954  17.013  1.00  0.00    -0.237 OA
ATOM     73  O   UNL     1      -7.740  -7.759  17.907  1.00  0.00    -0.237 OA
ATOM     74  O   UNL     1      -5.291  -7.885  18.164  1.00  0.00    -0.744 OA
ENDBRANCH  70  71
ENDBRANCH  49  63
BRANCH  50  75
ATOM     75  C   UNL     1      -5.450 -13.816   4.345  1.00  0.00     0.058 A 
ATOM     76  C   UNL     1      -6.504 -14.565   3.799  1.00  0.00     0.135 A 
ATOM     77  C   UNL     1      -4.279 -13.685   3.582  1.00  0.00     0.135 A 
ATOM     78  F   UNL     1      -7.643 -14.723   4.491  1.00  0.00    -0.206 F 
ATOM     79  C   UNL     1      -6.396 -15.178   2.555  1.00  0.00     0.059 A 
ATOM     80  C   UNL     1      -4.158 -14.265   2.323  1.00  0.00     0.059 A 
ATOM     81  F   UNL     1      -3.249 -12.963   4.049  1.00  0.00    -0.206 F 
ATOM     82  C   UNL     1      -5.218 -15.020   1.823  1.00  0.00     0.060 A 
BRANCH  82  83
ATOM     83  S   UNL     1      -5.104 -15.779   0.188  1.00  0.00     0.124 S 
ATOM     84  O   UNL     1      -4.959 -17.189   0.528  1.00  0.00    -0.237 OA
ATOM     85  O   UNL     1      -6.374 -15.394  -0.418  1.00  0.00    -0.237 OA
ATOM     86  O   UNL     1      -3.924 -15.145  -0.393  1.00  0.00    -0.744 OA
ENDBRANCH  82  83
ENDBRANCH  50  75
BRANCH  62  87
ATOM     87  C   UNL     1      -5.993 -16.271  10.844  1.00  0.00     0.058 A 
ATOM     88  C   UNL     1      -4.874 -17.120  10.811  1.00  0.00     0.135 A 
ATOM     89  C   UNL     1      -7.177 -16.771  11.410  1.00  0.00     0.135 A 
ATOM     90  F   UNL     1      -3.717 -16.692  10.280  1.00  0.00    -0.206 F 
ATOM     91  C   UNL     1      -4.943 -18.431  11.269  1.00  0.00     0.059 A 
ATOM     92  C   UNL     1      -7.259 -18.069  11.905  1.00  0.00     0.059 A 
ATOM     93  F   UNL     1      -8.272 -15.998  11.483  1.00  0.00    -0.206 F 
ATOM     94  C   UNL     1      -6.143 -18.899  11.808  1.00  0.00     0.060 A 
BRANCH  94  95
ATOM     95  S   UNL     1      -6.226 -20.608  12.382  1.00  0.00     0.124 S 
ATOM     96  O   UNL     1      -6.286 -21.337  11.120  1.00  0.00    -0.237 OA
ATOM     97  O   UNL     1      -4.984 -20.746  13.136  1.00  0.00    -0.237 OA
ATOM     98  O   UNL     1      -7.446 -20.637  13.184  1.00  0.00    -0.744 OA
ENDBRANCH  94  95
ENDBRANCH  62  87
ENDBRANCH  36  37
ENDBRANCH  28  31
ENDBRANCH  26  27
ENDBRANCH  25  26
ENDBRANCH  24  25
ENDBRANCH   1  24
TORSDOF 22
