REMARK SMILES C[C@@H](C(=O)NCCCCCCNC(=O)c1ccc(-c2c3nc(c(-c4c(F)cc(S(=O)(=O)[O-])cc4F)c4ccc([nH]4)c(-c4c(F)cc(S(=O)(=O)[O-])cc4F)c4nc(c(-c5c(F)cc(S(=O)(=O)[O-])cc5F)c5ccc2[nH]5)C=C4)C=C3)cc1)c1ccc(C[C@H]2CCC[C@H]2O)cc1-c1ccc(O)cc1
REMARK SMILES IDX 8 1 7 2 6 3 5 4 3 5 4 6 2 8 1 9 81 10 82 11 93 12 83 13
REMARK SMILES IDX 92 14 84 15 94 16 95 17 100 18 96 19 99 20 97 21 98 22 85 24
REMARK SMILES IDX 86 25 87 26 90 27 88 28 89 29 91 30 9 32 10 33 11 34 12 35
REMARK SMILES IDX 13 36 14 38 15 39 16 40 80 41 17 42 79 43 18 44 19 45 20 46
REMARK SMILES IDX 73 47 21 48 78 49 72 50 74 51 22 52 77 53 71 54 70 55 23 57
REMARK SMILES IDX 57 58 36 59 56 60 37 61 40 62 55 63 75 64 38 65 39 66 54 68
REMARK SMILES IDX 76 69 41 70 24 71 25 72 34 73 26 74 27 75 33 76 35 77 28 78
REMARK SMILES IDX 29 79 30 80 31 81 32 82 58 83 59 84 68 85 60 86 61 87 67 88
REMARK SMILES IDX 69 89 62 90 63 91 64 92 65 93 66 94 42 95 43 96 52 97 44 98
REMARK SMILES IDX 45 99 51 100 53 101 46 102 47 103 48 104 49 105 50 106
REMARK H PARENT 5 7 98 23 91 31 12 37 74 56 40 67
REMARK Flexibility Score: inf
ROOT
ATOM      1  C   UNL     1       5.071  -2.688  -1.081  1.00  0.00     0.002 C 
ENDROOT
BRANCH   1   2
ATOM      2  C   UNL     1       4.368  -1.409  -0.606  1.00  0.00     0.021 C 
BRANCH   2   3
ATOM      3  C   UNL     1       3.665  -0.634  -1.718  1.00  0.00     0.116 C 
BRANCH   3   4
ATOM      4  N   UNL     1       2.655  -1.440  -2.362  1.00  0.00    -0.356 N 
ATOM      5  C   UNL     1       1.321  -1.236  -2.494  1.00  0.00     0.227 C 
ATOM      6  O   UNL     1       0.793  -1.817  -3.448  1.00  0.00    -0.274 OA
ATOM      7  H   UNL     1       2.988  -2.271  -2.771  1.00  0.00     0.163 HD
BRANCH   5   8
ATOM      8  C   UNL     1       0.563  -0.227  -1.623  1.00  0.00     0.106 C 
ATOM      9  C   UNL     1       0.906  -0.051  -0.135  1.00  0.00     0.023 C 
BRANCH   8  10
ATOM     10  C   UNL     1      -0.960  -0.377  -1.702  1.00  0.00    -0.028 A 
ATOM     11  C   UNL     1      -1.672   0.799  -2.005  1.00  0.00     0.005 A 
ATOM     12  C   UNL     1      -1.677  -1.572  -1.412  1.00  0.00    -0.014 A 
ATOM     13  C   UNL     1      -3.057   0.834  -1.949  1.00  0.00     0.004 A 
ATOM     14  C   UNL     1      -3.080  -1.480  -1.289  1.00  0.00     0.012 A 
ATOM     15  C   UNL     1      -3.770  -0.275  -1.502  1.00  0.00    -0.047 A 
BRANCH  12  16
ATOM     16  C   UNL     1      -1.055  -2.918  -1.350  1.00  0.00    -0.018 A 
ATOM     17  C   UNL     1      -1.278  -3.817  -2.413  1.00  0.00     0.012 A 
ATOM     18  C   UNL     1      -0.200  -3.340  -0.321  1.00  0.00     0.012 A 
ATOM     19  C   UNL     1      -0.614  -5.045  -2.485  1.00  0.00     0.047 A 
ATOM     20  C   UNL     1       0.490  -4.558  -0.401  1.00  0.00     0.047 A 
ATOM     21  C   UNL     1       0.289  -5.392  -1.493  1.00  0.00     0.115 A 
BRANCH  21  22
ATOM     22  O   UNL     1       0.971  -6.564  -1.631  1.00  0.00    -0.508 OA
ATOM     23  H   UNL     1       0.818  -7.110  -2.377  1.00  0.00     0.293 HD
ENDBRANCH  21  22
ENDBRANCH  12  16
BRANCH  15  24
ATOM     24  C   UNL     1      -5.248  -0.156  -1.233  1.00  0.00     0.041 C 
BRANCH  24  25
ATOM     25  C   UNL     1      -5.661   0.408   0.140  1.00  0.00     0.022 C 
ATOM     26  C   UNL     1      -5.090  -0.328   1.365  1.00  0.00     0.007 C 
ATOM     27  C   UNL     1      -5.422   1.899   0.438  1.00  0.00     0.117 C 
ATOM     28  C   UNL     1      -4.991   0.717   2.481  1.00  0.00     0.003 C 
ATOM     29  C   UNL     1      -5.663   1.976   1.941  1.00  0.00     0.032 C 
BRANCH  27  30
ATOM     30  O   UNL     1      -4.111   2.369   0.182  1.00  0.00    -0.393 OA
ATOM     31  H   UNL     1      -3.477   1.868   0.719  1.00  0.00     0.210 HD
ENDBRANCH  27  30
ENDBRANCH  24  25
ENDBRANCH  15  24
ENDBRANCH   8  10
ENDBRANCH   5   8
ENDBRANCH   3   4
ENDBRANCH   2   3
ENDBRANCH   1   2
BRANCH   1  32
ATOM     32  C   UNL     1       6.002  -2.510  -2.285  1.00  0.00     0.002 C 
BRANCH  32  33
ATOM     33  C   UNL     1       7.051  -1.409  -2.131  1.00  0.00     0.021 C 
BRANCH  33  34
ATOM     34  C   UNL     1       7.976  -1.589  -0.938  1.00  0.00     0.116 C 
BRANCH  34  35
ATOM     35  N   UNL     1       8.800  -2.778  -1.069  1.00  0.00    -0.352 N 
ATOM     36  C   UNL     1      10.164  -2.892  -0.963  1.00  0.00     0.251 C 
ATOM     37  H   UNL     1       8.316  -3.614  -1.258  1.00  0.00     0.163 HD
ATOM     38  O   UNL     1      10.723  -3.925  -1.311  1.00  0.00    -0.269 OA
BRANCH  36  39
ATOM     39  C   UNL     1      10.949  -1.752  -0.442  1.00  0.00     0.039 A 
ATOM     40  C   UNL     1      12.137  -1.396  -1.082  1.00  0.00     0.014 A 
ATOM     41  C   UNL     1      10.511  -1.040   0.679  1.00  0.00     0.014 A 
ATOM     42  C   UNL     1      12.871  -0.303  -0.617  1.00  0.00     0.010 A 
ATOM     43  C   UNL     1      11.196   0.099   1.087  1.00  0.00     0.010 A 
ATOM     44  C   UNL     1      12.397   0.465   0.460  1.00  0.00    -0.014 A 
BRANCH  44  45
ATOM     45  C   UNL     1      13.166   1.624   0.979  1.00  0.00     0.031 A 
ATOM     46  C   UNL     1      13.705   1.594   2.385  1.00  0.00     0.074 A 
ATOM     47  C   UNL     1      13.335   2.717   0.210  1.00  0.00     0.049 A 
ATOM     48  N   UNL     1      14.361   2.517   3.039  1.00  0.00    -0.248 NA
ATOM     49  C   UNL     1      13.444   0.376   3.169  1.00  0.00     0.031 C 
ATOM     50  C   UNL     1      12.824   2.881  -1.152  1.00  0.00     0.029 A 
ATOM     51  N   UNL     1      13.982   3.899   0.467  1.00  0.00    -0.354 N 
ATOM     52  C   UNL     1      14.569   2.002   4.314  1.00  0.00     0.074 A 
ATOM     53  C   UNL     1      13.917   0.712   4.359  1.00  0.00     0.031 C 
ATOM     54  C   UNL     1      13.208   4.079  -1.624  1.00  0.00     0.029 A 
ATOM     55  C   UNL     1      13.957   4.782  -0.587  1.00  0.00     0.049 A 
ATOM     56  H   UNL     1      14.422   4.097   1.325  1.00  0.00     0.167 HD
ATOM     57  C   UNL     1      15.262   2.542   5.345  1.00  0.00     0.037 A 
ATOM     58  C   UNL     1      14.482   6.018  -0.703  1.00  0.00     0.037 A 
ATOM     59  C   UNL     1      15.931   3.815   5.280  1.00  0.00     0.049 A 
ATOM     60  C   UNL     1      15.249   6.599   0.454  1.00  0.00     0.074 A 
ATOM     61  C   UNL     1      16.714   4.426   6.243  1.00  0.00     0.029 A 
ATOM     62  N   UNL     1      15.893   4.675   4.191  1.00  0.00    -0.354 N 
ATOM     63  N   UNL     1      15.493   6.072   1.631  1.00  0.00    -0.248 NA
ATOM     64  C   UNL     1      15.821   7.938   0.264  1.00  0.00     0.031 C 
ATOM     65  C   UNL     1      17.103   5.679   5.758  1.00  0.00     0.029 A 
ATOM     66  C   UNL     1      16.617   5.822   4.467  1.00  0.00     0.049 A 
ATOM     67  H   UNL     1      15.420   4.495   3.346  1.00  0.00     0.167 HD
ATOM     68  C   UNL     1      16.282   6.997   2.306  1.00  0.00     0.074 A 
ATOM     69  C   UNL     1      16.474   8.116   1.405  1.00  0.00     0.031 C 
ATOM     70  C   UNL     1      16.808   6.924   3.555  1.00  0.00     0.037 A 
BRANCH  57  71
ATOM     71  C   UNL     1      15.314   1.761   6.632  1.00  0.00     0.058 A 
ATOM     72  C   UNL     1      15.999   0.538   6.734  1.00  0.00     0.135 A 
ATOM     73  C   UNL     1      14.669   2.243   7.782  1.00  0.00     0.135 A 
ATOM     74  F   UNL     1      16.623   0.021   5.663  1.00  0.00    -0.206 F 
ATOM     75  C   UNL     1      15.998  -0.203   7.912  1.00  0.00     0.059 A 
ATOM     76  C   UNL     1      14.685   1.536   8.982  1.00  0.00     0.059 A 
ATOM     77  F   UNL     1      14.002   3.407   7.747  1.00  0.00    -0.206 F 
ATOM     78  C   UNL     1      15.332   0.303   9.029  1.00  0.00     0.060 A 
BRANCH  78  79
ATOM     79  S   UNL     1      15.316  -0.682  10.542  1.00  0.00     0.124 S 
ATOM     80  O   UNL     1      14.389  -1.751  10.182  1.00  0.00    -0.237 OA
ATOM     81  O   UNL     1      16.715  -1.075  10.675  1.00  0.00    -0.237 OA
ATOM     82  O   UNL     1      14.831   0.254  11.552  1.00  0.00    -0.744 OA
ENDBRANCH  78  79
ENDBRANCH  57  71
BRANCH  58  83
ATOM     83  C   UNL     1      14.343   6.763  -1.983  1.00  0.00     0.058 A 
ATOM     84  C   UNL     1      15.452   6.965  -2.818  1.00  0.00     0.135 A 
ATOM     85  C   UNL     1      13.102   7.260  -2.412  1.00  0.00     0.135 A 
ATOM     86  F   UNL     1      16.660   6.514  -2.449  1.00  0.00    -0.206 F 
ATOM     87  C   UNL     1      15.340   7.641  -4.028  1.00  0.00     0.059 A 
ATOM     88  C   UNL     1      12.960   7.917  -3.630  1.00  0.00     0.059 A 
ATOM     89  F   UNL     1      12.008   7.078  -1.657  1.00  0.00    -0.206 F 
ATOM     90  C   UNL     1      14.087   8.108  -4.429  1.00  0.00     0.060 A 
BRANCH  90  91
ATOM     91  S   UNL     1      13.943   8.928  -6.032  1.00  0.00     0.124 S 
ATOM     92  O   UNL     1      14.622  10.194  -5.777  1.00  0.00    -0.237 OA
ATOM     93  O   UNL     1      14.638   7.996  -6.914  1.00  0.00    -0.237 OA
ATOM     94  O   UNL     1      12.500   9.015  -6.236  1.00  0.00    -0.744 OA
ENDBRANCH  90  91
ENDBRANCH  58  83
BRANCH  70  95
ATOM     95  C   UNL     1      17.691   8.057   4.005  1.00  0.00     0.058 A 
ATOM     96  C   UNL     1      17.178   9.327   4.308  1.00  0.00     0.135 A 
ATOM     97  C   UNL     1      19.069   7.848   4.180  1.00  0.00     0.135 A 
ATOM     98  F   UNL     1      15.869   9.583   4.154  1.00  0.00    -0.206 F 
ATOM     99  C   UNL     1      18.004  10.360   4.739  1.00  0.00     0.059 A 
ATOM    100  C   UNL     1      19.909   8.856   4.641  1.00  0.00     0.059 A 
ATOM    101  F   UNL     1      19.611   6.648   3.917  1.00  0.00    -0.206 F 
ATOM    102  C   UNL     1      19.369  10.114   4.904  1.00  0.00     0.060 A 
BRANCH 102 103
ATOM    103  S   UNL     1      20.427  11.455   5.489  1.00  0.00     0.124 S 
ATOM    104  O   UNL     1      20.501  12.307   4.308  1.00  0.00    -0.237 OA
ATOM    105  O   UNL     1      19.661  11.990   6.611  1.00  0.00    -0.237 OA
ATOM    106  O   UNL     1      21.667  10.776   5.853  1.00  0.00    -0.744 OA
ENDBRANCH 102 103
ENDBRANCH  70  95
ENDBRANCH  44  45
ENDBRANCH  36  39
ENDBRANCH  34  35
ENDBRANCH  33  34
ENDBRANCH  32  33
ENDBRANCH   1  32
TORSDOF 22
