REMARK SMILES C[C@H](C(=O)N[C@H](C)C(=O)NCCCCCCNC(=O)c1ccc(-c2c3nc(c(-c4c(F)cc(S(=O)(=O)[O-])cc4F)c4ccc([nH]4)c(-c4c(F)cc(S(=O)(=O)[O-])cc4F)c4nc(c(-c5c(F)cc(S(=O)(=O)[O-])cc5F)c5ccc2[nH]5)C=C4)C=C3)cc1)n1cnc2ccccc21
REMARK SMILES IDX 13 1 12 2 11 3 10 4 8 5 9 6 6 8 7 9 5 10 3 11 4 12 2 14 1 15
REMARK SMILES IDX 86 16 87 17 94 18 88 19 89 20 93 21 90 22 92 23 91 24 14 25
REMARK SMILES IDX 15 26 16 27 17 28 18 29 19 31 20 32 21 33 85 34 22 35 84 36
REMARK SMILES IDX 23 37 24 38 25 39 78 40 26 41 83 42 77 43 79 44 27 45 82 46
REMARK SMILES IDX 76 47 75 48 28 50 62 51 41 52 61 53 42 54 45 55 60 56 80 57
REMARK SMILES IDX 43 58 44 59 59 61 81 62 46 63 29 64 30 65 39 66 31 67 32 68
REMARK SMILES IDX 38 69 40 70 33 71 34 72 35 73 36 74 37 75 63 76 64 77 73 78
REMARK SMILES IDX 65 79 66 80 72 81 74 82 67 83 68 84 69 85 70 86 71 87 47 88
REMARK SMILES IDX 48 89 57 90 49 91 50 92 56 93 58 94 51 95 52 96 53 97 54 98
REMARK SMILES IDX 55 99
REMARK H PARENT 10 7 5 13 17 30 79 49 45 60
REMARK Flexibility Score: inf
ROOT
ATOM      1  C   UNL     1       0.075   0.014   6.356  1.00  0.00     0.002 C 
ENDROOT
BRANCH   1   2
ATOM      2  C   UNL     1       0.503  -0.632   5.038  1.00  0.00     0.021 C 
BRANCH   2   3
ATOM      3  C   UNL     1      -0.651  -1.014   4.123  1.00  0.00     0.116 C 
BRANCH   3   4
ATOM      4  N   UNL     1      -1.400   0.152   3.696  1.00  0.00    -0.354 N 
ATOM      5  C   UNL     1      -1.490   0.736   2.468  1.00  0.00     0.242 C 
ATOM      6  O   UNL     1      -1.941   1.881   2.399  1.00  0.00    -0.273 OA
ATOM      7  H   UNL     1      -1.925   0.591   4.404  1.00  0.00     0.163 HD
BRANCH   5   8
ATOM      8  C   UNL     1      -0.911   0.035   1.230  1.00  0.00     0.168 C 
ATOM      9  C   UNL     1       0.616   0.140   1.225  1.00  0.00     0.041 C 
BRANCH   8  10
ATOM     10  N   UNL     1      -1.354  -1.359   1.168  1.00  0.00    -0.343 N 
ATOM     11  C   UNL     1      -1.257  -2.246   0.141  1.00  0.00     0.243 C 
ATOM     12  O   UNL     1      -1.329  -3.445   0.409  1.00  0.00    -0.273 OA
ATOM     13  H   UNL     1      -1.782  -1.702   1.984  1.00  0.00     0.164 HD
BRANCH  11  14
ATOM     14  C   UNL     1      -1.120  -1.714  -1.276  1.00  0.00     0.174 C 
ATOM     15  C   UNL     1      -0.758  -2.815  -2.273  1.00  0.00     0.042 C 
BRANCH  14  16
ATOM     16  N   UNL     1      -2.355  -1.051  -1.688  1.00  0.00    -0.318 N 
ATOM     17  C   UNL     1      -2.427   0.181  -2.278  1.00  0.00     0.201 A 
ATOM     18  C   UNL     1      -3.618  -1.599  -1.695  1.00  0.00     0.069 A 
ATOM     19  N   UNL     1      -3.622   0.413  -2.770  1.00  0.00    -0.237 NA
ATOM     20  C   UNL     1      -4.365  -0.699  -2.450  1.00  0.00     0.088 A 
ATOM     21  C   UNL     1      -4.160  -2.785  -1.182  1.00  0.00     0.028 A 
ATOM     22  C   UNL     1      -5.687  -1.024  -2.788  1.00  0.00     0.030 A 
ATOM     23  C   UNL     1      -5.481  -3.087  -1.520  1.00  0.00     0.002 A 
ATOM     24  C   UNL     1      -6.227  -2.233  -2.330  1.00  0.00     0.002 A 
ENDBRANCH  14  16
ENDBRANCH  11  14
ENDBRANCH   8  10
ENDBRANCH   5   8
ENDBRANCH   3   4
ENDBRANCH   2   3
ENDBRANCH   1   2
BRANCH   1  25
ATOM     25  C   UNL     1      -0.991  -0.753   7.143  1.00  0.00     0.002 C 
BRANCH  25  26
ATOM     26  C   UNL     1      -0.694  -2.236   7.374  1.00  0.00     0.021 C 
BRANCH  26  27
ATOM     27  C   UNL     1       0.655  -2.520   8.017  1.00  0.00     0.116 C 
BRANCH  27  28
ATOM     28  N   UNL     1       0.756  -1.941   9.344  1.00  0.00    -0.352 N 
ATOM     29  C   UNL     1       1.125  -2.557  10.515  1.00  0.00     0.251 C 
ATOM     30  H   UNL     1       0.532  -0.985   9.414  1.00  0.00     0.163 HD
ATOM     31  O   UNL     1       0.971  -1.989  11.589  1.00  0.00    -0.269 OA
BRANCH  29  32
ATOM     32  C   UNL     1       1.688  -3.922  10.458  1.00  0.00     0.039 A 
ATOM     33  C   UNL     1       1.191  -4.899  11.321  1.00  0.00     0.014 A 
ATOM     34  C   UNL     1       2.689  -4.234   9.533  1.00  0.00     0.014 A 
ATOM     35  C   UNL     1       1.666  -6.209  11.223  1.00  0.00     0.010 A 
ATOM     36  C   UNL     1       3.104  -5.552   9.386  1.00  0.00     0.010 A 
ATOM     37  C   UNL     1       2.606  -6.551  10.237  1.00  0.00    -0.014 A 
BRANCH  37  38
ATOM     38  C   UNL     1       3.114  -7.938  10.093  1.00  0.00     0.031 A 
ATOM     39  C   UNL     1       4.577  -8.217  10.317  1.00  0.00     0.074 A 
ATOM     40  C   UNL     1       2.286  -8.923   9.694  1.00  0.00     0.049 A 
ATOM     41  N   UNL     1       5.247  -9.322  10.120  1.00  0.00    -0.248 NA
ATOM     42  C   UNL     1       5.399  -7.094  10.799  1.00  0.00     0.031 C 
ATOM     43  C   UNL     1       0.856  -8.769   9.418  1.00  0.00     0.029 A 
ATOM     44  N   UNL     1       2.531 -10.249   9.436  1.00  0.00    -0.354 N 
ATOM     45  C   UNL     1       6.568  -9.024  10.436  1.00  0.00     0.074 A 
ATOM     46  C   UNL     1       6.614  -7.621  10.785  1.00  0.00     0.031 C 
ATOM     47  C   UNL     1       0.349  -9.955   9.042  1.00  0.00     0.029 A 
ATOM     48  C   UNL     1       1.423 -10.943   9.007  1.00  0.00     0.049 A 
ATOM     49  H   UNL     1       3.416 -10.664   9.547  1.00  0.00     0.167 HD
ATOM     50  C   UNL     1       7.639  -9.851  10.458  1.00  0.00     0.037 A 
ATOM     51  C   UNL     1       1.294 -12.225   8.613  1.00  0.00     0.037 A 
ATOM     52  C   UNL     1       7.577 -11.252  10.138  1.00  0.00     0.049 A 
ATOM     53  C   UNL     1       2.505 -13.121   8.630  1.00  0.00     0.074 A 
ATOM     54  C   UNL     1       8.598 -12.186  10.167  1.00  0.00     0.029 A 
ATOM     55  N   UNL     1       6.432 -11.923   9.736  1.00  0.00    -0.354 N 
ATOM     56  N   UNL     1       3.739 -12.832   8.971  1.00  0.00    -0.248 NA
ATOM     57  C   UNL     1       2.308 -14.517   8.215  1.00  0.00     0.031 C 
ATOM     58  C   UNL     1       8.079 -13.413   9.742  1.00  0.00     0.029 A 
ATOM     59  C   UNL     1       6.723 -13.256   9.502  1.00  0.00     0.049 A 
ATOM     60  H   UNL     1       5.543 -11.512   9.632  1.00  0.00     0.167 HD
ATOM     61  C   UNL     1       4.454 -14.020   8.852  1.00  0.00     0.074 A 
ATOM     62  C   UNL     1       3.515 -15.030   8.410  1.00  0.00     0.031 C 
ATOM     63  C   UNL     1       5.768 -14.254   9.091  1.00  0.00     0.037 A 
BRANCH  50  64
ATOM     64  C   UNL     1       8.969  -9.266  10.850  1.00  0.00     0.058 A 
ATOM     65  C   UNL     1       9.234  -8.858  12.167  1.00  0.00     0.135 A 
ATOM     66  C   UNL     1      10.007  -9.158   9.910  1.00  0.00     0.135 A 
ATOM     67  F   UNL     1       8.273  -8.922  13.102  1.00  0.00    -0.206 F 
ATOM     68  C   UNL     1      10.473  -8.343  12.534  1.00  0.00     0.059 A 
ATOM     69  C   UNL     1      11.264  -8.674  10.262  1.00  0.00     0.059 A 
ATOM     70  F   UNL     1       9.807  -9.530   8.636  1.00  0.00    -0.206 F 
ATOM     71  C   UNL     1      11.483  -8.259  11.575  1.00  0.00     0.060 A 
BRANCH  71  72
ATOM     72  S   UNL     1      13.091  -7.608  12.074  1.00  0.00     0.124 S 
ATOM     73  O   UNL     1      12.789  -6.191  12.251  1.00  0.00    -0.237 OA
ATOM     74  O   UNL     1      13.363  -8.356  13.297  1.00  0.00    -0.237 OA
ATOM     75  O   UNL     1      13.954  -7.927  10.941  1.00  0.00    -0.744 OA
ENDBRANCH  71  72
ENDBRANCH  50  64
BRANCH  51  76
ATOM     76  C   UNL     1      -0.031 -12.748   8.181  1.00  0.00     0.058 A 
ATOM     77  C   UNL     1      -0.717 -13.699   8.951  1.00  0.00     0.135 A 
ATOM     78  C   UNL     1      -0.632 -12.320   6.987  1.00  0.00     0.135 A 
ATOM     79  F   UNL     1      -0.183 -14.144  10.099  1.00  0.00    -0.206 F 
ATOM     80  C   UNL     1      -1.936 -14.231   8.540  1.00  0.00     0.059 A 
ATOM     81  C   UNL     1      -1.864 -12.815   6.569  1.00  0.00     0.059 A 
ATOM     82  F   UNL     1      -0.028 -11.397   6.223  1.00  0.00    -0.206 F 
ATOM     83  C   UNL     1      -2.500 -13.782   7.345  1.00  0.00     0.060 A 
BRANCH  83  84
ATOM     84  S   UNL     1      -4.092 -14.463   6.831  1.00  0.00     0.124 S 
ATOM     85  O   UNL     1      -3.714 -15.809   6.415  1.00  0.00    -0.237 OA
ATOM     86  O   UNL     1      -4.876 -14.369   8.058  1.00  0.00    -0.237 OA
ATOM     87  O   UNL     1      -4.509 -13.565   5.758  1.00  0.00    -0.744 OA
ENDBRANCH  83  84
ENDBRANCH  51  76
BRANCH  63  88
ATOM     88  C   UNL     1       6.263 -15.667   8.948  1.00  0.00     0.058 A 
ATOM     89  C   UNL     1       6.430 -16.273   7.694  1.00  0.00     0.135 A 
ATOM     90  C   UNL     1       6.647 -16.396  10.086  1.00  0.00     0.135 A 
ATOM     91  F   UNL     1       6.074 -15.622   6.575  1.00  0.00    -0.206 F 
ATOM     92  C   UNL     1       6.945 -17.560   7.574  1.00  0.00     0.059 A 
ATOM     93  C   UNL     1       7.191 -17.672   9.988  1.00  0.00     0.059 A 
ATOM     94  F   UNL     1       6.517 -15.858  11.309  1.00  0.00    -0.206 F 
ATOM     95  C   UNL     1       7.328 -18.249   8.726  1.00  0.00     0.060 A 
BRANCH  95  96
ATOM     96  S   UNL     1       8.044 -19.897   8.551  1.00  0.00     0.124 S 
ATOM     97  O   UNL     1       6.872 -20.691   8.199  1.00  0.00    -0.237 OA
ATOM     98  O   UNL     1       9.021 -19.701   7.485  1.00  0.00    -0.237 OA
ATOM     99  O   UNL     1       8.610 -20.164   9.870  1.00  0.00    -0.744 OA
ENDBRANCH  95  96
ENDBRANCH  63  88
ENDBRANCH  37  38
ENDBRANCH  29  32
ENDBRANCH  27  28
ENDBRANCH  26  27
ENDBRANCH  25  26
ENDBRANCH   1  25
TORSDOF 19
