REMARK SMILES O=C(NCCCCCCNC(=O)c1cc2ccccc2cc1OCCO)c1ccc(-c2c3nc(c(-c4c(F)cc(S(=O)(=O)[O-])cc4F)c4ccc([nH]4)c(-c4c(F)cc(S(=O)(=O)[O-])cc4F)c4nc(c(-c5c(F)cc(S(=O)(=O)[O-])cc5F)c5ccc2[nH]5)C=C4)C=C3)cc1
REMARK SMILES IDX 7 1 6 2 5 3 4 4 3 5 1 6 2 7 27 9 28 10 92 11 29 12 91 13
REMARK SMILES IDX 30 14 31 15 32 16 85 17 33 18 90 19 84 20 86 21 34 22 89 23
REMARK SMILES IDX 83 24 82 25 35 27 69 28 48 29 68 30 49 31 52 32 67 33 87 34
REMARK SMILES IDX 50 35 51 36 66 38 88 39 53 40 36 41 37 42 46 43 38 44 39 45
REMARK SMILES IDX 45 46 47 47 40 48 41 49 42 50 43 51 44 52 70 53 71 54 80 55
REMARK SMILES IDX 72 56 73 57 79 58 81 59 74 60 75 61 76 62 77 63 78 64 54 65
REMARK SMILES IDX 55 66 64 67 56 68 57 69 63 70 65 71 58 72 59 73 60 74 61 75
REMARK SMILES IDX 62 76 8 77 9 78 10 79 11 80 12 82 13 83 14 84 22 85 15 86
REMARK SMILES IDX 21 87 16 88 20 89 17 90 19 91 18 92 23 93 24 94 25 95 26 96
REMARK H PARENT 3 8 86 26 52 37 10 81 26 97
REMARK Flexibility Score: inf
ROOT
ATOM      1  C   UNL     1       4.611  -3.372  -2.759  1.00  0.00     0.002 C 
ENDROOT
BRANCH   1   2
ATOM      2  C   UNL     1       4.269  -3.623  -1.290  1.00  0.00     0.002 C 
BRANCH   2   3
ATOM      3  C   UNL     1       4.817  -2.626  -0.273  1.00  0.00     0.021 C 
BRANCH   3   4
ATOM      4  C   UNL     1       4.457  -1.164  -0.514  1.00  0.00     0.116 C 
BRANCH   4   5
ATOM      5  N   UNL     1       3.025  -0.904  -0.549  1.00  0.00    -0.352 N 
ATOM      6  O   UNL     1       1.081   0.137  -0.086  1.00  0.00    -0.269 OA
ATOM      7  C   UNL     1       2.307   0.131   0.005  1.00  0.00     0.251 C 
ATOM      8  H   UNL     1       2.491  -1.568  -1.042  1.00  0.00     0.163 HD
BRANCH   7   9
ATOM      9  C   UNL     1       2.998   1.212   0.749  1.00  0.00     0.039 A 
ATOM     10  C   UNL     1       4.184   1.774   0.275  1.00  0.00     0.014 A 
ATOM     11  C   UNL     1       2.451   1.661   1.955  1.00  0.00     0.014 A 
ATOM     12  C   UNL     1       4.908   2.647   1.083  1.00  0.00     0.010 A 
ATOM     13  C   UNL     1       3.137   2.607   2.726  1.00  0.00     0.010 A 
ATOM     14  C   UNL     1       4.398   3.070   2.321  1.00  0.00    -0.014 A 
BRANCH  14  15
ATOM     15  C   UNL     1       5.199   4.000   3.162  1.00  0.00     0.031 A 
ATOM     16  C   UNL     1       5.727   3.572   4.507  1.00  0.00     0.074 A 
ATOM     17  C   UNL     1       5.494   5.226   2.683  1.00  0.00     0.049 A 
ATOM     18  N   UNL     1       6.484   4.237   5.345  1.00  0.00    -0.248 NA
ATOM     19  C   UNL     1       5.351   2.231   4.980  1.00  0.00     0.031 C 
ATOM     20  C   UNL     1       5.030   5.762   1.401  1.00  0.00     0.029 A 
ATOM     21  N   UNL     1       6.269   6.231   3.201  1.00  0.00    -0.354 N 
ATOM     22  C   UNL     1       6.652   3.410   6.450  1.00  0.00     0.074 A 
ATOM     23  C   UNL     1       5.900   2.202   6.187  1.00  0.00     0.031 C 
ATOM     24  C   UNL     1       5.575   6.972   1.208  1.00  0.00     0.029 A 
ATOM     25  C   UNL     1       6.381   7.322   2.372  1.00  0.00     0.049 A 
ATOM     26  H   UNL     1       6.704   6.177   4.083  1.00  0.00     0.167 HD
ATOM     27  C   UNL     1       7.372   3.634   7.577  1.00  0.00     0.037 A 
ATOM     28  C   UNL     1       7.054   8.478   2.529  1.00  0.00     0.037 A 
ATOM     29  C   UNL     1       8.146   4.826   7.821  1.00  0.00     0.049 A 
ATOM     30  C   UNL     1       7.855   8.695   3.781  1.00  0.00     0.074 A 
ATOM     31  C   UNL     1       8.943   5.127   8.913  1.00  0.00     0.029 A 
ATOM     32  N   UNL     1       8.221   5.913   6.963  1.00  0.00    -0.354 N 
ATOM     33  N   UNL     1       8.026   7.888   4.800  1.00  0.00    -0.248 NA
ATOM     34  C   UNL     1       8.556   9.980   3.903  1.00  0.00     0.031 C 
ATOM     35  C   UNL     1       9.470   6.411   8.731  1.00  0.00     0.029 A 
ATOM     36  C   UNL     1       9.038   6.892   7.506  1.00  0.00     0.049 A 
ATOM     37  H   UNL     1       7.761   5.979   6.095  1.00  0.00     0.167 HD
ATOM     38  C   UNL     1       8.874   8.556   5.674  1.00  0.00     0.074 A 
ATOM     39  C   UNL     1       9.190   9.829   5.058  1.00  0.00     0.031 C 
ATOM     40  C   UNL     1       9.350   8.151   6.878  1.00  0.00     0.037 A 
BRANCH  27  41
ATOM     41  C   UNL     1       7.344   2.575   8.647  1.00  0.00     0.058 A 
ATOM     42  C   UNL     1       8.013   1.350   8.499  1.00  0.00     0.135 A 
ATOM     43  C   UNL     1       6.666   2.806   9.856  1.00  0.00     0.135 A 
ATOM     44  F   UNL     1       8.668   1.071   7.360  1.00  0.00    -0.206 F 
ATOM     45  C   UNL     1       7.986   0.380   9.497  1.00  0.00     0.059 A 
ATOM     46  C   UNL     1       6.646   1.860  10.877  1.00  0.00     0.059 A 
ATOM     47  F   UNL     1       6.013   3.962  10.054  1.00  0.00    -0.206 F 
ATOM     48  C   UNL     1       7.296   0.643  10.681  1.00  0.00     0.060 A 
BRANCH  48  49
ATOM     49  S   UNL     1       7.264  -0.626  11.966  1.00  0.00     0.124 S 
ATOM     50  O   UNL     1       6.312  -1.581  11.407  1.00  0.00    -0.237 OA
ATOM     51  O   UNL     1       8.654  -1.069  12.006  1.00  0.00    -0.237 OA
ATOM     52  O   UNL     1       6.806   0.098  13.148  1.00  0.00    -0.744 OA
ENDBRANCH  48  49
ENDBRANCH  27  41
BRANCH  28  53
ATOM     53  C   UNL     1       7.013   9.506   1.457  1.00  0.00     0.058 A 
ATOM     54  C   UNL     1       8.140   9.767   0.665  1.00  0.00     0.135 A 
ATOM     55  C   UNL     1       5.838  10.223   1.183  1.00  0.00     0.135 A 
ATOM     56  F   UNL     1       9.287   9.108   0.892  1.00  0.00    -0.206 F 
ATOM     57  C   UNL     1       8.110  10.712  -0.354  1.00  0.00     0.059 A 
ATOM     58  C   UNL     1       5.776  11.155   0.152  1.00  0.00     0.059 A 
ATOM     59  F   UNL     1       4.728   9.996   1.901  1.00  0.00    -0.206 F 
ATOM     60  C   UNL     1       6.921  11.399  -0.606  1.00  0.00     0.060 A 
BRANCH  60  61
ATOM     61  S   UNL     1       6.873  12.581  -1.970  1.00  0.00     0.124 S 
ATOM     62  O   UNL     1       7.595  13.713  -1.401  1.00  0.00    -0.237 OA
ATOM     63  O   UNL     1       7.559  11.854  -3.033  1.00  0.00    -0.237 OA
ATOM     64  O   UNL     1       5.443  12.786  -2.184  1.00  0.00    -0.744 OA
ENDBRANCH  60  61
ENDBRANCH  28  53
BRANCH  40  65
ATOM     65  C   UNL     1      10.299   9.077   7.586  1.00  0.00     0.058 A 
ATOM     66  C   UNL     1       9.859  10.260   8.199  1.00  0.00     0.135 A 
ATOM     67  C   UNL     1      11.665   8.762   7.668  1.00  0.00     0.135 A 
ATOM     68  F   UNL     1       8.564  10.609   8.143  1.00  0.00    -0.206 F 
ATOM     69  C   UNL     1      10.746  11.116   8.844  1.00  0.00     0.059 A 
ATOM     70  C   UNL     1      12.566   9.591   8.329  1.00  0.00     0.059 A 
ATOM     71  F   UNL     1      12.136   7.637   7.106  1.00  0.00    -0.206 F 
ATOM     72  C   UNL     1      12.099  10.775   8.899  1.00  0.00     0.060 A 
BRANCH  72  73
ATOM     73  S   UNL     1      13.242  11.886   9.747  1.00  0.00     0.124 S 
ATOM     74  O   UNL     1      13.409  12.945   8.758  1.00  0.00    -0.237 OA
ATOM     75  O   UNL     1      12.496  12.251  10.947  1.00  0.00    -0.237 OA
ATOM     76  O   UNL     1      14.417  11.051   9.978  1.00  0.00    -0.744 OA
ENDBRANCH  72  73
ENDBRANCH  40  65
ENDBRANCH  14  15
ENDBRANCH   7   9
ENDBRANCH   4   5
ENDBRANCH   3   4
ENDBRANCH   2   3
ENDBRANCH   1   2
BRANCH   1  77
ATOM     77  C   UNL     1       6.085  -3.160  -3.140  1.00  0.00     0.021 C 
BRANCH  77  78
ATOM     78  C   UNL     1       7.106  -4.218  -2.713  1.00  0.00     0.116 C 
BRANCH  78  79
ATOM     79  N   UNL     1       6.711  -5.579  -3.027  1.00  0.00    -0.352 N 
ATOM     80  C   UNL     1       7.456  -6.725  -2.898  1.00  0.00     0.255 C 
ATOM     81  H   UNL     1       5.798  -5.694  -3.375  1.00  0.00     0.163 HD
ATOM     82  O   UNL     1       6.941  -7.825  -3.078  1.00  0.00    -0.269 OA
BRANCH  80  83
ATOM     83  C   UNL     1       8.902  -6.642  -2.634  1.00  0.00     0.082 A 
ATOM     84  C   UNL     1       9.706  -6.626  -3.792  1.00  0.00     0.026 A 
ATOM     85  C   UNL     1       9.498  -6.618  -1.373  1.00  0.00     0.132 A 
ATOM     86  C   UNL     1      11.107  -6.546  -3.710  1.00  0.00    -0.017 A 
ATOM     87  C   UNL     1      10.898  -6.516  -1.297  1.00  0.00     0.056 A 
ATOM     88  C   UNL     1      11.924  -6.526  -4.853  1.00  0.00     0.009 A 
ATOM     89  C   UNL     1      11.710  -6.479  -2.439  1.00  0.00    -0.015 A 
ATOM     90  C   UNL     1      13.313  -6.431  -4.737  1.00  0.00     0.001 A 
ATOM     91  C   UNL     1      13.107  -6.379  -2.336  1.00  0.00     0.009 A 
ATOM     92  C   UNL     1      13.904  -6.353  -3.479  1.00  0.00     0.001 A 
BRANCH  85  93
ATOM     93  O   UNL     1       8.947  -6.603  -0.131  1.00  0.00    -0.490 OA
BRANCH  93  94
ATOM     94  C   UNL     1       7.696  -7.219   0.164  1.00  0.00     0.257 C 
BRANCH  94  95
ATOM     95  C   UNL     1       6.674  -6.126   0.448  1.00  0.00     0.197 C 
BRANCH  95  96
ATOM     96  O   UNL     1       7.274  -5.001   1.088  1.00  0.00    -0.393 OA
ATOM     97  H   UNL     1       7.653  -5.276   1.938  1.00  0.00     0.210 HD
ENDBRANCH  95  96
ENDBRANCH  94  95
ENDBRANCH  93  94
ENDBRANCH  85  93
ENDBRANCH  80  83
ENDBRANCH  78  79
ENDBRANCH  77  78
ENDBRANCH   1  77
TORSDOF 20
