REMARK SMILES O=C(NCCCCCCNC(=O)[C@@]1([NH2+]C2CC2)CCC[C@@H]([NH+]2CCS(=O)(=O)CC2)C1)c1ccc(-c2c3nc(c(-c4c(F)cc(S(=O)(=O)[O-])cc4F)c4ccc([nH]4)c(-c4c(F)cc(S(=O)(=O)[O-])cc4F)c4nc(c(-c5c(F)cc(S(=O)(=O)[O-])cc5F)c5ccc2[nH]5)C=C4)C=C3)cc1
REMARK SMILES IDX 6 1 5 2 4 3 3 4 1 5 2 6 31 8 32 9 96 10 33 11 95 12 34 13
REMARK SMILES IDX 35 14 36 15 89 16 37 17 94 18 88 19 90 20 38 21 93 22 87 23
REMARK SMILES IDX 86 24 39 26 73 27 52 28 72 29 53 30 56 31 71 32 91 33 54 34
REMARK SMILES IDX 55 35 70 37 92 38 57 39 40 40 41 41 50 42 42 43 43 44 49 45
REMARK SMILES IDX 51 46 44 47 45 48 46 49 47 50 48 51 74 52 75 53 84 54 76 55
REMARK SMILES IDX 77 56 83 57 85 58 78 59 79 60 80 61 81 62 82 63 58 64 59 65
REMARK SMILES IDX 68 66 60 67 61 68 67 69 69 70 62 71 63 72 64 73 65 74 66 75
REMARK SMILES IDX 7 76 8 77 9 78 10 79 11 80 12 82 13 83 18 84 30 85 19 86
REMARK SMILES IDX 21 87 20 88 14 89 15 92 16 93 17 94 22 95 23 96 29 97 24 99
REMARK SMILES IDX 28 100 25 101 26 102 27 103
REMARK H PARENT 3 7 90 25 56 36 10 81 14 90 14 91 22 98
REMARK Flexibility Score: inf
ROOT
ATOM      1  C   UNL     1       3.677   2.507  -2.724  1.00  0.00     0.002 C 
ENDROOT
BRANCH   1   2
ATOM      2  C   UNL     1       4.183   1.227  -2.069  1.00  0.00     0.021 C 
BRANCH   2   3
ATOM      3  C   UNL     1       4.044   1.191  -0.559  1.00  0.00     0.116 C 
BRANCH   3   4
ATOM      4  N   UNL     1       2.663   0.986  -0.152  1.00  0.00    -0.352 N 
ATOM      5  O   UNL     1       0.863  -0.232   0.450  1.00  0.00    -0.269 OA
ATOM      6  C   UNL     1       2.085  -0.132   0.403  1.00  0.00     0.251 C 
ATOM      7  H   UNL     1       2.060   1.752  -0.294  1.00  0.00     0.163 HD
BRANCH   6   8
ATOM      8  C   UNL     1       2.948  -1.213   0.932  1.00  0.00     0.039 A 
ATOM      9  C   UNL     1       4.108  -0.896   1.640  1.00  0.00     0.014 A 
ATOM     10  C   UNL     1       2.599  -2.551   0.731  1.00  0.00     0.014 A 
ATOM     11  C   UNL     1       5.001  -1.897   1.987  1.00  0.00     0.010 A 
ATOM     12  C   UNL     1       3.433  -3.567   1.214  1.00  0.00     0.010 A 
ATOM     13  C   UNL     1       4.650  -3.248   1.836  1.00  0.00    -0.014 A 
BRANCH  13  14
ATOM     14  C   UNL     1       5.523  -4.274   2.467  1.00  0.00     0.031 A 
ATOM     15  C   UNL     1       6.191  -5.357   1.667  1.00  0.00     0.074 A 
ATOM     16  C   UNL     1       5.741  -4.176   3.796  1.00  0.00     0.049 A 
ATOM     17  N   UNL     1       6.994  -6.303   2.085  1.00  0.00    -0.248 NA
ATOM     18  C   UNL     1       5.920  -5.398   0.222  1.00  0.00     0.031 C 
ATOM     19  C   UNL     1       5.120  -3.180   4.679  1.00  0.00     0.029 A 
ATOM     20  N   UNL     1       6.555  -4.889   4.636  1.00  0.00    -0.354 N 
ATOM     21  C   UNL     1       7.320  -7.056   0.962  1.00  0.00     0.074 A 
ATOM     22  C   UNL     1       6.598  -6.477  -0.152  1.00  0.00     0.031 C 
ATOM     23  C   UNL     1       5.627  -3.299   5.911  1.00  0.00     0.029 A 
ATOM     24  C   UNL     1       6.532  -4.439   5.936  1.00  0.00     0.049 A 
ATOM     25  H   UNL     1       7.104  -5.650   4.338  1.00  0.00     0.167 HD
ATOM     26  C   UNL     1       8.154  -8.121   0.874  1.00  0.00     0.037 A 
ATOM     27  C   UNL     1       7.142  -4.906   7.040  1.00  0.00     0.037 A 
ATOM     28  C   UNL     1       8.873  -8.680   1.994  1.00  0.00     0.049 A 
ATOM     29  C   UNL     1       8.034  -6.105   6.911  1.00  0.00     0.074 A 
ATOM     30  C   UNL     1       9.751  -9.751   2.004  1.00  0.00     0.029 A 
ATOM     31  N   UNL     1       8.801  -8.216   3.300  1.00  0.00    -0.354 N 
ATOM     32  N   UNL     1       8.344  -6.789   5.835  1.00  0.00    -0.248 NA
ATOM     33  C   UNL     1       8.658  -6.599   8.144  1.00  0.00     0.031 C 
ATOM     34  C   UNL     1      10.171  -9.964   3.321  1.00  0.00     0.029 A 
ATOM     35  C   UNL     1       9.603  -8.990   4.126  1.00  0.00     0.049 A 
ATOM     36  H   UNL     1       8.260  -7.449   3.598  1.00  0.00     0.167 HD
ATOM     37  C   UNL     1       9.209  -7.788   6.261  1.00  0.00     0.074 A 
ATOM     38  C   UNL     1       9.402  -7.593   7.684  1.00  0.00     0.031 C 
ATOM     39  C   UNL     1       9.782  -8.785   5.542  1.00  0.00     0.037 A 
BRANCH  26  40
ATOM     40  C   UNL     1       8.344  -8.765  -0.475  1.00  0.00     0.058 A 
ATOM     41  C   UNL     1       9.071  -8.133  -1.497  1.00  0.00     0.135 A 
ATOM     42  C   UNL     1       7.873 -10.066  -0.721  1.00  0.00     0.135 A 
ATOM     43  F   UNL     1       9.535  -6.886  -1.325  1.00  0.00    -0.206 F 
ATOM     44  C   UNL     1       9.317  -8.764  -2.714  1.00  0.00     0.059 A 
ATOM     45  C   UNL     1       8.130 -10.726  -1.920  1.00  0.00     0.059 A 
ATOM     46  F   UNL     1       7.172 -10.719   0.220  1.00  0.00    -0.206 F 
ATOM     47  C   UNL     1       8.849 -10.064  -2.914  1.00  0.00     0.060 A 
BRANCH  47  48
ATOM     48  S   UNL     1       9.218 -10.881  -4.482  1.00  0.00     0.124 S 
ATOM     49  O   UNL     1       8.384 -10.124  -5.410  1.00  0.00    -0.237 OA
ATOM     50  O   UNL     1      10.657 -10.672  -4.609  1.00  0.00    -0.237 OA
ATOM     51  O   UNL     1       8.806 -12.262  -4.253  1.00  0.00    -0.744 OA
ENDBRANCH  47  48
ENDBRANCH  26  40
BRANCH  27  52
ATOM     52  C   UNL     1       6.890  -4.268   8.359  1.00  0.00     0.058 A 
ATOM     53  C   UNL     1       7.913  -3.618   9.064  1.00  0.00     0.135 A 
ATOM     54  C   UNL     1       5.614  -4.303   8.946  1.00  0.00     0.135 A 
ATOM     55  F   UNL     1       9.149  -3.554   8.547  1.00  0.00    -0.206 F 
ATOM     56  C   UNL     1       7.691  -3.059  10.319  1.00  0.00     0.059 A 
ATOM     57  C   UNL     1       5.357  -3.718  10.180  1.00  0.00     0.059 A 
ATOM     58  F   UNL     1       4.592  -4.892   8.305  1.00  0.00    -0.206 F 
ATOM     59  C   UNL     1       6.409  -3.118  10.869  1.00  0.00     0.060 A 
BRANCH  59  60
ATOM     60  S   UNL     1       6.127  -2.385  12.494  1.00  0.00     0.124 S 
ATOM     61  O   UNL     1       6.790  -3.348  13.366  1.00  0.00    -0.237 OA
ATOM     62  O   UNL     1       6.779  -1.086  12.363  1.00  0.00    -0.237 OA
ATOM     63  O   UNL     1       4.671  -2.340  12.594  1.00  0.00    -0.744 OA
ENDBRANCH  59  60
ENDBRANCH  27  52
BRANCH  39  64
ATOM     64  C   UNL     1      10.695  -9.719   6.289  1.00  0.00     0.058 A 
ATOM     65  C   UNL     1      10.204 -10.630   7.238  1.00  0.00     0.135 A 
ATOM     66  C   UNL     1      12.080  -9.700   6.054  1.00  0.00     0.135 A 
ATOM     67  F   UNL     1       8.890 -10.682   7.508  1.00  0.00    -0.206 F 
ATOM     68  C   UNL     1      11.057 -11.455   7.962  1.00  0.00     0.059 A 
ATOM     69  C   UNL     1      12.948 -10.543   6.741  1.00  0.00     0.059 A 
ATOM     70  F   UNL     1      12.602  -8.856   5.151  1.00  0.00    -0.206 F 
ATOM     71  C   UNL     1      12.429 -11.402   7.708  1.00  0.00     0.060 A 
BRANCH  71  72
ATOM     72  S   UNL     1      13.525 -12.478   8.656  1.00  0.00     0.124 S 
ATOM     73  O   UNL     1      13.506 -11.835   9.966  1.00  0.00    -0.237 OA
ATOM     74  O   UNL     1      12.846 -13.767   8.572  1.00  0.00    -0.237 OA
ATOM     75  O   UNL     1      14.791 -12.394   7.934  1.00  0.00    -0.744 OA
ENDBRANCH  71  72
ENDBRANCH  39  64
ENDBRANCH  13  14
ENDBRANCH   6   8
ENDBRANCH   3   4
ENDBRANCH   2   3
ENDBRANCH   1   2
BRANCH   1  76
ATOM     76  C   UNL     1       4.293   3.807  -2.183  1.00  0.00     0.002 C 
BRANCH  76  77
ATOM     77  C   UNL     1       5.825   3.860  -2.220  1.00  0.00     0.021 C 
BRANCH  77  78
ATOM     78  C   UNL     1       6.373   3.909  -3.643  1.00  0.00     0.116 C 
BRANCH  78  79
ATOM     79  N   UNL     1       6.590   5.287  -4.061  1.00  0.00    -0.351 N 
ATOM     80  C   UNL     1       7.507   5.779  -4.947  1.00  0.00     0.281 C 
ATOM     81  H   UNL     1       5.995   5.955  -3.650  1.00  0.00     0.163 HD
ATOM     82  O   UNL     1       6.980   6.422  -5.862  1.00  0.00    -0.268 OA
BRANCH  80  83
ATOM     83  C   UNL     1       9.088   5.682  -4.720  1.00  0.00     0.181 C 
ATOM     84  C   UNL     1       9.580   6.633  -3.603  1.00  0.00     0.079 C 
ATOM     85  C   UNL     1       9.465   4.254  -4.249  1.00  0.00     0.144 C 
ATOM     86  C   UNL     1      11.079   6.471  -3.309  1.00  0.00     0.013 C 
ATOM     87  C   UNL     1      10.916   3.967  -3.829  1.00  0.00     0.190 C 
ATOM     88  C   UNL     1      11.407   5.054  -2.849  1.00  0.00     0.065 C 
BRANCH  83  89
ATOM     89  N   UNL     1       9.800   5.945  -5.999  1.00  0.00    -0.331 N 
ATOM     90  H   UNL     1       9.633   5.131  -6.591  1.00  0.00     0.347 HD
ATOM     91  H   UNL     1      10.749   6.140  -5.679  1.00  0.00     0.347 HD
BRANCH  89  92
ATOM     92  C   UNL     1       9.506   7.126  -6.829  1.00  0.00     0.183 C 
ATOM     93  C   UNL     1       8.809   8.394  -6.415  1.00  0.00     0.071 C 
ATOM     94  C   UNL     1      10.290   8.397  -6.597  1.00  0.00     0.071 C 
ENDBRANCH  89  92
ENDBRANCH  83  89
BRANCH  87  95
ATOM     95  N   UNL     1      11.156   2.603  -3.292  1.00  0.00    -0.331 N 
ATOM     96  C   UNL     1      10.992   1.475  -4.215  1.00  0.00     0.278 C 
ATOM     97  C   UNL     1      10.772   2.247  -1.923  1.00  0.00     0.278 C 
ATOM     98  H   UNL     1      12.155   2.778  -3.187  1.00  0.00     0.348 HD
ATOM     99  C   UNL     1       9.592   0.909  -4.358  1.00  0.00     0.198 C 
ATOM    100  C   UNL     1       9.317   1.888  -1.723  1.00  0.00     0.198 C 
ATOM    101  S   UNL     1       8.828   0.568  -2.800  1.00  0.00     0.161 S 
ATOM    102  O   UNL     1       7.399   0.694  -3.005  1.00  0.00    -0.228 OA
ATOM    103  O   UNL     1       9.389  -0.663  -2.276  1.00  0.00    -0.228 OA
ENDBRANCH  87  95
ENDBRANCH  80  83
ENDBRANCH  78  79
ENDBRANCH  77  78
ENDBRANCH  76  77
ENDBRANCH   1  76
TORSDOF 19
