REMARK SMILES CC[C@@H](C)N(C)S(=O)(=O)c1cc(C(=O)NCCCCCCNC(=O)c2ccc(-c3c4nc(c(-c5c(F)cc(S(=O)(=O)[O-])cc5F)c5ccc([nH]5)c(-c5c(F)cc(S(=O)(=O)[O-])cc5F)c5nc(c(-c6c(F)cc(S(=O)(=O)[O-])cc6F)c6ccc3[nH]6)C=C5)C=C4)cc2)c(C)cc1C
REMARK SMILES IDX 18 1 17 2 16 3 15 4 13 5 14 6 12 8 10 9 11 10 94 11 93 12
REMARK SMILES IDX 95 13 91 14 92 15 7 16 8 17 9 18 5 19 6 20 3 21 4 22 2 23
REMARK SMILES IDX 1 24 19 25 20 26 21 27 22 28 23 29 24 31 25 32 26 33 90 34
REMARK SMILES IDX 27 35 89 36 28 37 29 38 30 39 83 40 31 41 88 42 82 43 84 44
REMARK SMILES IDX 32 45 87 46 81 47 80 48 33 50 67 51 46 52 66 53 47 54 50 55
REMARK SMILES IDX 65 56 85 57 48 58 49 59 64 61 86 62 51 63 34 64 35 65 44 66
REMARK SMILES IDX 36 67 37 68 43 69 45 70 38 71 39 72 40 73 41 74 42 75 68 76
REMARK SMILES IDX 69 77 78 78 70 79 71 80 77 81 79 82 72 83 73 84 74 85 75 86
REMARK SMILES IDX 76 87 52 88 53 89 62 90 54 91 55 92 61 93 63 94 56 95 57 96
REMARK SMILES IDX 58 97 59 98 60 99
REMARK H PARENT 15 7 22 30 84 49 50 60
REMARK Flexibility Score: inf
ROOT
ATOM      1  C   UNL     1      -3.499   2.773  12.537  1.00  0.00     0.002 C 
ENDROOT
BRANCH   1   2
ATOM      2  C   UNL     1      -3.166   1.787  11.417  1.00  0.00     0.021 C 
BRANCH   2   3
ATOM      3  C   UNL     1      -4.071   1.924  10.186  1.00  0.00     0.116 C 
BRANCH   3   4
ATOM      4  N   UNL     1      -3.436   2.821   9.256  1.00  0.00    -0.352 N 
ATOM      5  C   UNL     1      -2.594   2.622   8.203  1.00  0.00     0.251 C 
ATOM      6  O   UNL     1      -2.021   3.633   7.782  1.00  0.00    -0.269 OA
ATOM      7  H   UNL     1      -3.653   3.768   9.412  1.00  0.00     0.163 HD
BRANCH   5   8
ATOM      8  C   UNL     1      -2.392   1.339   7.452  1.00  0.00     0.044 A 
ATOM      9  C   UNL     1      -1.864   0.573   5.168  1.00  0.00     0.086 A 
ATOM     10  C   UNL     1      -2.239   1.578   6.070  1.00  0.00     0.036 A 
ATOM     11  C   UNL     1      -1.727  -0.747   5.601  1.00  0.00    -0.031 A 
ATOM     12  C   UNL     1      -1.950  -1.003   6.961  1.00  0.00     0.009 A 
ATOM     13  C   UNL     1      -1.365  -1.911   4.725  1.00  0.00     0.046 C 
ATOM     14  C   UNL     1      -2.198   0.022   7.908  1.00  0.00    -0.038 A 
ATOM     15  C   UNL     1      -2.143  -0.436   9.333  1.00  0.00     0.045 C 
BRANCH   9  16
ATOM     16  S   UNL     1      -1.475   1.085   3.503  1.00  0.00     0.243 S 
ATOM     17  O   UNL     1      -1.784   2.494   3.377  1.00  0.00    -0.207 OA
ATOM     18  O   UNL     1      -2.084   0.124   2.610  1.00  0.00    -0.207 OA
BRANCH  16  19
ATOM     19  N   UNL     1       0.246   0.936   3.465  1.00  0.00    -0.198 NA
ATOM     20  C   UNL     1       0.943   1.744   4.510  1.00  0.00     0.124 C 
BRANCH  19  21
ATOM     21  C   UNL     1       0.925   1.063   2.124  1.00  0.00     0.069 C 
ATOM     22  C   UNL     1       0.623   2.398   1.445  1.00  0.00     0.026 C 
BRANCH  21  23
ATOM     23  C   UNL     1       0.634  -0.164   1.244  1.00  0.00     0.016 C 
ATOM     24  C   UNL     1       1.354  -0.145  -0.097  1.00  0.00     0.005 C 
ENDBRANCH  21  23
ENDBRANCH  19  21
ENDBRANCH  16  19
ENDBRANCH   9  16
ENDBRANCH   5   8
ENDBRANCH   3   4
ENDBRANCH   2   3
ENDBRANCH   1   2
BRANCH   1  25
ATOM     25  C   UNL     1      -4.853   2.519  13.201  1.00  0.00     0.002 C 
BRANCH  25  26
ATOM     26  C   UNL     1      -5.038   1.100  13.745  1.00  0.00     0.021 C 
BRANCH  26  27
ATOM     27  C   UNL     1      -3.991   0.688  14.775  1.00  0.00     0.116 C 
BRANCH  27  28
ATOM     28  N   UNL     1      -4.033   1.560  15.940  1.00  0.00    -0.352 N 
ATOM     29  C   UNL     1      -4.416   1.266  17.223  1.00  0.00     0.251 C 
ATOM     30  H   UNL     1      -3.746   2.488  15.784  1.00  0.00     0.163 HD
ATOM     31  O   UNL     1      -4.704   2.171  18.000  1.00  0.00    -0.269 OA
BRANCH  29  32
ATOM     32  C   UNL     1      -4.475  -0.143  17.661  1.00  0.00     0.039 A 
ATOM     33  C   UNL     1      -5.545  -0.570  18.448  1.00  0.00     0.014 A 
ATOM     34  C   UNL     1      -3.457  -1.036  17.309  1.00  0.00     0.014 A 
ATOM     35  C   UNL     1      -5.616  -1.906  18.846  1.00  0.00     0.010 A 
ATOM     36  C   UNL     1      -3.573  -2.383  17.635  1.00  0.00     0.010 A 
ATOM     37  C   UNL     1      -4.646  -2.829  18.419  1.00  0.00    -0.014 A 
BRANCH  37  38
ATOM     38  C   UNL     1      -4.739  -4.264  18.790  1.00  0.00     0.031 A 
ATOM     39  C   UNL     1      -3.668  -4.898  19.636  1.00  0.00     0.074 A 
ATOM     40  C   UNL     1      -5.764  -5.003  18.323  1.00  0.00     0.049 A 
ATOM     41  N   UNL     1      -3.558  -6.140  20.033  1.00  0.00    -0.248 NA
ATOM     42  C   UNL     1      -2.561  -4.031  20.072  1.00  0.00     0.031 C 
ATOM     43  C   UNL     1      -6.834  -4.510  17.452  1.00  0.00     0.029 A 
ATOM     44  N   UNL     1      -6.074  -6.327  18.509  1.00  0.00    -0.354 N 
ATOM     45  C   UNL     1      -2.372  -6.204  20.755  1.00  0.00     0.074 A 
ATOM     46  C   UNL     1      -1.766  -4.893  20.689  1.00  0.00     0.031 C 
ATOM     47  C   UNL     1      -7.697  -5.508  17.205  1.00  0.00     0.029 A 
ATOM     48  C   UNL     1      -7.222  -6.721  17.863  1.00  0.00     0.049 A 
ATOM     49  H   UNL     1      -5.526  -6.936  19.055  1.00  0.00     0.167 HD
ATOM     50  C   UNL     1      -1.850  -7.254  21.434  1.00  0.00     0.037 A 
ATOM     51  C   UNL     1      -7.820  -7.926  17.801  1.00  0.00     0.037 A 
ATOM     52  C   UNL     1      -2.471  -8.552  21.506  1.00  0.00     0.049 A 
ATOM     53  C   UNL     1      -7.214  -9.081  18.553  1.00  0.00     0.074 A 
ATOM     54  C   UNL     1      -2.054  -9.666  22.212  1.00  0.00     0.029 A 
ATOM     55  N   UNL     1      -3.636  -8.912  20.844  1.00  0.00    -0.354 N 
ATOM     56  N   UNL     1      -6.130  -9.105  19.292  1.00  0.00    -0.248 NA
ATOM     57  C   UNL     1      -7.915 -10.368  18.470  1.00  0.00     0.031 C 
ATOM     58  C   UNL     1      -2.934 -10.716  21.930  1.00  0.00     0.029 A 
ATOM     59  C   UNL     1      -3.936 -10.240  21.101  1.00  0.00     0.049 A 
ATOM     60  H   UNL     1      -4.171  -8.312  20.276  1.00  0.00     0.167 HD
ATOM     61  C   UNL     1      -6.033 -10.403  19.782  1.00  0.00     0.074 A 
ATOM     62  C   UNL     1      -7.180 -11.126  19.271  1.00  0.00     0.031 C 
ATOM     63  C   UNL     1      -5.082 -10.947  20.582  1.00  0.00     0.037 A 
BRANCH  50  64
ATOM     64  C   UNL     1      -0.543  -7.044  22.152  1.00  0.00     0.058 A 
ATOM     65  C   UNL     1      -0.443  -6.211  23.279  1.00  0.00     0.135 A 
ATOM     66  C   UNL     1       0.618  -7.713  21.731  1.00  0.00     0.135 A 
ATOM     67  F   UNL     1      -1.516  -5.534  23.717  1.00  0.00    -0.206 F 
ATOM     68  C   UNL     1       0.766  -6.026  23.943  1.00  0.00     0.059 A 
ATOM     69  C   UNL     1       1.830  -7.568  22.401  1.00  0.00     0.059 A 
ATOM     70  F   UNL     1       0.583  -8.521  20.660  1.00  0.00    -0.206 F 
ATOM     71  C   UNL     1       1.897  -6.710  23.497  1.00  0.00     0.060 A 
BRANCH  71  72
ATOM     72  S   UNL     1       3.454  -6.463  24.376  1.00  0.00     0.124 S 
ATOM     73  O   UNL     1       3.791  -5.096  23.992  1.00  0.00    -0.237 OA
ATOM     74  O   UNL     1       3.058  -6.652  25.768  1.00  0.00    -0.237 OA
ATOM     75  O   UNL     1       4.323  -7.500  23.828  1.00  0.00    -0.744 OA
ENDBRANCH  71  72
ENDBRANCH  50  64
BRANCH  51  76
ATOM     76  C   UNL     1      -9.071  -8.097  17.013  1.00  0.00     0.058 A 
ATOM     77  C   UNL     1     -10.297  -8.348  17.646  1.00  0.00     0.135 A 
ATOM     78  C   UNL     1      -9.068  -7.999  15.612  1.00  0.00     0.135 A 
ATOM     79  F   UNL     1     -10.353  -8.455  18.982  1.00  0.00    -0.206 F 
ATOM     80  C   UNL     1     -11.472  -8.517  16.919  1.00  0.00     0.059 A 
ATOM     81  C   UNL     1     -10.234  -8.134  14.866  1.00  0.00     0.059 A 
ATOM     82  F   UNL     1      -7.924  -7.742  14.958  1.00  0.00    -0.206 F 
ATOM     83  C   UNL     1     -11.430  -8.405  15.529  1.00  0.00     0.060 A 
BRANCH  83  84
ATOM     84  S   UNL     1     -12.968  -8.580  14.600  1.00  0.00     0.124 S 
ATOM     85  O   UNL     1     -13.232 -10.008  14.735  1.00  0.00    -0.237 OA
ATOM     86  O   UNL     1     -13.868  -7.691  15.328  1.00  0.00    -0.237 OA
ATOM     87  O   UNL     1     -12.604  -8.130  13.259  1.00  0.00    -0.744 OA
ENDBRANCH  83  84
ENDBRANCH  51  76
BRANCH  63  88
ATOM     88  C   UNL     1      -5.255 -12.389  20.979  1.00  0.00     0.058 A 
ATOM     89  C   UNL     1      -5.096 -13.435  20.057  1.00  0.00     0.135 A 
ATOM     90  C   UNL     1      -5.543 -12.729  22.311  1.00  0.00     0.135 A 
ATOM     91  F   UNL     1      -4.826 -13.166  18.769  1.00  0.00    -0.206 F 
ATOM     92  C   UNL     1      -5.248 -14.765  20.433  1.00  0.00     0.059 A 
ATOM     93  C   UNL     1      -5.666 -14.054  22.717  1.00  0.00     0.059 A 
ATOM     94  F   UNL     1      -5.694 -11.770  23.238  1.00  0.00    -0.206 F 
ATOM     95  C   UNL     1      -5.531 -15.065  21.767  1.00  0.00     0.060 A 
BRANCH  95  96
ATOM     96  S   UNL     1      -5.702 -16.797  22.245  1.00  0.00     0.124 S 
ATOM     97  O   UNL     1      -6.982 -17.145  21.639  1.00  0.00    -0.237 OA
ATOM     98  O   UNL     1      -4.524 -17.406  21.634  1.00  0.00    -0.237 OA
ATOM     99  O   UNL     1      -5.691 -16.750  23.704  1.00  0.00    -0.744 OA
ENDBRANCH  95  96
ENDBRANCH  63  88
ENDBRANCH  37  38
ENDBRANCH  29  32
ENDBRANCH  27  28
ENDBRANCH  26  27
ENDBRANCH  25  26
ENDBRANCH   1  25
TORSDOF 20
