REMARK SMILES CC(=O)N[C@@H](CS[C@H]1CC(=O)N(c2ccc(Cl)cc2Cl)C1=O)C(=O)NCCCCCCNC(=O)c1ccc(-c2c3nc(c(-c4c(F)cc(S(=O)(=O)[O-])cc4F)c4ccc([nH]4)c(-c4c(F)cc(S(=O)(=O)[O-])cc4F)c4nc(c(-c5c(F)cc(S(=O)(=O)[O-])cc5F)c5ccc2[nH]5)C=C4)C=C3)cc1
REMARK SMILES IDX 28 1 27 2 26 3 25 4 23 5 24 6 5 8 4 9 1 10 2 11 3 12 6 14
REMARK SMILES IDX 7 15 8 16 9 17 21 18 10 19 12 20 22 21 11 22 13 23 14 24
REMARK SMILES IDX 19 25 15 26 18 27 20 28 16 29 17 30 29 31 30 32 31 33 32 34
REMARK SMILES IDX 33 35 34 37 35 38 36 39 100 40 37 41 99 42 38 43 39 44 40 45
REMARK SMILES IDX 93 46 41 47 98 48 92 49 94 50 42 51 97 52 91 53 90 54 43 56
REMARK SMILES IDX 77 57 56 58 76 59 57 60 60 61 75 62 95 63 58 64 59 65 74 67
REMARK SMILES IDX 96 68 61 69 44 70 45 71 54 72 46 73 47 74 53 75 55 76 48 77
REMARK SMILES IDX 49 78 50 79 51 80 52 81 78 82 79 83 88 84 80 85 81 86 87 87
REMARK SMILES IDX 89 88 82 89 83 90 84 91 85 92 86 93 62 94 63 95 72 96 64 97
REMARK SMILES IDX 65 98 71 99 73 100 66 101 67 102 68 103 69 104 70 105
REMARK H PARENT 25 7 4 13 32 36 94 55 60 66
REMARK Flexibility Score: inf
ROOT
ATOM      1  C   UNL     1      -1.035  -2.497   3.491  1.00  0.00     0.002 C 
ENDROOT
BRANCH   1   2
ATOM      2  C   UNL     1       0.190  -2.048   4.297  1.00  0.00     0.021 C 
BRANCH   2   3
ATOM      3  C   UNL     1       1.530  -2.480   3.704  1.00  0.00     0.116 C 
BRANCH   3   4
ATOM      4  N   UNL     1       2.072  -1.622   2.674  1.00  0.00    -0.354 N 
ATOM      5  C   UNL     1       3.252  -1.757   1.989  1.00  0.00     0.243 C 
ATOM      6  O   UNL     1       3.535  -0.897   1.146  1.00  0.00    -0.273 OA
ATOM      7  H   UNL     1       1.523  -0.841   2.433  1.00  0.00     0.163 HD
BRANCH   5   8
ATOM      8  C   UNL     1       4.242  -2.922   2.253  1.00  0.00     0.181 C 
BRANCH   8   9
ATOM      9  N   UNL     1       4.575  -2.982   3.678  1.00  0.00    -0.344 N 
ATOM     10  C   UNL     1       6.248  -1.146   3.569  1.00  0.00     0.114 C 
ATOM     11  C   UNL     1       5.371  -2.094   4.353  1.00  0.00     0.217 C 
ATOM     12  O   UNL     1       5.390  -2.112   5.583  1.00  0.00    -0.275 OA
ATOM     13  H   UNL     1       4.194  -3.727   4.197  1.00  0.00     0.164 HD
ENDBRANCH   8   9
BRANCH   8  14
ATOM     14  C   UNL     1       3.978  -4.292   1.573  1.00  0.00     0.105 C 
BRANCH  14  15
ATOM     15  S   UNL     1       2.474  -5.299   1.899  1.00  0.00    -0.145 SA
BRANCH  15  16
ATOM     16  C   UNL     1       1.603  -5.239   0.269  1.00  0.00     0.146 C 
ATOM     17  C   UNL     1       0.357  -6.103   0.276  1.00  0.00     0.125 C 
ATOM     18  C   UNL     1       1.082  -3.862  -0.066  1.00  0.00     0.247 C 
ATOM     19  C   UNL     1      -0.766  -5.168  -0.066  1.00  0.00     0.235 C 
ATOM     20  N   UNL     1      -0.278  -3.902  -0.272  1.00  0.00    -0.248 N 
ATOM     21  O   UNL     1       1.815  -2.885  -0.074  1.00  0.00    -0.273 OA
ATOM     22  O   UNL     1      -1.925  -5.554  -0.147  1.00  0.00    -0.274 OA
BRANCH  20  23
ATOM     23  C   UNL     1      -1.098  -2.740  -0.492  1.00  0.00     0.070 A 
ATOM     24  C   UNL     1      -2.378  -2.677   0.095  1.00  0.00     0.030 A 
ATOM     25  C   UNL     1      -0.681  -1.596  -1.204  1.00  0.00     0.066 A 
ATOM     26  C   UNL     1      -3.129  -1.495   0.128  1.00  0.00     0.023 A 
ATOM     27  C   UNL     1      -1.432  -0.408  -1.176  1.00  0.00     0.043 A 
ATOM     28  Cl  UNL     1       0.619  -1.625  -2.352  1.00  0.00    -0.082 Cl
ATOM     29  C   UNL     1      -2.635  -0.354  -0.481  1.00  0.00     0.042 A 
ATOM     30  Cl  UNL     1      -3.529   1.112  -0.418  1.00  0.00    -0.084 Cl
ENDBRANCH  20  23
ENDBRANCH  15  16
ENDBRANCH  14  15
ENDBRANCH   8  14
ENDBRANCH   5   8
ENDBRANCH   3   4
ENDBRANCH   2   3
ENDBRANCH   1   2
BRANCH   1  31
ATOM     31  C   UNL     1      -1.185  -4.017   3.305  1.00  0.00     0.002 C 
BRANCH  31  32
ATOM     32  C   UNL     1      -2.035  -4.777   4.316  1.00  0.00     0.021 C 
BRANCH  32  33
ATOM     33  C   UNL     1      -3.478  -4.316   4.437  1.00  0.00     0.116 C 
BRANCH  33  34
ATOM     34  N   UNL     1      -4.215  -4.213   3.182  1.00  0.00    -0.352 N 
ATOM     35  C   UNL     1      -5.574  -4.024   3.025  1.00  0.00     0.251 C 
ATOM     36  H   UNL     1      -3.685  -4.287   2.356  1.00  0.00     0.163 HD
ATOM     37  O   UNL     1      -6.076  -3.912   1.911  1.00  0.00    -0.269 OA
BRANCH  35  38
ATOM     38  C   UNL     1      -6.412  -4.087   4.240  1.00  0.00     0.039 A 
ATOM     39  C   UNL     1      -7.345  -5.122   4.340  1.00  0.00     0.014 A 
ATOM     40  C   UNL     1      -6.079  -3.316   5.352  1.00  0.00     0.014 A 
ATOM     41  C   UNL     1      -7.833  -5.476   5.597  1.00  0.00     0.010 A 
ATOM     42  C   UNL     1      -6.461  -3.757   6.611  1.00  0.00     0.010 A 
ATOM     43  C   UNL     1      -7.326  -4.854   6.750  1.00  0.00    -0.014 A 
BRANCH  43  44
ATOM     44  C   UNL     1      -7.661  -5.357   8.108  1.00  0.00     0.031 A 
ATOM     45  C   UNL     1      -8.303  -4.436   9.109  1.00  0.00     0.074 A 
ATOM     46  C   UNL     1      -7.310  -6.610   8.465  1.00  0.00     0.049 A 
ATOM     47  N   UNL     1      -8.607  -4.661  10.361  1.00  0.00    -0.248 NA
ATOM     48  C   UNL     1      -8.593  -3.064   8.661  1.00  0.00     0.031 C 
ATOM     49  C   UNL     1      -6.588  -7.569   7.620  1.00  0.00     0.029 A 
ATOM     50  N   UNL     1      -7.513  -7.299   9.635  1.00  0.00    -0.354 N 
ATOM     51  C   UNL     1      -9.090  -3.455  10.852  1.00  0.00     0.074 A 
ATOM     52  C   UNL     1      -8.971  -2.484   9.788  1.00  0.00     0.031 C 
ATOM     53  C   UNL     1      -6.457  -8.732   8.280  1.00  0.00     0.029 A 
ATOM     54  C   UNL     1      -7.058  -8.598   9.602  1.00  0.00     0.049 A 
ATOM     55  H   UNL     1      -7.943  -6.900  10.425  1.00  0.00     0.167 HD
ATOM     56  C   UNL     1      -9.625  -3.186  12.066  1.00  0.00     0.037 A 
ATOM     57  C   UNL     1      -7.136  -9.574  10.527  1.00  0.00     0.037 A 
ATOM     58  C   UNL     1      -9.803  -4.172  13.097  1.00  0.00     0.049 A 
ATOM     59  C   UNL     1      -7.826  -9.281  11.831  1.00  0.00     0.074 A 
ATOM     60  C   UNL     1     -10.395  -4.028  14.339  1.00  0.00     0.029 A 
ATOM     61  N   UNL     1      -9.406  -5.497  12.992  1.00  0.00    -0.354 N 
ATOM     62  N   UNL     1      -8.339  -8.150  12.256  1.00  0.00    -0.248 NA
ATOM     63  C   UNL     1      -7.964 -10.398  12.776  1.00  0.00     0.031 C 
ATOM     64  C   UNL     1     -10.346  -5.266  14.990  1.00  0.00     0.029 A 
ATOM     65  C   UNL     1      -9.748  -6.186  14.143  1.00  0.00     0.049 A 
ATOM     66  H   UNL     1      -8.949  -5.891  12.214  1.00  0.00     0.167 HD
ATOM     67  C   UNL     1      -8.882  -8.425  13.505  1.00  0.00     0.074 A 
ATOM     68  C   UNL     1      -8.648  -9.832  13.761  1.00  0.00     0.031 C 
ATOM     69  C   UNL     1      -9.516  -7.590  14.365  1.00  0.00     0.037 A 
BRANCH  56  70
ATOM     70  C   UNL     1     -10.079  -1.776  12.316  1.00  0.00     0.058 A 
ATOM     71  C   UNL     1     -11.200  -1.241  11.659  1.00  0.00     0.135 A 
ATOM     72  C   UNL     1      -9.377  -0.941  13.199  1.00  0.00     0.135 A 
ATOM     73  F   UNL     1     -11.894  -1.990  10.787  1.00  0.00    -0.206 F 
ATOM     74  C   UNL     1     -11.580   0.085  11.831  1.00  0.00     0.059 A 
ATOM     75  C   UNL     1      -9.758   0.382  13.409  1.00  0.00     0.059 A 
ATOM     76  F   UNL     1      -8.298  -1.401  13.852  1.00  0.00    -0.206 F 
ATOM     77  C   UNL     1     -10.847   0.891  12.703  1.00  0.00     0.060 A 
BRANCH  77  78
ATOM     78  S   UNL     1     -11.335   2.618  12.899  1.00  0.00     0.124 S 
ATOM     79  O   UNL     1     -10.790   3.212  11.682  1.00  0.00    -0.237 OA
ATOM     80  O   UNL     1     -12.790   2.530  12.962  1.00  0.00    -0.237 OA
ATOM     81  O   UNL     1     -10.680   3.015  14.141  1.00  0.00    -0.744 OA
ENDBRANCH  77  78
ENDBRANCH  56  70
BRANCH  57  82
ATOM     82  C   UNL     1      -6.612 -10.934  10.229  1.00  0.00     0.058 A 
ATOM     83  C   UNL     1      -7.489 -11.998   9.971  1.00  0.00     0.135 A 
ATOM     84  C   UNL     1      -5.235 -11.198  10.187  1.00  0.00     0.135 A 
ATOM     85  F   UNL     1      -8.815 -11.796  10.003  1.00  0.00    -0.206 F 
ATOM     86  C   UNL     1      -7.023 -13.281   9.700  1.00  0.00     0.059 A 
ATOM     87  C   UNL     1      -4.744 -12.468   9.898  1.00  0.00     0.059 A 
ATOM     88  F   UNL     1      -4.354 -10.210  10.406  1.00  0.00    -0.206 F 
ATOM     89  C   UNL     1      -5.646 -13.506   9.666  1.00  0.00     0.060 A 
BRANCH  89  90
ATOM     90  S   UNL     1      -5.047 -15.163   9.265  1.00  0.00     0.124 S 
ATOM     91  O   UNL     1      -5.274 -15.869  10.521  1.00  0.00    -0.237 OA
ATOM     92  O   UNL     1      -5.911 -15.544   8.152  1.00  0.00    -0.237 OA
ATOM     93  O   UNL     1      -3.649 -14.935   8.911  1.00  0.00    -0.744 OA
ENDBRANCH  89  90
ENDBRANCH  57  82
BRANCH  69  94
ATOM     94  C   UNL     1     -10.030  -8.187  15.642  1.00  0.00     0.058 A 
ATOM     95  C   UNL     1      -9.167  -8.512  16.698  1.00  0.00     0.135 A 
ATOM     96  C   UNL     1     -11.405  -8.398  15.822  1.00  0.00     0.135 A 
ATOM     97  F   UNL     1      -7.843  -8.331  16.570  1.00  0.00    -0.206 F 
ATOM     98  C   UNL     1      -9.649  -9.055  17.884  1.00  0.00     0.059 A 
ATOM     99  C   UNL     1     -11.911  -8.920  17.007  1.00  0.00     0.059 A 
ATOM    100  F   UNL     1     -12.271  -8.091  14.843  1.00  0.00    -0.206 F 
ATOM    101  C   UNL     1     -11.023  -9.258  18.028  1.00  0.00     0.060 A 
BRANCH 101 102
ATOM    102  S   UNL     1     -11.643  -9.944  19.578  1.00  0.00     0.124 S 
ATOM    103  O   UNL     1     -11.354 -11.364  19.405  1.00  0.00    -0.237 OA
ATOM    104  O   UNL     1     -10.837  -9.249  20.576  1.00  0.00    -0.237 OA
ATOM    105  O   UNL     1     -13.058  -9.583  19.563  1.00  0.00    -0.744 OA
ENDBRANCH 101 102
ENDBRANCH  69  94
ENDBRANCH  43  44
ENDBRANCH  35  38
ENDBRANCH  33  34
ENDBRANCH  32  33
ENDBRANCH  31  32
ENDBRANCH   1  31
TORSDOF 21
