REMARK SMILES O=C(NCCCCCCNC(=O)[C@H](c1ccc(O)cc1)[NH+]1CC[NH+](Cc2cccc(Cl)c2)CC1)c1ccc(-c2c3nc(c(-c4c(F)cc(S(=O)(=O)[O-])cc4F)c4ccc([nH]4)c(-c4c(F)cc(S(=O)(=O)[O-])cc4F)c4nc(c(-c5c(F)cc(S(=O)(=O)[O-])cc5F)c5ccc2[nH]5)C=C4)C=C3)cc1
REMARK SMILES IDX 6 1 5 2 4 3 3 4 1 5 2 6 35 8 36 9 100 10 37 11 99 12 38 13
REMARK SMILES IDX 39 14 40 15 93 16 41 17 98 18 92 19 94 20 42 21 97 22 91 23
REMARK SMILES IDX 90 24 43 26 77 27 56 28 76 29 57 30 60 31 75 32 95 33 58 34
REMARK SMILES IDX 59 35 74 37 96 38 61 39 44 40 45 41 54 42 46 43 47 44 53 45
REMARK SMILES IDX 55 46 48 47 49 48 50 49 51 50 52 51 78 52 79 53 88 54 80 55
REMARK SMILES IDX 81 56 87 57 89 58 82 59 83 60 84 61 85 62 86 63 62 64 63 65
REMARK SMILES IDX 72 66 64 67 65 68 71 69 73 70 66 71 67 72 68 73 69 74 70 75
REMARK SMILES IDX 7 76 8 77 9 78 10 79 11 80 12 82 13 83 21 84 22 85 34 86
REMARK SMILES IDX 23 88 33 89 24 90 25 92 26 93 27 94 32 95 28 96 30 97 29 98
REMARK SMILES IDX 31 99 14 100 15 101 20 102 16 103 19 104 17 105 18 106
REMARK H PARENT 3 7 94 25 60 36 10 81 21 87 24 91 18 107
REMARK Flexibility Score: inf
ROOT
ATOM      1  C   UNL     1      12.667   1.388   1.612  1.00  0.00     0.002 C 
ENDROOT
BRANCH   1   2
ATOM      2  C   UNL     1      13.198   2.241   0.459  1.00  0.00     0.021 C 
BRANCH   2   3
ATOM      3  C   UNL     1      14.627   2.742   0.639  1.00  0.00     0.116 C 
BRANCH   3   4
ATOM      4  N   UNL     1      15.572   1.638   0.635  1.00  0.00    -0.352 N 
ATOM      5  O   UNL     1      17.015   0.206  -0.334  1.00  0.00    -0.269 OA
ATOM      6  C   UNL     1      16.515   1.325  -0.311  1.00  0.00     0.251 C 
ATOM      7  H   UNL     1      15.530   1.036   1.413  1.00  0.00     0.163 HD
BRANCH   6   8
ATOM      8  C   UNL     1      16.933   2.352  -1.290  1.00  0.00     0.039 A 
ATOM      9  C   UNL     1      17.217   3.653  -0.864  1.00  0.00     0.014 A 
ATOM     10  C   UNL     1      17.112   1.993  -2.629  1.00  0.00     0.014 A 
ATOM     11  C   UNL     1      17.613   4.615  -1.786  1.00  0.00     0.010 A 
ATOM     12  C   UNL     1      17.577   2.943  -3.542  1.00  0.00     0.010 A 
ATOM     13  C   UNL     1      17.838   4.257  -3.125  1.00  0.00    -0.014 A 
BRANCH  13  14
ATOM     14  C   UNL     1      18.499   5.226  -4.032  1.00  0.00     0.031 A 
ATOM     15  C   UNL     1      17.785   5.801  -5.219  1.00  0.00     0.074 A 
ATOM     16  C   UNL     1      19.782   5.554  -3.773  1.00  0.00     0.049 A 
ATOM     17  N   UNL     1      18.243   6.619  -6.130  1.00  0.00    -0.248 NA
ATOM     18  C   UNL     1      16.381   5.406  -5.418  1.00  0.00     0.031 C 
ATOM     19  C   UNL     1      20.575   5.025  -2.657  1.00  0.00     0.029 A 
ATOM     20  N   UNL     1      20.648   6.395  -4.420  1.00  0.00    -0.354 N 
ATOM     21  C   UNL     1      17.199   6.821  -7.024  1.00  0.00     0.074 A 
ATOM     22  C   UNL     1      16.081   6.033  -6.550  1.00  0.00     0.031 C 
ATOM     23  C   UNL     1      21.802   5.562  -2.692  1.00  0.00     0.029 A 
ATOM     24  C   UNL     1      21.906   6.421  -3.864  1.00  0.00     0.049 A 
ATOM     25  H   UNL     1      20.395   6.929  -5.208  1.00  0.00     0.167 HD
ATOM     26  C   UNL     1      17.187   7.594  -8.136  1.00  0.00     0.037 A 
ATOM     27  C   UNL     1      23.033   7.032  -4.274  1.00  0.00     0.037 A 
ATOM     28  C   UNL     1      18.305   8.391  -8.575  1.00  0.00     0.049 A 
ATOM     29  C   UNL     1      22.990   7.861  -5.525  1.00  0.00     0.074 A 
ATOM     30  C   UNL     1      18.361   9.280  -9.634  1.00  0.00     0.029 A 
ATOM     31  N   UNL     1      19.565   8.383  -7.994  1.00  0.00    -0.354 N 
ATOM     32  N   UNL     1      21.968   8.109  -6.309  1.00  0.00    -0.248 NA
ATOM     33  C   UNL     1      24.248   8.483  -5.955  1.00  0.00     0.031 C 
ATOM     34  C   UNL     1      19.669   9.764  -9.731  1.00  0.00     0.029 A 
ATOM     35  C   UNL     1      20.417   9.215  -8.702  1.00  0.00     0.049 A 
ATOM     36  H   UNL     1      19.817   7.862  -7.197  1.00  0.00     0.167 HD
ATOM     37  C   UNL     1      22.460   8.918  -7.325  1.00  0.00     0.074 A 
ATOM     38  C   UNL     1      23.862   9.143  -7.039  1.00  0.00     0.031 C 
ATOM     39  C   UNL     1      21.812   9.421  -8.403  1.00  0.00     0.037 A 
BRANCH  26  40
ATOM     40  C   UNL     1      15.943   7.622  -8.979  1.00  0.00     0.058 A 
ATOM     41  C   UNL     1      14.798   8.332  -8.587  1.00  0.00     0.135 A 
ATOM     42  C   UNL     1      15.940   7.027 -10.252  1.00  0.00     0.135 A 
ATOM     43  F   UNL     1      14.742   8.910  -7.377  1.00  0.00    -0.206 F 
ATOM     44  C   UNL     1      13.695   8.453  -9.428  1.00  0.00     0.059 A 
ATOM     45  C   UNL     1      14.857   7.152 -11.117  1.00  0.00     0.059 A 
ATOM     46  F   UNL     1      17.010   6.334 -10.675  1.00  0.00    -0.206 F 
ATOM     47  C   UNL     1      13.738   7.867 -10.696  1.00  0.00     0.060 A 
BRANCH  47  48
ATOM     48  S   UNL     1      12.322   8.085 -11.795  1.00  0.00     0.124 S 
ATOM     49  O   UNL     1      11.322   7.236 -11.155  1.00  0.00    -0.237 OA
ATOM     50  O   UNL     1      12.079   9.522 -11.709  1.00  0.00    -0.237 OA
ATOM     51  O   UNL     1      12.814   7.612 -13.085  1.00  0.00    -0.744 OA
ENDBRANCH  47  48
ENDBRANCH  26  40
BRANCH  27  52
ATOM     52  C   UNL     1      24.303   6.834  -3.526  1.00  0.00     0.058 A 
ATOM     53  C   UNL     1      24.911   7.887  -2.830  1.00  0.00     0.135 A 
ATOM     54  C   UNL     1      24.936   5.580  -3.499  1.00  0.00     0.135 A 
ATOM     55  F   UNL     1      24.346   9.104  -2.827  1.00  0.00    -0.206 F 
ATOM     56  C   UNL     1      26.116   7.714  -2.157  1.00  0.00     0.059 A 
ATOM     57  C   UNL     1      26.124   5.374  -2.808  1.00  0.00     0.059 A 
ATOM     58  F   UNL     1      24.385   4.533  -4.133  1.00  0.00    -0.206 F 
ATOM     59  C   UNL     1      26.717   6.453  -2.155  1.00  0.00     0.060 A 
BRANCH  59  60
ATOM     60  S   UNL     1      28.274   6.233  -1.270  1.00  0.00     0.124 S 
ATOM     61  O   UNL     1      29.219   6.873  -2.178  1.00  0.00    -0.237 OA
ATOM     62  O   UNL     1      28.019   6.935  -0.016  1.00  0.00    -0.237 OA
ATOM     63  O   UNL     1      28.391   4.782  -1.154  1.00  0.00    -0.744 OA
ENDBRANCH  59  60
ENDBRANCH  27  52
BRANCH  39  64
ATOM     64  C   UNL     1      22.614  10.262  -9.354  1.00  0.00     0.058 A 
ATOM     65  C   UNL     1      23.544   9.684 -10.231  1.00  0.00     0.135 A 
ATOM     66  C   UNL     1      22.411  11.649  -9.428  1.00  0.00     0.135 A 
ATOM     67  F   UNL     1      23.784   8.364 -10.188  1.00  0.00    -0.206 F 
ATOM     68  C   UNL     1      24.255  10.455 -11.144  1.00  0.00     0.059 A 
ATOM     69  C   UNL     1      23.091  12.435 -10.352  1.00  0.00     0.059 A 
ATOM     70  F   UNL     1      21.528  12.248  -8.614  1.00  0.00    -0.206 F 
ATOM     71  C   UNL     1      24.017  11.829 -11.201  1.00  0.00     0.060 A 
BRANCH  71  72
ATOM     72  S   UNL     1      24.908  12.809 -12.427  1.00  0.00     0.124 S 
ATOM     73  O   UNL     1      26.249  12.849 -11.854  1.00  0.00    -0.237 OA
ATOM     74  O   UNL     1      24.759  12.006 -13.637  1.00  0.00    -0.237 OA
ATOM     75  O   UNL     1      24.190  14.080 -12.433  1.00  0.00    -0.744 OA
ENDBRANCH  71  72
ENDBRANCH  39  64
ENDBRANCH  13  14
ENDBRANCH   6   8
ENDBRANCH   3   4
ENDBRANCH   2   3
ENDBRANCH   1   2
BRANCH   1  76
ATOM     76  C   UNL     1      12.700   2.065   2.984  1.00  0.00     0.002 C 
BRANCH  76  77
ATOM     77  C   UNL     1      12.028   3.441   3.044  1.00  0.00     0.021 C 
BRANCH  77  78
ATOM     78  C   UNL     1      10.497   3.418   2.903  1.00  0.00     0.116 C 
BRANCH  78  79
ATOM     79  N   UNL     1       9.883   3.125   4.185  1.00  0.00    -0.351 N 
ATOM     80  C   UNL     1       9.392   3.896   5.193  1.00  0.00     0.283 C 
ATOM     81  H   UNL     1       9.806   2.160   4.365  1.00  0.00     0.163 HD
ATOM     82  O   UNL     1       9.170   3.266   6.242  1.00  0.00    -0.268 OA
BRANCH  80  83
ATOM     83  C   UNL     1       9.004   5.422   5.136  1.00  0.00     0.305 C 
BRANCH  83  84
ATOM     84  N   UNL     1       9.566   6.220   4.017  1.00  0.00    -0.312 N 
ATOM     85  C   UNL     1       8.878   7.488   3.706  1.00  0.00     0.325 C 
ATOM     86  C   UNL     1      11.032   6.352   4.038  1.00  0.00     0.325 C 
ATOM     87  H   UNL     1       9.349   5.627   3.216  1.00  0.00     0.349 HD
ATOM     88  C   UNL     1       9.610   8.829   3.949  1.00  0.00     0.324 C 
ATOM     89  C   UNL     1      11.685   7.720   4.297  1.00  0.00     0.324 C 
ATOM     90  N   UNL     1      11.036   8.853   3.654  1.00  0.00    -0.322 N 
ATOM     91  H   UNL     1      11.414   9.701   4.078  1.00  0.00     0.348 HD
BRANCH  90  92
ATOM     92  C   UNL     1      11.427   9.141   2.268  1.00  0.00     0.299 C 
BRANCH  92  93
ATOM     93  C   UNL     1      10.903   8.268   1.146  1.00  0.00     0.008 A 
ATOM     94  C   UNL     1       9.606   8.452   0.639  1.00  0.00     0.009 A 
ATOM     95  C   UNL     1      11.720   7.304   0.537  1.00  0.00     0.030 A 
ATOM     96  C   UNL     1       9.099   7.631  -0.371  1.00  0.00     0.002 A 
ATOM     97  C   UNL     1      11.227   6.522  -0.511  1.00  0.00     0.041 A 
ATOM     98  C   UNL     1       9.911   6.659  -0.946  1.00  0.00     0.020 A 
ATOM     99  Cl  UNL     1      12.263   5.399  -1.300  1.00  0.00    -0.084 Cl
ENDBRANCH  92  93
ENDBRANCH  90  92
ENDBRANCH  83  84
BRANCH  83 100
ATOM    100  C   UNL     1       7.472   5.519   5.254  1.00  0.00     0.019 A 
ATOM    101  C   UNL     1       6.619   4.929   4.305  1.00  0.00     0.014 A 
ATOM    102  C   UNL     1       6.904   6.289   6.287  1.00  0.00     0.014 A 
ATOM    103  C   UNL     1       5.234   5.114   4.383  1.00  0.00     0.046 A 
ATOM    104  C   UNL     1       5.524   6.485   6.353  1.00  0.00     0.046 A 
ATOM    105  C   UNL     1       4.701   5.899   5.402  1.00  0.00     0.115 A 
BRANCH 105 106
ATOM    106  O   UNL     1       3.360   6.129   5.497  1.00  0.00    -0.508 OA
ATOM    107  H   UNL     1       2.774   5.750   4.872  1.00  0.00     0.293 HD
ENDBRANCH 105 106
ENDBRANCH  83 100
ENDBRANCH  80  83
ENDBRANCH  78  79
ENDBRANCH  77  78
ENDBRANCH  76  77
ENDBRANCH   1  76
TORSDOF 21
