REMARK SMILES Cc1cccc(NC(=O)C[C@H]([NH2+]C(C)C)C(=O)NCCCCCCNC(=O)c2ccc(-c3c4nc(c(-c5c(F)cc(S(=O)(=O)[O-])cc5F)c5ccc([nH]5)c(-c5c(F)cc(S(=O)(=O)[O-])cc5F)c5nc(c(-c6c(F)cc(S(=O)(=O)[O-])cc6F)c6ccc3[nH]6)C=C5)C=C4)cc2)c1
REMARK SMILES IDX 21 1 20 2 19 3 18 4 16 5 17 6 11 8 10 9 8 10 7 11 9 13 6 14
REMARK SMILES IDX 1 15 2 16 3 17 94 18 4 19 5 20 12 21 13 24 14 25 15 26 22 27
REMARK SMILES IDX 23 28 24 29 25 30 26 31 27 33 28 34 29 35 93 36 30 37 92 38
REMARK SMILES IDX 31 39 32 40 33 41 86 42 34 43 91 44 85 45 87 46 35 47 90 48
REMARK SMILES IDX 84 49 83 50 36 52 70 53 49 54 69 55 50 56 53 57 68 58 88 59
REMARK SMILES IDX 51 60 52 61 67 63 89 64 54 65 37 66 38 67 47 68 39 69 40 70
REMARK SMILES IDX 46 71 48 72 41 73 42 74 43 75 44 76 45 77 71 78 72 79 81 80
REMARK SMILES IDX 73 81 74 82 80 83 82 84 75 85 76 86 77 87 78 88 79 89 55 90
REMARK SMILES IDX 56 91 65 92 57 93 58 94 64 95 66 96 59 97 60 98 61 99 62 100
REMARK SMILES IDX 63 101
REMARK H PARENT 18 7 7 12 12 22 12 23 25 32 87 51 53 62
REMARK Flexibility Score: inf
ROOT
ATOM      1  C   UNL     1      -4.054  -3.788   3.796  1.00  0.00     0.002 C 
ENDROOT
BRANCH   1   2
ATOM      2  C   UNL     1      -3.619  -2.408   3.296  1.00  0.00     0.021 C 
BRANCH   2   3
ATOM      3  C   UNL     1      -3.245  -2.359   1.606  1.00  0.00     0.116 C 
BRANCH   3   4
ATOM      4  N   UNL     1      -4.352  -1.713  -0.030  1.00  0.00    -0.351 N 
ATOM      5  C   UNL     1      -4.597  -0.950  -1.178  1.00  0.00     0.278 C 
ATOM      6  O   UNL     1      -5.471  -1.454  -1.914  1.00  0.00    -0.268 OA
ATOM      7  H   UNL     1      -5.173  -2.250   0.046  1.00  0.00     0.163 HD
BRANCH   5   8
ATOM      8  C   UNL     1      -4.027   0.416  -1.621  1.00  0.00     0.282 C 
BRANCH   8   9
ATOM      9  C   UNL     1      -2.518   0.497  -1.977  1.00  0.00     0.175 C 
BRANCH   9  10
ATOM     10  C   UNL     1      -1.780  -0.787  -2.370  1.00  0.00     0.230 C 
ATOM     11  N   UNL     1      -1.670  -1.859  -1.526  1.00  0.00    -0.326 N 
ATOM     12  H   UNL     1      -1.041  -2.574  -1.775  1.00  0.00     0.169 HD
ATOM     13  O   UNL     1      -1.238  -0.873  -3.478  1.00  0.00    -0.274 OA
BRANCH  11  14
ATOM     14  C   UNL     1      -2.386  -2.010  -0.336  1.00  0.00     0.041 A 
ATOM     15  C   UNL     1      -5.759  -4.746   0.876  1.00  0.00     0.044 C 
ATOM     16  C   UNL     1      -4.865  -3.546   0.823  1.00  0.00    -0.049 A 
ATOM     17  C   UNL     1      -5.371  -2.035   1.690  1.00  0.00     0.003 A 
ATOM     18  C   UNL     1      -3.401  -3.513  -0.247  1.00  0.00     0.029 A 
ATOM     19  C   UNL     1      -4.313  -0.554   1.643  1.00  0.00     0.002 A 
ATOM     20  C   UNL     1      -2.816  -0.533   0.640  1.00  0.00     0.026 A 
ENDBRANCH  11  14
ENDBRANCH   9  10
ENDBRANCH   8   9
BRANCH   8  21
ATOM     21  N   UNL     1      -4.546   1.562  -0.784  1.00  0.00    -0.334 N 
ATOM     22  H   UNL     1      -4.627   2.380  -1.389  1.00  0.00     0.347 HD
ATOM     23  H   UNL     1      -3.877   1.672  -0.022  1.00  0.00     0.347 HD
BRANCH  21  24
ATOM     24  C   UNL     1      -5.862   1.346  -0.135  1.00  0.00     0.176 C 
ATOM     25  C   UNL     1      -6.009   2.284   1.072  1.00  0.00     0.075 C 
ATOM     26  C   UNL     1      -7.098   1.397  -1.023  1.00  0.00     0.075 C 
ENDBRANCH  21  24
ENDBRANCH   8  21
ENDBRANCH   5   8
ENDBRANCH   3   4
ENDBRANCH   2   3
ENDBRANCH   1   2
BRANCH   1  27
ATOM     27  C   UNL     1      -3.123  -4.934   3.391  1.00  0.00     0.002 C 
BRANCH  27  28
ATOM     28  C   UNL     1      -1.641  -4.752   3.751  1.00  0.00     0.021 C 
BRANCH  28  29
ATOM     29  C   UNL     1      -1.349  -4.604   5.235  1.00  0.00     0.116 C 
BRANCH  29  30
ATOM     30  N   UNL     1      -2.078  -5.545   6.064  1.00  0.00    -0.352 N 
ATOM     31  C   UNL     1      -1.998  -5.464   7.442  1.00  0.00     0.251 C 
ATOM     32  H   UNL     1      -2.631  -6.243   5.644  1.00  0.00     0.163 HD
ATOM     33  O   UNL     1      -0.999  -5.654   8.117  1.00  0.00    -0.269 OA
BRANCH  31  34
ATOM     34  C   UNL     1      -3.213  -4.846   8.011  1.00  0.00     0.039 A 
ATOM     35  C   UNL     1      -3.945  -5.347   9.085  1.00  0.00     0.014 A 
ATOM     36  C   UNL     1      -3.603  -3.674   7.365  1.00  0.00     0.014 A 
ATOM     37  C   UNL     1      -5.127  -4.697   9.444  1.00  0.00     0.010 A 
ATOM     38  C   UNL     1      -4.798  -3.105   7.624  1.00  0.00     0.010 A 
ATOM     39  C   UNL     1      -5.552  -3.619   8.665  1.00  0.00    -0.014 A 
BRANCH  39  40
ATOM     40  C   UNL     1      -6.657  -2.733   8.929  1.00  0.00     0.031 A 
ATOM     41  C   UNL     1      -6.382  -1.701   9.939  1.00  0.00     0.074 A 
ATOM     42  C   UNL     1      -7.625  -2.754   7.987  1.00  0.00     0.049 A 
ATOM     43  N   UNL     1      -7.240  -1.220  10.757  1.00  0.00    -0.248 NA
ATOM     44  C   UNL     1      -5.030  -1.173  10.177  1.00  0.00     0.031 C 
ATOM     45  C   UNL     1      -8.685  -1.816   7.665  1.00  0.00     0.029 A 
ATOM     46  N   UNL     1      -7.882  -3.837   7.139  1.00  0.00    -0.354 N 
ATOM     47  C   UNL     1      -6.683  -0.051  11.242  1.00  0.00     0.074 A 
ATOM     48  C   UNL     1      -5.265  -0.208  11.071  1.00  0.00     0.031 C 
ATOM     49  C   UNL     1      -9.655  -2.483   7.001  1.00  0.00     0.029 A 
ATOM     50  C   UNL     1      -9.269  -3.891   6.952  1.00  0.00     0.049 A 
ATOM     51  H   UNL     1      -7.215  -4.447   6.748  1.00  0.00     0.167 HD
ATOM     52  C   UNL     1      -7.507   1.018  11.444  1.00  0.00     0.037 A 
ATOM     53  C   UNL     1      -9.933  -4.922   7.562  1.00  0.00     0.037 A 
ATOM     54  C   UNL     1      -8.855   0.644  11.003  1.00  0.00     0.049 A 
ATOM     55  C   UNL     1     -10.704  -4.421   8.760  1.00  0.00     0.074 A 
ATOM     56  C   UNL     1      -9.535   0.888   9.821  1.00  0.00     0.029 A 
ATOM     57  N   UNL     1      -9.507  -0.413  11.623  1.00  0.00    -0.354 N 
ATOM     58  N   UNL     1     -10.376  -3.365   9.457  1.00  0.00    -0.248 NA
ATOM     59  C   UNL     1     -11.963  -5.015   9.195  1.00  0.00     0.031 C 
ATOM     60  C   UNL     1     -10.568  -0.081   9.709  1.00  0.00     0.029 A 
ATOM     61  C   UNL     1     -10.502  -0.919  10.810  1.00  0.00     0.049 A 
ATOM     62  H   UNL     1      -9.290  -0.755  12.521  1.00  0.00     0.167 HD
ATOM     63  C   UNL     1     -11.347  -3.116  10.390  1.00  0.00     0.074 A 
ATOM     64  C   UNL     1     -12.319  -4.174  10.180  1.00  0.00     0.031 C 
ATOM     65  C   UNL     1     -11.299  -2.054  11.249  1.00  0.00     0.037 A 
BRANCH  52  66
ATOM     66  C   UNL     1      -7.115   2.462  11.702  1.00  0.00     0.058 A 
ATOM     67  C   UNL     1      -8.084   3.482  11.546  1.00  0.00     0.135 A 
ATOM     68  C   UNL     1      -5.849   2.926  12.117  1.00  0.00     0.135 A 
ATOM     69  F   UNL     1      -9.353   3.204  11.217  1.00  0.00    -0.206 F 
ATOM     70  C   UNL     1      -7.814   4.836  11.733  1.00  0.00     0.059 A 
ATOM     71  C   UNL     1      -5.548   4.284  12.294  1.00  0.00     0.059 A 
ATOM     72  F   UNL     1      -4.851   2.089  12.418  1.00  0.00    -0.206 F 
ATOM     73  C   UNL     1      -6.540   5.233  12.101  1.00  0.00     0.060 A 
BRANCH  73  74
ATOM     74  S   UNL     1      -6.236   6.987  12.371  1.00  0.00     0.124 S 
ATOM     75  O   UNL     1      -6.525   7.550  11.055  1.00  0.00    -0.237 OA
ATOM     76  O   UNL     1      -7.197   7.305  13.422  1.00  0.00    -0.237 OA
ATOM     77  O   UNL     1      -4.833   7.032  12.773  1.00  0.00    -0.744 OA
ENDBRANCH  73  74
ENDBRANCH  52  66
BRANCH  53  78
ATOM     78  C   UNL     1      -9.137  -6.199   7.486  1.00  0.00     0.058 A 
ATOM     79  C   UNL     1      -8.923  -6.735   6.197  1.00  0.00     0.135 A 
ATOM     80  C   UNL     1      -8.216  -6.557   8.485  1.00  0.00     0.135 A 
ATOM     81  F   UNL     1      -9.781  -6.448   5.203  1.00  0.00    -0.206 F 
ATOM     82  C   UNL     1      -7.754  -7.417   5.865  1.00  0.00     0.059 A 
ATOM     83  C   UNL     1      -7.043  -7.258   8.175  1.00  0.00     0.059 A 
ATOM     84  F   UNL     1      -8.359  -6.098   9.736  1.00  0.00    -0.206 F 
ATOM     85  C   UNL     1      -6.788  -7.612   6.850  1.00  0.00     0.060 A 
BRANCH  85  86
ATOM     86  S   UNL     1      -5.145  -8.165   6.335  1.00  0.00     0.124 S 
ATOM     87  O   UNL     1      -5.441  -9.430   5.671  1.00  0.00    -0.237 OA
ATOM     88  O   UNL     1      -4.725  -7.070   5.462  1.00  0.00    -0.237 OA
ATOM     89  O   UNL     1      -4.403  -8.266   7.585  1.00  0.00    -0.744 OA
ENDBRANCH  85  86
ENDBRANCH  53  78
BRANCH  65  90
ATOM     90  C   UNL     1     -12.087  -1.939  12.535  1.00  0.00     0.058 A 
ATOM     91  C   UNL     1     -12.662  -3.035  13.197  1.00  0.00     0.135 A 
ATOM     92  C   UNL     1     -12.173  -0.703  13.229  1.00  0.00     0.135 A 
ATOM     93  F   UNL     1     -12.509  -4.290  12.754  1.00  0.00    -0.206 F 
ATOM     94  C   UNL     1     -13.391  -2.896  14.374  1.00  0.00     0.059 A 
ATOM     95  C   UNL     1     -12.811  -0.562  14.454  1.00  0.00     0.059 A 
ATOM     96  F   UNL     1     -11.630   0.426  12.753  1.00  0.00    -0.206 F 
ATOM     97  C   UNL     1     -13.469  -1.653  14.989  1.00  0.00     0.060 A 
BRANCH  97  98
ATOM     98  S   UNL     1     -14.433  -1.480  16.492  1.00  0.00     0.124 S 
ATOM     99  O   UNL     1     -15.789  -1.432  15.955  1.00  0.00    -0.237 OA
ATOM    100  O   UNL     1     -14.086  -2.691  17.230  1.00  0.00    -0.237 OA
ATOM    101  O   UNL     1     -13.940  -0.235  17.072  1.00  0.00    -0.744 OA
ENDBRANCH  97  98
ENDBRANCH  65  90
ENDBRANCH  39  40
ENDBRANCH  31  34
ENDBRANCH  29  30
ENDBRANCH  28  29
ENDBRANCH  27  28
ENDBRANCH   1  27
TORSDOF 21
