REMARK SMILES CC(C)CN(C)c1ccc([N+](=O)[O-])cc1C(=O)NCCCCCCNC(=O)c1ccc(-c2c3nc(c(-c4c(F)cc(S(=O)(=O)[O-])cc4F)c4ccc([nH]4)c(-c4c(F)cc(S(=O)(=O)[O-])cc4F)c4nc(c(-c5c(F)cc(S(=O)(=O)[O-])cc5F)c5ccc2[nH]5)C=C4)C=C3)cc1
REMARK SMILES IDX 21 1 20 2 19 3 18 4 16 5 17 6 15 8 7 9 8 10 9 11 14 12 10 13
REMARK SMILES IDX 5 14 6 15 4 16 2 17 1 18 3 19 11 20 12 21 13 22 22 23 23 24
REMARK SMILES IDX 24 25 25 26 26 27 27 29 28 30 29 31 93 32 30 33 92 34 31 35
REMARK SMILES IDX 32 36 33 37 86 38 34 39 91 40 85 41 87 42 35 43 90 44 84 45
REMARK SMILES IDX 83 46 36 48 70 49 49 50 69 51 50 52 53 53 68 54 88 55 51 56
REMARK SMILES IDX 52 57 67 59 89 60 54 61 37 62 38 63 47 64 39 65 40 66 46 67
REMARK SMILES IDX 48 68 41 69 42 70 43 71 44 72 45 73 71 74 72 75 81 76 73 77
REMARK SMILES IDX 74 78 80 79 82 80 75 81 76 82 77 83 78 84 79 85 55 86 56 87
REMARK SMILES IDX 65 88 57 89 58 90 64 91 66 92 59 93 60 94 61 95 62 96 63 97
REMARK H PARENT 18 7 25 28 87 47 53 58
REMARK Flexibility Score: inf
ROOT
ATOM      1  C   UNL     1       0.760   2.009  -4.378  1.00  0.00     0.002 C 
ENDROOT
BRANCH   1   2
ATOM      2  C   UNL     1       0.232   3.061  -3.388  1.00  0.00     0.021 C 
BRANCH   2   3
ATOM      3  C   UNL     1      -0.025   2.556  -1.970  1.00  0.00     0.116 C 
BRANCH   3   4
ATOM      4  N   UNL     1       1.167   2.191  -1.240  1.00  0.00    -0.352 N 
ATOM      5  C   UNL     1       1.321   1.724   0.043  1.00  0.00     0.253 C 
ATOM      6  O   UNL     1       2.476   1.470   0.401  1.00  0.00    -0.269 OA
ATOM      7  H   UNL     1       2.006   2.293  -1.745  1.00  0.00     0.163 HD
BRANCH   5   8
ATOM      8  C   UNL     1       0.220   1.557   1.055  1.00  0.00     0.069 A 
ATOM      9  C   UNL     1      -1.099   1.079   0.844  1.00  0.00     0.050 A 
ATOM     10  C   UNL     1      -1.973   1.026   1.960  1.00  0.00     0.034 A 
ATOM     11  C   UNL     1      -1.560   1.331   3.255  1.00  0.00     0.088 A 
ATOM     12  C   UNL     1       0.645   1.818   2.384  1.00  0.00     0.101 A 
ATOM     13  C   UNL     1      -0.233   1.682   3.465  1.00  0.00     0.270 A 
BRANCH   9  14
ATOM     14  N   UNL     1      -1.576   0.580  -0.373  1.00  0.00    -0.374 N 
ATOM     15  C   UNL     1      -2.868   1.131  -0.815  1.00  0.00     0.143 C 
BRANCH  14  16
ATOM     16  C   UNL     1      -1.357  -0.854  -0.691  1.00  0.00     0.119 C 
BRANCH  16  17
ATOM     17  C   UNL     1       0.121  -1.259  -0.871  1.00  0.00     0.002 C 
ATOM     18  C   UNL     1       0.743  -1.783   0.427  1.00  0.00     0.009 C 
ATOM     19  C   UNL     1       0.283  -2.335  -1.952  1.00  0.00     0.009 C 
ENDBRANCH  16  17
ENDBRANCH  14  16
ENDBRANCH   9  14
BRANCH  13  20
ATOM     20  N   UNL     1       0.253   1.860   4.836  1.00  0.00     0.062 N 
ATOM     21  O   UNL     1      -0.588   2.085   5.718  1.00  0.00    -0.258 OA
ATOM     22  O   UNL     1       1.470   1.752   5.035  1.00  0.00    -0.258 OA
ENDBRANCH  13  20
ENDBRANCH   5   8
ENDBRANCH   3   4
ENDBRANCH   2   3
ENDBRANCH   1   2
BRANCH   1  23
ATOM     23  C   UNL     1      -0.014   0.691  -4.498  1.00  0.00     0.002 C 
BRANCH  23  24
ATOM     24  C   UNL     1      -1.511   0.766  -4.797  1.00  0.00     0.021 C 
BRANCH  24  25
ATOM     25  C   UNL     1      -1.935   1.620  -5.984  1.00  0.00     0.116 C 
BRANCH  25  26
ATOM     26  N   UNL     1      -1.323   1.234  -7.240  1.00  0.00    -0.352 N 
ATOM     27  C   UNL     1      -1.862   1.198  -8.508  1.00  0.00     0.251 C 
ATOM     28  H   UNL     1      -0.381   0.955  -7.178  1.00  0.00     0.163 HD
ATOM     29  O   UNL     1      -1.180   0.792  -9.439  1.00  0.00    -0.269 OA
BRANCH  27  30
ATOM     30  C   UNL     1      -3.273   1.600  -8.744  1.00  0.00     0.039 A 
ATOM     31  C   UNL     1      -4.045   0.830  -9.621  1.00  0.00     0.014 A 
ATOM     32  C   UNL     1      -3.843   2.714  -8.124  1.00  0.00     0.014 A 
ATOM     33  C   UNL     1      -5.398   1.131  -9.815  1.00  0.00     0.010 A 
ATOM     34  C   UNL     1      -5.209   2.966  -8.255  1.00  0.00     0.010 A 
ATOM     35  C   UNL     1      -6.003   2.177  -9.101  1.00  0.00    -0.014 A 
BRANCH  35  36
ATOM     36  C   UNL     1      -7.460   2.459  -9.222  1.00  0.00     0.031 A 
ATOM     37  C   UNL     1      -7.934   3.785  -9.758  1.00  0.00     0.074 A 
ATOM     38  C   UNL     1      -8.356   1.553  -8.777  1.00  0.00     0.049 A 
ATOM     39  N   UNL     1      -9.155   4.248  -9.854  1.00  0.00    -0.248 NA
ATOM     40  C   UNL     1      -6.901   4.728 -10.217  1.00  0.00     0.031 C 
ATOM     41  C   UNL     1      -8.026   0.256  -8.182  1.00  0.00     0.029 A 
ATOM     42  N   UNL     1      -9.729   1.591  -8.739  1.00  0.00    -0.354 N 
ATOM     43  C   UNL     1      -9.034   5.540 -10.352  1.00  0.00     0.074 A 
ATOM     44  C   UNL     1      -7.620   5.803 -10.504  1.00  0.00     0.031 C 
ATOM     45  C   UNL     1      -9.162  -0.382  -7.853  1.00  0.00     0.029 A 
ATOM     46  C   UNL     1     -10.300   0.471  -8.179  1.00  0.00     0.049 A 
ATOM     47  H   UNL     1     -10.255   2.349  -9.081  1.00  0.00     0.167 HD
ATOM     48  C   UNL     1     -10.013   6.420 -10.671  1.00  0.00     0.037 A 
ATOM     49  C   UNL     1     -11.592   0.169  -7.944  1.00  0.00     0.037 A 
ATOM     50  C   UNL     1     -11.420   6.133 -10.573  1.00  0.00     0.049 A 
ATOM     51  C   UNL     1     -12.661   1.152  -8.343  1.00  0.00     0.074 A 
ATOM     52  C   UNL     1     -12.487   6.922 -10.969  1.00  0.00     0.029 A 
ATOM     53  N   UNL     1     -11.958   4.969 -10.046  1.00  0.00    -0.354 N 
ATOM     54  N   UNL     1     -12.528   2.334  -8.895  1.00  0.00    -0.248 NA
ATOM     55  C   UNL     1     -14.055   0.758  -8.096  1.00  0.00     0.031 C 
ATOM     56  C   UNL     1     -13.670   6.253 -10.642  1.00  0.00     0.029 A 
ATOM     57  C   UNL     1     -13.341   5.029 -10.084  1.00  0.00     0.049 A 
ATOM     58  H   UNL     1     -11.434   4.212  -9.697  1.00  0.00     0.167 HD
ATOM     59  C   UNL     1     -13.820   2.811  -9.087  1.00  0.00     0.074 A 
ATOM     60  C   UNL     1     -14.721   1.786  -8.604  1.00  0.00     0.031 C 
ATOM     61  C   UNL     1     -14.225   3.992  -9.616  1.00  0.00     0.037 A 
BRANCH  48  62
ATOM     62  C   UNL     1      -9.608   7.781 -11.167  1.00  0.00     0.058 A 
ATOM     63  C   UNL     1      -9.061   7.969 -12.446  1.00  0.00     0.135 A 
ATOM     64  C   UNL     1      -9.837   8.921 -10.379  1.00  0.00     0.135 A 
ATOM     65  F   UNL     1      -8.807   6.912 -13.234  1.00  0.00    -0.206 F 
ATOM     66  C   UNL     1      -8.741   9.237 -12.920  1.00  0.00     0.059 A 
ATOM     67  C   UNL     1      -9.549  10.201 -10.843  1.00  0.00     0.059 A 
ATOM     68  F   UNL     1     -10.357   8.797  -9.147  1.00  0.00    -0.206 F 
ATOM     69  C   UNL     1      -8.992  10.347 -12.113  1.00  0.00     0.060 A 
BRANCH  69  70
ATOM     70  S   UNL     1      -8.601  11.988 -12.756  1.00  0.00     0.124 S 
ATOM     71  O   UNL     1      -7.144  11.991 -12.678  1.00  0.00    -0.237 OA
ATOM     72  O   UNL     1      -9.163  11.938 -14.102  1.00  0.00    -0.237 OA
ATOM     73  O   UNL     1      -9.281  12.888 -11.829  1.00  0.00    -0.744 OA
ENDBRANCH  69  70
ENDBRANCH  48  62
BRANCH  49  74
ATOM     74  C   UNL     1     -11.958  -1.124  -7.305  1.00  0.00     0.058 A 
ATOM     75  C   UNL     1     -12.619  -2.127  -8.030  1.00  0.00     0.135 A 
ATOM     76  C   UNL     1     -11.676  -1.375  -5.953  1.00  0.00     0.135 A 
ATOM     77  F   UNL     1     -12.916  -1.933  -9.325  1.00  0.00    -0.206 F 
ATOM     78  C   UNL     1     -13.018  -3.319  -7.432  1.00  0.00     0.059 A 
ATOM     79  C   UNL     1     -12.040  -2.569  -5.340  1.00  0.00     0.059 A 
ATOM     80  F   UNL     1     -11.028  -0.457  -5.219  1.00  0.00    -0.206 F 
ATOM     81  C   UNL     1     -12.727  -3.528  -6.083  1.00  0.00     0.060 A 
BRANCH  81  82
ATOM     82  S   UNL     1     -13.231  -5.084  -5.317  1.00  0.00     0.124 S 
ATOM     83  O   UNL     1     -14.664  -4.875  -5.147  1.00  0.00    -0.237 OA
ATOM     84  O   UNL     1     -12.841  -6.065  -6.324  1.00  0.00    -0.237 OA
ATOM     85  O   UNL     1     -12.446  -5.117  -4.086  1.00  0.00    -0.744 OA
ENDBRANCH  81  82
ENDBRANCH  49  74
BRANCH  61  86
ATOM     86  C   UNL     1     -15.704   4.226  -9.741  1.00  0.00     0.058 A 
ATOM     87  C   UNL     1     -16.504   4.505  -8.623  1.00  0.00     0.135 A 
ATOM     88  C   UNL     1     -16.317   4.225 -11.004  1.00  0.00     0.135 A 
ATOM     89  F   UNL     1     -15.967   4.511  -7.392  1.00  0.00    -0.206 F 
ATOM     90  C   UNL     1     -17.866   4.754  -8.749  1.00  0.00     0.059 A 
ATOM     91  C   UNL     1     -17.673   4.498 -11.157  1.00  0.00     0.059 A 
ATOM     92  F   UNL     1     -15.594   3.975 -12.107  1.00  0.00    -0.206 F 
ATOM     93  C   UNL     1     -18.442   4.750 -10.022  1.00  0.00     0.060 A 
BRANCH  93  94
ATOM     94  S   UNL     1     -20.204   5.111 -10.178  1.00  0.00     0.124 S 
ATOM     95  O   UNL     1     -20.801   3.862  -9.716  1.00  0.00    -0.237 OA
ATOM     96  O   UNL     1     -20.368   6.258  -9.291  1.00  0.00    -0.237 OA
ATOM     97  O   UNL     1     -20.367   5.397 -11.600  1.00  0.00    -0.744 OA
ENDBRANCH  93  94
ENDBRANCH  61  86
ENDBRANCH  35  36
ENDBRANCH  27  30
ENDBRANCH  25  26
ENDBRANCH  24  25
ENDBRANCH  23  24
ENDBRANCH   1  23
TORSDOF 20
