REMARK SMILES CN(Cc1ccc(Cl)cc1Cl)S(=O)(=O)CCCC(=O)NCCCCCCNC(=O)c1ccc(-c2c3nc(c(-c4c(F)cc(S(=O)(=O)[O-])cc4F)c4ccc([nH]4)c(-c4c(F)cc(S(=O)(=O)[O-])cc4F)c4nc(c(-c5c(F)cc(S(=O)(=O)[O-])cc5F)c5ccc2[nH]5)C=C4)C=C3)cc1
REMARK SMILES IDX 22 1 21 2 20 3 18 4 19 5 17 7 16 8 15 9 12 10 13 11 14 12
REMARK SMILES IDX 2 13 1 14 3 15 4 16 5 17 10 18 6 19 9 20 11 21 7 22 8 23
REMARK SMILES IDX 23 24 24 25 25 26 26 27 27 28 28 29 29 31 30 32 31 33 95 34
REMARK SMILES IDX 32 35 94 36 33 37 34 38 35 39 88 40 36 41 93 42 87 43 89 44
REMARK SMILES IDX 37 45 92 46 86 47 85 48 38 50 72 51 51 52 71 53 52 54 55 55
REMARK SMILES IDX 70 56 90 57 53 58 54 59 69 61 91 62 56 63 39 64 40 65 49 66
REMARK SMILES IDX 41 67 42 68 48 69 50 70 43 71 44 72 45 73 46 74 47 75 73 76
REMARK SMILES IDX 74 77 83 78 75 79 76 80 82 81 84 82 77 83 78 84 79 85 80 86
REMARK SMILES IDX 81 87 57 88 58 89 67 90 59 91 60 92 66 93 68 94 61 95 62 96
REMARK SMILES IDX 63 97 64 98 65 99
REMARK H PARENT 20 6 27 30 89 49 55 60
REMARK Flexibility Score: inf
ROOT
ATOM      1  C   UNL     1      -2.339  -1.934   4.258  1.00  0.00     0.021 C 
ENDROOT
BRANCH   1   2
ATOM      2  C   UNL     1      -2.038  -0.626   3.538  1.00  0.00     0.116 C 
BRANCH   2   3
ATOM      3  N   UNL     1      -2.091   0.535   4.389  1.00  0.00    -0.356 N 
ATOM      4  C   UNL     1      -1.204   1.555   4.545  1.00  0.00     0.220 C 
ATOM      5  O   UNL     1      -1.573   2.530   5.206  1.00  0.00    -0.275 OA
ATOM      6  H   UNL     1      -2.899   0.602   4.948  1.00  0.00     0.163 HD
BRANCH   4   7
ATOM      7  C   UNL     1       0.181   1.538   3.908  1.00  0.00     0.101 C 
BRANCH   7   8
ATOM      8  C   UNL     1       1.165   0.516   4.465  1.00  0.00     0.027 C 
BRANCH   8   9
ATOM      9  C   UNL     1       1.405  -0.769   3.679  1.00  0.00     0.155 C 
BRANCH   9  10
ATOM     10  S   UNL     1       2.240  -0.672   2.099  1.00  0.00     0.214 S 
ATOM     11  O   UNL     1       2.440  -2.046   1.676  1.00  0.00    -0.212 OA
ATOM     12  O   UNL     1       3.399   0.169   2.303  1.00  0.00    -0.212 OA
BRANCH  10  13
ATOM     13  N   UNL     1       1.323   0.075   0.912  1.00  0.00    -0.201 NA
ATOM     14  C   UNL     1       2.069   0.241  -0.369  1.00  0.00     0.124 C 
BRANCH  13  15
ATOM     15  C   UNL     1      -0.130  -0.027   0.638  1.00  0.00     0.138 C 
BRANCH  15  16
ATOM     16  C   UNL     1      -0.745  -1.201  -0.099  1.00  0.00    -0.014 A 
ATOM     17  C   UNL     1      -0.265  -2.507   0.050  1.00  0.00     0.008 A 
ATOM     18  C   UNL     1      -1.889  -1.031  -0.915  1.00  0.00     0.047 A 
ATOM     19  C   UNL     1      -0.828  -3.582  -0.651  1.00  0.00     0.021 A 
ATOM     20  C   UNL     1      -2.456  -2.103  -1.619  1.00  0.00     0.041 A 
ATOM     21  Cl  UNL     1      -2.697   0.495  -1.062  1.00  0.00    -0.084 Cl
ATOM     22  C   UNL     1      -1.911  -3.373  -1.493  1.00  0.00     0.042 A 
ATOM     23  Cl  UNL     1      -2.615  -4.701  -2.326  1.00  0.00    -0.084 Cl
ENDBRANCH  15  16
ENDBRANCH  13  15
ENDBRANCH  10  13
ENDBRANCH   9  10
ENDBRANCH   8   9
ENDBRANCH   7   8
ENDBRANCH   4   7
ENDBRANCH   2   3
ENDBRANCH   1   2
BRANCH   1  24
ATOM     24  C   UNL     1      -3.774  -2.418   4.044  1.00  0.00     0.002 C 
BRANCH  24  25
ATOM     25  C   UNL     1      -4.146  -2.737   2.589  1.00  0.00     0.002 C 
BRANCH  25  26
ATOM     26  C   UNL     1      -3.264  -3.777   1.898  1.00  0.00     0.021 C 
BRANCH  26  27
ATOM     27  C   UNL     1      -3.300  -5.173   2.505  1.00  0.00     0.116 C 
BRANCH  27  28
ATOM     28  N   UNL     1      -4.613  -5.778   2.364  1.00  0.00    -0.352 N 
ATOM     29  C   UNL     1      -5.018  -6.861   1.624  1.00  0.00     0.251 C 
ATOM     30  H   UNL     1      -5.327  -5.341   2.882  1.00  0.00     0.163 HD
ATOM     31  O   UNL     1      -6.220  -7.029   1.428  1.00  0.00    -0.269 OA
BRANCH  29  32
ATOM     32  C   UNL     1      -4.036  -7.820   1.063  1.00  0.00     0.039 A 
ATOM     33  C   UNL     1      -4.309  -8.412  -0.174  1.00  0.00     0.014 A 
ATOM     34  C   UNL     1      -2.886  -8.190   1.766  1.00  0.00     0.014 A 
ATOM     35  C   UNL     1      -3.413  -9.335  -0.720  1.00  0.00     0.010 A 
ATOM     36  C   UNL     1      -1.950  -9.041   1.180  1.00  0.00     0.010 A 
ATOM     37  C   UNL     1      -2.208  -9.635  -0.063  1.00  0.00    -0.014 A 
BRANCH  37  38
ATOM     38  C   UNL     1      -1.213 -10.561  -0.667  1.00  0.00     0.031 A 
ATOM     39  C   UNL     1      -0.833 -11.840   0.032  1.00  0.00     0.074 A 
ATOM     40  C   UNL     1      -0.608 -10.222  -1.822  1.00  0.00     0.049 A 
ATOM     41  N   UNL     1       0.049 -12.743  -0.317  1.00  0.00    -0.248 NA
ATOM     42  C   UNL     1      -1.514 -12.130   1.303  1.00  0.00     0.031 C 
ATOM     43  C   UNL     1      -0.849  -8.984  -2.568  1.00  0.00     0.029 A 
ATOM     44  N   UNL     1       0.341 -10.878  -2.566  1.00  0.00    -0.354 N 
ATOM     45  C   UNL     1       0.033 -13.701   0.691  1.00  0.00     0.074 A 
ATOM     46  C   UNL     1      -0.898 -13.235   1.696  1.00  0.00     0.031 C 
ATOM     47  C   UNL     1      -0.084  -8.979  -3.670  1.00  0.00     0.029 A 
ATOM     48  C   UNL     1       0.734 -10.188  -3.688  1.00  0.00     0.049 A 
ATOM     49  H   UNL     1       0.705 -11.758  -2.319  1.00  0.00     0.167 HD
ATOM     50  C   UNL     1       0.712 -14.873   0.762  1.00  0.00     0.037 A 
ATOM     51  C   UNL     1       1.660 -10.485  -4.621  1.00  0.00     0.037 A 
ATOM     52  C   UNL     1       1.635 -15.330  -0.246  1.00  0.00     0.049 A 
ATOM     53  C   UNL     1       2.416 -11.780  -4.519  1.00  0.00     0.074 A 
ATOM     54  C   UNL     1       2.333 -16.523  -0.296  1.00  0.00     0.029 A 
ATOM     55  N   UNL     1       1.998 -14.608  -1.375  1.00  0.00    -0.354 N 
ATOM     56  N   UNL     1       2.334 -12.710  -3.597  1.00  0.00    -0.248 NA
ATOM     57  C   UNL     1       3.385 -12.071  -5.584  1.00  0.00     0.031 C 
ATOM     58  C   UNL     1       3.162 -16.498  -1.424  1.00  0.00     0.029 A 
ATOM     59  C   UNL     1       2.936 -15.315  -2.111  1.00  0.00     0.049 A 
ATOM     60  H   UNL     1       1.643 -13.722  -1.617  1.00  0.00     0.167 HD
ATOM     61  C   UNL     1       3.232 -13.702  -3.975  1.00  0.00     0.074 A 
ATOM     62  C   UNL     1       3.829 -13.268  -5.222  1.00  0.00     0.031 C 
ATOM     63  C   UNL     1       3.535 -14.865  -3.345  1.00  0.00     0.037 A 
BRANCH  50  64
ATOM     64  C   UNL     1       0.482 -15.734   1.978  1.00  0.00     0.058 A 
ATOM     65  C   UNL     1      -0.755 -16.355   2.222  1.00  0.00     0.135 A 
ATOM     66  C   UNL     1       1.509 -15.946   2.912  1.00  0.00     0.135 A 
ATOM     67  F   UNL     1      -1.778 -16.183   1.369  1.00  0.00    -0.206 F 
ATOM     68  C   UNL     1      -0.982 -17.106   3.371  1.00  0.00     0.059 A 
ATOM     69  C   UNL     1       1.316 -16.722   4.052  1.00  0.00     0.059 A 
ATOM     70  F   UNL     1       2.715 -15.385   2.730  1.00  0.00    -0.206 F 
ATOM     71  C   UNL     1       0.059 -17.278   4.285  1.00  0.00     0.060 A 
BRANCH  71  72
ATOM     72  S   UNL     1      -0.263 -18.224   5.788  1.00  0.00     0.124 S 
ATOM     73  O   UNL     1      -1.105 -17.297   6.539  1.00  0.00    -0.237 OA
ATOM     74  O   UNL     1      -0.934 -19.412   5.272  1.00  0.00    -0.237 OA
ATOM     75  O   UNL     1       1.069 -18.449   6.341  1.00  0.00    -0.744 OA
ENDBRANCH  71  72
ENDBRANCH  50  64
BRANCH  51  76
ATOM     76  C   UNL     1       1.908  -9.526  -5.731  1.00  0.00     0.058 A 
ATOM     77  C   UNL     1       1.496  -9.808  -7.041  1.00  0.00     0.135 A 
ATOM     78  C   UNL     1       2.507  -8.279  -5.488  1.00  0.00     0.135 A 
ATOM     79  F   UNL     1       0.928 -10.989  -7.326  1.00  0.00    -0.206 F 
ATOM     80  C   UNL     1       1.665  -8.887  -8.071  1.00  0.00     0.059 A 
ATOM     81  C   UNL     1       2.662  -7.332  -6.495  1.00  0.00     0.059 A 
ATOM     82  F   UNL     1       2.904  -7.954  -4.247  1.00  0.00    -0.206 F 
ATOM     83  C   UNL     1       2.239  -7.647  -7.785  1.00  0.00     0.060 A 
BRANCH  83  84
ATOM     84  S   UNL     1       2.371  -6.427  -9.110  1.00  0.00     0.124 S 
ATOM     85  O   UNL     1       3.427  -7.000  -9.936  1.00  0.00    -0.237 OA
ATOM     86  O   UNL     1       1.028  -6.452  -9.682  1.00  0.00    -0.237 OA
ATOM     87  O   UNL     1       2.718  -5.198  -8.402  1.00  0.00    -0.744 OA
ENDBRANCH  83  84
ENDBRANCH  51  76
BRANCH  63  88
ATOM     88  C   UNL     1       4.557 -15.758  -3.996  1.00  0.00     0.058 A 
ATOM     89  C   UNL     1       5.920 -15.422  -4.021  1.00  0.00     0.135 A 
ATOM     90  C   UNL     1       4.178 -16.991  -4.553  1.00  0.00     0.135 A 
ATOM     91  F   UNL     1       6.337 -14.253  -3.510  1.00  0.00    -0.206 F 
ATOM     92  C   UNL     1       6.867 -16.265  -4.594  1.00  0.00     0.059 A 
ATOM     93  C   UNL     1       5.111 -17.863  -5.104  1.00  0.00     0.059 A 
ATOM     94  F   UNL     1       2.889 -17.367  -4.548  1.00  0.00    -0.206 F 
ATOM     95  C   UNL     1       6.453 -17.486  -5.130  1.00  0.00     0.060 A 
BRANCH  95  96
ATOM     96  S   UNL     1       7.698 -18.587  -5.835  1.00  0.00     0.124 S 
ATOM     97  O   UNL     1       8.050 -17.884  -7.065  1.00  0.00    -0.237 OA
ATOM     98  O   UNL     1       8.725 -18.601  -4.798  1.00  0.00    -0.237 OA
ATOM     99  O   UNL     1       6.979 -19.844  -6.015  1.00  0.00    -0.744 OA
ENDBRANCH  95  96
ENDBRANCH  63  88
ENDBRANCH  37  38
ENDBRANCH  29  32
ENDBRANCH  27  28
ENDBRANCH  26  27
ENDBRANCH  25  26
ENDBRANCH  24  25
ENDBRANCH   1  24
TORSDOF 22
