REMARK SMILES COC(=O)c1c(NC(=O)[C@@H]2C[C@@H]2C(=O)NCCCCCCNC(=O)c2ccc(-c3c4nc(c(-c5c(F)cc(S(=O)(=O)[O-])cc5F)c5ccc([nH]5)c(-c5c(F)cc(S(=O)(=O)[O-])cc5F)c5nc(c(-c6c(F)cc(S(=O)(=O)[O-])cc6F)c6ccc3[nH]6)C=C5)C=C4)cc2)sc2c1CC[N@@H+](Cc1ccccc1)C2
REMARK SMILES IDX 18 1 17 2 16 3 15 4 13 5 14 6 12 8 10 9 11 10 8 11 7 12 9 14
REMARK SMILES IDX 6 15 5 16 93 17 91 18 92 19 94 20 104 21 95 22 96 23 3 25
REMARK SMILES IDX 4 26 2 27 1 28 97 29 98 30 99 31 103 32 100 33 102 34 101 35
REMARK SMILES IDX 19 36 20 37 21 38 22 39 23 40 24 42 25 43 26 44 90 45 27 46
REMARK SMILES IDX 89 47 28 48 29 49 30 50 83 51 31 52 88 53 82 54 84 55 32 56
REMARK SMILES IDX 87 57 81 58 80 59 33 61 67 62 46 63 66 64 47 65 50 66 65 67
REMARK SMILES IDX 85 68 48 69 49 70 64 72 86 73 51 74 34 75 35 76 44 77 36 78
REMARK SMILES IDX 37 79 43 80 45 81 38 82 39 83 40 84 41 85 42 86 68 87 69 88
REMARK SMILES IDX 78 89 70 90 71 91 77 92 79 93 72 94 73 95 74 96 75 97 76 98
REMARK SMILES IDX 52 99 53 100 62 101 54 102 55 103 61 104 63 105 56 106
REMARK SMILES IDX 57 107 58 108 59 109 60 110
REMARK H PARENT 15 7 7 13 96 24 22 41 84 60 50 71
REMARK Flexibility Score: inf
ROOT
ATOM      1  C   UNL     1      -5.506  -1.885  -1.701  1.00  0.00     0.002 C 
ENDROOT
BRANCH   1   2
ATOM      2  C   UNL     1      -4.760  -1.090  -0.622  1.00  0.00     0.021 C 
BRANCH   2   3
ATOM      3  C   UNL     1      -3.279  -1.438  -0.507  1.00  0.00     0.116 C 
BRANCH   3   4
ATOM      4  N   UNL     1      -2.653  -1.322  -1.804  1.00  0.00    -0.356 N 
ATOM      5  C   UNL     1      -1.757  -0.392  -2.212  1.00  0.00     0.223 C 
ATOM      6  O   UNL     1      -1.478  -0.271  -3.401  1.00  0.00    -0.275 OA
ATOM      7  H   UNL     1      -2.908  -2.000  -2.470  1.00  0.00     0.163 HD
BRANCH   5   8
ATOM      8  C   UNL     1      -0.948   0.272  -1.186  1.00  0.00     0.091 C 
ATOM      9  C   UNL     1      -1.215   1.459  -0.298  1.00  0.00     0.092 C 
ATOM     10  C   UNL     1      -0.394   1.608  -1.555  1.00  0.00     0.028 C 
BRANCH   9  11
ATOM     11  C   UNL     1      -2.361   2.373  -0.191  1.00  0.00     0.228 C 
ATOM     12  N   UNL     1      -2.123   3.725  -0.088  1.00  0.00    -0.317 N 
ATOM     13  H   UNL     1      -2.932   4.284  -0.027  1.00  0.00     0.170 HD
ATOM     14  O   UNL     1      -3.501   1.924  -0.226  1.00  0.00    -0.274 OA
BRANCH  12  15
ATOM     15  C   UNL     1      -0.929   4.426  -0.057  1.00  0.00     0.110 A 
ATOM     16  C   UNL     1       0.397   4.216   0.313  1.00  0.00     0.098 A 
ATOM     17  C   UNL     1       1.224   5.321  -0.129  1.00  0.00    -0.006 A 
ATOM     18  S   UNL     1      -1.174   5.993  -0.708  1.00  0.00    -0.116 S 
ATOM     19  C   UNL     1       0.490   6.297  -0.771  1.00  0.00     0.065 A 
ATOM     20  C   UNL     1       2.713   5.461   0.005  1.00  0.00     0.099 C 
ATOM     21  C   UNL     1       1.058   7.519  -1.426  1.00  0.00     0.310 C 
ATOM     22  C   UNL     1       3.227   6.815  -0.548  1.00  0.00     0.267 C 
ATOM     23  N   UNL     1       2.503   7.390  -1.694  1.00  0.00    -0.326 N 
ATOM     24  H   UNL     1       2.859   8.342  -1.778  1.00  0.00     0.348 HD
BRANCH  16  25
ATOM     25  C   UNL     1       0.910   3.071   1.050  1.00  0.00     0.341 C 
ATOM     26  O   UNL     1       0.442   2.691   2.126  1.00  0.00    -0.246 OA
BRANCH  25  27
ATOM     27  O   UNL     1       1.904   2.417   0.380  1.00  0.00    -0.465 OA
ATOM     28  C   UNL     1       2.161   1.060   0.770  1.00  0.00     0.282 C 
ENDBRANCH  25  27
ENDBRANCH  16  25
BRANCH  23  29
ATOM     29  C   UNL     1       2.853   6.856  -3.015  1.00  0.00     0.299 C 
BRANCH  29  30
ATOM     30  C   UNL     1       2.581   5.395  -3.295  1.00  0.00     0.006 A 
ATOM     31  C   UNL     1       3.597   4.437  -3.152  1.00  0.00     0.009 A 
ATOM     32  C   UNL     1       1.308   4.968  -3.697  1.00  0.00     0.009 A 
ATOM     33  C   UNL     1       3.332   3.080  -3.348  1.00  0.00     0.001 A 
ATOM     34  C   UNL     1       1.049   3.615  -3.910  1.00  0.00     0.001 A 
ATOM     35  C   UNL     1       2.056   2.671  -3.724  1.00  0.00     0.000 A 
ENDBRANCH  29  30
ENDBRANCH  23  29
ENDBRANCH  12  15
ENDBRANCH   9  11
ENDBRANCH   5   8
ENDBRANCH   3   4
ENDBRANCH   2   3
ENDBRANCH   1   2
BRANCH   1  36
ATOM     36  C   UNL     1      -5.327  -3.407  -1.645  1.00  0.00     0.002 C 
BRANCH  36  37
ATOM     37  C   UNL     1      -5.641  -4.069  -0.298  1.00  0.00     0.021 C 
BRANCH  37  38
ATOM     38  C   UNL     1      -7.065  -3.838   0.179  1.00  0.00     0.116 C 
BRANCH  38  39
ATOM     39  N   UNL     1      -8.043  -4.420  -0.735  1.00  0.00    -0.352 N 
ATOM     40  C   UNL     1      -9.417  -4.321  -0.700  1.00  0.00     0.251 C 
ATOM     41  H   UNL     1      -7.672  -4.953  -1.474  1.00  0.00     0.163 HD
ATOM     42  O   UNL     1     -10.109  -5.161  -1.266  1.00  0.00    -0.269 OA
BRANCH  40  43
ATOM     43  C   UNL     1     -10.040  -3.195   0.018  1.00  0.00     0.039 A 
ATOM     44  C   UNL     1     -11.227  -3.368   0.735  1.00  0.00     0.014 A 
ATOM     45  C   UNL     1      -9.424  -1.947  -0.039  1.00  0.00     0.014 A 
ATOM     46  C   UNL     1     -11.747  -2.287   1.442  1.00  0.00     0.010 A 
ATOM     47  C   UNL     1      -9.849  -0.928   0.775  1.00  0.00     0.010 A 
ATOM     48  C   UNL     1     -11.043  -1.072   1.468  1.00  0.00    -0.014 A 
BRANCH  48  49
ATOM     49  C   UNL     1     -11.466   0.021   2.337  1.00  0.00     0.031 A 
ATOM     50  C   UNL     1     -11.542  -0.366   3.772  1.00  0.00     0.074 A 
ATOM     51  C   UNL     1     -11.546   1.306   1.925  1.00  0.00     0.049 A 
ATOM     52  N   UNL     1     -12.601  -0.528   4.492  1.00  0.00    -0.248 NA
ATOM     53  C   UNL     1     -10.304  -0.818   4.433  1.00  0.00     0.031 C 
ATOM     54  C   UNL     1     -11.167   1.867   0.623  1.00  0.00     0.029 A 
ATOM     55  N   UNL     1     -11.892   2.418   2.629  1.00  0.00    -0.354 N 
ATOM     56  C   UNL     1     -12.143  -0.837   5.770  1.00  0.00     0.074 A 
ATOM     57  C   UNL     1     -10.773  -1.239   5.610  1.00  0.00     0.031 C 
ATOM     58  C   UNL     1     -11.084   3.213   0.712  1.00  0.00     0.029 A 
ATOM     59  C   UNL     1     -11.560   3.628   2.019  1.00  0.00     0.049 A 
ATOM     60  H   UNL     1     -12.344   2.372   3.503  1.00  0.00     0.167 HD
ATOM     61  C   UNL     1     -12.848  -0.458   6.874  1.00  0.00     0.037 A 
ATOM     62  C   UNL     1     -11.650   4.869   2.567  1.00  0.00     0.037 A 
ATOM     63  C   UNL     1     -14.198  -0.093   6.509  1.00  0.00     0.049 A 
ATOM     64  C   UNL     1     -12.580   4.757   3.722  1.00  0.00     0.074 A 
ATOM     65  C   UNL     1     -15.245  -0.738   5.878  1.00  0.00     0.029 A 
ATOM     66  N   UNL     1     -14.491   1.248   6.438  1.00  0.00    -0.354 N 
ATOM     67  N   UNL     1     -13.854   4.504   3.607  1.00  0.00    -0.248 NA
ATOM     68  C   UNL     1     -12.002   4.466   5.024  1.00  0.00     0.031 C 
ATOM     69  C   UNL     1     -15.846   0.255   5.048  1.00  0.00     0.029 A 
ATOM     70  C   UNL     1     -15.195   1.467   5.282  1.00  0.00     0.049 A 
ATOM     71  H   UNL     1     -14.239   1.932   7.100  1.00  0.00     0.167 HD
ATOM     72  C   UNL     1     -14.133   3.623   4.641  1.00  0.00     0.074 A 
ATOM     73  C   UNL     1     -12.976   3.707   5.531  1.00  0.00     0.031 C 
ATOM     74  C   UNL     1     -15.132   2.698   4.524  1.00  0.00     0.037 A 
BRANCH  61  75
ATOM     75  C   UNL     1     -12.227  -0.025   8.191  1.00  0.00     0.058 A 
ATOM     76  C   UNL     1     -13.080   0.315   9.265  1.00  0.00     0.135 A 
ATOM     77  C   UNL     1     -10.872   0.338   8.367  1.00  0.00     0.135 A 
ATOM     78  F   UNL     1     -14.388   0.014   9.223  1.00  0.00    -0.206 F 
ATOM     79  C   UNL     1     -12.642   1.040  10.374  1.00  0.00     0.059 A 
ATOM     80  C   UNL     1     -10.405   1.015   9.489  1.00  0.00     0.059 A 
ATOM     81  F   UNL     1      -9.939   0.140   7.431  1.00  0.00    -0.206 F 
ATOM     82  C   UNL     1     -11.303   1.399  10.468  1.00  0.00     0.060 A 
BRANCH  82  83
ATOM     83  S   UNL     1     -10.750   2.406  11.853  1.00  0.00     0.124 S 
ATOM     84  O   UNL     1     -11.402   3.678  11.567  1.00  0.00    -0.237 OA
ATOM     85  O   UNL     1     -11.272   1.659  12.993  1.00  0.00    -0.237 OA
ATOM     86  O   UNL     1      -9.296   2.394  11.717  1.00  0.00    -0.744 OA
ENDBRANCH  82  83
ENDBRANCH  61  75
BRANCH  62  87
ATOM     87  C   UNL     1     -10.774   6.062   2.387  1.00  0.00     0.058 A 
ATOM     88  C   UNL     1     -11.136   7.310   2.932  1.00  0.00     0.135 A 
ATOM     89  C   UNL     1      -9.436   5.939   1.967  1.00  0.00     0.135 A 
ATOM     90  F   UNL     1     -12.391   7.521   3.360  1.00  0.00    -0.206 F 
ATOM     91  C   UNL     1     -10.210   8.341   3.131  1.00  0.00     0.059 A 
ATOM     92  C   UNL     1      -8.496   6.957   2.146  1.00  0.00     0.059 A 
ATOM     93  F   UNL     1      -8.972   4.788   1.460  1.00  0.00    -0.206 F 
ATOM     94  C   UNL     1      -8.881   8.142   2.763  1.00  0.00     0.060 A 
BRANCH  94  95
ATOM     95  S   UNL     1      -7.637   9.375   3.221  1.00  0.00     0.124 S 
ATOM     96  O   UNL     1      -7.968  10.485   2.335  1.00  0.00    -0.237 OA
ATOM     97  O   UNL     1      -7.916   9.585   4.638  1.00  0.00    -0.237 OA
ATOM     98  O   UNL     1      -6.372   8.703   2.932  1.00  0.00    -0.744 OA
ENDBRANCH  94  95
ENDBRANCH  62  87
BRANCH  74  99
ATOM     99  C   UNL     1     -16.134   2.867   3.408  1.00  0.00     0.058 A 
ATOM    100  C   UNL     1     -15.830   2.856   2.033  1.00  0.00     0.135 A 
ATOM    101  C   UNL     1     -17.492   2.928   3.757  1.00  0.00     0.135 A 
ATOM    102  F   UNL     1     -14.571   2.691   1.604  1.00  0.00    -0.206 F 
ATOM    103  C   UNL     1     -16.825   2.959   1.057  1.00  0.00     0.059 A 
ATOM    104  C   UNL     1     -18.502   2.994   2.802  1.00  0.00     0.059 A 
ATOM    105  F   UNL     1     -17.857   2.882   5.049  1.00  0.00    -0.206 F 
ATOM    106  C   UNL     1     -18.160   3.032   1.453  1.00  0.00     0.060 A 
BRANCH 106 107
ATOM    107  S   UNL     1     -19.454   3.131   0.197  1.00  0.00     0.124 S 
ATOM    108  O   UNL     1     -19.265   4.476  -0.333  1.00  0.00    -0.237 OA
ATOM    109  O   UNL     1     -19.105   2.038  -0.706  1.00  0.00    -0.237 OA
ATOM    110  O   UNL     1     -20.685   2.929   0.958  1.00  0.00    -0.744 OA
ENDBRANCH 106 107
ENDBRANCH  74  99
ENDBRANCH  48  49
ENDBRANCH  40  43
ENDBRANCH  38  39
ENDBRANCH  37  38
ENDBRANCH  36  37
ENDBRANCH   1  36
TORSDOF 22
