REMARK SMILES Cc1cc(Cl)c2c(c1)C=C(C(=O)NCCCCCCNC(=O)c1ccc(-c3c4nc(c(-c5c(F)cc(S(=O)(=O)[O-])cc5F)c5ccc([nH]5)c(-c5c(F)cc(S(=O)(=O)[O-])cc5F)c5nc(c(-c6c(F)cc(S(=O)(=O)[O-])cc6F)c6ccc3[nH]6)C=C5)C=C4)cc1)[C@@H](C(F)(F)F)O2
REMARK SMILES IDX 17 1 16 2 15 3 14 4 13 5 11 6 12 7 10 9 1 10 2 11 3 12 8 13
REMARK SMILES IDX 4 14 7 15 5 16 6 17 9 18 94 19 89 20 90 21 91 22 92 23 93 24
REMARK SMILES IDX 18 25 19 26 20 27 21 28 22 30 23 31 24 32 88 33 25 34 87 35
REMARK SMILES IDX 26 36 27 37 28 38 81 39 29 40 86 41 80 42 82 43 30 44 85 45
REMARK SMILES IDX 79 46 78 47 31 49 65 50 44 51 64 52 45 53 48 54 63 55 83 56
REMARK SMILES IDX 46 57 47 58 62 60 84 61 49 62 32 63 33 64 42 65 34 66 35 67
REMARK SMILES IDX 41 68 43 69 36 70 37 71 38 72 39 73 40 74 66 75 67 76 76 77
REMARK SMILES IDX 68 78 69 79 75 80 77 81 70 82 71 83 72 84 73 85 74 86 50 87
REMARK SMILES IDX 51 88 60 89 52 90 53 91 59 92 61 93 54 94 55 95 56 96 57 97
REMARK SMILES IDX 58 98
REMARK H PARENT 13 8 20 29 82 48 48 59
REMARK Flexibility Score: inf
ROOT
ATOM      1  C   UNL     1       0.594  12.142  -0.446  1.00  0.00     0.002 C 
ENDROOT
BRANCH   1   2
ATOM      2  C   UNL     1       0.344  11.300   0.813  1.00  0.00     0.002 C 
BRANCH   2   3
ATOM      3  C   UNL     1      -0.313   9.941   0.562  1.00  0.00     0.021 C 
BRANCH   3   4
ATOM      4  C   UNL     1       0.453   9.068  -0.426  1.00  0.00     0.116 C 
BRANCH   4   5
ATOM      5  N   UNL     1       1.514   8.322   0.227  1.00  0.00    -0.352 N 
ATOM      6  C   UNL     1       1.847   7.022   0.400  1.00  0.00     0.251 C 
ATOM      7  O   UNL     1       2.891   6.824   1.031  1.00  0.00    -0.270 OA
ATOM      8  H   UNL     1       2.163   8.921   0.660  1.00  0.00     0.163 HD
BRANCH   6   9
ATOM      9  C   UNL     1       1.060   5.856  -0.105  1.00  0.00     0.067 C 
ATOM     10  C   UNL     1       1.064  -0.335   0.070  1.00  0.00     0.044 C 
ATOM     11  C   UNL     1       0.558   1.035  -0.272  1.00  0.00    -0.049 A 
ATOM     12  C   UNL     1      -0.655   1.185  -0.953  1.00  0.00     0.028 A 
ATOM     13  C   UNL     1       1.257   2.177   0.144  1.00  0.00     0.015 A 
ATOM     14  C   UNL     1      -1.147   2.458  -1.240  1.00  0.00     0.084 A 
ATOM     15  C   UNL     1       0.767   3.457  -0.144  1.00  0.00     0.019 A 
ATOM     16  Cl  UNL     1      -2.649   2.590  -2.081  1.00  0.00    -0.080 Cl
ATOM     17  C   UNL     1      -0.432   3.593  -0.846  1.00  0.00     0.146 A 
ATOM     18  C   UNL     1       1.469   4.647   0.321  1.00  0.00     0.025 C 
ATOM     19  O   UNL     1      -0.972   4.815  -1.121  1.00  0.00    -0.474 OA
ATOM     20  C   UNL     1      -0.093   5.966  -1.062  1.00  0.00     0.314 C 
BRANCH  20  21
ATOM     21  C   UNL     1       0.354   6.337  -2.488  1.00  0.00     0.429 C 
ATOM     22  F   UNL     1      -0.693   6.795  -3.214  1.00  0.00    -0.167 F 
ATOM     23  F   UNL     1       1.287   7.319  -2.501  1.00  0.00    -0.167 F 
ATOM     24  F   UNL     1       0.886   5.284  -3.150  1.00  0.00    -0.167 F 
ENDBRANCH  20  21
ENDBRANCH   6   9
ENDBRANCH   4   5
ENDBRANCH   3   4
ENDBRANCH   2   3
ENDBRANCH   1   2
BRANCH   1  25
ATOM     25  C   UNL     1      -0.613  12.300  -1.375  1.00  0.00     0.021 C 
BRANCH  25  26
ATOM     26  C   UNL     1      -1.839  12.917  -0.712  1.00  0.00     0.116 C 
BRANCH  26  27
ATOM     27  N   UNL     1      -1.557  14.246  -0.195  1.00  0.00    -0.352 N 
ATOM     28  C   UNL     1      -2.150  15.439  -0.513  1.00  0.00     0.251 C 
ATOM     29  H   UNL     1      -0.840  14.295   0.477  1.00  0.00     0.163 HD
ATOM     30  O   UNL     1      -1.633  16.497  -0.161  1.00  0.00    -0.269 OA
BRANCH  28  31
ATOM     31  C   UNL     1      -3.406  15.444  -1.289  1.00  0.00     0.039 A 
ATOM     32  C   UNL     1      -3.539  16.331  -2.358  1.00  0.00     0.014 A 
ATOM     33  C   UNL     1      -4.450  14.576  -0.953  1.00  0.00     0.014 A 
ATOM     34  C   UNL     1      -4.707  16.315  -3.122  1.00  0.00     0.010 A 
ATOM     35  C   UNL     1      -5.582  14.512  -1.759  1.00  0.00     0.010 A 
ATOM     36  C   UNL     1      -5.726  15.389  -2.843  1.00  0.00    -0.014 A 
BRANCH  36  37
ATOM     37  C   UNL     1      -6.963  15.346  -3.662  1.00  0.00     0.031 A 
ATOM     38  C   UNL     1      -8.285  15.703  -3.039  1.00  0.00     0.074 A 
ATOM     39  C   UNL     1      -6.897  14.955  -4.950  1.00  0.00     0.049 A 
ATOM     40  N   UNL     1      -9.478  15.689  -3.574  1.00  0.00    -0.248 NA
ATOM     41  C   UNL     1      -8.269  16.112  -1.624  1.00  0.00     0.031 C 
ATOM     42  C   UNL     1      -5.674  14.553  -5.649  1.00  0.00     0.029 A 
ATOM     43  N   UNL     1      -7.878  14.830  -5.901  1.00  0.00    -0.354 N 
ATOM     44  C   UNL     1     -10.349  16.084  -2.567  1.00  0.00     0.074 A 
ATOM     45  C   UNL     1      -9.559  16.273  -1.371  1.00  0.00     0.031 C 
ATOM     46  C   UNL     1      -5.974  14.256  -6.924  1.00  0.00     0.029 A 
ATOM     47  C   UNL     1      -7.412  14.408  -7.124  1.00  0.00     0.049 A 
ATOM     48  H   UNL     1      -8.827  15.026  -5.724  1.00  0.00     0.167 HD
ATOM     49  C   UNL     1     -11.683  16.299  -2.642  1.00  0.00     0.037 A 
ATOM     50  C   UNL     1      -8.072  14.166  -8.274  1.00  0.00     0.037 A 
ATOM     51  C   UNL     1     -12.457  16.134  -3.844  1.00  0.00     0.049 A 
ATOM     52  C   UNL     1      -9.561  14.386  -8.322  1.00  0.00     0.074 A 
ATOM     53  C   UNL     1     -13.807  16.370  -4.033  1.00  0.00     0.029 A 
ATOM     54  N   UNL     1     -11.952  15.697  -5.059  1.00  0.00    -0.354 N 
ATOM     55  N   UNL     1     -10.361  14.810  -7.372  1.00  0.00    -0.248 NA
ATOM     56  C   UNL     1     -10.237  14.099  -9.594  1.00  0.00     0.031 C 
ATOM     57  C   UNL     1     -14.128  16.029  -5.350  1.00  0.00     0.029 A 
ATOM     58  C   UNL     1     -12.968  15.632  -5.997  1.00  0.00     0.049 A 
ATOM     59  H   UNL     1     -11.010  15.466  -5.230  1.00  0.00     0.167 HD
ATOM     60  C   UNL     1     -11.630  14.862  -7.939  1.00  0.00     0.074 A 
ATOM     61  C   UNL     1     -11.488  14.443  -9.318  1.00  0.00     0.031 C 
ATOM     62  C   UNL     1     -12.807  15.220  -7.369  1.00  0.00     0.037 A 
BRANCH  49  63
ATOM     63  C   UNL     1     -12.395  16.760  -1.400  1.00  0.00     0.058 A 
ATOM     64  C   UNL     1     -12.222  18.059  -0.897  1.00  0.00     0.135 A 
ATOM     65  C   UNL     1     -13.320  15.925  -0.753  1.00  0.00     0.135 A 
ATOM     66  F   UNL     1     -11.335  18.892  -1.465  1.00  0.00    -0.206 F 
ATOM     67  C   UNL     1     -12.934  18.512   0.208  1.00  0.00     0.059 A 
ATOM     68  C   UNL     1     -14.065  16.366   0.337  1.00  0.00     0.059 A 
ATOM     69  F   UNL     1     -13.520  14.672  -1.190  1.00  0.00    -0.206 F 
ATOM     70  C   UNL     1     -13.861  17.661   0.812  1.00  0.00     0.060 A 
BRANCH  70  71
ATOM     71  S   UNL     1     -14.809  18.285   2.216  1.00  0.00     0.124 S 
ATOM     72  O   UNL     1     -13.774  18.405   3.238  1.00  0.00    -0.237 OA
ATOM     73  O   UNL     1     -15.336  19.544   1.697  1.00  0.00    -0.237 OA
ATOM     74  O   UNL     1     -15.801  17.241   2.450  1.00  0.00    -0.744 OA
ENDBRANCH  70  71
ENDBRANCH  49  63
BRANCH  50  75
ATOM     75  C   UNL     1      -7.328  13.710  -9.480  1.00  0.00     0.058 A 
ATOM     76  C   UNL     1      -7.188  14.543 -10.600  1.00  0.00     0.135 A 
ATOM     77  C   UNL     1      -6.739  12.437  -9.537  1.00  0.00     0.135 A 
ATOM     78  F   UNL     1      -7.739  15.766 -10.598  1.00  0.00    -0.206 F 
ATOM     79  C   UNL     1      -6.507  14.126 -11.739  1.00  0.00     0.059 A 
ATOM     80  C   UNL     1      -6.029  12.008 -10.654  1.00  0.00     0.059 A 
ATOM     81  F   UNL     1      -6.829  11.605  -8.487  1.00  0.00    -0.206 F 
ATOM     82  C   UNL     1      -5.928  12.857 -11.755  1.00  0.00     0.060 A 
BRANCH  82  83
ATOM     83  S   UNL     1      -5.016  12.343 -13.227  1.00  0.00     0.124 S 
ATOM     84  O   UNL     1      -6.091  12.184 -14.199  1.00  0.00    -0.237 OA
ATOM     85  O   UNL     1      -4.122  13.476 -13.442  1.00  0.00    -0.237 OA
ATOM     86  O   UNL     1      -4.361  11.109 -12.803  1.00  0.00    -0.744 OA
ENDBRANCH  82  83
ENDBRANCH  50  75
BRANCH  62  87
ATOM     87  C   UNL     1     -14.037  15.198  -8.232  1.00  0.00     0.058 A 
ATOM     88  C   UNL     1     -14.634  13.991  -8.627  1.00  0.00     0.135 A 
ATOM     89  C   UNL     1     -14.673  16.396  -8.598  1.00  0.00     0.135 A 
ATOM     90  F   UNL     1     -14.063  12.818  -8.309  1.00  0.00    -0.206 F 
ATOM     91  C   UNL     1     -15.811  13.972  -9.367  1.00  0.00     0.059 A 
ATOM     92  C   UNL     1     -15.867  16.400  -9.312  1.00  0.00     0.059 A 
ATOM     93  F   UNL     1     -14.149  17.578  -8.235  1.00  0.00    -0.206 F 
ATOM     94  C   UNL     1     -16.424  15.182  -9.698  1.00  0.00     0.060 A 
BRANCH  94  95
ATOM     95  S   UNL     1     -17.978  15.137 -10.616  1.00  0.00     0.124 S 
ATOM     96  O   UNL     1     -17.532  14.678 -11.928  1.00  0.00    -0.237 OA
ATOM     97  O   UNL     1     -18.766  14.181  -9.844  1.00  0.00    -0.237 OA
ATOM     98  O   UNL     1     -18.448  16.518 -10.561  1.00  0.00    -0.744 OA
ENDBRANCH  94  95
ENDBRANCH  62  87
ENDBRANCH  36  37
ENDBRANCH  28  31
ENDBRANCH  26  27
ENDBRANCH  25  26
ENDBRANCH   1  25
TORSDOF 17
