REMARK SMILES [NH3+]C[C@H]1CC[C@@H](C(=O)Nc2ccc(O)c(C(=O)NCCCCCCNC(=O)c3ccc(-c4c5nc(c(-c6c(F)cc(S(=O)(=O)[O-])cc6F)c6ccc([nH]6)c(-c6c(F)cc(S(=O)(=O)[O-])cc6F)c6nc(c(-c7c(F)cc(S(=O)(=O)[O-])cc7F)c7ccc4[nH]7)C=C6)C=C5)cc3)c2)O1
REMARK SMILES IDX 21 1 20 2 19 3 18 4 16 5 17 6 15 8 10 9 11 10 94 11 12 12
REMARK SMILES IDX 13 13 9 14 7 15 8 16 6 18 3 19 4 20 95 21 5 22 2 23 1 24
REMARK SMILES IDX 14 28 22 30 23 31 24 32 25 33 26 34 27 36 28 37 29 38 93 39
REMARK SMILES IDX 30 40 92 41 31 42 32 43 33 44 86 45 34 46 91 47 85 48 87 49
REMARK SMILES IDX 35 50 90 51 84 52 83 53 36 55 70 56 49 57 69 58 50 59 53 60
REMARK SMILES IDX 68 61 88 62 51 63 52 64 67 66 89 67 54 68 37 69 38 70 47 71
REMARK SMILES IDX 39 72 40 73 46 74 48 75 41 76 42 77 43 78 44 79 45 80 71 81
REMARK SMILES IDX 72 82 81 83 73 84 74 85 80 86 82 87 75 88 76 89 77 90 78 91
REMARK SMILES IDX 79 92 55 93 56 94 65 95 57 96 58 97 64 98 66 99 59 100
REMARK SMILES IDX 60 101 61 102 62 103 63 104
REMARK H PARENT 18 7 9 17 1 25 1 26 1 27 14 29 25 35 87 54 53 65
REMARK Flexibility Score: inf
ROOT
ATOM      1  C   UNL     1       1.074 -11.761  -8.146  1.00  0.00     0.002 C 
ENDROOT
BRANCH   1   2
ATOM      2  C   UNL     1       1.343 -10.406  -7.489  1.00  0.00     0.021 C 
BRANCH   2   3
ATOM      3  C   UNL     1       0.200  -9.895  -6.605  1.00  0.00     0.116 C 
BRANCH   3   4
ATOM      4  N   UNL     1       0.300 -10.456  -5.275  1.00  0.00    -0.352 N 
ATOM      5  C   UNL     1       0.851  -9.987  -4.114  1.00  0.00     0.255 C 
ATOM      6  O   UNL     1       0.787 -10.743  -3.138  1.00  0.00    -0.269 OA
ATOM      7  H   UNL     1      -0.106 -11.349  -5.189  1.00  0.00     0.163 HD
BRANCH   5   8
ATOM      8  C   UNL     1       1.457  -8.634  -3.910  1.00  0.00     0.083 A 
ATOM      9  C   UNL     1       1.895  -6.926  -2.209  1.00  0.00     0.042 A 
ATOM     10  C   UNL     1       2.674  -6.225  -3.118  1.00  0.00     0.030 A 
ATOM     11  C   UNL     1       1.344  -8.149  -2.585  1.00  0.00     0.043 A 
ATOM     12  C   UNL     1       2.784  -6.661  -4.430  1.00  0.00     0.049 A 
ATOM     13  C   UNL     1       2.172  -7.853  -4.827  1.00  0.00     0.128 A 
BRANCH   9  14
ATOM     14  N   UNL     1       1.779  -6.495  -0.886  1.00  0.00    -0.324 N 
ATOM     15  C   UNL     1       1.653  -5.209  -0.418  1.00  0.00     0.253 C 
ATOM     16  O   UNL     1       2.110  -4.943   0.698  1.00  0.00    -0.272 OA
ATOM     17  H   UNL     1       1.790  -7.202  -0.201  1.00  0.00     0.170 HD
BRANCH  15  18
ATOM     18  C   UNL     1       0.720  -4.226  -1.182  1.00  0.00     0.208 C 
ATOM     19  C   UNL     1       0.852  -1.886  -0.991  1.00  0.00     0.174 C 
ATOM     20  C   UNL     1       0.688  -2.209  -2.461  1.00  0.00     0.041 C 
ATOM     21  O   UNL     1       0.440  -3.093  -0.325  1.00  0.00    -0.359 OA
ATOM     22  C   UNL     1       1.179  -3.639  -2.508  1.00  0.00     0.045 C 
BRANCH  19  23
ATOM     23  C   UNL     1       2.310  -1.518  -0.620  1.00  0.00     0.291 C 
BRANCH  23  24
ATOM     24  N   UNL     1       2.621  -1.764   0.790  1.00  0.00    -0.355 N 
ATOM     25  H   UNL     1       3.590  -1.505   0.975  1.00  0.00     0.344 HD
ATOM     26  H   UNL     1       2.488  -2.753   1.001  1.00  0.00     0.344 HD
ATOM     27  H   UNL     1       2.002  -1.205   1.377  1.00  0.00     0.344 HD
ENDBRANCH  23  24
ENDBRANCH  19  23
ENDBRANCH  15  18
ENDBRANCH   9  14
BRANCH  13  28
ATOM     28  O   UNL     1       2.387  -8.220  -6.119  1.00  0.00    -0.507 OA
ATOM     29  H   UNL     1       2.873  -7.659  -6.691  1.00  0.00     0.293 HD
ENDBRANCH  13  28
ENDBRANCH   5   8
ENDBRANCH   3   4
ENDBRANCH   2   3
ENDBRANCH   1   2
BRANCH   1  30
ATOM     30  C   UNL     1      -0.059 -11.758  -9.176  1.00  0.00     0.002 C 
BRANCH  30  31
ATOM     31  C   UNL     1       0.079 -10.718 -10.293  1.00  0.00     0.021 C 
BRANCH  31  32
ATOM     32  C   UNL     1       1.345 -10.855 -11.136  1.00  0.00     0.116 C 
BRANCH  32  33
ATOM     33  N   UNL     1       1.368 -12.115 -11.861  1.00  0.00    -0.352 N 
ATOM     34  C   UNL     1       1.402 -12.338 -13.215  1.00  0.00     0.251 C 
ATOM     35  H   UNL     1       1.359 -12.925 -11.300  1.00  0.00     0.163 HD
ATOM     36  O   UNL     1       1.150 -13.454 -13.658  1.00  0.00    -0.269 OA
BRANCH  34  37
ATOM     37  C   UNL     1       1.739 -11.231 -14.135  1.00  0.00     0.039 A 
ATOM     38  C   UNL     1       0.991 -11.066 -15.303  1.00  0.00     0.014 A 
ATOM     39  C   UNL     1       2.813 -10.378 -13.860  1.00  0.00     0.014 A 
ATOM     40  C   UNL     1       1.290 -10.015 -16.173  1.00  0.00     0.010 A 
ATOM     41  C   UNL     1       3.069  -9.294 -14.696  1.00  0.00     0.010 A 
ATOM     42  C   UNL     1       2.316  -9.106 -15.864  1.00  0.00    -0.014 A 
BRANCH  42  43
ATOM     43  C   UNL     1       2.622  -7.958 -16.755  1.00  0.00     0.031 A 
ATOM     44  C   UNL     1       3.952  -7.881 -17.455  1.00  0.00     0.074 A 
ATOM     45  C   UNL     1       1.730  -6.955 -16.879  1.00  0.00     0.049 A 
ATOM     46  N   UNL     1       4.436  -6.925 -18.204  1.00  0.00    -0.248 NA
ATOM     47  C   UNL     1       4.870  -9.017 -17.265  1.00  0.00     0.031 C 
ATOM     48  C   UNL     1       0.428  -6.894 -16.211  1.00  0.00     0.029 A 
ATOM     49  N   UNL     1       1.788  -5.788 -17.598  1.00  0.00    -0.354 N 
ATOM     50  C   UNL     1       5.716  -7.334 -18.561  1.00  0.00     0.074 A 
ATOM     51  C   UNL     1       5.952  -8.602 -17.907  1.00  0.00     0.031 C 
ATOM     52  C   UNL     1      -0.195  -5.758 -16.564  1.00  0.00     0.029 A 
ATOM     53  C   UNL     1       0.675  -4.994 -17.453  1.00  0.00     0.049 A 
ATOM     54  H   UNL     1       2.555  -5.542 -18.164  1.00  0.00     0.167 HD
ATOM     55  C   UNL     1       6.605  -6.718 -19.378  1.00  0.00     0.037 A 
ATOM     56  C   UNL     1       0.391  -3.784 -17.971  1.00  0.00     0.037 A 
ATOM     57  C   UNL     1       6.349  -5.471 -20.051  1.00  0.00     0.049 A 
ATOM     58  C   UNL     1       1.389  -3.127 -18.886  1.00  0.00     0.074 A 
ATOM     59  C   UNL     1       7.159  -4.796 -20.947  1.00  0.00     0.029 A 
ATOM     60  N   UNL     1       5.196  -4.714 -19.906  1.00  0.00    -0.354 N 
ATOM     61  N   UNL     1       2.570  -3.557 -19.260  1.00  0.00    -0.248 NA
ATOM     62  C   UNL     1       1.013  -1.826 -19.456  1.00  0.00     0.031 C 
ATOM     63  C   UNL     1       6.512  -3.611 -21.315  1.00  0.00     0.029 A 
ATOM     64  C   UNL     1       5.280  -3.571 -20.683  1.00  0.00     0.049 A 
ATOM     65  H   UNL     1       4.431  -4.955 -19.336  1.00  0.00     0.167 HD
ATOM     66  C   UNL     1       3.068  -2.592 -20.129  1.00  0.00     0.074 A 
ATOM     67  C   UNL     1       2.054  -1.562 -20.234  1.00  0.00     0.031 C 
ATOM     68  C   UNL     1       4.256  -2.561 -20.782  1.00  0.00     0.037 A 
BRANCH  55  69
ATOM     69  C   UNL     1       7.934  -7.386 -19.596  1.00  0.00     0.058 A 
ATOM     70  C   UNL     1       8.051  -8.561 -20.356  1.00  0.00     0.135 A 
ATOM     71  C   UNL     1       9.111  -6.824 -19.076  1.00  0.00     0.135 A 
ATOM     72  F   UNL     1       6.956  -9.150 -20.863  1.00  0.00    -0.206 F 
ATOM     73  C   UNL     1       9.283  -9.169 -20.572  1.00  0.00     0.059 A 
ATOM     74  C   UNL     1      10.358  -7.400 -19.303  1.00  0.00     0.059 A 
ATOM     75  F   UNL     1       9.057  -5.702 -18.342  1.00  0.00    -0.206 F 
ATOM     76  C   UNL     1      10.432  -8.580 -20.041  1.00  0.00     0.060 A 
BRANCH  76  77
ATOM     77  S   UNL     1      12.025  -9.374 -20.341  1.00  0.00     0.124 S 
ATOM     78  O   UNL     1      11.947 -10.527 -19.448  1.00  0.00    -0.237 OA
ATOM     79  O   UNL     1      11.963  -9.672 -21.768  1.00  0.00    -0.237 OA
ATOM     80  O   UNL     1      12.993  -8.350 -19.959  1.00  0.00    -0.744 OA
ENDBRANCH  76  77
ENDBRANCH  55  69
BRANCH  56  81
ATOM     81  C   UNL     1      -0.902  -3.123 -17.652  1.00  0.00     0.058 A 
ATOM     82  C   UNL     1      -1.906  -2.994 -18.623  1.00  0.00     0.135 A 
ATOM     83  C   UNL     1      -1.163  -2.614 -16.370  1.00  0.00     0.135 A 
ATOM     84  F   UNL     1      -1.701  -3.461 -19.864  1.00  0.00    -0.206 F 
ATOM     85  C   UNL     1      -3.116  -2.367 -18.343  1.00  0.00     0.059 A 
ATOM     86  C   UNL     1      -2.374  -2.004 -16.059  1.00  0.00     0.059 A 
ATOM     87  F   UNL     1      -0.242  -2.728 -15.400  1.00  0.00    -0.206 F 
ATOM     88  C   UNL     1      -3.340  -1.875 -17.056  1.00  0.00     0.060 A 
BRANCH  88  89
ATOM     89  S   UNL     1      -4.929  -1.099 -16.687  1.00  0.00     0.124 S 
ATOM     90  O   UNL     1      -4.785   0.191 -17.350  1.00  0.00    -0.237 OA
ATOM     91  O   UNL     1      -5.874  -2.030 -17.297  1.00  0.00    -0.237 OA
ATOM     92  O   UNL     1      -4.951  -1.062 -15.228  1.00  0.00    -0.744 OA
ENDBRANCH  88  89
ENDBRANCH  56  81
BRANCH  68  93
ATOM     93  C   UNL     1       4.513  -1.395 -21.694  1.00  0.00     0.058 A 
ATOM     94  C   UNL     1       4.808  -0.118 -21.191  1.00  0.00     0.135 A 
ATOM     95  C   UNL     1       4.515  -1.570 -23.087  1.00  0.00     0.135 A 
ATOM     96  F   UNL     1       4.811   0.103 -19.867  1.00  0.00    -0.206 F 
ATOM     97  C   UNL     1       5.076   0.951 -22.040  1.00  0.00     0.059 A 
ATOM     98  C   UNL     1       4.806  -0.521 -23.953  1.00  0.00     0.059 A 
ATOM     99  F   UNL     1       4.249  -2.774 -23.617  1.00  0.00    -0.206 F 
ATOM    100  C   UNL     1       5.074   0.739 -23.420  1.00  0.00     0.060 A 
BRANCH 100 101
ATOM    101  S   UNL     1       5.458   2.125 -24.510  1.00  0.00     0.124 S 
ATOM    102  O   UNL     1       4.221   2.897 -24.450  1.00  0.00    -0.237 OA
ATOM    103  O   UNL     1       6.614   2.728 -23.855  1.00  0.00    -0.237 OA
ATOM    104  O   UNL     1       5.736   1.483 -25.791  1.00  0.00    -0.744 OA
ENDBRANCH 100 101
ENDBRANCH  68  93
ENDBRANCH  42  43
ENDBRANCH  34  37
ENDBRANCH  32  33
ENDBRANCH  31  32
ENDBRANCH  30  31
ENDBRANCH   1  30
TORSDOF 21
