REMARK SMILES CC(=O)Nc1nc(C[N@@H+]2CCO[C@@H](CC(=O)NCCCCCCNC(=O)c3ccc(-c4c5nc(c(-c6c(F)cc(S(=O)(=O)[O-])cc6F)c6ccc([nH]6)c(-c6c(F)cc(S(=O)(=O)[O-])cc6F)c6nc(c(-c7c(F)cc(S(=O)(=O)[O-])cc7F)c7ccc4[nH]7)C=C6)C=C5)cc3)C2)cs1
REMARK SMILES IDX 20 1 19 2 18 3 17 4 15 5 16 6 14 8 13 9 9 10 10 11 93 12
REMARK SMILES IDX 11 14 12 15 8 16 7 17 5 18 6 19 95 20 94 21 4 22 1 23 2 24
REMARK SMILES IDX 3 25 21 27 22 28 23 29 24 30 25 31 26 33 27 34 28 35 92 36
REMARK SMILES IDX 29 37 91 38 30 39 31 40 32 41 85 42 33 43 90 44 84 45 86 46
REMARK SMILES IDX 34 47 89 48 83 49 82 50 35 52 69 53 48 54 68 55 49 56 52 57
REMARK SMILES IDX 67 58 87 59 50 60 51 61 66 63 88 64 53 65 36 66 37 67 46 68
REMARK SMILES IDX 38 69 39 70 45 71 47 72 40 73 41 74 42 75 43 76 44 77 70 78
REMARK SMILES IDX 71 79 80 80 72 81 73 82 79 83 81 84 74 85 75 86 76 87 77 88
REMARK SMILES IDX 78 89 54 90 55 91 64 92 56 93 57 94 63 95 65 96 58 97 59 98
REMARK SMILES IDX 60 99 61 100 62 101
REMARK H PARENT 17 7 9 13 4 26 24 32 86 51 52 62
REMARK Flexibility Score: inf
ROOT
ATOM      1  C   UNL     1       8.385   1.240   0.032  1.00  0.00     0.002 C 
ENDROOT
BRANCH   1   2
ATOM      2  C   UNL     1       7.626   1.393   1.349  1.00  0.00     0.021 C 
BRANCH   2   3
ATOM      3  C   UNL     1       7.389   2.845   1.775  1.00  0.00     0.116 C 
BRANCH   3   4
ATOM      4  N   UNL     1       6.083   3.312   1.334  1.00  0.00    -0.356 N 
ATOM      5  C   UNL     1       4.973   3.625   2.062  1.00  0.00     0.222 C 
ATOM      6  O   UNL     1       3.936   3.919   1.466  1.00  0.00    -0.275 OA
ATOM      7  H   UNL     1       5.986   3.417   0.360  1.00  0.00     0.163 HD
BRANCH   5   8
ATOM      8  C   UNL     1       5.022   3.601   3.571  1.00  0.00     0.138 C 
BRANCH   8   9
ATOM      9  C   UNL     1       4.466   2.309   4.173  1.00  0.00     0.182 C 
ATOM     10  N   UNL     1       4.861  -0.212   4.328  1.00  0.00    -0.326 N 
ATOM     11  C   UNL     1       4.814  -0.042   5.780  1.00  0.00     0.291 C 
ATOM     12  C   UNL     1       5.171   1.044   3.638  1.00  0.00     0.295 C 
ATOM     13  H   UNL     1       5.663  -0.825   4.180  1.00  0.00     0.348 HD
ATOM     14  C   UNL     1       4.148   1.255   6.270  1.00  0.00     0.222 C 
ATOM     15  O   UNL     1       4.656   2.411   5.599  1.00  0.00    -0.366 OA
BRANCH  10  16
ATOM     16  C   UNL     1       3.839  -1.054   3.705  1.00  0.00     0.320 C 
BRANCH  16  17
ATOM     17  C   UNL     1       2.503  -0.389   3.566  1.00  0.00     0.108 A 
ATOM     18  C   UNL     1       1.016   0.807   2.461  1.00  0.00     0.189 A 
ATOM     19  N   UNL     1       2.136   0.144   2.333  1.00  0.00    -0.219 NA
ATOM     20  S   UNL     1       0.307   0.813   4.011  1.00  0.00    -0.105 S 
ATOM     21  C   UNL     1       1.544  -0.244   4.553  1.00  0.00     0.098 A 
BRANCH  18  22
ATOM     22  N   UNL     1       0.320   1.507   1.524  1.00  0.00    -0.302 N 
ATOM     23  C   UNL     1       1.197   0.199  -0.395  1.00  0.00     0.114 C 
ATOM     24  C   UNL     1       0.441   1.371   0.175  1.00  0.00     0.223 C 
ATOM     25  O   UNL     1      -0.148   2.163  -0.564  1.00  0.00    -0.275 OA
ATOM     26  H   UNL     1      -0.329   2.171   1.851  1.00  0.00     0.172 HD
ENDBRANCH  18  22
ENDBRANCH  16  17
ENDBRANCH  10  16
ENDBRANCH   8   9
ENDBRANCH   5   8
ENDBRANCH   3   4
ENDBRANCH   2   3
ENDBRANCH   1   2
BRANCH   1  27
ATOM     27  C   UNL     1       9.849   1.685   0.078  1.00  0.00     0.002 C 
BRANCH  27  28
ATOM     28  C   UNL     1      10.704   1.047   1.179  1.00  0.00     0.021 C 
BRANCH  28  29
ATOM     29  C   UNL     1      10.696  -0.481   1.213  1.00  0.00     0.116 C 
BRANCH  29  30
ATOM     30  N   UNL     1      11.165  -1.055  -0.036  1.00  0.00    -0.352 N 
ATOM     31  C   UNL     1      12.249  -1.858  -0.286  1.00  0.00     0.251 C 
ATOM     32  H   UNL     1      10.620  -0.834  -0.826  1.00  0.00     0.163 HD
ATOM     33  O   UNL     1      12.601  -2.053  -1.446  1.00  0.00    -0.269 OA
BRANCH  31  34
ATOM     34  C   UNL     1      12.999  -2.482   0.827  1.00  0.00     0.039 A 
ATOM     35  C   UNL     1      14.395  -2.502   0.764  1.00  0.00     0.014 A 
ATOM     36  C   UNL     1      12.339  -3.091   1.899  1.00  0.00     0.014 A 
ATOM     37  C   UNL     1      15.128  -3.094   1.795  1.00  0.00     0.010 A 
ATOM     38  C   UNL     1      13.074  -3.628   2.957  1.00  0.00     0.010 A 
ATOM     39  C   UNL     1      14.476  -3.643   2.911  1.00  0.00    -0.014 A 
BRANCH  39  40
ATOM     40  C   UNL     1      15.259  -4.229   4.030  1.00  0.00     0.031 A 
ATOM     41  C   UNL     1      15.190  -5.704   4.325  1.00  0.00     0.074 A 
ATOM     42  C   UNL     1      16.008  -3.420   4.805  1.00  0.00     0.049 A 
ATOM     43  N   UNL     1      15.813  -6.389   5.249  1.00  0.00    -0.248 NA
ATOM     44  C   UNL     1      14.286  -6.510   3.490  1.00  0.00     0.031 C 
ATOM     45  C   UNL     1      16.102  -1.965   4.663  1.00  0.00     0.029 A 
ATOM     46  N   UNL     1      16.830  -3.704   5.866  1.00  0.00    -0.354 N 
ATOM     47  C   UNL     1      15.370  -7.700   5.117  1.00  0.00     0.074 A 
ATOM     48  C   UNL     1      14.389  -7.706   4.053  1.00  0.00     0.031 C 
ATOM     49  C   UNL     1      16.952  -1.488   5.587  1.00  0.00     0.029 A 
ATOM     50  C   UNL     1      17.446  -2.595   6.398  1.00  0.00     0.049 A 
ATOM     51  H   UNL     1      16.965  -4.614   6.215  1.00  0.00     0.167 HD
ATOM     52  C   UNL     1      15.759  -8.801   5.805  1.00  0.00     0.037 A 
ATOM     53  C   UNL     1      18.317  -2.485   7.420  1.00  0.00     0.037 A 
ATOM     54  C   UNL     1      16.761  -8.794   6.840  1.00  0.00     0.049 A 
ATOM     55  C   UNL     1      18.770  -3.727   8.135  1.00  0.00     0.074 A 
ATOM     56  C   UNL     1      17.283  -9.868   7.540  1.00  0.00     0.029 A 
ATOM     57  N   UNL     1      17.390  -7.658   7.327  1.00  0.00    -0.354 N 
ATOM     58  N   UNL     1      18.404  -4.971   7.938  1.00  0.00    -0.248 NA
ATOM     59  C   UNL     1      19.766  -3.554   9.201  1.00  0.00     0.031 C 
ATOM     60  C   UNL     1      18.202  -9.378   8.475  1.00  0.00     0.029 A 
ATOM     61  C   UNL     1      18.282  -8.002   8.330  1.00  0.00     0.049 A 
ATOM     62  H   UNL     1      17.228  -6.742   7.006  1.00  0.00     0.167 HD
ATOM     63  C   UNL     1      19.137  -5.731   8.842  1.00  0.00     0.074 A 
ATOM     64  C   UNL     1      19.983  -4.808   9.572  1.00  0.00     0.031 C 
ATOM     65  C   UNL     1      19.113  -7.071   9.051  1.00  0.00     0.037 A 
BRANCH  52  66
ATOM     66  C   UNL     1      15.109 -10.111   5.454  1.00  0.00     0.058 A 
ATOM     67  C   UNL     1      15.389 -10.774   4.248  1.00  0.00     0.135 A 
ATOM     68  C   UNL     1      14.226 -10.733   6.352  1.00  0.00     0.135 A 
ATOM     69  F   UNL     1      16.215 -10.217   3.347  1.00  0.00    -0.206 F 
ATOM     70  C   UNL     1      14.799 -11.993   3.933  1.00  0.00     0.059 A 
ATOM     71  C   UNL     1      13.643 -11.966   6.068  1.00  0.00     0.059 A 
ATOM     72  F   UNL     1      13.923 -10.145   7.519  1.00  0.00    -0.206 F 
ATOM     73  C   UNL     1      13.926 -12.581   4.849  1.00  0.00     0.060 A 
BRANCH  73  74
ATOM     74  S   UNL     1      13.174 -14.168   4.431  1.00  0.00     0.124 S 
ATOM     75  O   UNL     1      12.175 -13.765   3.446  1.00  0.00    -0.237 OA
ATOM     76  O   UNL     1      14.307 -14.925   3.909  1.00  0.00    -0.237 OA
ATOM     77  O   UNL     1      12.643 -14.640   5.706  1.00  0.00    -0.744 OA
ENDBRANCH  73  74
ENDBRANCH  52  66
BRANCH  53  78
ATOM     78  C   UNL     1      18.842  -1.148   7.804  1.00  0.00     0.058 A 
ATOM     79  C   UNL     1      20.169  -0.786   7.529  1.00  0.00     0.135 A 
ATOM     80  C   UNL     1      18.023  -0.202   8.440  1.00  0.00     0.135 A 
ATOM     81  F   UNL     1      20.990  -1.659   6.926  1.00  0.00    -0.206 F 
ATOM     82  C   UNL     1      20.673   0.460   7.886  1.00  0.00     0.059 A 
ATOM     83  C   UNL     1      18.498   1.059   8.786  1.00  0.00     0.059 A 
ATOM     84  F   UNL     1      16.741  -0.494   8.707  1.00  0.00    -0.206 F 
ATOM     85  C   UNL     1      19.828   1.376   8.515  1.00  0.00     0.060 A 
BRANCH  85  86
ATOM     86  S   UNL     1      20.476   3.010   8.931  1.00  0.00     0.124 S 
ATOM     87  O   UNL     1      21.281   2.715  10.109  1.00  0.00    -0.237 OA
ATOM     88  O   UNL     1      21.215   3.367   7.724  1.00  0.00    -0.237 OA
ATOM     89  O   UNL     1      19.268   3.796   9.170  1.00  0.00    -0.744 OA
ENDBRANCH  85  86
ENDBRANCH  53  78
BRANCH  65  90
ATOM     90  C   UNL     1      20.040  -7.616  10.100  1.00  0.00     0.058 A 
ATOM     91  C   UNL     1      19.798  -7.419  11.469  1.00  0.00     0.135 A 
ATOM     92  C   UNL     1      21.173  -8.360   9.734  1.00  0.00     0.135 A 
ATOM     93  F   UNL     1      18.731  -6.711  11.871  1.00  0.00    -0.206 F 
ATOM     94  C   UNL     1      20.668  -7.909  12.438  1.00  0.00     0.059 A 
ATOM     95  C   UNL     1      22.042  -8.881  10.687  1.00  0.00     0.059 A 
ATOM     96  F   UNL     1      21.443  -8.587   8.438  1.00  0.00    -0.206 F 
ATOM     97  C   UNL     1      21.791  -8.635  12.036  1.00  0.00     0.060 A 
BRANCH  97  98
ATOM     98  S   UNL     1      22.911  -9.271  13.300  1.00  0.00     0.124 S 
ATOM     99  O   UNL     1      23.651  -8.069  13.667  1.00  0.00    -0.237 OA
ATOM    100  O   UNL     1      21.990  -9.781  14.311  1.00  0.00    -0.237 OA
ATOM    101  O   UNL     1      23.678 -10.290  12.590  1.00  0.00    -0.744 OA
ENDBRANCH  97  98
ENDBRANCH  65  90
ENDBRANCH  39  40
ENDBRANCH  31  34
ENDBRANCH  29  30
ENDBRANCH  28  29
ENDBRANCH  27  28
ENDBRANCH   1  27
TORSDOF 20
