REMARK SMILES COc1ccc2[nH]c(C(=O)c3cc(C)ccn3)c(CC(=O)NCCCCCCNC(=O)c3ccc(-c4c5nc(c(-c6c(F)cc(S(=O)(=O)[O-])cc6F)c6ccc([nH]6)c(-c6c(F)cc(S(=O)(=O)[O-])cc6F)c6nc(c(-c7c(F)cc(S(=O)(=O)[O-])cc7F)c7ccc4[nH]7)C=C6)C=C5)cc3)c2c1
REMARK SMILES IDX 25 1 24 2 23 3 22 4 20 5 21 6 19 8 18 9 3 10 4 11 99 12 5 13
REMARK SMILES IDX 98 14 6 15 7 16 8 17 2 19 1 20 9 21 10 22 11 23 12 24 17 25
REMARK SMILES IDX 13 26 16 27 14 28 15 29 26 30 27 31 28 32 29 33 30 34 31 36
REMARK SMILES IDX 32 37 33 38 97 39 34 40 96 41 35 42 36 43 37 44 90 45 38 46
REMARK SMILES IDX 95 47 89 48 91 49 39 50 94 51 88 52 87 53 40 55 74 56 53 57
REMARK SMILES IDX 73 58 54 59 57 60 72 61 92 62 55 63 56 64 71 66 93 67 58 68
REMARK SMILES IDX 41 69 42 70 51 71 43 72 44 73 50 74 52 75 45 76 46 77 47 78
REMARK SMILES IDX 48 79 49 80 75 81 76 82 85 83 77 84 78 85 84 86 86 87 79 88
REMARK SMILES IDX 80 89 81 90 82 91 83 92 59 93 60 94 69 95 61 96 62 97 68 98
REMARK SMILES IDX 70 99 63 100 64 101 65 102 66 103 67 104
REMARK H PARENT 22 7 7 18 29 35 91 54 57 65
REMARK Flexibility Score: inf
ROOT
ATOM      1  C   UNL     1      -1.529  -3.509  -6.537  1.00  0.00     0.002 C 
ENDROOT
BRANCH   1   2
ATOM      2  C   UNL     1      -0.958  -3.571  -5.114  1.00  0.00     0.021 C 
BRANCH   2   3
ATOM      3  C   UNL     1      -2.013  -3.768  -4.026  1.00  0.00     0.116 C 
BRANCH   3   4
ATOM      4  N   UNL     1      -2.605  -5.088  -4.077  1.00  0.00    -0.356 N 
ATOM      5  C   UNL     1      -2.488  -6.136  -3.211  1.00  0.00     0.224 C 
ATOM      6  O   UNL     1      -3.236  -7.101  -3.401  1.00  0.00    -0.275 OA
ATOM      7  H   UNL     1      -3.182  -5.255  -4.858  1.00  0.00     0.163 HD
BRANCH   5   8
ATOM      8  C   UNL     1      -1.587  -6.061  -1.983  1.00  0.00     0.138 C 
BRANCH   8   9
ATOM      9  C   UNL     1      -0.142  -5.727  -2.253  1.00  0.00    -0.002 A 
ATOM     10  C   UNL     1       1.062  -2.420  -0.722  1.00  0.00     0.119 A 
ATOM     11  C   UNL     1       2.331  -2.451  -1.294  1.00  0.00     0.048 A 
ATOM     12  C   UNL     1       0.173  -3.480  -0.934  1.00  0.00     0.057 A 
ATOM     13  C   UNL     1       2.733  -3.525  -2.100  1.00  0.00     0.030 A 
ATOM     14  C   UNL     1       0.541  -4.560  -1.765  1.00  0.00     0.008 A 
ATOM     15  C   UNL     1       1.815  -4.559  -2.319  1.00  0.00     0.046 A 
ATOM     16  N   UNL     1       1.928  -5.706  -3.065  1.00  0.00    -0.352 N 
ATOM     17  C   UNL     1       0.786  -6.478  -2.975  1.00  0.00     0.093 A 
ATOM     18  H   UNL     1       2.722  -5.947  -3.596  1.00  0.00     0.167 HD
BRANCH  10  19
ATOM     19  O   UNL     1       0.580  -1.425   0.086  1.00  0.00    -0.497 OA
ATOM     20  C   UNL     1       1.142  -0.132  -0.116  1.00  0.00     0.278 C 
ENDBRANCH  10  19
BRANCH  17  21
ATOM     21  C   UNL     1       0.617  -7.803  -3.561  1.00  0.00     0.227 C 
ATOM     22  O   UNL     1      -0.402  -8.480  -3.423  1.00  0.00    -0.285 OA
BRANCH  21  23
ATOM     23  C   UNL     1       1.748  -8.418  -4.302  1.00  0.00     0.113 A 
ATOM     24  C   UNL     1       2.907  -8.774  -3.618  1.00  0.00     0.036 A 
ATOM     25  N   UNL     1       1.560  -8.619  -5.630  1.00  0.00    -0.253 NA
ATOM     26  C   UNL     1       3.943  -9.372  -4.338  1.00  0.00    -0.047 A 
ATOM     27  C   UNL     1       2.565  -9.222  -6.296  1.00  0.00     0.112 A 
ATOM     28  C   UNL     1       5.222  -9.777  -3.670  1.00  0.00     0.044 C 
ATOM     29  C   UNL     1       3.759  -9.607  -5.703  1.00  0.00     0.023 A 
ENDBRANCH  21  23
ENDBRANCH  17  21
ENDBRANCH   8   9
ENDBRANCH   5   8
ENDBRANCH   3   4
ENDBRANCH   2   3
ENDBRANCH   1   2
BRANCH   1  30
ATOM     30  C   UNL     1      -2.606  -2.442  -6.767  1.00  0.00     0.002 C 
BRANCH  30  31
ATOM     31  C   UNL     1      -2.207  -1.016  -6.380  1.00  0.00     0.021 C 
BRANCH  31  32
ATOM     32  C   UNL     1      -1.012  -0.457  -7.146  1.00  0.00     0.116 C 
BRANCH  32  33
ATOM     33  N   UNL     1      -1.291  -0.319  -8.567  1.00  0.00    -0.352 N 
ATOM     34  C   UNL     1      -1.106   0.763  -9.388  1.00  0.00     0.251 C 
ATOM     35  H   UNL     1      -1.667  -1.119  -9.002  1.00  0.00     0.163 HD
ATOM     36  O   UNL     1      -1.583   0.756 -10.523  1.00  0.00    -0.269 OA
BRANCH  34  37
ATOM     37  C   UNL     1      -0.347   1.941  -8.913  1.00  0.00     0.039 A 
ATOM     38  C   UNL     1      -0.820   3.220  -9.222  1.00  0.00     0.014 A 
ATOM     39  C   UNL     1       0.845   1.790  -8.198  1.00  0.00     0.014 A 
ATOM     40  C   UNL     1      -0.117   4.346  -8.784  1.00  0.00     0.010 A 
ATOM     41  C   UNL     1       1.506   2.912  -7.704  1.00  0.00     0.010 A 
ATOM     42  C   UNL     1       1.042   4.201  -8.006  1.00  0.00    -0.014 A 
BRANCH  42  43
ATOM     43  C   UNL     1       1.810   5.384  -7.538  1.00  0.00     0.031 A 
ATOM     44  C   UNL     1       3.212   5.611  -8.038  1.00  0.00     0.074 A 
ATOM     45  C   UNL     1       1.271   6.221  -6.630  1.00  0.00     0.049 A 
ATOM     46  N   UNL     1       4.075   6.532  -7.694  1.00  0.00    -0.248 NA
ATOM     47  C   UNL     1       3.723   4.658  -9.038  1.00  0.00     0.031 C 
ATOM     48  C   UNL     1      -0.063   6.086  -6.041  1.00  0.00     0.029 A 
ATOM     49  N   UNL     1       1.782   7.348  -6.037  1.00  0.00    -0.354 N 
ATOM     50  C   UNL     1       5.230   6.261  -8.419  1.00  0.00     0.074 A 
ATOM     51  C   UNL     1       4.977   5.058  -9.181  1.00  0.00     0.031 C 
ATOM     52  C   UNL     1      -0.271   7.101  -5.186  1.00  0.00     0.029 A 
ATOM     53  C   UNL     1       0.924   7.939  -5.140  1.00  0.00     0.049 A 
ATOM     54  H   UNL     1       2.680   7.699  -6.234  1.00  0.00     0.167 HD
ATOM     55  C   UNL     1       6.386   6.965  -8.466  1.00  0.00     0.037 A 
ATOM     56  C   UNL     1       1.084   9.030  -4.366  1.00  0.00     0.037 A 
ATOM     57  C   UNL     1       6.619   8.182  -7.734  1.00  0.00     0.049 A 
ATOM     58  C   UNL     1       2.374   9.802  -4.445  1.00  0.00     0.074 A 
ATOM     59  C   UNL     1       7.739   8.994  -7.747  1.00  0.00     0.029 A 
ATOM     60  N   UNL     1       5.711   8.767  -6.863  1.00  0.00    -0.354 N 
ATOM     61  N   UNL     1       3.440   9.555  -5.169  1.00  0.00    -0.248 NA
ATOM     62  C   UNL     1       2.481  11.007  -3.611  1.00  0.00     0.031 C 
ATOM     63  C   UNL     1       7.521  10.053  -6.859  1.00  0.00     0.029 A 
ATOM     64  C   UNL     1       6.248   9.925  -6.328  1.00  0.00     0.049 A 
ATOM     65  H   UNL     1       4.816   8.411  -6.657  1.00  0.00     0.167 HD
ATOM     66  C   UNL     1       4.328  10.592  -4.905  1.00  0.00     0.074 A 
ATOM     67  C   UNL     1       3.673  11.472  -3.959  1.00  0.00     0.031 C 
ATOM     68  C   UNL     1       5.573  10.800  -5.402  1.00  0.00     0.037 A 
BRANCH  55  69
ATOM     69  C   UNL     1       7.486   6.440  -9.348  1.00  0.00     0.058 A 
ATOM     70  C   UNL     1       7.389   6.480 -10.749  1.00  0.00     0.135 A 
ATOM     71  C   UNL     1       8.665   5.920  -8.790  1.00  0.00     0.135 A 
ATOM     72  F   UNL     1       6.278   6.951 -11.336  1.00  0.00    -0.206 F 
ATOM     73  C   UNL     1       8.407   5.996 -11.563  1.00  0.00     0.059 A 
ATOM     74  C   UNL     1       9.709   5.457  -9.586  1.00  0.00     0.059 A 
ATOM     75  F   UNL     1       8.812   5.857  -7.457  1.00  0.00    -0.206 F 
ATOM     76  C   UNL     1       9.564   5.485 -10.972  1.00  0.00     0.060 A 
BRANCH  76  77
ATOM     77  S   UNL     1      10.878   4.864 -12.043  1.00  0.00     0.124 S 
ATOM     78  O   UNL     1      10.304   3.605 -12.506  1.00  0.00    -0.237 OA
ATOM     79  O   UNL     1      10.988   5.918 -13.047  1.00  0.00    -0.237 OA
ATOM     80  O   UNL     1      12.019   4.739 -11.142  1.00  0.00    -0.744 OA
ENDBRANCH  76  77
ENDBRANCH  55  69
BRANCH  56  81
ATOM     81  C   UNL     1      -0.015   9.477  -3.469  1.00  0.00     0.058 A 
ATOM     82  C   UNL     1      -0.736  10.649  -3.741  1.00  0.00     0.135 A 
ATOM     83  C   UNL     1      -0.366   8.745  -2.324  1.00  0.00     0.135 A 
ATOM     84  F   UNL     1      -0.434  11.386  -4.822  1.00  0.00    -0.206 F 
ATOM     85  C   UNL     1      -1.749  11.095  -2.899  1.00  0.00     0.059 A 
ATOM     86  C   UNL     1      -1.392   9.157  -1.480  1.00  0.00     0.059 A 
ATOM     87  F   UNL     1       0.281   7.607  -2.029  1.00  0.00    -0.206 F 
ATOM     88  C   UNL     1      -2.069  10.341  -1.769  1.00  0.00     0.060 A 
BRANCH  88  89
ATOM     89  S   UNL     1      -3.407  10.911  -0.698  1.00  0.00     0.124 S 
ATOM     90  O   UNL     1      -2.776  12.032  -0.011  1.00  0.00    -0.237 OA
ATOM     91  O   UNL     1      -4.447  11.255  -1.662  1.00  0.00    -0.237 OA
ATOM     92  O   UNL     1      -3.693   9.742   0.130  1.00  0.00    -0.744 OA
ENDBRANCH  88  89
ENDBRANCH  56  81
BRANCH  68  93
ATOM     93  C   UNL     1       6.290  12.051  -4.977  1.00  0.00     0.058 A 
ATOM     94  C   UNL     1       6.829  12.193  -3.690  1.00  0.00     0.135 A 
ATOM     95  C   UNL     1       6.484  13.099  -5.891  1.00  0.00     0.135 A 
ATOM     96  F   UNL     1       6.667  11.222  -2.777  1.00  0.00    -0.206 F 
ATOM     97  C   UNL     1       7.517  13.343  -3.315  1.00  0.00     0.059 A 
ATOM     98  C   UNL     1       7.191  14.246  -5.547  1.00  0.00     0.059 A 
ATOM     99  F   UNL     1       5.997  13.007  -7.139  1.00  0.00    -0.206 F 
ATOM    100  C   UNL     1       7.694  14.364  -4.252  1.00  0.00     0.060 A 
BRANCH 100 101
ATOM    101  S   UNL     1       8.619  15.836  -3.765  1.00  0.00     0.124 S 
ATOM    102  O   UNL     1       7.646  16.530  -2.929  1.00  0.00    -0.237 OA
ATOM    103  O   UNL     1       9.767  15.267  -3.064  1.00  0.00    -0.237 OA
ATOM    104  O   UNL     1       8.927  16.480  -5.039  1.00  0.00    -0.744 OA
ENDBRANCH 100 101
ENDBRANCH  68  93
ENDBRANCH  42  43
ENDBRANCH  34  37
ENDBRANCH  32  33
ENDBRANCH  31  32
ENDBRANCH  30  31
ENDBRANCH   1  30
TORSDOF 20
