REMARK SMILES Cc1ccc(N2C(=O)[NH+]=C(NCCCCCCNC(=O)c3ccc(-c4c5nc(c(-c6c(F)cc(S(=O)(=O)[O-])cc6F)c6ccc([nH]6)c(-c6c(F)cc(S(=O)(=O)[O-])cc6F)c6nc(c(-c7c(F)cc(S(=O)(=O)[O-])cc7F)c7ccc4[nH]7)C=C6)C=C5)cc3)/C(=C\c3ccccc3OCc3cccc(C(=O)[O-])c3)C2=O)cc1
REMARK SMILES IDX 14 1 13 2 12 3 11 4 6 5 7 6 106 7 8 8 9 9 87 10 107 11 10 12
REMARK SMILES IDX 88 14 5 16 1 17 2 18 3 19 109 20 4 21 108 22 89 23 90 24
REMARK SMILES IDX 94 25 91 26 93 27 92 28 95 29 96 30 97 31 98 32 105 33 99 34
REMARK SMILES IDX 101 35 100 36 102 37 103 38 104 39 15 40 16 41 17 42 18 43
REMARK SMILES IDX 19 44 20 46 21 47 22 48 86 49 23 50 85 51 24 52 25 53 26 54
REMARK SMILES IDX 79 55 27 56 84 57 78 58 80 59 28 60 83 61 77 62 76 63 29 65
REMARK SMILES IDX 63 66 42 67 62 68 43 69 46 70 61 71 81 72 44 73 45 74 60 76
REMARK SMILES IDX 82 77 47 78 30 79 31 80 40 81 32 82 33 83 39 84 41 85 34 86
REMARK SMILES IDX 35 87 36 88 37 89 38 90 64 91 65 92 74 93 66 94 67 95 73 96
REMARK SMILES IDX 75 97 68 98 69 99 70 100 71 101 72 102 48 103 49 104 58 105
REMARK SMILES IDX 50 106 51 107 57 108 59 109 52 110 53 111 54 112 55 113
REMARK SMILES IDX 56 114
REMARK H PARENT 9 13 11 15 18 45 80 64 46 75
REMARK Flexibility Score: inf
ROOT
ATOM      1  C   UNL     1     -10.308   0.947   0.938  1.00  0.00     0.003 C 
ENDROOT
BRANCH   1   2
ATOM      2  C   UNL     1      -9.312   0.662   2.070  1.00  0.00     0.037 C 
BRANCH   2   3
ATOM      3  C   UNL     1      -7.963   0.096   1.628  1.00  0.00     0.194 C 
BRANCH   3   4
ATOM      4  N   UNL     1      -7.211   1.056   0.832  1.00  0.00    -0.305 N 
ATOM      5  N   UNL     1      -3.092   0.780   0.331  1.00  0.00    -0.155 N 
ATOM      6  C   UNL     1      -3.804   0.080   1.320  1.00  0.00     0.448 C 
ATOM      7  C   UNL     1      -3.716   1.636  -0.574  1.00  0.00     0.328 C 
ATOM      8  O   UNL     1      -3.247  -0.671   2.121  1.00  0.00    -0.212 OA
ATOM      9  N   UNL     1      -5.150   0.266   1.450  1.00  0.00    -0.209 N 
ATOM     10  C   UNL     1      -5.200   1.530  -0.593  1.00  0.00     0.129 C 
ATOM     11  O   UNL     1      -3.144   2.332  -1.416  1.00  0.00    -0.249 OA
ATOM     12  C   UNL     1      -5.860   0.931   0.594  1.00  0.00     0.236 C 
ATOM     13  H   UNL     1      -5.604  -0.124   2.232  1.00  0.00     0.270 HD
ATOM     14  C   UNL     1      -5.781   1.773  -1.788  1.00  0.00     0.034 C 
ATOM     15  H   UNL     1      -7.689   1.826   0.448  1.00  0.00     0.256 HD
BRANCH   5  16
ATOM     16  C   UNL     1      -1.667   0.580   0.229  1.00  0.00     0.111 A 
ATOM     17  C   UNL     1       2.610  -0.052  -0.053  1.00  0.00     0.044 C 
ATOM     18  C   UNL     1       1.131   0.173   0.038  1.00  0.00    -0.051 A 
ATOM     19  C   UNL     1       0.272  -0.906   0.253  1.00  0.00     0.007 A 
ATOM     20  C   UNL     1       0.586   1.452  -0.103  1.00  0.00     0.007 A 
ATOM     21  C   UNL     1      -1.107  -0.702   0.357  1.00  0.00     0.044 A 
ATOM     22  C   UNL     1      -0.797   1.650  -0.015  1.00  0.00     0.044 A 
ENDBRANCH   5  16
BRANCH  14  23
ATOM     23  C   UNL     1      -7.138   1.448  -2.256  1.00  0.00     0.018 A 
ATOM     24  C   UNL     1      -7.856   2.495  -2.863  1.00  0.00     0.012 A 
ATOM     25  C   UNL     1      -7.739   0.179  -2.176  1.00  0.00     0.127 A 
ATOM     26  C   UNL     1      -9.171   2.314  -3.294  1.00  0.00     0.001 A 
ATOM     27  C   UNL     1      -9.058   0.008  -2.618  1.00  0.00     0.047 A 
ATOM     28  C   UNL     1      -9.780   1.073  -3.154  1.00  0.00     0.004 A 
BRANCH  25  29
ATOM     29  O   UNL     1      -7.209  -0.915  -1.540  1.00  0.00    -0.488 OA
BRANCH  29  30
ATOM     30  C   UNL     1      -5.954  -1.381  -2.030  1.00  0.00     0.265 C 
BRANCH  30  31
ATOM     31  C   UNL     1      -5.537  -2.638  -1.293  1.00  0.00    -0.010 A 
ATOM     32  C   UNL     1      -4.174  -2.911  -1.096  1.00  0.00     0.007 A 
ATOM     33  C   UNL     1      -6.483  -3.581  -0.864  1.00  0.00     0.017 A 
ATOM     34  C   UNL     1      -3.762  -4.097  -0.487  1.00  0.00     0.001 A 
ATOM     35  C   UNL     1      -6.072  -4.786  -0.277  1.00  0.00    -0.002 A 
ATOM     36  C   UNL     1      -4.709  -5.040  -0.089  1.00  0.00     0.010 A 
BRANCH  35  37
ATOM     37  C   UNL     1      -7.045  -5.833   0.102  1.00  0.00     0.071 C 
ATOM     38  O   UNL     1      -6.767  -6.982   0.430  1.00  0.00    -0.545 OA
ATOM     39  O   UNL     1      -8.318  -5.415   0.038  1.00  0.00    -0.545 OA
ENDBRANCH  35  37
ENDBRANCH  30  31
ENDBRANCH  29  30
ENDBRANCH  25  29
ENDBRANCH  14  23
ENDBRANCH   3   4
ENDBRANCH   2   3
ENDBRANCH   1   2
BRANCH   1  40
ATOM     40  C   UNL     1     -10.853  -0.280   0.189  1.00  0.00     0.002 C 
BRANCH  40  41
ATOM     41  C   UNL     1     -11.626  -1.319   0.993  1.00  0.00     0.021 C 
BRANCH  41  42
ATOM     42  C   UNL     1     -12.802  -0.768   1.769  1.00  0.00     0.116 C 
BRANCH  42  43
ATOM     43  N   UNL     1     -14.065  -0.672   1.060  1.00  0.00    -0.352 N 
ATOM     44  C   UNL     1     -15.322  -0.561   1.652  1.00  0.00     0.251 C 
ATOM     45  H   UNL     1     -14.031  -0.688   0.076  1.00  0.00     0.163 HD
ATOM     46  O   UNL     1     -16.316  -1.087   1.164  1.00  0.00    -0.269 OA
BRANCH  44  47
ATOM     47  C   UNL     1     -15.452   0.401   2.778  1.00  0.00     0.039 A 
ATOM     48  C   UNL     1     -16.419   1.414   2.687  1.00  0.00     0.014 A 
ATOM     49  C   UNL     1     -14.429   0.503   3.705  1.00  0.00     0.014 A 
ATOM     50  C   UNL     1     -16.211   2.620   3.348  1.00  0.00     0.010 A 
ATOM     51  C   UNL     1     -14.097   1.746   4.156  1.00  0.00     0.010 A 
ATOM     52  C   UNL     1     -14.989   2.806   3.973  1.00  0.00    -0.014 A 
BRANCH  52  53
ATOM     53  C   UNL     1     -14.540   3.993   4.663  1.00  0.00     0.031 A 
ATOM     54  C   UNL     1     -14.597   3.938   6.136  1.00  0.00     0.074 A 
ATOM     55  C   UNL     1     -13.746   4.841   3.977  1.00  0.00     0.049 A 
ATOM     56  N   UNL     1     -14.255   4.905   6.902  1.00  0.00    -0.248 NA
ATOM     57  C   UNL     1     -15.061   2.765   6.880  1.00  0.00     0.031 C 
ATOM     58  C   UNL     1     -12.703   5.719   4.493  1.00  0.00     0.029 A 
ATOM     59  N   UNL     1     -13.857   5.201   2.633  1.00  0.00    -0.354 N 
ATOM     60  C   UNL     1     -14.150   4.411   8.185  1.00  0.00     0.074 A 
ATOM     61  C   UNL     1     -14.773   3.114   8.137  1.00  0.00     0.031 C 
ATOM     62  C   UNL     1     -12.452   6.678   3.584  1.00  0.00     0.029 A 
ATOM     63  C   UNL     1     -13.464   6.555   2.548  1.00  0.00     0.049 A 
ATOM     64  H   UNL     1     -14.151   4.625   1.891  1.00  0.00     0.167 HD
ATOM     65  C   UNL     1     -13.425   5.140   9.078  1.00  0.00     0.037 A 
ATOM     66  C   UNL     1     -14.416   7.507   2.280  1.00  0.00     0.037 A 
ATOM     67  C   UNL     1     -12.997   6.390   8.447  1.00  0.00     0.049 A 
ATOM     68  C   UNL     1     -14.696   8.454   3.438  1.00  0.00     0.074 A 
ATOM     69  C   UNL     1     -11.828   6.845   7.864  1.00  0.00     0.029 A 
ATOM     70  N   UNL     1     -13.979   7.277   8.069  1.00  0.00    -0.354 N 
ATOM     71  N   UNL     1     -14.181   8.335   4.631  1.00  0.00    -0.248 NA
ATOM     72  C   UNL     1     -15.621   9.583   3.357  1.00  0.00     0.031 C 
ATOM     73  C   UNL     1     -12.143   8.030   7.127  1.00  0.00     0.029 A 
ATOM     74  C   UNL     1     -13.491   8.297   7.290  1.00  0.00     0.049 A 
ATOM     75  H   UNL     1     -14.925   7.190   8.329  1.00  0.00     0.167 HD
ATOM     76  C   UNL     1     -14.732   9.261   5.479  1.00  0.00     0.074 A 
ATOM     77  C   UNL     1     -15.625  10.027   4.628  1.00  0.00     0.031 C 
ATOM     78  C   UNL     1     -14.441   9.293   6.817  1.00  0.00     0.037 A 
BRANCH  65  79
ATOM     79  C   UNL     1     -12.939   4.732  10.452  1.00  0.00     0.058 A 
ATOM     80  C   UNL     1     -12.042   5.586  11.138  1.00  0.00     0.135 A 
ATOM     81  C   UNL     1     -13.244   3.540  11.139  1.00  0.00     0.135 A 
ATOM     82  F   UNL     1     -11.703   6.788  10.652  1.00  0.00    -0.206 F 
ATOM     83  C   UNL     1     -11.441   5.252  12.348  1.00  0.00     0.059 A 
ATOM     84  C   UNL     1     -12.655   3.184  12.357  1.00  0.00     0.059 A 
ATOM     85  F   UNL     1     -14.133   2.656  10.682  1.00  0.00    -0.206 F 
ATOM     86  C   UNL     1     -11.737   4.038  12.945  1.00  0.00     0.060 A 
BRANCH  86  87
ATOM     87  S   UNL     1     -10.911   3.613  14.484  1.00  0.00     0.124 S 
ATOM     88  O   UNL     1      -9.514   3.548  14.066  1.00  0.00    -0.237 OA
ATOM     89  O   UNL     1     -11.267   4.736  15.344  1.00  0.00    -0.237 OA
ATOM     90  O   UNL     1     -11.510   2.332  14.850  1.00  0.00    -0.744 OA
ENDBRANCH  86  87
ENDBRANCH  65  79
BRANCH  66  91
ATOM     91  C   UNL     1     -15.432   6.991   1.303  1.00  0.00     0.058 A 
ATOM     92  C   UNL     1     -14.969   6.691   0.004  1.00  0.00     0.135 A 
ATOM     93  C   UNL     1     -16.559   6.292   1.763  1.00  0.00     0.135 A 
ATOM     94  F   UNL     1     -13.917   7.355  -0.503  1.00  0.00    -0.206 F 
ATOM     95  C   UNL     1     -15.443   5.590  -0.702  1.00  0.00     0.059 A 
ATOM     96  C   UNL     1     -17.063   5.196   1.059  1.00  0.00     0.059 A 
ATOM     97  F   UNL     1     -17.060   6.547   2.981  1.00  0.00    -0.206 F 
ATOM     98  C   UNL     1     -16.431   4.799  -0.120  1.00  0.00     0.060 A 
BRANCH  98  99
ATOM     99  S   UNL     1     -16.714   3.152  -0.820  1.00  0.00     0.124 S 
ATOM    100  O   UNL     1     -17.020   3.461  -2.213  1.00  0.00    -0.237 OA
ATOM    101  O   UNL     1     -15.422   2.507  -0.588  1.00  0.00    -0.237 OA
ATOM    102  O   UNL     1     -17.829   2.643  -0.031  1.00  0.00    -0.744 OA
ENDBRANCH  98  99
ENDBRANCH  66  91
BRANCH  78 103
ATOM    103  C   UNL     1     -15.068  10.232   7.827  1.00  0.00     0.058 A 
ATOM    104  C   UNL     1     -15.287  11.592   7.567  1.00  0.00     0.135 A 
ATOM    105  C   UNL     1     -15.373   9.814   9.150  1.00  0.00     0.135 A 
ATOM    106  F   UNL     1     -14.945  12.130   6.386  1.00  0.00    -0.206 F 
ATOM    107  C   UNL     1     -15.839  12.453   8.521  1.00  0.00     0.059 A 
ATOM    108  C   UNL     1     -15.857  10.667  10.134  1.00  0.00     0.059 A 
ATOM    109  F   UNL     1     -15.256   8.541   9.548  1.00  0.00    -0.206 F 
ATOM    110  C   UNL     1     -16.123  11.980   9.801  1.00  0.00     0.060 A 
BRANCH 110 111
ATOM    111  S   UNL     1     -16.835  13.085  11.028  1.00  0.00     0.124 S 
ATOM    112  O   UNL     1     -16.019  14.286  10.876  1.00  0.00    -0.237 OA
ATOM    113  O   UNL     1     -18.212  13.191  10.557  1.00  0.00    -0.237 OA
ATOM    114  O   UNL     1     -16.656  12.366  12.286  1.00  0.00    -0.744 OA
ENDBRANCH 110 111
ENDBRANCH  78 103
ENDBRANCH  52  53
ENDBRANCH  44  47
ENDBRANCH  42  43
ENDBRANCH  41  42
ENDBRANCH  40  41
ENDBRANCH   1  40
TORSDOF 21
