REMARK SMILES C[C@@H]1CCC[C@H]1NC(=O)c1csc(/C=C/C(=O)NCCCCCCNC(=O)c2ccc(-c3c4nc(c(-c5c(F)cc(S(=O)(=O)[O-])cc5F)c5ccc([nH]5)c(-c5c(F)cc(S(=O)(=O)[O-])cc5F)c5nc(c(-c6c(F)cc(S(=O)(=O)[O-])cc6F)c6ccc3[nH]6)C=C5)C=C4)cc2)c1
REMARK SMILES IDX 21 1 20 2 19 3 18 4 16 5 17 6 15 8 14 9 13 10 10 11 11 12
REMARK SMILES IDX 94 13 12 14 8 15 7 16 9 18 6 19 1 20 2 21 3 22 4 23 5 24
REMARK SMILES IDX 22 25 23 26 24 27 25 28 26 29 27 31 28 32 29 33 93 34 30 35
REMARK SMILES IDX 92 36 31 37 32 38 33 39 86 40 34 41 91 42 85 43 87 44 35 45
REMARK SMILES IDX 90 46 84 47 83 48 36 50 70 51 49 52 69 53 50 54 53 55 68 56
REMARK SMILES IDX 88 57 51 58 52 59 67 61 89 62 54 63 37 64 38 65 47 66 39 67
REMARK SMILES IDX 40 68 46 69 48 70 41 71 42 72 43 73 44 74 45 75 71 76 72 77
REMARK SMILES IDX 81 78 73 79 74 80 80 81 82 82 75 83 76 84 77 85 78 86 79 87
REMARK SMILES IDX 55 88 56 89 65 90 57 91 58 92 64 93 66 94 59 95 60 96 61 97
REMARK SMILES IDX 62 98 63 99
REMARK H PARENT 18 7 7 17 25 30 87 49 53 60
REMARK Flexibility Score: inf
ROOT
ATOM      1  C   UNL     1       6.284   8.046   5.425  1.00  0.00     0.002 C 
ENDROOT
BRANCH   1   2
ATOM      2  C   UNL     1       5.235   7.200   4.691  1.00  0.00     0.021 C 
BRANCH   2   3
ATOM      3  C   UNL     1       4.034   8.014   4.207  1.00  0.00     0.116 C 
BRANCH   3   4
ATOM      4  N   UNL     1       4.382   8.748   3.001  1.00  0.00    -0.353 N 
ATOM      5  C   UNL     1       3.922   8.651   1.727  1.00  0.00     0.244 C 
ATOM      6  O   UNL     1       4.340   9.425   0.869  1.00  0.00    -0.270 OA
ATOM      7  H   UNL     1       5.073   9.437   3.131  1.00  0.00     0.163 HD
BRANCH   5   8
ATOM      8  C   UNL     1       2.842   7.703   1.381  1.00  0.00     0.072 C 
ATOM      9  C   UNL     1       2.825   6.415   1.750  1.00  0.00     0.024 C 
BRANCH   9  10
ATOM     10  C   UNL     1       1.724   5.551   1.488  1.00  0.00     0.028 A 
ATOM     11  C   UNL     1       0.177   3.787   1.752  1.00  0.00     0.051 A 
ATOM     12  C   UNL     1      -0.205   4.321   0.537  1.00  0.00     0.079 A 
ATOM     13  C   UNL     1       1.254   4.545   2.315  1.00  0.00     0.033 A 
ATOM     14  S   UNL     1       0.795   5.613   0.043  1.00  0.00    -0.144 S 
BRANCH  11  15
ATOM     15  C   UNL     1      -0.454   2.654   2.412  1.00  0.00     0.252 C 
ATOM     16  N   UNL     1      -0.579   1.470   1.730  1.00  0.00    -0.349 N 
ATOM     17  H   UNL     1      -1.070   0.762   2.206  1.00  0.00     0.164 HD
ATOM     18  O   UNL     1      -0.827   2.716   3.579  1.00  0.00    -0.269 OA
BRANCH  16  19
ATOM     19  C   UNL     1      -0.093   1.105   0.403  1.00  0.00     0.085 C 
ATOM     20  C   UNL     1       1.779  -0.155  -0.745  1.00  0.00     0.010 C 
ATOM     21  C   UNL     1       0.838  -0.114   0.462  1.00  0.00     0.008 C 
ATOM     22  C   UNL     1      -0.130  -1.296   0.466  1.00  0.00     0.005 C 
ATOM     23  C   UNL     1      -1.300  -0.865  -0.413  1.00  0.00     0.002 C 
ATOM     24  C   UNL     1      -1.262   0.663  -0.479  1.00  0.00     0.025 C 
ENDBRANCH  16  19
ENDBRANCH  11  15
ENDBRANCH   9  10
ENDBRANCH   5   8
ENDBRANCH   3   4
ENDBRANCH   2   3
ENDBRANCH   1   2
BRANCH   1  25
ATOM     25  C   UNL     1       5.776   8.734   6.698  1.00  0.00     0.002 C 
BRANCH  25  26
ATOM     26  C   UNL     1       5.132   7.798   7.724  1.00  0.00     0.021 C 
BRANCH  26  27
ATOM     27  C   UNL     1       6.066   6.716   8.255  1.00  0.00     0.116 C 
BRANCH  27  28
ATOM     28  N   UNL     1       7.183   7.289   8.987  1.00  0.00    -0.352 N 
ATOM     29  C   UNL     1       7.616   7.018  10.259  1.00  0.00     0.251 C 
ATOM     30  H   UNL     1       7.702   7.969   8.501  1.00  0.00     0.163 HD
ATOM     31  O   UNL     1       8.419   7.772  10.802  1.00  0.00    -0.269 OA
BRANCH  29  32
ATOM     32  C   UNL     1       7.117   5.823  10.973  1.00  0.00     0.039 A 
ATOM     33  C   UNL     1       6.838   5.918  12.339  1.00  0.00     0.014 A 
ATOM     34  C   UNL     1       6.970   4.600  10.312  1.00  0.00     0.014 A 
ATOM     35  C   UNL     1       6.396   4.792  13.035  1.00  0.00     0.010 A 
ATOM     36  C   UNL     1       6.450   3.500  10.988  1.00  0.00     0.010 A 
ATOM     37  C   UNL     1       6.189   3.576  12.364  1.00  0.00    -0.014 A 
BRANCH  37  38
ATOM     38  C   UNL     1       5.763   2.359  13.100  1.00  0.00     0.031 A 
ATOM     39  C   UNL     1       6.684   1.168  13.176  1.00  0.00     0.074 A 
ATOM     40  C   UNL     1       4.544   2.313  13.672  1.00  0.00     0.049 A 
ATOM     41  N   UNL     1       6.489   0.006  13.744  1.00  0.00    -0.248 NA
ATOM     42  C   UNL     1       7.985   1.289  12.498  1.00  0.00     0.031 C 
ATOM     43  C   UNL     1       3.546   3.384  13.625  1.00  0.00     0.029 A 
ATOM     44  N   UNL     1       3.936   1.325  14.404  1.00  0.00    -0.354 N 
ATOM     45  C   UNL     1       7.632  -0.742  13.482  1.00  0.00     0.074 A 
ATOM     46  C   UNL     1       8.487   0.073  12.649  1.00  0.00     0.031 C 
ATOM     47  C   UNL     1       2.464   3.007  14.324  1.00  0.00     0.029 A 
ATOM     48  C   UNL     1       2.676   1.658  14.841  1.00  0.00     0.049 A 
ATOM     49  H   UNL     1       4.362   0.459  14.598  1.00  0.00     0.167 HD
ATOM     50  C   UNL     1       7.955  -1.981  13.922  1.00  0.00     0.037 A 
ATOM     51  C   UNL     1       1.794   0.955  15.577  1.00  0.00     0.037 A 
ATOM     52  C   UNL     1       7.110  -2.775  14.776  1.00  0.00     0.049 A 
ATOM     53  C   UNL     1       2.181  -0.416  16.064  1.00  0.00     0.074 A 
ATOM     54  C   UNL     1       7.360  -4.024  15.317  1.00  0.00     0.029 A 
ATOM     55  N   UNL     1       5.850  -2.394  15.217  1.00  0.00    -0.354 N 
ATOM     56  N   UNL     1       3.289  -1.087  15.853  1.00  0.00    -0.248 NA
ATOM     57  C   UNL     1       1.203  -1.120  16.905  1.00  0.00     0.031 C 
ATOM     58  C   UNL     1       6.234  -4.416  16.050  1.00  0.00     0.029 A 
ATOM     59  C   UNL     1       5.306  -3.388  16.013  1.00  0.00     0.049 A 
ATOM     60  H   UNL     1       5.409  -1.542  14.997  1.00  0.00     0.167 HD
ATOM     61  C   UNL     1       3.156  -2.276  16.563  1.00  0.00     0.074 A 
ATOM     62  C   UNL     1       1.865  -2.223  17.220  1.00  0.00     0.031 C 
ATOM     63  C   UNL     1       4.021  -3.316  16.664  1.00  0.00     0.037 A 
BRANCH  50  64
ATOM     64  C   UNL     1       9.282  -2.550  13.492  1.00  0.00     0.058 A 
ATOM     65  C   UNL     1      10.498  -2.021  13.957  1.00  0.00     0.135 A 
ATOM     66  C   UNL     1       9.341  -3.651  12.623  1.00  0.00     0.135 A 
ATOM     67  F   UNL     1      10.503  -0.957  14.776  1.00  0.00    -0.206 F 
ATOM     68  C   UNL     1      11.722  -2.539  13.550  1.00  0.00     0.059 A 
ATOM     69  C   UNL     1      10.555  -4.207  12.227  1.00  0.00     0.059 A 
ATOM     70  F   UNL     1       8.212  -4.197  12.145  1.00  0.00    -0.206 F 
ATOM     71  C   UNL     1      11.741  -3.634  12.684  1.00  0.00     0.060 A 
BRANCH  71  72
ATOM     72  S   UNL     1      13.338  -4.297  12.168  1.00  0.00     0.124 S 
ATOM     73  O   UNL     1      13.804  -3.258  11.254  1.00  0.00    -0.237 OA
ATOM     74  O   UNL     1      14.058  -4.397  13.433  1.00  0.00    -0.237 OA
ATOM     75  O   UNL     1      12.992  -5.571  11.545  1.00  0.00    -0.744 OA
ENDBRANCH  71  72
ENDBRANCH  50  64
BRANCH  51  76
ATOM     76  C   UNL     1       0.476   1.548  15.930  1.00  0.00     0.058 A 
ATOM     77  C   UNL     1       0.180   1.917  17.251  1.00  0.00     0.135 A 
ATOM     78  C   UNL     1      -0.513   1.758  14.957  1.00  0.00     0.135 A 
ATOM     79  F   UNL     1       1.092   1.732  18.219  1.00  0.00    -0.206 F 
ATOM     80  C   UNL     1      -1.056   2.449  17.602  1.00  0.00     0.059 A 
ATOM     81  C   UNL     1      -1.748   2.316  15.278  1.00  0.00     0.059 A 
ATOM     82  F   UNL     1      -0.275   1.440  13.676  1.00  0.00    -0.206 F 
ATOM     83  C   UNL     1      -2.014   2.646  16.606  1.00  0.00     0.060 A 
BRANCH  83  84
ATOM     84  S   UNL     1      -3.603   3.371  17.066  1.00  0.00     0.124 S 
ATOM     85  O   UNL     1      -4.235   2.267  17.779  1.00  0.00    -0.237 OA
ATOM     86  O   UNL     1      -3.195   4.510  17.882  1.00  0.00    -0.237 OA
ATOM     87  O   UNL     1      -4.199   3.715  15.778  1.00  0.00    -0.744 OA
ENDBRANCH  83  84
ENDBRANCH  51  76
BRANCH  63  88
ATOM     88  C   UNL     1       3.618  -4.460  17.555  1.00  0.00     0.058 A 
ATOM     89  C   UNL     1       2.576  -5.337  17.215  1.00  0.00     0.135 A 
ATOM     90  C   UNL     1       4.295  -4.687  18.765  1.00  0.00     0.135 A 
ATOM     91  F   UNL     1       1.894  -5.165  16.071  1.00  0.00    -0.206 F 
ATOM     92  C   UNL     1       2.188  -6.368  18.064  1.00  0.00     0.059 A 
ATOM     93  C   UNL     1       3.946  -5.733  19.613  1.00  0.00     0.059 A 
ATOM     94  F   UNL     1       5.311  -3.889  19.132  1.00  0.00    -0.206 F 
ATOM     95  C   UNL     1       2.876  -6.554  19.264  1.00  0.00     0.060 A 
BRANCH  95  96
ATOM     96  S   UNL     1       2.358  -7.890  20.362  1.00  0.00     0.124 S 
ATOM     97  O   UNL     1       1.129  -7.344  20.928  1.00  0.00    -0.237 OA
ATOM     98  O   UNL     1       2.189  -9.007  19.438  1.00  0.00    -0.237 OA
ATOM     99  O   UNL     1       3.476  -8.018  21.292  1.00  0.00    -0.744 OA
ENDBRANCH  95  96
ENDBRANCH  63  88
ENDBRANCH  37  38
ENDBRANCH  29  32
ENDBRANCH  27  28
ENDBRANCH  26  27
ENDBRANCH  25  26
ENDBRANCH   1  25
TORSDOF 19
