REMARK SMILES O=C(NCCCCCCNC(=O)[C@@H]1CCC(=O)N1C(=O)/C=C/c1ccccc1)c1ccc(-c2c3nc(c(-c4c(F)cc(S(=O)(=O)[O-])cc4F)c4ccc([nH]4)c(-c4c(F)cc(S(=O)(=O)[O-])cc4F)c4nc(c(-c5c(F)cc(S(=O)(=O)[O-])cc5F)c5ccc2[nH]5)C=C4)C=C3)cc1
REMARK SMILES IDX 6 1 5 2 4 3 3 4 1 5 2 6 29 8 30 9 94 10 31 11 93 12 32 13
REMARK SMILES IDX 33 14 34 15 87 16 35 17 92 18 86 19 88 20 36 21 91 22 85 23
REMARK SMILES IDX 84 24 37 26 71 27 50 28 70 29 51 30 54 31 69 32 89 33 52 34
REMARK SMILES IDX 53 35 68 37 90 38 55 39 38 40 39 41 48 42 40 43 41 44 47 45
REMARK SMILES IDX 49 46 42 47 43 48 44 49 45 50 46 51 72 52 73 53 82 54 74 55
REMARK SMILES IDX 75 56 81 57 83 58 76 59 77 60 78 61 79 62 80 63 56 64 57 65
REMARK SMILES IDX 66 66 58 67 59 68 65 69 67 70 60 71 61 72 62 73 63 74 64 75
REMARK SMILES IDX 7 76 8 77 9 78 10 79 11 80 12 82 13 83 14 84 18 85 15 86
REMARK SMILES IDX 16 87 17 88 19 89 20 90 21 91 22 92 23 93 24 94 28 95 25 96
REMARK SMILES IDX 27 97 26 98
REMARK H PARENT 3 7 88 25 54 36 10 81
REMARK Flexibility Score: inf
ROOT
ATOM      1  C   UNL     1       3.976  -2.553   2.820  1.00  0.00     0.002 C 
ENDROOT
BRANCH   1   2
ATOM      2  C   UNL     1       4.401  -1.179   2.292  1.00  0.00     0.021 C 
BRANCH   2   3
ATOM      3  C   UNL     1       4.359  -1.054   0.772  1.00  0.00     0.116 C 
BRANCH   3   4
ATOM      4  N   UNL     1       2.994  -1.117   0.277  1.00  0.00    -0.352 N 
ATOM      5  O   UNL     1       1.043  -0.267  -0.458  1.00  0.00    -0.269 OA
ATOM      6  C   UNL     1       2.261  -0.147  -0.359  1.00  0.00     0.251 C 
ATOM      7  H   UNL     1       2.532  -1.975   0.417  1.00  0.00     0.163 HD
BRANCH   6   8
ATOM      8  C   UNL     1       2.940   1.039  -0.921  1.00  0.00     0.039 A 
ATOM      9  C   UNL     1       4.108   0.899  -1.678  1.00  0.00     0.014 A 
ATOM     10  C   UNL     1       2.373   2.301  -0.729  1.00  0.00     0.014 A 
ATOM     11  C   UNL     1       4.760   2.028  -2.165  1.00  0.00     0.010 A 
ATOM     12  C   UNL     1       2.996   3.429  -1.268  1.00  0.00     0.010 A 
ATOM     13  C   UNL     1       4.202   3.302  -1.977  1.00  0.00    -0.014 A 
BRANCH  13  14
ATOM     14  C   UNL     1       4.848   4.495  -2.577  1.00  0.00     0.031 A 
ATOM     15  C   UNL     1       5.450   5.559  -1.707  1.00  0.00     0.074 A 
ATOM     16  C   UNL     1       4.858   4.624  -3.917  1.00  0.00     0.049 A 
ATOM     17  N   UNL     1       5.985   6.701  -2.053  1.00  0.00    -0.248 NA
ATOM     18  C   UNL     1       5.445   5.310  -0.257  1.00  0.00     0.031 C 
ATOM     19  C   UNL     1       4.296   3.655  -4.860  1.00  0.00     0.029 A 
ATOM     20  N   UNL     1       5.347   5.623  -4.718  1.00  0.00    -0.354 N 
ATOM     21  C   UNL     1       6.358   7.322  -0.867  1.00  0.00     0.074 A 
ATOM     22  C   UNL     1       5.974   6.433   0.210  1.00  0.00     0.031 C 
ATOM     23  C   UNL     1       4.479   4.102  -6.111  1.00  0.00     0.029 A 
ATOM     24  C   UNL     1       5.121   5.411  -6.057  1.00  0.00     0.049 A 
ATOM     25  H   UNL     1       5.814   6.416  -4.368  1.00  0.00     0.167 HD
ATOM     26  C   UNL     1       6.966   8.521  -0.697  1.00  0.00     0.037 A 
ATOM     27  C   UNL     1       5.375   6.194  -7.123  1.00  0.00     0.037 A 
ATOM     28  C   UNL     1       7.347   9.392  -1.778  1.00  0.00     0.049 A 
ATOM     29  C   UNL     1       6.033   7.526  -6.911  1.00  0.00     0.074 A 
ATOM     30  C   UNL     1       7.992  10.615  -1.713  1.00  0.00     0.029 A 
ATOM     31  N   UNL     1       7.112   9.137  -3.122  1.00  0.00    -0.354 N 
ATOM     32  N   UNL     1       6.404   8.088  -5.785  1.00  0.00    -0.248 NA
ATOM     33  C   UNL     1       6.310   8.331  -8.107  1.00  0.00     0.031 C 
ATOM     34  C   UNL     1       8.115  11.115  -3.014  1.00  0.00     0.029 A 
ATOM     35  C   UNL     1       7.584  10.185  -3.895  1.00  0.00     0.049 A 
ATOM     36  H   UNL     1       6.673   8.329  -3.475  1.00  0.00     0.167 HD
ATOM     37  C   UNL     1       6.976   9.303  -6.137  1.00  0.00     0.074 A 
ATOM     38  C   UNL     1       6.906   9.394  -7.582  1.00  0.00     0.031 C 
ATOM     39  C   UNL     1       7.514  10.254  -5.334  1.00  0.00     0.037 A 
BRANCH  26  40
ATOM     40  C   UNL     1       7.226   8.968   0.715  1.00  0.00     0.058 A 
ATOM     41  C   UNL     1       8.217   8.370   1.510  1.00  0.00     0.135 A 
ATOM     42  C   UNL     1       6.474  10.010   1.281  1.00  0.00     0.135 A 
ATOM     43  F   UNL     1       8.957   7.361   1.023  1.00  0.00    -0.206 F 
ATOM     44  C   UNL     1       8.425   8.761   2.829  1.00  0.00     0.059 A 
ATOM     45  C   UNL     1       6.680  10.433   2.592  1.00  0.00     0.059 A 
ATOM     46  F   UNL     1       5.516  10.619   0.565  1.00  0.00    -0.206 F 
ATOM     47  C   UNL     1       7.643   9.786   3.365  1.00  0.00     0.060 A 
BRANCH  47  48
ATOM     48  S   UNL     1       7.892  10.253   5.091  1.00  0.00     0.124 S 
ATOM     49  O   UNL     1       7.225   9.156   5.785  1.00  0.00    -0.237 OA
ATOM     50  O   UNL     1       9.347  10.280   5.204  1.00  0.00    -0.237 OA
ATOM     51  O   UNL     1       7.234  11.552   5.189  1.00  0.00    -0.744 OA
ENDBRANCH  47  48
ENDBRANCH  26  40
BRANCH  27  52
ATOM     52  C   UNL     1       4.995   5.717  -8.476  1.00  0.00     0.058 A 
ATOM     53  C   UNL     1       5.965   5.260  -9.378  1.00  0.00     0.135 A 
ATOM     54  C   UNL     1       3.648   5.631  -8.861  1.00  0.00     0.135 A 
ATOM     55  F   UNL     1       7.266   5.326  -9.055  1.00  0.00    -0.206 F 
ATOM     56  C   UNL     1       5.614   4.724 -10.612  1.00  0.00     0.059 A 
ATOM     57  C   UNL     1       3.271   5.080 -10.081  1.00  0.00     0.059 A 
ATOM     58  F   UNL     1       2.682   6.040  -8.023  1.00  0.00    -0.206 F 
ATOM     59  C   UNL     1       4.263   4.629 -10.950  1.00  0.00     0.060 A 
BRANCH  59  60
ATOM     60  S   UNL     1       3.813   3.841 -12.513  1.00  0.00     0.124 S 
ATOM     61  O   UNL     1       4.149   4.885 -13.474  1.00  0.00    -0.237 OA
ATOM     62  O   UNL     1       4.673   2.663 -12.522  1.00  0.00    -0.237 OA
ATOM     63  O   UNL     1       2.388   3.566 -12.350  1.00  0.00    -0.744 OA
ENDBRANCH  59  60
ENDBRANCH  27  52
BRANCH  39  64
ATOM     64  C   UNL     1       8.108  11.463  -5.998  1.00  0.00     0.058 A 
ATOM     65  C   UNL     1       7.303  12.492  -6.508  1.00  0.00     0.135 A 
ATOM     66  C   UNL     1       9.501  11.626  -6.054  1.00  0.00     0.135 A 
ATOM     67  F   UNL     1       5.966  12.379  -6.487  1.00  0.00    -0.206 F 
ATOM     68  C   UNL     1       7.860  13.643  -7.058  1.00  0.00     0.059 A 
ATOM     69  C   UNL     1      10.080  12.776  -6.580  1.00  0.00     0.059 A 
ATOM     70  F   UNL     1      10.313  10.671  -5.573  1.00  0.00    -0.206 F 
ATOM     71  C   UNL     1       9.250  13.777  -7.084  1.00  0.00     0.060 A 
BRANCH  71  72
ATOM     72  S   UNL     1       9.963  15.300  -7.742  1.00  0.00     0.124 S 
ATOM     73  O   UNL     1       9.804  15.103  -9.179  1.00  0.00    -0.237 OA
ATOM     74  O   UNL     1       9.114  16.328  -7.146  1.00  0.00    -0.237 OA
ATOM     75  O   UNL     1      11.338  15.271  -7.251  1.00  0.00    -0.744 OA
ENDBRANCH  71  72
ENDBRANCH  39  64
ENDBRANCH  13  14
ENDBRANCH   6   8
ENDBRANCH   3   4
ENDBRANCH   2   3
ENDBRANCH   1   2
BRANCH   1  76
ATOM     76  C   UNL     1       4.859  -3.724   2.368  1.00  0.00     0.002 C 
BRANCH  76  77
ATOM     77  C   UNL     1       6.362  -3.544   2.632  1.00  0.00     0.021 C 
BRANCH  77  78
ATOM     78  C   UNL     1       6.703  -3.407   4.118  1.00  0.00     0.116 C 
BRANCH  78  79
ATOM     79  N   UNL     1       6.730  -4.708   4.758  1.00  0.00    -0.354 N 
ATOM     80  C   UNL     1       7.666  -5.679   4.903  1.00  0.00     0.243 C 
ATOM     81  H   UNL     1       5.874  -4.939   5.185  1.00  0.00     0.163 HD
ATOM     82  O   UNL     1       7.214  -6.744   5.342  1.00  0.00    -0.273 OA
BRANCH  80  83
ATOM     83  C   UNL     1       9.176  -5.553   4.564  1.00  0.00     0.183 C 
ATOM     84  C   UNL     1       9.715  -4.232   4.044  1.00  0.00     0.046 C 
ATOM     85  N   UNL     1       9.581  -6.514   3.533  1.00  0.00    -0.266 N 
ATOM     86  C   UNL     1      10.959  -4.633   3.290  1.00  0.00     0.103 C 
ATOM     87  C   UNL     1      10.473  -5.898   2.639  1.00  0.00     0.230 C 
ATOM     88  O   UNL     1      10.810  -6.256   1.526  1.00  0.00    -0.274 OA
BRANCH  85  89
ATOM     89  C   UNL     1       9.667  -7.864   3.839  1.00  0.00     0.253 C 
ATOM     90  O   UNL     1       9.607  -8.320   4.978  1.00  0.00    -0.269 OA
BRANCH  89  91
ATOM     91  C   UNL     1       9.969  -8.785   2.716  1.00  0.00     0.072 C 
ATOM     92  C   UNL     1      11.254  -9.004   2.396  1.00  0.00     0.014 C 
BRANCH  92  93
ATOM     93  C   UNL     1      11.753  -9.828   1.283  1.00  0.00    -0.025 A 
ATOM     94  C   UNL     1      13.107  -9.709   0.931  1.00  0.00     0.008 A 
ATOM     95  C   UNL     1      10.957 -10.729   0.567  1.00  0.00     0.008 A 
ATOM     96  C   UNL     1      13.652 -10.471  -0.105  1.00  0.00     0.001 A 
ATOM     97  C   UNL     1      11.501 -11.491  -0.473  1.00  0.00     0.001 A 
ATOM     98  C   UNL     1      12.848 -11.364  -0.806  1.00  0.00     0.000 A 
ENDBRANCH  92  93
ENDBRANCH  89  91
ENDBRANCH  85  89
ENDBRANCH  80  83
ENDBRANCH  78  79
ENDBRANCH  77  78
ENDBRANCH  76  77
ENDBRANCH   1  76
TORSDOF 19
