REMARK SMILES CCN(Cc1ccccn1)c1nc(C)cc(C)c1C(=O)NCCCCCCNC(=O)c1ccc(-c2c3nc(c(-c4c(F)cc(S(=O)(=O)[O-])cc4F)c4ccc([nH]4)c(-c4c(F)cc(S(=O)(=O)[O-])cc4F)c4nc(c(-c5c(F)cc(S(=O)(=O)[O-])cc5F)c5ccc2[nH]5)C=C4)C=C3)cc1
REMARK SMILES IDX 24 1 23 2 22 3 21 4 19 5 20 6 18 8 11 9 12 10 13 11 16 12
REMARK SMILES IDX 14 13 15 14 17 15 3 16 2 17 1 18 4 19 5 20 6 21 10 22 7 23
REMARK SMILES IDX 9 24 8 25 25 26 26 27 27 28 28 29 29 30 30 32 31 33 32 34
REMARK SMILES IDX 96 35 33 36 95 37 34 38 35 39 36 40 89 41 37 42 94 43 88 44
REMARK SMILES IDX 90 45 38 46 93 47 87 48 86 49 39 51 73 52 52 53 72 54 53 55
REMARK SMILES IDX 56 56 71 57 91 58 54 59 55 60 70 62 92 63 57 64 40 65 41 66
REMARK SMILES IDX 50 67 42 68 43 69 49 70 51 71 44 72 45 73 46 74 47 75 48 76
REMARK SMILES IDX 74 77 75 78 84 79 76 80 77 81 83 82 85 83 78 84 79 85 80 86
REMARK SMILES IDX 81 87 82 88 58 89 59 90 68 91 60 92 61 93 67 94 69 95 62 96
REMARK SMILES IDX 63 97 64 98 65 99 66 100
REMARK H PARENT 21 7 28 31 90 50 56 61
REMARK Flexibility Score: inf
ROOT
ATOM      1  C   UNL     1       4.848  -0.466  -3.596  1.00  0.00     0.002 C 
ENDROOT
BRANCH   1   2
ATOM      2  C   UNL     1       5.054  -0.829  -2.122  1.00  0.00     0.021 C 
BRANCH   2   3
ATOM      3  C   UNL     1       4.938   0.275  -1.078  1.00  0.00     0.116 C 
BRANCH   3   4
ATOM      4  N   UNL     1       3.686   0.993  -1.017  1.00  0.00    -0.352 N 
ATOM      5  C   UNL     1       3.127   1.684   0.046  1.00  0.00     0.255 C 
ATOM      6  O   UNL     1       2.215   2.472  -0.204  1.00  0.00    -0.269 OA
ATOM      7  H   UNL     1       3.157   0.993  -1.847  1.00  0.00     0.163 HD
BRANCH   5   8
ATOM      8  C   UNL     1       3.581   1.499   1.458  1.00  0.00     0.085 A 
ATOM      9  C   UNL     1       2.616   1.198   2.446  1.00  0.00     0.142 A 
ATOM     10  N   UNL     1       2.963   1.129   3.756  1.00  0.00    -0.235 NA
ATOM     11  C   UNL     1       4.224   1.363   4.153  1.00  0.00     0.040 A 
ATOM     12  C   UNL     1       4.902   1.784   1.887  1.00  0.00    -0.033 A 
ATOM     13  C   UNL     1       4.465   1.397   5.630  1.00  0.00     0.067 C 
ATOM     14  C   UNL     1       5.218   1.670   3.250  1.00  0.00     0.028 A 
ATOM     15  C   UNL     1       6.025   2.246   1.003  1.00  0.00     0.045 C 
BRANCH   9  16
ATOM     16  N   UNL     1       1.264   0.987   2.186  1.00  0.00    -0.350 N 
BRANCH  16  17
ATOM     17  C   UNL     1       0.844  -0.379   1.894  1.00  0.00     0.115 C 
ATOM     18  C   UNL     1       0.751  -0.608   0.392  1.00  0.00     0.027 C 
ENDBRANCH  16  17
BRANCH  16  19
ATOM     19  C   UNL     1       0.311   1.830   2.935  1.00  0.00     0.174 C 
BRANCH  19  20
ATOM     20  C   UNL     1       0.288   1.651   4.456  1.00  0.00     0.060 A 
ATOM     21  C   UNL     1       0.543   2.757   5.273  1.00  0.00     0.026 A 
ATOM     22  N   UNL     1       0.046   0.414   4.975  1.00  0.00    -0.259 NA
ATOM     23  C   UNL     1       0.625   2.584   6.652  1.00  0.00     0.004 A 
ATOM     24  C   UNL     1       0.174   0.274   6.314  1.00  0.00     0.111 A 
ATOM     25  C   UNL     1       0.459   1.314   7.184  1.00  0.00     0.020 A 
ENDBRANCH  19  20
ENDBRANCH  16  19
ENDBRANCH   9  16
ENDBRANCH   5   8
ENDBRANCH   3   4
ENDBRANCH   2   3
ENDBRANCH   1   2
BRANCH   1  26
ATOM     26  C   UNL     1       5.492   0.811  -4.140  1.00  0.00     0.002 C 
BRANCH  26  27
ATOM     27  C   UNL     1       6.991   1.019  -3.911  1.00  0.00     0.021 C 
BRANCH  27  28
ATOM     28  C   UNL     1       7.916  -0.126  -4.308  1.00  0.00     0.116 C 
BRANCH  28  29
ATOM     29  N   UNL     1       7.816  -0.482  -5.712  1.00  0.00    -0.352 N 
ATOM     30  C   UNL     1       8.796  -0.585  -6.671  1.00  0.00     0.251 C 
ATOM     31  H   UNL     1       6.905  -0.681  -6.026  1.00  0.00     0.163 HD
ATOM     32  O   UNL     1       8.477  -0.774  -7.841  1.00  0.00    -0.269 OA
BRANCH  30  33
ATOM     33  C   UNL     1      10.228  -0.446  -6.312  1.00  0.00     0.039 A 
ATOM     34  C   UNL     1      11.058   0.309  -7.147  1.00  0.00     0.014 A 
ATOM     35  C   UNL     1      10.765  -1.073  -5.184  1.00  0.00     0.014 A 
ATOM     36  C   UNL     1      12.406   0.486  -6.820  1.00  0.00     0.010 A 
ATOM     37  C   UNL     1      12.092  -0.839  -4.822  1.00  0.00     0.010 A 
ATOM     38  C   UNL     1      12.928  -0.059  -5.636  1.00  0.00    -0.014 A 
BRANCH  38  39
ATOM     39  C   UNL     1      14.341   0.180  -5.235  1.00  0.00     0.031 A 
ATOM     40  C   UNL     1      15.308  -0.970  -5.136  1.00  0.00     0.074 A 
ATOM     41  C   UNL     1      14.738   1.425  -4.904  1.00  0.00     0.049 A 
ATOM     42  N   UNL     1      16.556  -0.968  -4.741  1.00  0.00    -0.248 NA
ATOM     43  C   UNL     1      14.799  -2.300  -5.504  1.00  0.00     0.031 C 
ATOM     44  C   UNL     1      13.885   2.615  -4.917  1.00  0.00     0.029 A 
ATOM     45  N   UNL     1      15.956   1.897  -4.481  1.00  0.00    -0.354 N 
ATOM     46  C   UNL     1      16.976  -2.292  -4.801  1.00  0.00     0.074 A 
ATOM     47  C   UNL     1      15.835  -3.077  -5.221  1.00  0.00     0.031 C 
ATOM     48  C   UNL     1      14.610   3.681  -4.540  1.00  0.00     0.029 A 
ATOM     49  C   UNL     1      15.966   3.247  -4.220  1.00  0.00     0.049 A 
ATOM     50  H   UNL     1      16.748   1.322  -4.374  1.00  0.00     0.167 HD
ATOM     51  C   UNL     1      18.206  -2.805  -4.552  1.00  0.00     0.037 A 
ATOM     52  C   UNL     1      16.953   4.046  -3.766  1.00  0.00     0.037 A 
ATOM     53  C   UNL     1      19.344  -2.015  -4.156  1.00  0.00     0.049 A 
ATOM     54  C   UNL     1      18.309   3.453  -3.491  1.00  0.00     0.074 A 
ATOM     55  C   UNL     1      20.645  -2.432  -3.934  1.00  0.00     0.029 A 
ATOM     56  N   UNL     1      19.318  -0.647  -3.921  1.00  0.00    -0.354 N 
ATOM     57  N   UNL     1      18.703   2.208  -3.612  1.00  0.00    -0.248 NA
ATOM     58  C   UNL     1      19.355   4.374  -3.026  1.00  0.00     0.031 C 
ATOM     59  C   UNL     1      21.394  -1.326  -3.519  1.00  0.00     0.029 A 
ATOM     60  C   UNL     1      20.574  -0.209  -3.535  1.00  0.00     0.049 A 
ATOM     61  H   UNL     1      18.524  -0.073  -4.015  1.00  0.00     0.167 HD
ATOM     62  C   UNL     1      20.050   2.201  -3.265  1.00  0.00     0.074 A 
ATOM     63  C   UNL     1      20.405   3.567  -2.941  1.00  0.00     0.031 C 
ATOM     64  C   UNL     1      20.915   1.157  -3.221  1.00  0.00     0.037 A 
BRANCH  51  65
ATOM     65  C   UNL     1      18.387  -4.292  -4.701  1.00  0.00     0.058 A 
ATOM     66  C   UNL     1      18.358  -4.916  -5.959  1.00  0.00     0.135 A 
ATOM     67  C   UNL     1      18.631  -5.099  -3.578  1.00  0.00     0.135 A 
ATOM     68  F   UNL     1      18.115  -4.196  -7.066  1.00  0.00    -0.206 F 
ATOM     69  C   UNL     1      18.531  -6.290  -6.095  1.00  0.00     0.059 A 
ATOM     70  C   UNL     1      18.838  -6.471  -3.693  1.00  0.00     0.059 A 
ATOM     71  F   UNL     1      18.672  -4.556  -2.351  1.00  0.00    -0.206 F 
ATOM     72  C   UNL     1      18.770  -7.059  -4.955  1.00  0.00     0.060 A 
BRANCH  72  73
ATOM     73  S   UNL     1      18.995  -8.840  -5.150  1.00  0.00     0.124 S 
ATOM     74  O   UNL     1      17.634  -9.274  -5.450  1.00  0.00    -0.237 OA
ATOM     75  O   UNL     1      19.942  -8.916  -6.257  1.00  0.00    -0.237 OA
ATOM     76  O   UNL     1      19.515  -9.261  -3.853  1.00  0.00    -0.744 OA
ENDBRANCH  72  73
ENDBRANCH  51  65
BRANCH  52  77
ATOM     77  C   UNL     1      16.698   5.497  -3.561  1.00  0.00     0.058 A 
ATOM     78  C   UNL     1      17.279   6.459  -4.400  1.00  0.00     0.135 A 
ATOM     79  C   UNL     1      15.857   5.951  -2.532  1.00  0.00     0.135 A 
ATOM     80  F   UNL     1      18.096   6.075  -5.393  1.00  0.00    -0.206 F 
ATOM     81  C   UNL     1      17.051   7.819  -4.219  1.00  0.00     0.059 A 
ATOM     82  C   UNL     1      15.592   7.305  -2.348  1.00  0.00     0.059 A 
ATOM     83  F   UNL     1      15.262   5.072  -1.711  1.00  0.00    -0.206 F 
ATOM     84  C   UNL     1      16.203   8.232  -3.191  1.00  0.00     0.060 A 
BRANCH  84  85
ATOM     85  S   UNL     1      15.874   9.997  -2.995  1.00  0.00     0.124 S 
ATOM     86  O   UNL     1      17.138  10.472  -2.445  1.00  0.00    -0.237 OA
ATOM     87  O   UNL     1      15.578  10.407  -4.364  1.00  0.00    -0.237 OA
ATOM     88  O   UNL     1      14.736  10.027  -2.081  1.00  0.00    -0.744 OA
ENDBRANCH  84  85
ENDBRANCH  52  77
BRANCH  64  89
ATOM     89  C   UNL     1      22.340   1.453  -2.842  1.00  0.00     0.058 A 
ATOM     90  C   UNL     1      22.703   1.777  -1.526  1.00  0.00     0.135 A 
ATOM     91  C   UNL     1      23.364   1.358  -3.800  1.00  0.00     0.135 A 
ATOM     92  F   UNL     1      21.764   1.887  -0.573  1.00  0.00    -0.206 F 
ATOM     93  C   UNL     1      24.028   2.020  -1.177  1.00  0.00     0.059 A 
ATOM     94  C   UNL     1      24.698   1.569  -3.467  1.00  0.00     0.059 A 
ATOM     95  F   UNL     1      23.072   1.041  -5.071  1.00  0.00    -0.206 F 
ATOM     96  C   UNL     1      25.019   1.911  -2.154  1.00  0.00     0.060 A 
BRANCH  96  97
ATOM     97  S   UNL     1      26.738   2.195  -1.680  1.00  0.00     0.124 S 
ATOM     98  O   UNL     1      26.762   3.644  -1.517  1.00  0.00    -0.237 OA
ATOM     99  O   UNL     1      26.855   1.416  -0.451  1.00  0.00    -0.237 OA
ATOM    100  O   UNL     1      27.494   1.678  -2.817  1.00  0.00    -0.744 OA
ENDBRANCH  96  97
ENDBRANCH  64  89
ENDBRANCH  38  39
ENDBRANCH  30  33
ENDBRANCH  28  29
ENDBRANCH  27  28
ENDBRANCH  26  27
ENDBRANCH   1  26
TORSDOF 20
