REMARK SMILES CCc1cc(C(=O)N2CCO[C@@H](CC(=O)NCCCCCCNC(=O)c3ccc(-c4c5nc(c(-c6c(F)cc(S(=O)(=O)[O-])cc6F)c6ccc([nH]6)c(-c6c(F)cc(S(=O)(=O)[O-])cc6F)c6nc(c(-c7c(F)cc(S(=O)(=O)[O-])cc7F)c7ccc4[nH]7)C=C6)C=C5)cc3)C2)sc1C
REMARK SMILES IDX 19 1 18 2 17 3 16 4 14 5 15 6 13 8 12 9 8 10 9 11 92 12
REMARK SMILES IDX 10 13 11 14 6 15 7 16 5 17 3 18 4 19 94 20 93 21 95 22 2 23
REMARK SMILES IDX 1 24 20 25 21 26 22 27 23 28 24 29 25 31 26 32 27 33 91 34
REMARK SMILES IDX 28 35 90 36 29 37 30 38 31 39 84 40 32 41 89 42 83 43 85 44
REMARK SMILES IDX 33 45 88 46 82 47 81 48 34 50 68 51 47 52 67 53 48 54 51 55
REMARK SMILES IDX 66 56 86 57 49 58 50 59 65 61 87 62 52 63 35 64 36 65 45 66
REMARK SMILES IDX 37 67 38 68 44 69 46 70 39 71 40 72 41 73 42 74 43 75 69 76
REMARK SMILES IDX 70 77 79 78 71 79 72 80 78 81 80 82 73 83 74 84 75 85 76 86
REMARK SMILES IDX 77 87 53 88 54 89 63 90 55 91 56 92 62 93 64 94 57 95 58 96
REMARK SMILES IDX 59 97 60 98 61 99
REMARK H PARENT 16 7 23 30 85 49 51 60
REMARK Flexibility Score: inf
ROOT
ATOM      1  C   UNL     1       1.039   4.978   9.067  1.00  0.00     0.002 C 
ENDROOT
BRANCH   1   2
ATOM      2  C   UNL     1       1.860   3.801   8.539  1.00  0.00     0.021 C 
BRANCH   2   3
ATOM      3  C   UNL     1       2.291   2.785   9.603  1.00  0.00     0.116 C 
BRANCH   3   4
ATOM      4  N   UNL     1       1.402   1.630   9.617  1.00  0.00    -0.356 N 
ATOM      5  C   UNL     1       1.624   0.331   9.269  1.00  0.00     0.222 C 
ATOM      6  O   UNL     1       0.669  -0.449   9.283  1.00  0.00    -0.275 OA
ATOM      7  H   UNL     1       0.488   1.820   9.930  1.00  0.00     0.163 HD
BRANCH   5   8
ATOM      8  C   UNL     1       2.998  -0.141   8.841  1.00  0.00     0.133 C 
BRANCH   8   9
ATOM      9  C   UNL     1       3.115  -0.210   7.318  1.00  0.00     0.147 C 
ATOM     10  N   UNL     1       3.304   1.168   5.276  1.00  0.00    -0.333 N 
ATOM     11  C   UNL     1       4.483   0.415   4.867  1.00  0.00     0.148 C 
ATOM     12  C   UNL     1       3.083   1.191   6.706  1.00  0.00     0.152 C 
ATOM     13  C   UNL     1       4.504  -0.963   5.540  1.00  0.00     0.182 C 
ATOM     14  O   UNL     1       4.359  -0.860   6.971  1.00  0.00    -0.374 OA
BRANCH  10  15
ATOM     15  C   UNL     1       2.922   2.319   4.586  1.00  0.00     0.264 C 
ATOM     16  O   UNL     1       3.070   3.426   5.106  1.00  0.00    -0.268 OA
BRANCH  15  17
ATOM     17  C   UNL     1       2.175   2.079   3.359  1.00  0.00     0.093 A 
ATOM     18  C   UNL     1       0.910   1.056   1.657  1.00  0.00    -0.034 A 
ATOM     19  C   UNL     1       1.808   0.888   2.764  1.00  0.00     0.029 A 
ATOM     20  C   UNL     1       0.635   2.398   1.446  1.00  0.00     0.005 A 
ATOM     21  S   UNL     1       1.500   3.408   2.523  1.00  0.00    -0.135 S 
ATOM     22  C   UNL     1      -0.278   3.039   0.453  1.00  0.00     0.056 C 
BRANCH  18  23
ATOM     23  C   UNL     1       0.337  -0.096   0.882  1.00  0.00     0.033 C 
ATOM     24  C   UNL     1       1.059  -0.320  -0.437  1.00  0.00     0.009 C 
ENDBRANCH  18  23
ENDBRANCH  15  17
ENDBRANCH  10  15
ENDBRANCH   8   9
ENDBRANCH   5   8
ENDBRANCH   3   4
ENDBRANCH   2   3
ENDBRANCH   1   2
BRANCH   1  25
ATOM     25  C   UNL     1       1.811   5.993   9.915  1.00  0.00     0.002 C 
BRANCH  25  26
ATOM     26  C   UNL     1       3.088   6.565   9.288  1.00  0.00     0.021 C 
BRANCH  26  27
ATOM     27  C   UNL     1       2.945   7.143   7.879  1.00  0.00     0.116 C 
BRANCH  27  28
ATOM     28  N   UNL     1       2.023   8.266   7.830  1.00  0.00    -0.352 N 
ATOM     29  C   UNL     1       2.239   9.571   7.463  1.00  0.00     0.251 C 
ATOM     30  H   UNL     1       1.101   8.058   8.102  1.00  0.00     0.163 HD
ATOM     31  O   UNL     1       1.353  10.404   7.644  1.00  0.00    -0.269 OA
BRANCH  29  32
ATOM     32  C   UNL     1       3.532   9.992   6.876  1.00  0.00     0.039 A 
ATOM     33  C   UNL     1       4.131  11.163   7.352  1.00  0.00     0.014 A 
ATOM     34  C   UNL     1       4.133   9.273   5.838  1.00  0.00     0.014 A 
ATOM     35  C   UNL     1       5.361  11.579   6.833  1.00  0.00     0.010 A 
ATOM     36  C   UNL     1       5.380   9.666   5.350  1.00  0.00     0.010 A 
ATOM     37  C   UNL     1       6.007  10.820   5.845  1.00  0.00    -0.014 A 
BRANCH  37  38
ATOM     38  C   UNL     1       7.339  11.219   5.323  1.00  0.00     0.031 A 
ATOM     39  C   UNL     1       7.482  11.716   3.912  1.00  0.00     0.074 A 
ATOM     40  C   UNL     1       8.430  11.081   6.102  1.00  0.00     0.049 A 
ATOM     41  N   UNL     1       8.569  12.022   3.251  1.00  0.00    -0.248 NA
ATOM     42  C   UNL     1       6.242  11.874   3.137  1.00  0.00     0.031 C 
ATOM     43  C   UNL     1       8.430  10.581   7.478  1.00  0.00     0.029 A 
ATOM     44  N   UNL     1       9.753  11.336   5.841  1.00  0.00    -0.354 N 
ATOM     45  C   UNL     1       8.149  12.386   1.977  1.00  0.00     0.074 A 
ATOM     46  C   UNL     1       6.708  12.245   1.952  1.00  0.00     0.031 C 
ATOM     47  C   UNL     1       9.691  10.571   7.942  1.00  0.00     0.029 A 
ATOM     48  C   UNL     1      10.589  11.039   6.891  1.00  0.00     0.049 A 
ATOM     49  H   UNL     1      10.073  11.697   4.983  1.00  0.00     0.167 HD
ATOM     50  C   UNL     1       8.895  12.808   0.928  1.00  0.00     0.037 A 
ATOM     51  C   UNL     1      11.930  11.126   6.992  1.00  0.00     0.037 A 
ATOM     52  C   UNL     1      10.323  12.979   0.959  1.00  0.00     0.049 A 
ATOM     53  C   UNL     1      12.731  11.628   5.824  1.00  0.00     0.074 A 
ATOM     54  C   UNL     1      11.160  13.434  -0.047  1.00  0.00     0.029 A 
ATOM     55  N   UNL     1      11.127  12.711   2.055  1.00  0.00    -0.354 N 
ATOM     56  N   UNL     1      12.313  11.990   4.635  1.00  0.00    -0.248 NA
ATOM     57  C   UNL     1      14.185  11.738   6.013  1.00  0.00     0.031 C 
ATOM     58  C   UNL     1      12.473  13.428   0.439  1.00  0.00     0.029 A 
ATOM     59  C   UNL     1      12.450  12.990   1.753  1.00  0.00     0.049 A 
ATOM     60  H   UNL     1      10.806  12.372   2.922  1.00  0.00     0.167 HD
ATOM     61  C   UNL     1      13.449  12.384   3.939  1.00  0.00     0.074 A 
ATOM     62  C   UNL     1      14.572  12.225   4.841  1.00  0.00     0.031 C 
ATOM     63  C   UNL     1      13.553  12.836   2.666  1.00  0.00     0.037 A 
BRANCH  50  64
ATOM     64  C   UNL     1       8.170  13.117  -0.350  1.00  0.00     0.058 A 
ATOM     65  C   UNL     1       7.439  14.305  -0.506  1.00  0.00     0.135 A 
ATOM     66  C   UNL     1       8.225  12.230  -1.435  1.00  0.00     0.135 A 
ATOM     67  F   UNL     1       7.344  15.178   0.509  1.00  0.00    -0.206 F 
ATOM     68  C   UNL     1       6.766  14.592  -1.689  1.00  0.00     0.059 A 
ATOM     69  C   UNL     1       7.574  12.505  -2.634  1.00  0.00     0.059 A 
ATOM     70  F   UNL     1       8.910  11.080  -1.335  1.00  0.00    -0.206 F 
ATOM     71  C   UNL     1       6.834  13.682  -2.746  1.00  0.00     0.060 A 
BRANCH  71  72
ATOM     72  S   UNL     1       5.957  14.059  -4.278  1.00  0.00     0.124 S 
ATOM     73  O   UNL     1       4.595  13.660  -3.937  1.00  0.00    -0.237 OA
ATOM     74  O   UNL     1       6.177  15.495  -4.427  1.00  0.00    -0.237 OA
ATOM     75  O   UNL     1       6.630  13.221  -5.266  1.00  0.00    -0.744 OA
ENDBRANCH  71  72
ENDBRANCH  50  64
BRANCH  51  76
ATOM     76  C   UNL     1      12.600  10.741   8.258  1.00  0.00     0.058 A 
ATOM     77  C   UNL     1      13.075  11.718   9.144  1.00  0.00     0.135 A 
ATOM     78  C   UNL     1      12.767   9.394   8.611  1.00  0.00     0.135 A 
ATOM     79  F   UNL     1      12.941  13.018   8.842  1.00  0.00    -0.206 F 
ATOM     80  C   UNL     1      13.704  11.374  10.336  1.00  0.00     0.059 A 
ATOM     81  C   UNL     1      13.379   9.025   9.805  1.00  0.00     0.059 A 
ATOM     82  F   UNL     1      12.316   8.425   7.800  1.00  0.00    -0.206 F 
ATOM     83  C   UNL     1      13.852  10.023  10.657  1.00  0.00     0.060 A 
BRANCH  83  84
ATOM     84  S   UNL     1      14.619   9.576  12.230  1.00  0.00     0.124 S 
ATOM     85  O   UNL     1      16.037   9.667  11.900  1.00  0.00    -0.237 OA
ATOM     86  O   UNL     1      14.107  10.602  13.133  1.00  0.00    -0.237 OA
ATOM     87  O   UNL     1      14.110   8.229  12.473  1.00  0.00    -0.744 OA
ENDBRANCH  83  84
ENDBRANCH  51  76
BRANCH  63  88
ATOM     88  C   UNL     1      14.920  13.216   2.182  1.00  0.00     0.058 A 
ATOM     89  C   UNL     1      15.840  12.245   1.759  1.00  0.00     0.135 A 
ATOM     90  C   UNL     1      15.297  14.565   2.097  1.00  0.00     0.135 A 
ATOM     91  F   UNL     1      15.527  10.942   1.829  1.00  0.00    -0.206 F 
ATOM     92  C   UNL     1      17.097  12.599   1.279  1.00  0.00     0.059 A 
ATOM     93  C   UNL     1      16.543  14.942   1.607  1.00  0.00     0.059 A 
ATOM     94  F   UNL     1      14.447  15.529   2.486  1.00  0.00    -0.206 F 
ATOM     95  C   UNL     1      17.440  13.951   1.209  1.00  0.00     0.060 A 
BRANCH  95  96
ATOM     96  S   UNL     1      19.058  14.410   0.550  1.00  0.00     0.124 S 
ATOM     97  O   UNL     1      19.913  14.222   1.716  1.00  0.00    -0.237 OA
ATOM     98  O   UNL     1      19.245  13.450  -0.534  1.00  0.00    -0.237 OA
ATOM     99  O   UNL     1      18.866  15.793   0.125  1.00  0.00    -0.744 OA
ENDBRANCH  95  96
ENDBRANCH  63  88
ENDBRANCH  37  38
ENDBRANCH  29  32
ENDBRANCH  27  28
ENDBRANCH  26  27
ENDBRANCH  25  26
ENDBRANCH   1  25
TORSDOF 20
