REMARK SMILES Cc1ccc(/C=C(\NC(=O)c2cccc(C)c2)C(=O)NCCCCCCNC(=O)c2ccc(-c3c4nc(c(-c5c(F)cc(S(=O)(=O)[O-])cc5F)c5ccc([nH]5)c(-c5c(F)cc(S(=O)(=O)[O-])cc5F)c5nc(c(-c6c(F)cc(S(=O)(=O)[O-])cc6F)c6ccc3[nH]6)C=C5)C=C4)cc2)cc1
REMARK SMILES IDX 24 1 23 2 22 3 21 4 20 5 18 6 19 7 7 9 6 10 5 11 1 12 2 13
REMARK SMILES IDX 3 14 97 15 4 16 96 17 8 18 9 19 10 21 11 22 12 23 17 24
REMARK SMILES IDX 13 25 15 26 14 27 16 28 25 29 26 30 27 31 28 32 29 34 30 35
REMARK SMILES IDX 31 36 95 37 32 38 94 39 33 40 34 41 35 42 88 43 36 44 93 45
REMARK SMILES IDX 87 46 89 47 37 48 92 49 86 50 85 51 38 53 72 54 51 55 71 56
REMARK SMILES IDX 52 57 55 58 70 59 90 60 53 61 54 62 69 64 91 65 56 66 39 67
REMARK SMILES IDX 40 68 49 69 41 70 42 71 48 72 50 73 43 74 44 75 45 76 46 77
REMARK SMILES IDX 47 78 73 79 74 80 83 81 75 82 76 83 82 84 84 85 77 86 78 87
REMARK SMILES IDX 79 88 80 89 81 90 57 91 58 92 67 93 59 94 60 95 66 96 68 97
REMARK SMILES IDX 61 98 62 99 63 100 64 101 65 102
REMARK H PARENT 20 8 8 20 27 33 89 52 55 63
REMARK Flexibility Score: inf
ROOT
ATOM      1  C   UNL     1      -8.375  -5.237   0.133  1.00  0.00     0.002 C 
ENDROOT
BRANCH   1   2
ATOM      2  C   UNL     1      -8.218  -4.612   1.525  1.00  0.00     0.002 C 
BRANCH   2   3
ATOM      3  C   UNL     1      -6.816  -4.255   2.036  1.00  0.00     0.021 C 
BRANCH   3   4
ATOM      4  C   UNL     1      -5.833  -3.591   1.075  1.00  0.00     0.116 C 
BRANCH   4   5
ATOM      5  N   UNL     1      -6.178  -2.265   0.606  1.00  0.00    -0.351 N 
ATOM      6  C   UNL     1      -5.373  -1.317   0.028  1.00  0.00     0.267 C 
ATOM      7  O   UNL     1      -5.885  -0.263  -0.356  1.00  0.00    -0.268 OA
ATOM      8  H   UNL     1      -7.122  -2.008   0.718  1.00  0.00     0.163 HD
BRANCH   6   9
ATOM      9  C   UNL     1      -3.869  -1.525  -0.096  1.00  0.00     0.107 C 
ATOM     10  C   UNL     1      -3.098  -0.419   0.043  1.00  0.00     0.040 C 
BRANCH  10  11
ATOM     11  C   UNL     1      -1.618  -0.226  -0.041  1.00  0.00    -0.023 A 
ATOM     12  C   UNL     1       2.670   0.528   0.002  1.00  0.00     0.044 C 
ATOM     13  C   UNL     1       1.189   0.300  -0.053  1.00  0.00    -0.051 A 
ATOM     14  C   UNL     1       0.701  -0.981  -0.293  1.00  0.00     0.004 A 
ATOM     15  C   UNL     1       0.272   1.330   0.158  1.00  0.00     0.004 A 
ATOM     16  C   UNL     1      -0.677  -1.229  -0.318  1.00  0.00     0.008 A 
ATOM     17  C   UNL     1      -1.109   1.069   0.167  1.00  0.00     0.008 A 
ENDBRANCH  10  11
BRANCH   9  18
ATOM     18  N   UNL     1      -3.292  -2.752  -0.286  1.00  0.00    -0.317 N 
ATOM     19  C   UNL     1      -3.521  -3.812  -1.125  1.00  0.00     0.255 C 
ATOM     20  H   UNL     1      -2.536  -2.911   0.323  1.00  0.00     0.170 HD
ATOM     21  O   UNL     1      -2.776  -4.788  -1.000  1.00  0.00    -0.269 OA
BRANCH  19  22
ATOM     22  C   UNL     1      -4.590  -3.856  -2.156  1.00  0.00     0.040 A 
ATOM     23  C   UNL     1      -5.060  -5.131  -2.503  1.00  0.00     0.014 A 
ATOM     24  C   UNL     1      -5.168  -2.733  -2.753  1.00  0.00     0.017 A 
ATOM     25  C   UNL     1      -6.150  -5.279  -3.356  1.00  0.00     0.001 A 
ATOM     26  C   UNL     1      -6.290  -2.872  -3.583  1.00  0.00    -0.050 A 
ATOM     27  C   UNL     1      -6.783  -4.151  -3.869  1.00  0.00     0.003 A 
ATOM     28  C   UNL     1      -7.009  -1.667  -4.113  1.00  0.00     0.044 C 
ENDBRANCH  19  22
ENDBRANCH   9  18
ENDBRANCH   6   9
ENDBRANCH   4   5
ENDBRANCH   3   4
ENDBRANCH   2   3
ENDBRANCH   1   2
BRANCH   1  29
ATOM     29  C   UNL     1      -7.480  -6.420  -0.232  1.00  0.00     0.021 C 
BRANCH  29  30
ATOM     30  C   UNL     1      -7.747  -7.720   0.514  1.00  0.00     0.116 C 
BRANCH  30  31
ATOM     31  N   UNL     1      -8.206  -8.782  -0.384  1.00  0.00    -0.352 N 
ATOM     32  C   UNL     1      -8.103 -10.155  -0.221  1.00  0.00     0.251 C 
ATOM     33  H   UNL     1      -8.645  -8.482  -1.212  1.00  0.00     0.163 HD
ATOM     34  O   UNL     1      -8.372 -10.961  -1.090  1.00  0.00    -0.269 OA
BRANCH  32  35
ATOM     35  C   UNL     1      -7.723 -10.606   1.130  1.00  0.00     0.039 A 
ATOM     36  C   UNL     1      -8.774 -10.926   1.997  1.00  0.00     0.014 A 
ATOM     37  C   UNL     1      -6.452 -10.287   1.596  1.00  0.00     0.014 A 
ATOM     38  C   UNL     1      -8.611 -10.707   3.359  1.00  0.00     0.010 A 
ATOM     39  C   UNL     1      -6.322  -9.990   2.938  1.00  0.00     0.010 A 
ATOM     40  C   UNL     1      -7.419 -10.137   3.803  1.00  0.00    -0.014 A 
BRANCH  40  41
ATOM     41  C   UNL     1      -7.268  -9.539   5.124  1.00  0.00     0.031 A 
ATOM     42  C   UNL     1      -6.405 -10.187   6.132  1.00  0.00     0.074 A 
ATOM     43  C   UNL     1      -7.840  -8.344   5.398  1.00  0.00     0.049 A 
ATOM     44  N   UNL     1      -6.467  -9.942   7.395  1.00  0.00    -0.248 NA
ATOM     45  C   UNL     1      -5.410 -11.198   5.790  1.00  0.00     0.031 C 
ATOM     46  C   UNL     1      -7.552  -7.464   6.527  1.00  0.00     0.029 A 
ATOM     47  N   UNL     1      -8.960  -7.769   4.792  1.00  0.00    -0.354 N 
ATOM     48  C   UNL     1      -5.388 -10.543   7.994  1.00  0.00     0.074 A 
ATOM     49  C   UNL     1      -4.778 -11.346   6.959  1.00  0.00     0.031 C 
ATOM     50  C   UNL     1      -8.585  -6.626   6.701  1.00  0.00     0.029 A 
ATOM     51  C   UNL     1      -9.636  -7.030   5.787  1.00  0.00     0.049 A 
ATOM     52  H   UNL     1      -9.227  -7.861   3.849  1.00  0.00     0.167 HD
ATOM     53  C   UNL     1      -5.061 -10.213   9.274  1.00  0.00     0.037 A 
ATOM     54  C   UNL     1     -10.903  -7.380   6.159  1.00  0.00     0.037 A 
ATOM     55  C   UNL     1      -6.024  -9.284   9.858  1.00  0.00     0.049 A 
ATOM     56  C   UNL     1     -11.018  -7.910   7.579  1.00  0.00     0.074 A 
ATOM     57  C   UNL     1      -6.077  -7.911  10.037  1.00  0.00     0.029 A 
ATOM     58  N   UNL     1      -7.309  -9.738  10.081  1.00  0.00    -0.354 N 
ATOM     59  N   UNL     1     -10.029  -7.983   8.430  1.00  0.00    -0.248 NA
ATOM     60  C   UNL     1     -12.254  -8.472   8.129  1.00  0.00     0.031 C 
ATOM     61  C   UNL     1      -7.421  -7.552  10.348  1.00  0.00     0.029 A 
ATOM     62  C   UNL     1      -8.180  -8.707  10.370  1.00  0.00     0.049 A 
ATOM     63  H   UNL     1      -7.573 -10.686  10.039  1.00  0.00     0.167 HD
ATOM     64  C   UNL     1     -10.437  -8.662   9.550  1.00  0.00     0.074 A 
ATOM     65  C   UNL     1     -11.847  -8.919   9.329  1.00  0.00     0.031 C 
ATOM     66  C   UNL     1      -9.587  -9.023  10.557  1.00  0.00     0.037 A 
BRANCH  53  67
ATOM     67  C   UNL     1      -3.743 -10.584   9.900  1.00  0.00     0.058 A 
ATOM     68  C   UNL     1      -3.076  -9.684  10.754  1.00  0.00     0.135 A 
ATOM     69  C   UNL     1      -3.065 -11.795   9.656  1.00  0.00     0.135 A 
ATOM     70  F   UNL     1      -3.635  -8.523  11.122  1.00  0.00    -0.206 F 
ATOM     71  C   UNL     1      -1.794  -9.921  11.247  1.00  0.00     0.059 A 
ATOM     72  C   UNL     1      -1.757 -12.031  10.088  1.00  0.00     0.059 A 
ATOM     73  F   UNL     1      -3.664 -12.804   9.004  1.00  0.00    -0.206 F 
ATOM     74  C   UNL     1      -1.125 -11.081  10.879  1.00  0.00     0.060 A 
BRANCH  74  75
ATOM     75  S   UNL     1       0.575 -11.308  11.434  1.00  0.00     0.124 S 
ATOM     76  O   UNL     1       1.199 -10.047  11.042  1.00  0.00    -0.237 OA
ATOM     77  O   UNL     1       0.400 -11.510  12.868  1.00  0.00    -0.237 OA
ATOM     78  O   UNL     1       1.024 -12.478  10.684  1.00  0.00    -0.744 OA
ENDBRANCH  74  75
ENDBRANCH  53  67
BRANCH  54  79
ATOM     79  C   UNL     1     -11.732  -7.800   4.993  1.00  0.00     0.058 A 
ATOM     80  C   UNL     1     -12.028  -6.825   4.018  1.00  0.00     0.135 A 
ATOM     81  C   UNL     1     -11.845  -9.144   4.617  1.00  0.00     0.135 A 
ATOM     82  F   UNL     1     -11.946  -5.520   4.327  1.00  0.00    -0.206 F 
ATOM     83  C   UNL     1     -12.266  -7.163   2.691  1.00  0.00     0.059 A 
ATOM     84  C   UNL     1     -12.093  -9.507   3.292  1.00  0.00     0.059 A 
ATOM     85  F   UNL     1     -11.576 -10.118   5.500  1.00  0.00    -0.206 F 
ATOM     86  C   UNL     1     -12.237  -8.507   2.327  1.00  0.00     0.060 A 
BRANCH  86  87
ATOM     87  S   UNL     1     -12.211  -8.906   0.562  1.00  0.00     0.124 S 
ATOM     88  O   UNL     1     -13.543  -8.488   0.141  1.00  0.00    -0.237 OA
ATOM     89  O   UNL     1     -11.107  -8.077   0.079  1.00  0.00    -0.237 OA
ATOM     90  O   UNL     1     -11.963 -10.342   0.552  1.00  0.00    -0.744 OA
ENDBRANCH  86  87
ENDBRANCH  54  79
BRANCH  66  91
ATOM     91  C   UNL     1     -10.027  -9.744  11.804  1.00  0.00     0.058 A 
ATOM     92  C   UNL     1     -11.134  -9.322  12.559  1.00  0.00     0.135 A 
ATOM     93  C   UNL     1      -9.268 -10.800  12.357  1.00  0.00     0.135 A 
ATOM     94  F   UNL     1     -11.890  -8.291  12.148  1.00  0.00    -0.206 F 
ATOM     95  C   UNL     1     -11.488  -9.934  13.764  1.00  0.00     0.059 A 
ATOM     96  C   UNL     1      -9.570 -11.388  13.581  1.00  0.00     0.059 A 
ATOM     97  F   UNL     1      -8.219 -11.323  11.707  1.00  0.00    -0.206 F 
ATOM     98  C   UNL     1     -10.698 -10.965  14.268  1.00  0.00     0.060 A 
BRANCH  98  99
ATOM     99  S   UNL     1     -11.139 -11.745  15.832  1.00  0.00     0.124 S 
ATOM    100  O   UNL     1     -11.635 -10.622  16.621  1.00  0.00    -0.237 OA
ATOM    101  O   UNL     1     -12.146 -12.709  15.401  1.00  0.00    -0.237 OA
ATOM    102  O   UNL     1      -9.877 -12.316  16.293  1.00  0.00    -0.744 OA
ENDBRANCH  98  99
ENDBRANCH  66  91
ENDBRANCH  40  41
ENDBRANCH  32  35
ENDBRANCH  30  31
ENDBRANCH  29  30
ENDBRANCH   1  29
TORSDOF 19
