REMARK SMILES CCCC(=O)N(c1cc2sc(=O)oc2c2ccccc12)S(=O)(=O)c1ccc(C(=O)NCCCCCCNC(=O)c2ccc(-c3c4nc(c(-c5c(F)cc(S(=O)(=O)[O-])cc5F)c5ccc([nH]5)c(-c5c(F)cc(S(=O)(=O)[O-])cc5F)c5nc(c(-c6c(F)cc(S(=O)(=O)[O-])cc6F)c6ccc3[nH]6)C=C5)C=C4)cc2)cc1
REMARK SMILES IDX 32 1 31 2 30 3 28 4 29 5 27 7 24 8 25 9 107 10 26 11 106 12
REMARK SMILES IDX 21 13 22 14 23 15 6 16 4 17 5 18 3 19 2 20 1 21 7 22 8 23
REMARK SMILES IDX 20 24 9 25 15 26 19 27 10 28 14 29 16 30 18 31 11 32 13 33
REMARK SMILES IDX 17 34 12 35 33 36 34 37 35 38 36 39 37 40 38 41 39 43 40 44
REMARK SMILES IDX 41 45 105 46 42 47 104 48 43 49 44 50 45 51 98 52 46 53
REMARK SMILES IDX 103 54 97 55 99 56 47 57 102 58 96 59 95 60 48 62 82 63
REMARK SMILES IDX 61 64 81 65 62 66 65 67 80 68 100 69 63 70 64 71 79 73
REMARK SMILES IDX 101 74 66 75 49 76 50 77 59 78 51 79 52 80 58 81 60 82 53 83
REMARK SMILES IDX 54 84 55 85 56 86 57 87 83 88 84 89 93 90 85 91 86 92 92 93
REMARK SMILES IDX 94 94 87 95 88 96 89 97 90 98 91 99 67 100 68 101 77 102
REMARK SMILES IDX 69 103 70 104 76 105 78 106 71 107 72 108 73 109 74 110
REMARK SMILES IDX 75 111
REMARK H PARENT 30 6 37 42 99 61 65 72
REMARK Flexibility Score: inf
ROOT
ATOM      1  C   UNL     1       5.429   2.596   7.542  1.00  0.00     0.021 C 
ENDROOT
BRANCH   1   2
ATOM      2  C   UNL     1       3.990   2.150   7.770  1.00  0.00     0.116 C 
BRANCH   2   3
ATOM      3  N   UNL     1       3.024   3.190   7.474  1.00  0.00    -0.352 N 
ATOM      4  C   UNL     1       1.846   3.181   6.774  1.00  0.00     0.251 C 
ATOM      5  O   UNL     1       1.269   4.257   6.609  1.00  0.00    -0.269 OA
ATOM      6  H   UNL     1       3.259   4.069   7.848  1.00  0.00     0.163 HD
BRANCH   4   7
ATOM      7  C   UNL     1       1.274   1.956   6.145  1.00  0.00     0.039 A 
ATOM      8  C   UNL     1       0.270  -0.237   4.714  1.00  0.00     0.088 A 
ATOM      9  C   UNL     1      -0.092   1.058   4.338  1.00  0.00     0.023 A 
ATOM     10  C   UNL     1       1.023  -0.449   5.872  1.00  0.00     0.023 A 
ATOM     11  C   UNL     1       0.437   2.147   5.033  1.00  0.00     0.015 A 
ATOM     12  C   UNL     1       1.486   0.651   6.605  1.00  0.00     0.015 A 
BRANCH   8  13
ATOM     13  S   UNL     1      -0.315  -1.611   3.734  1.00  0.00     0.270 S 
ATOM     14  O   UNL     1      -1.703  -1.329   3.457  1.00  0.00    -0.201 OA
ATOM     15  O   UNL     1       0.095  -2.815   4.441  1.00  0.00    -0.201 OA
BRANCH  13  16
ATOM     16  N   UNL     1       0.570  -1.590   2.281  1.00  0.00    -0.202 N 
BRANCH  16  17
ATOM     17  C   UNL     1       0.287  -2.583   1.290  1.00  0.00     0.241 C 
ATOM     18  O   UNL     1      -0.752  -3.239   1.306  1.00  0.00    -0.273 OA
BRANCH  17  19
ATOM     19  C   UNL     1       1.331  -2.888   0.223  1.00  0.00     0.101 C 
BRANCH  19  20
ATOM     20  C   UNL     1       1.066  -2.213  -1.122  1.00  0.00     0.006 C 
ATOM     21  C   UNL     1       2.233  -1.342  -1.567  1.00  0.00     0.004 C 
ENDBRANCH  19  20
ENDBRANCH  17  19
ENDBRANCH  16  17
BRANCH  16  22
ATOM     22  C   UNL     1       1.329  -0.426   1.911  1.00  0.00     0.070 A 
ATOM     23  C   UNL     1       2.579  -0.267   2.532  1.00  0.00     0.051 A 
ATOM     24  C   UNL     1       0.862   0.527   0.948  1.00  0.00     0.010 A 
ATOM     25  C   UNL     1       3.359   0.825   2.201  1.00  0.00     0.080 A 
ATOM     26  C   UNL     1       1.736   1.572   0.542  1.00  0.00     0.028 A 
ATOM     27  C   UNL     1      -0.409   0.471   0.329  1.00  0.00     0.011 A 
ATOM     28  S   UNL     1       4.915   1.276   2.867  1.00  0.00    -0.052 S 
ATOM     29  C   UNL     1       2.958   1.713   1.212  1.00  0.00     0.157 A 
ATOM     30  C   UNL     1       1.383   2.408  -0.537  1.00  0.00     0.013 A 
ATOM     31  C   UNL     1      -0.739   1.302  -0.746  1.00  0.00     0.001 A 
ATOM     32  C   UNL     1       4.947   2.644   1.749  1.00  0.00     0.396 A 
ATOM     33  O   UNL     1       3.841   2.757   0.911  1.00  0.00    -0.413 OA
ATOM     34  C   UNL     1       0.170   2.248  -1.200  1.00  0.00     0.001 A 
ATOM     35  O   UNL     1       5.888   3.425   1.706  1.00  0.00    -0.233 OA
ENDBRANCH  16  22
ENDBRANCH  13  16
ENDBRANCH   8  13
ENDBRANCH   4   7
ENDBRANCH   2   3
ENDBRANCH   1   2
BRANCH   1  36
ATOM     36  C   UNL     1       5.941   3.709   8.463  1.00  0.00     0.002 C 
BRANCH  36  37
ATOM     37  C   UNL     1       5.920   3.411   9.969  1.00  0.00     0.002 C 
BRANCH  37  38
ATOM     38  C   UNL     1       6.467   2.044  10.384  1.00  0.00     0.021 C 
BRANCH  38  39
ATOM     39  C   UNL     1       7.847   1.726   9.815  1.00  0.00     0.116 C 
BRANCH  39  40
ATOM     40  N   UNL     1       8.942   2.228  10.623  1.00  0.00    -0.352 N 
ATOM     41  C   UNL     1       9.552   1.642  11.707  1.00  0.00     0.251 C 
ATOM     42  H   UNL     1       9.297   3.107  10.359  1.00  0.00     0.163 HD
ATOM     43  O   UNL     1      10.448   2.223  12.309  1.00  0.00    -0.269 OA
BRANCH  41  44
ATOM     44  C   UNL     1       9.067   0.326  12.162  1.00  0.00     0.039 A 
ATOM     45  C   UNL     1       9.026  -0.759  11.281  1.00  0.00     0.014 A 
ATOM     46  C   UNL     1       8.590   0.205  13.467  1.00  0.00     0.014 A 
ATOM     47  C   UNL     1       8.384  -1.930  11.657  1.00  0.00     0.010 A 
ATOM     48  C   UNL     1       7.987  -0.987  13.860  1.00  0.00     0.010 A 
ATOM     49  C   UNL     1       7.867  -2.050  12.949  1.00  0.00    -0.014 A 
BRANCH  49  50
ATOM     50  C   UNL     1       7.425  -3.397  13.351  1.00  0.00     0.031 A 
ATOM     51  C   UNL     1       8.320  -3.970  14.396  1.00  0.00     0.074 A 
ATOM     52  C   UNL     1       6.144  -3.814  13.247  1.00  0.00     0.049 A 
ATOM     53  N   UNL     1       8.207  -3.563  15.622  1.00  0.00    -0.248 NA
ATOM     54  C   UNL     1       9.566  -4.688  14.141  1.00  0.00     0.031 C 
ATOM     55  C   UNL     1       4.989  -2.905  13.229  1.00  0.00     0.029 A 
ATOM     56  N   UNL     1       5.582  -5.071  13.337  1.00  0.00    -0.354 N 
ATOM     57  C   UNL     1       9.366  -3.896  16.297  1.00  0.00     0.074 A 
ATOM     58  C   UNL     1      10.170  -4.623  15.343  1.00  0.00     0.031 C 
ATOM     59  C   UNL     1       3.872  -3.620  13.476  1.00  0.00     0.029 A 
ATOM     60  C   UNL     1       4.201  -5.046  13.537  1.00  0.00     0.049 A 
ATOM     61  H   UNL     1       6.103  -5.903  13.267  1.00  0.00     0.167 HD
ATOM     62  C   UNL     1       9.526  -3.553  17.608  1.00  0.00     0.037 A 
ATOM     63  C   UNL     1       3.509  -5.936  14.301  1.00  0.00     0.037 A 
ATOM     64  C   UNL     1       8.406  -2.859  18.210  1.00  0.00     0.049 A 
ATOM     65  C   UNL     1       3.979  -5.588  15.690  1.00  0.00     0.074 A 
ATOM     66  C   UNL     1       8.119  -1.741  18.959  1.00  0.00     0.029 A 
ATOM     67  N   UNL     1       7.201  -3.446  17.949  1.00  0.00    -0.354 N 
ATOM     68  N   UNL     1       3.569  -4.576  16.408  1.00  0.00    -0.248 NA
ATOM     69  C   UNL     1       5.161  -6.278  16.229  1.00  0.00     0.031 C 
ATOM     70  C   UNL     1       6.682  -1.656  19.055  1.00  0.00     0.029 A 
ATOM     71  C   UNL     1       6.126  -2.744  18.392  1.00  0.00     0.049 A 
ATOM     72  H   UNL     1       7.118  -4.308  17.480  1.00  0.00     0.167 HD
ATOM     73  C   UNL     1       4.580  -4.359  17.339  1.00  0.00     0.074 A 
ATOM     74  C   UNL     1       5.424  -5.535  17.297  1.00  0.00     0.031 C 
ATOM     75  C   UNL     1       4.814  -3.150  17.929  1.00  0.00     0.037 A 
BRANCH  62  76
ATOM     76  C   UNL     1      10.556  -4.154  18.483  1.00  0.00     0.058 A 
ATOM     77  C   UNL     1      10.171  -5.271  19.247  1.00  0.00     0.135 A 
ATOM     78  C   UNL     1      11.810  -3.591  18.729  1.00  0.00     0.135 A 
ATOM     79  F   UNL     1       8.976  -5.848  19.037  1.00  0.00    -0.206 F 
ATOM     80  C   UNL     1      10.978  -5.788  20.248  1.00  0.00     0.059 A 
ATOM     81  C   UNL     1      12.646  -4.101  19.726  1.00  0.00     0.059 A 
ATOM     82  F   UNL     1      12.222  -2.521  18.031  1.00  0.00    -0.206 F 
ATOM     83  C   UNL     1      12.211  -5.188  20.492  1.00  0.00     0.060 A 
BRANCH  83  84
ATOM     84  S   UNL     1      13.215  -5.845  21.842  1.00  0.00     0.124 S 
ATOM     85  O   UNL     1      12.355  -5.616  22.999  1.00  0.00    -0.237 OA
ATOM     86  O   UNL     1      13.383  -7.238  21.441  1.00  0.00    -0.237 OA
ATOM     87  O   UNL     1      14.426  -5.032  21.792  1.00  0.00    -0.744 OA
ENDBRANCH  83  84
ENDBRANCH  62  76
BRANCH  63  88
ATOM     88  C   UNL     1       3.375  -7.346  13.810  1.00  0.00     0.058 A 
ATOM     89  C   UNL     1       3.013  -7.578  12.466  1.00  0.00     0.135 A 
ATOM     90  C   UNL     1       3.538  -8.497  14.601  1.00  0.00     0.135 A 
ATOM     91  F   UNL     1       2.682  -6.551  11.666  1.00  0.00    -0.206 F 
ATOM     92  C   UNL     1       2.980  -8.856  11.908  1.00  0.00     0.059 A 
ATOM     93  C   UNL     1       3.552  -9.783  14.060  1.00  0.00     0.059 A 
ATOM     94  F   UNL     1       3.697  -8.409  15.928  1.00  0.00    -0.206 F 
ATOM     95  C   UNL     1       3.304  -9.950  12.704  1.00  0.00     0.060 A 
BRANCH  95  96
ATOM     96  S   UNL     1       3.464 -11.572  11.927  1.00  0.00     0.124 S 
ATOM     97  O   UNL     1       2.091 -11.852  11.525  1.00  0.00    -0.237 OA
ATOM     98  O   UNL     1       4.401 -11.290  10.843  1.00  0.00    -0.237 OA
ATOM     99  O   UNL     1       3.992 -12.410  12.999  1.00  0.00    -0.744 OA
ENDBRANCH  95  96
ENDBRANCH  63  88
BRANCH  75 100
ATOM    100  C   UNL     1       3.665  -2.212  17.955  1.00  0.00     0.058 A 
ATOM    101  C   UNL     1       2.515  -2.576  18.673  1.00  0.00     0.135 A 
ATOM    102  C   UNL     1       3.701  -0.944  17.361  1.00  0.00     0.135 A 
ATOM    103  F   UNL     1       2.444  -3.771  19.283  1.00  0.00    -0.206 F 
ATOM    104  C   UNL     1       1.446  -1.707  18.819  1.00  0.00     0.059 A 
ATOM    105  C   UNL     1       2.645  -0.047  17.511  1.00  0.00     0.059 A 
ATOM    106  F   UNL     1       4.769  -0.548  16.649  1.00  0.00    -0.206 F 
ATOM    107  C   UNL     1       1.527  -0.436  18.252  1.00  0.00     0.060 A 
BRANCH 107 108
ATOM    108  S   UNL     1       0.183   0.719  18.578  1.00  0.00     0.124 S 
ATOM    109  O   UNL     1      -0.928   0.106  17.858  1.00  0.00    -0.237 OA
ATOM    110  O   UNL     1       0.092   0.680  20.035  1.00  0.00    -0.237 OA
ATOM    111  O   UNL     1       0.671   1.978  18.022  1.00  0.00    -0.744 OA
ENDBRANCH 107 108
ENDBRANCH  75 100
ENDBRANCH  49  50
ENDBRANCH  41  44
ENDBRANCH  39  40
ENDBRANCH  38  39
ENDBRANCH  37  38
ENDBRANCH  36  37
ENDBRANCH   1  36
TORSDOF 22
