REMARK SMILES Cc1ccccc1SCC(=O)N[C@H]1C=C[C@H](C(=O)NCCCCCCNC(=O)c2ccc(-c3c4nc(c(-c5c(F)cc(S(=O)(=O)[O-])cc5F)c5ccc([nH]5)c(-c5c(F)cc(S(=O)(=O)[O-])cc5F)c5nc(c(-c6c(F)cc(S(=O)(=O)[O-])cc6F)c6ccc3[nH]6)C=C5)C=C4)cc2)C1
REMARK SMILES IDX 22 1 21 2 20 3 19 4 17 5 18 6 16 8 13 9 14 10 95 11 15 12
REMARK SMILES IDX 12 13 10 14 11 15 9 17 8 18 7 19 1 20 2 21 3 22 4 23 6 24
REMARK SMILES IDX 5 25 23 26 24 27 25 28 26 29 27 30 28 32 29 33 30 34 94 35
REMARK SMILES IDX 31 36 93 37 32 38 33 39 34 40 87 41 35 42 92 43 86 44 88 45
REMARK SMILES IDX 36 46 91 47 85 48 84 49 37 51 71 52 50 53 70 54 51 55 54 56
REMARK SMILES IDX 69 57 89 58 52 59 53 60 68 62 90 63 55 64 38 65 39 66 48 67
REMARK SMILES IDX 40 68 41 69 47 70 49 71 42 72 43 73 44 74 45 75 46 76 72 77
REMARK SMILES IDX 73 78 82 79 74 80 75 81 81 82 83 83 76 84 77 85 78 86 79 87
REMARK SMILES IDX 80 88 56 89 57 90 66 91 58 92 59 93 65 94 67 95 60 96 61 97
REMARK SMILES IDX 62 98 63 99 64 100
REMARK H PARENT 19 7 12 16 26 31 88 50 54 61
REMARK Flexibility Score: inf
ROOT
ATOM      1  C   UNL     1       0.823  11.026   2.268  1.00  0.00     0.002 C 
ENDROOT
BRANCH   1   2
ATOM      2  C   UNL     1       2.031  10.126   2.550  1.00  0.00     0.021 C 
BRANCH   2   3
ATOM      3  C   UNL     1       1.753   8.918   3.442  1.00  0.00     0.116 C 
BRANCH   3   4
ATOM      4  N   UNL     1       0.864   7.964   2.812  1.00  0.00    -0.356 N 
ATOM      5  C   UNL     1       1.068   6.644   2.542  1.00  0.00     0.227 C 
ATOM      6  O   UNL     1       0.136   5.986   2.075  1.00  0.00    -0.274 OA
ATOM      7  H   UNL     1      -0.013   8.319   2.540  1.00  0.00     0.163 HD
BRANCH   5   8
ATOM      8  C   UNL     1       2.424   6.016   2.873  1.00  0.00     0.103 C 
ATOM      9  C   UNL     1       2.199   3.597   2.607  1.00  0.00     0.106 C 
ATOM     10  C   UNL     1       2.209   3.997   4.053  1.00  0.00    -0.006 C 
ATOM     11  C   UNL     1       2.743   4.856   1.926  1.00  0.00     0.047 C 
ATOM     12  C   UNL     1       2.343   5.321   4.201  1.00  0.00    -0.016 C 
BRANCH   9  13
ATOM     13  N   UNL     1       3.049   2.438   2.460  1.00  0.00    -0.349 N 
ATOM     14  C   UNL     1       3.424   1.769   1.339  1.00  0.00     0.230 C 
ATOM     15  O   UNL     1       4.131   0.768   1.499  1.00  0.00    -0.274 OA
ATOM     16  H   UNL     1       3.411   2.078   3.301  1.00  0.00     0.164 HD
BRANCH  14  17
ATOM     17  C   UNL     1       3.143   2.296  -0.051  1.00  0.00     0.174 C 
BRANCH  17  18
ATOM     18  S   UNL     1       1.412   2.441  -0.559  1.00  0.00    -0.116 SA
BRANCH  18  19
ATOM     19  C   UNL     1       0.550   0.905  -0.235  1.00  0.00     0.011 A 
ATOM     20  C   UNL     1       2.421  -0.845  -0.574  1.00  0.00     0.045 C 
ATOM     21  C   UNL     1       1.011  -0.421  -0.290  1.00  0.00    -0.038 A 
ATOM     22  C   UNL     1       0.096  -1.476  -0.056  1.00  0.00     0.004 A 
ATOM     23  C   UNL     1      -1.259  -1.241   0.160  1.00  0.00     0.000 A 
ATOM     24  C   UNL     1      -0.832   1.115  -0.016  1.00  0.00     0.015 A 
ATOM     25  C   UNL     1      -1.728   0.061   0.171  1.00  0.00     0.001 A 
ENDBRANCH  18  19
ENDBRANCH  17  18
ENDBRANCH  14  17
ENDBRANCH   9  13
ENDBRANCH   5   8
ENDBRANCH   3   4
ENDBRANCH   2   3
ENDBRANCH   1   2
BRANCH   1  26
ATOM     26  C   UNL     1      -0.020  11.447   3.481  1.00  0.00     0.002 C 
BRANCH  26  27
ATOM     27  C   UNL     1       0.733  12.027   4.682  1.00  0.00     0.021 C 
BRANCH  27  28
ATOM     28  C   UNL     1       1.489  13.307   4.359  1.00  0.00     0.116 C 
BRANCH  28  29
ATOM     29  N   UNL     1       1.218  14.400   5.288  1.00  0.00    -0.352 N 
ATOM     30  C   UNL     1       1.711  15.696   5.218  1.00  0.00     0.251 C 
ATOM     31  H   UNL     1       0.622  14.196   6.045  1.00  0.00     0.163 HD
ATOM     32  O   UNL     1       1.422  16.543   6.038  1.00  0.00    -0.269 OA
BRANCH  30  33
ATOM     33  C   UNL     1       2.582  16.012   4.064  1.00  0.00     0.039 A 
ATOM     34  C   UNL     1       2.127  16.923   3.106  1.00  0.00     0.014 A 
ATOM     35  C   UNL     1       3.696  15.212   3.826  1.00  0.00     0.014 A 
ATOM     36  C   UNL     1       2.683  16.904   1.826  1.00  0.00     0.010 A 
ATOM     37  C   UNL     1       4.181  15.129   2.537  1.00  0.00     0.010 A 
ATOM     38  C   UNL     1       3.648  15.943   1.526  1.00  0.00    -0.014 A 
BRANCH  38  39
ATOM     39  C   UNL     1       4.210  15.713   0.199  1.00  0.00     0.031 A 
ATOM     40  C   UNL     1       5.566  16.250  -0.098  1.00  0.00     0.074 A 
ATOM     41  C   UNL     1       3.581  14.923  -0.701  1.00  0.00     0.049 A 
ATOM     42  N   UNL     1       6.100  16.315  -1.270  1.00  0.00    -0.248 NA
ATOM     43  C   UNL     1       6.425  16.803   0.945  1.00  0.00     0.031 C 
ATOM     44  C   UNL     1       4.182  14.331  -1.896  1.00  0.00     0.029 A 
ATOM     45  N   UNL     1       2.240  14.569  -0.830  1.00  0.00    -0.354 N 
ATOM     46  C   UNL     1       7.425  16.672  -1.127  1.00  0.00     0.074 A 
ATOM     47  C   UNL     1       7.558  17.014   0.270  1.00  0.00     0.031 C 
ATOM     48  C   UNL     1       3.203  13.997  -2.751  1.00  0.00     0.029 A 
ATOM     49  C   UNL     1       1.972  14.539  -2.210  1.00  0.00     0.049 A 
ATOM     50  H   UNL     1       1.606  14.377  -0.101  1.00  0.00     0.167 HD
ATOM     51  C   UNL     1       8.270  16.536  -2.192  1.00  0.00     0.037 A 
ATOM     52  C   UNL     1       1.175  15.439  -2.869  1.00  0.00     0.037 A 
ATOM     53  C   UNL     1       7.527  16.172  -3.403  1.00  0.00     0.049 A 
ATOM     54  C   UNL     1       1.892  16.245  -3.949  1.00  0.00     0.074 A 
ATOM     55  C   UNL     1       7.248  14.979  -4.050  1.00  0.00     0.029 A 
ATOM     56  N   UNL     1       6.692  17.116  -3.973  1.00  0.00    -0.354 N 
ATOM     57  N   UNL     1       3.158  16.133  -4.247  1.00  0.00    -0.248 NA
ATOM     58  C   UNL     1       1.244  17.325  -4.699  1.00  0.00     0.031 C 
ATOM     59  C   UNL     1       6.189  15.215  -4.977  1.00  0.00     0.029 A 
ATOM     60  C   UNL     1       5.839  16.551  -4.903  1.00  0.00     0.049 A 
ATOM     61  H   UNL     1       6.704  18.073  -3.744  1.00  0.00     0.167 HD
ATOM     62  C   UNL     1       3.514  17.139  -5.106  1.00  0.00     0.074 A 
ATOM     63  C   UNL     1       2.278  17.846  -5.380  1.00  0.00     0.031 C 
ATOM     64  C   UNL     1       4.800  17.378  -5.496  1.00  0.00     0.037 A 
BRANCH  51  65
ATOM     65  C   UNL     1       9.789  16.525  -2.119  1.00  0.00     0.058 A 
ATOM     66  C   UNL     1      10.546  15.888  -3.130  1.00  0.00     0.135 A 
ATOM     67  C   UNL     1      10.567  17.058  -1.070  1.00  0.00     0.135 A 
ATOM     68  F   UNL     1       9.969  15.415  -4.243  1.00  0.00    -0.206 F 
ATOM     69  C   UNL     1      11.929  15.696  -3.047  1.00  0.00     0.059 A 
ATOM     70  C   UNL     1      11.941  16.833  -0.936  1.00  0.00     0.059 A 
ATOM     71  F   UNL     1      10.049  17.879  -0.153  1.00  0.00    -0.206 F 
ATOM     72  C   UNL     1      12.614  16.136  -1.924  1.00  0.00     0.060 A 
BRANCH  72  73
ATOM     73  S   UNL     1      14.379  15.804  -1.783  1.00  0.00     0.124 S 
ATOM     74  O   UNL     1      14.422  14.347  -1.871  1.00  0.00    -0.237 OA
ATOM     75  O   UNL     1      14.920  16.528  -2.928  1.00  0.00    -0.237 OA
ATOM     76  O   UNL     1      14.726  16.354  -0.475  1.00  0.00    -0.744 OA
ENDBRANCH  72  73
ENDBRANCH  51  65
BRANCH  52  77
ATOM     77  C   UNL     1       0.071  15.979  -2.034  1.00  0.00     0.058 A 
ATOM     78  C   UNL     1      -0.908  15.077  -1.581  1.00  0.00     0.135 A 
ATOM     79  C   UNL     1       0.230  17.186  -1.339  1.00  0.00     0.135 A 
ATOM     80  F   UNL     1      -1.125  13.928  -2.242  1.00  0.00    -0.206 F 
ATOM     81  C   UNL     1      -1.537  15.258  -0.359  1.00  0.00     0.059 A 
ATOM     82  C   UNL     1      -0.405  17.396  -0.120  1.00  0.00     0.059 A 
ATOM     83  F   UNL     1       1.125  18.095  -1.751  1.00  0.00    -0.206 F 
ATOM     84  C   UNL     1      -1.211  16.383   0.398  1.00  0.00     0.060 A 
BRANCH  84  85
ATOM     85  S   UNL     1      -1.655  16.369   2.148  1.00  0.00     0.124 S 
ATOM     86  O   UNL     1      -3.098  16.165   2.099  1.00  0.00    -0.237 OA
ATOM     87  O   UNL     1      -0.870  15.231   2.623  1.00  0.00    -0.237 OA
ATOM     88  O   UNL     1      -1.214  17.678   2.613  1.00  0.00    -0.744 OA
ENDBRANCH  84  85
ENDBRANCH  52  77
BRANCH  64  89
ATOM     89  C   UNL     1       5.143  18.467  -6.472  1.00  0.00     0.058 A 
ATOM     90  C   UNL     1       4.460  18.598  -7.693  1.00  0.00     0.135 A 
ATOM     91  C   UNL     1       6.220  19.351  -6.261  1.00  0.00     0.135 A 
ATOM     92  F   UNL     1       3.455  17.764  -8.008  1.00  0.00    -0.206 F 
ATOM     93  C   UNL     1       4.782  19.584  -8.623  1.00  0.00     0.059 A 
ATOM     94  C   UNL     1       6.593  20.312  -7.197  1.00  0.00     0.059 A 
ATOM     95  F   UNL     1       6.922  19.332  -5.118  1.00  0.00    -0.206 F 
ATOM     96  C   UNL     1       5.850  20.440  -8.364  1.00  0.00     0.060 A 
BRANCH  96  97
ATOM     97  S   UNL     1       6.279  21.710  -9.570  1.00  0.00     0.124 S 
ATOM     98  O   UNL     1       5.972  21.063 -10.842  1.00  0.00    -0.237 OA
ATOM     99  O   UNL     1       5.382  22.793  -9.180  1.00  0.00    -0.237 OA
ATOM    100  O   UNL     1       7.698  21.944  -9.320  1.00  0.00    -0.744 OA
ENDBRANCH  96  97
ENDBRANCH  64  89
ENDBRANCH  38  39
ENDBRANCH  30  33
ENDBRANCH  28  29
ENDBRANCH  27  28
ENDBRANCH  26  27
ENDBRANCH   1  26
TORSDOF 20
