REMARK SMILES CC(=O)c1ccc(N2/C(=[NH+]/C(=O)CCC(=O)NCCCCCCNC(=O)c3ccc(-c4c5nc(c(-c6c(F)cc(S(=O)(=O)[O-])cc6F)c6ccc([nH]6)c(-c6c(F)cc(S(=O)(=O)[O-])cc6F)c6nc(c(-c7c(F)cc(S(=O)(=O)[O-])cc7F)c7ccc4[nH]7)C=C6)C=C5)cc3)S[C@H]3CS(=O)(=O)C[C@@H]32)cc1
REMARK SMILES IDX 20 1 19 2 18 3 17 4 15 5 16 6 14 8 13 9 11 10 8 11 9 12
REMARK SMILES IDX 100 13 10 14 93 15 94 16 99 17 95 19 96 20 12 21 97 22 98 23
REMARK SMILES IDX 7 24 4 25 5 26 102 27 6 28 101 29 2 30 1 31 3 32 21 33 22 34
REMARK SMILES IDX 23 35 24 36 25 37 26 39 27 40 28 41 92 42 29 43 91 44 30 45
REMARK SMILES IDX 31 46 32 47 85 48 33 49 90 50 84 51 86 52 34 53 89 54 83 55
REMARK SMILES IDX 82 56 35 58 69 59 48 60 68 61 49 62 52 63 67 64 87 65 50 66
REMARK SMILES IDX 51 67 66 69 88 70 53 71 36 72 37 73 46 74 38 75 39 76 45 77
REMARK SMILES IDX 47 78 40 79 41 80 42 81 43 82 44 83 70 84 71 85 80 86 72 87
REMARK SMILES IDX 73 88 79 89 81 90 74 91 75 92 76 93 77 94 78 95 54 96 55 97
REMARK SMILES IDX 64 98 56 99 57 100 63 101 65 102 58 103 59 104 60 105 61 106
REMARK SMILES IDX 62 107
REMARK H PARENT 17 7 10 18 24 38 86 57 52 68
REMARK Flexibility Score: inf
ROOT
ATOM      1  C   UNL     1       4.597   6.141  -0.772  1.00  0.00     0.002 C 
ENDROOT
BRANCH   1   2
ATOM      2  C   UNL     1       5.662   7.175  -1.066  1.00  0.00     0.021 C 
BRANCH   2   3
ATOM      3  C   UNL     1       6.912   6.463  -1.612  1.00  0.00     0.116 C 
BRANCH   3   4
ATOM      4  N   UNL     1       6.613   5.435  -2.605  1.00  0.00    -0.356 N 
ATOM      5  C   UNL     1       6.188   5.549  -3.893  1.00  0.00     0.220 C 
ATOM      6  O   UNL     1       5.907   4.523  -4.514  1.00  0.00    -0.275 OA
ATOM      7  H   UNL     1       6.740   4.510  -2.293  1.00  0.00     0.163 HD
BRANCH   5   8
ATOM      8  C   UNL     1       6.122   6.911  -4.538  1.00  0.00     0.112 C 
BRANCH   8   9
ATOM      9  C   UNL     1       4.768   7.151  -5.208  1.00  0.00     0.138 C 
BRANCH   9  10
ATOM     10  C   UNL     1       3.769   7.721  -4.220  1.00  0.00     0.308 C 
ATOM     11  N   UNL     1       1.727   6.248  -1.586  1.00  0.00    -0.217 N 
ATOM     12  C   UNL     1       2.120   7.111  -2.662  1.00  0.00     0.319 C 
ATOM     13  C   UNL     1       1.296   6.985  -0.382  1.00  0.00     0.212 C 
ATOM     14  N   UNL     1       2.976   6.781  -3.586  1.00  0.00    -0.204 N 
ATOM     15  S   UNL     1       1.542   8.862  -2.383  1.00  0.00    -0.029 SA
ATOM     16  C   UNL     1       2.160   8.731  -0.696  1.00  0.00     0.120 C 
ATOM     17  C   UNL     1       1.261   6.516   1.586  1.00  0.00     0.188 C 
ATOM     18  H   UNL     1       3.062   5.834  -3.841  1.00  0.00     0.316 HD
ATOM     19  C   UNL     1       2.316   9.822   0.950  1.00  0.00     0.156 C 
ATOM     20  S   UNL     1       1.852   8.459   2.783  1.00  0.00     0.155 S 
ATOM     21  O   UNL     1       3.892   8.907  -3.917  1.00  0.00    -0.247 OA
ATOM     22  O   UNL     1       3.079   8.282   3.551  1.00  0.00    -0.229 OA
ATOM     23  O   UNL     1       0.741   8.946   3.566  1.00  0.00    -0.229 OA
BRANCH  11  24
ATOM     24  C   UNL     1       1.262   4.926  -1.699  1.00  0.00     0.128 A 
ATOM     25  C   UNL     1       0.312   2.284  -1.329  1.00  0.00     0.018 A 
ATOM     26  C   UNL     1      -0.562   3.304  -1.724  1.00  0.00     0.016 A 
ATOM     27  C   UNL     1       1.665   2.570  -1.190  1.00  0.00     0.016 A 
ATOM     28  C   UNL     1      -0.092   4.619  -1.892  1.00  0.00     0.052 A 
ATOM     29  C   UNL     1       2.127   3.864  -1.413  1.00  0.00     0.052 A 
BRANCH  25  30
ATOM     30  C   UNL     1      -0.204   0.913  -1.062  1.00  0.00     0.159 C 
ATOM     31  C   UNL     1       0.558   0.033  -0.096  1.00  0.00     0.093 C 
ATOM     32  O   UNL     1      -1.248   0.540  -1.588  1.00  0.00    -0.295 OA
ENDBRANCH  25  30
ENDBRANCH  11  24
ENDBRANCH   9  10
ENDBRANCH   8   9
ENDBRANCH   5   8
ENDBRANCH   3   4
ENDBRANCH   2   3
ENDBRANCH   1   2
BRANCH   1  33
ATOM     33  C   UNL     1       3.634   6.304   0.390  1.00  0.00     0.002 C 
BRANCH  33  34
ATOM     34  C   UNL     1       2.758   7.673   0.901  1.00  0.00     0.021 C 
BRANCH  34  35
ATOM     35  C   UNL     1       0.736   8.428   0.865  1.00  0.00     0.116 C 
BRANCH  35  36
ATOM     36  N   UNL     1      -0.666   7.726   1.142  1.00  0.00    -0.352 N 
ATOM     37  C   UNL     1      -1.782   8.098   1.869  1.00  0.00     0.251 C 
ATOM     38  H   UNL     1      -0.757   6.847   0.706  1.00  0.00     0.163 HD
ATOM     39  O   UNL     1      -2.702   7.298   2.006  1.00  0.00    -0.269 OA
BRANCH  37  40
ATOM     40  C   UNL     1      -1.848   9.437   2.452  1.00  0.00     0.039 A 
ATOM     41  C   UNL     1      -1.989   9.586   3.836  1.00  0.00     0.014 A 
ATOM     42  C   UNL     1      -1.576  10.519   1.617  1.00  0.00     0.014 A 
ATOM     43  C   UNL     1      -1.730  10.830   4.406  1.00  0.00     0.010 A 
ATOM     44  C   UNL     1      -1.235  11.726   2.193  1.00  0.00     0.010 A 
ATOM     45  C   UNL     1      -1.325  11.892   3.586  1.00  0.00    -0.014 A 
BRANCH  45  46
ATOM     46  C   UNL     1      -1.138  13.253   4.123  1.00  0.00     0.031 A 
ATOM     47  C   UNL     1      -2.126  14.297   3.690  1.00  0.00     0.074 A 
ATOM     48  C   UNL     1      -0.076  13.559   4.890  1.00  0.00     0.049 A 
ATOM     49  N   UNL     1      -2.120  15.583   3.905  1.00  0.00    -0.248 NA
ATOM     50  C   UNL     1      -3.240  13.833   2.840  1.00  0.00     0.031 C 
ATOM     51  C   UNL     1       0.972  12.628   5.314  1.00  0.00     0.029 A 
ATOM     52  N   UNL     1       0.302  14.757   5.439  1.00  0.00    -0.354 N 
ATOM     53  C   UNL     1      -3.211  16.075   3.202  1.00  0.00     0.074 A 
ATOM     54  C   UNL     1      -3.787  14.976   2.466  1.00  0.00     0.031 C 
ATOM     55  C   UNL     1       1.864  13.289   6.074  1.00  0.00     0.029 A 
ATOM     56  C   UNL     1       1.462  14.690   6.175  1.00  0.00     0.049 A 
ATOM     57  H   UNL     1      -0.210  15.589   5.318  1.00  0.00     0.167 HD
ATOM     58  C   UNL     1      -3.726  17.323   3.217  1.00  0.00     0.037 A 
ATOM     59  C   UNL     1       2.106  15.659   6.855  1.00  0.00     0.037 A 
ATOM     60  C   UNL     1      -3.171  18.388   4.002  1.00  0.00     0.049 A 
ATOM     61  C   UNL     1       1.508  17.046   6.869  1.00  0.00     0.074 A 
ATOM     62  C   UNL     1      -3.638  19.678   4.154  1.00  0.00     0.029 A 
ATOM     63  N   UNL     1      -2.026  18.274   4.777  1.00  0.00    -0.354 N 
ATOM     64  N   UNL     1       0.425  17.486   6.269  1.00  0.00    -0.248 NA
ATOM     65  C   UNL     1       2.207  18.064   7.663  1.00  0.00     0.031 C 
ATOM     66  C   UNL     1      -2.747  20.361   4.986  1.00  0.00     0.029 A 
ATOM     67  C   UNL     1      -1.758  19.479   5.398  1.00  0.00     0.049 A 
ATOM     68  H   UNL     1      -1.484  17.457   4.871  1.00  0.00     0.167 HD
ATOM     69  C   UNL     1       0.293  18.819   6.645  1.00  0.00     0.074 A 
ATOM     70  C   UNL     1       1.401  19.109   7.532  1.00  0.00     0.031 C 
ATOM     71  C   UNL     1      -0.655  19.724   6.294  1.00  0.00     0.037 A 
BRANCH  58  72
ATOM     72  C   UNL     1      -4.952  17.573   2.386  1.00  0.00     0.058 A 
ATOM     73  C   UNL     1      -6.183  16.967   2.689  1.00  0.00     0.135 A 
ATOM     74  C   UNL     1      -4.895  18.418   1.268  1.00  0.00     0.135 A 
ATOM     75  F   UNL     1      -6.287  16.125   3.731  1.00  0.00    -0.206 F 
ATOM     76  C   UNL     1      -7.304  17.159   1.891  1.00  0.00     0.059 A 
ATOM     77  C   UNL     1      -6.015  18.655   0.477  1.00  0.00     0.059 A 
ATOM     78  F   UNL     1      -3.742  19.014   0.927  1.00  0.00    -0.206 F 
ATOM     79  C   UNL     1      -7.211  18.008   0.789  1.00  0.00     0.060 A 
BRANCH  79  80
ATOM     80  S   UNL     1      -8.681  18.259  -0.225  1.00  0.00     0.124 S 
ATOM     81  O   UNL     1      -8.793  16.970  -0.901  1.00  0.00    -0.237 OA
ATOM     82  O   UNL     1      -9.704  18.540   0.777  1.00  0.00    -0.237 OA
ATOM     83  O   UNL     1      -8.317  19.385  -1.079  1.00  0.00    -0.744 OA
ENDBRANCH  79  80
ENDBRANCH  58  72
BRANCH  59  84
ATOM     84  C   UNL     1       3.350  15.354   7.615  1.00  0.00     0.058 A 
ATOM     85  C   UNL     1       3.366  15.392   9.019  1.00  0.00     0.135 A 
ATOM     86  C   UNL     1       4.552  15.038   6.963  1.00  0.00     0.135 A 
ATOM     87  F   UNL     1       2.245  15.694   9.693  1.00  0.00    -0.206 F 
ATOM     88  C   UNL     1       4.530  15.160   9.746  1.00  0.00     0.059 A 
ATOM     89  C   UNL     1       5.724  14.775   7.669  1.00  0.00     0.059 A 
ATOM     90  F   UNL     1       4.593  14.972   5.623  1.00  0.00    -0.206 F 
ATOM     91  C   UNL     1       5.706  14.854   9.061  1.00  0.00     0.060 A 
BRANCH  91  92
ATOM     92  S   UNL     1       7.206  14.536  10.018  1.00  0.00     0.124 S 
ATOM     93  O   UNL     1       7.520  15.868  10.523  1.00  0.00    -0.237 OA
ATOM     94  O   UNL     1       6.739  13.572  11.008  1.00  0.00    -0.237 OA
ATOM     95  O   UNL     1       8.133  14.005   9.023  1.00  0.00    -0.744 OA
ENDBRANCH  91  92
ENDBRANCH  59  84
BRANCH  71  96
ATOM     96  C   UNL     1      -0.567  21.096   6.902  1.00  0.00     0.058 A 
ATOM     97  C   UNL     1       0.421  22.014   6.516  1.00  0.00     0.135 A 
ATOM     98  C   UNL     1      -1.542  21.524   7.820  1.00  0.00     0.135 A 
ATOM     99  F   UNL     1       1.375  21.654   5.643  1.00  0.00    -0.206 F 
ATOM    100  C   UNL     1       0.454  23.302   7.037  1.00  0.00     0.059 A 
ATOM    101  C   UNL     1      -1.548  22.818   8.326  1.00  0.00     0.059 A 
ATOM    102  F   UNL     1      -2.519  20.689   8.209  1.00  0.00    -0.206 F 
ATOM    103  C   UNL     1      -0.539  23.697   7.936  1.00  0.00     0.060 A 
BRANCH 103 104
ATOM    104  S   UNL     1      -0.509  25.387   8.566  1.00  0.00     0.124 S 
ATOM    105  O   UNL     1       0.635  25.344   9.470  1.00  0.00    -0.237 OA
ATOM    106  O   UNL     1      -0.325  26.170   7.347  1.00  0.00    -0.237 OA
ATOM    107  O   UNL     1      -1.812  25.535   9.208  1.00  0.00    -0.744 OA
ENDBRANCH 103 104
ENDBRANCH  71  96
ENDBRANCH  45  46
ENDBRANCH  37  40
ENDBRANCH  35  36
ENDBRANCH  34  35
ENDBRANCH  33  34
ENDBRANCH   1  33
TORSDOF 20
