REMARK SMILES CS(=O)(=O)c1ccc(/C=C(/C(=O)NCCCCCCNC(=O)c2ccc(-c3c4nc(c(-c5c(F)cc(S(=O)(=O)[O-])cc5F)c5ccc([nH]5)c(-c5c(F)cc(S(=O)(=O)[O-])cc5F)c5nc(c(-c6c(F)cc(S(=O)(=O)[O-])cc6F)c6ccc3[nH]6)C=C5)C=C4)cc2)c2cccc(Br)c2)cc1
REMARK SMILES IDX 17 1 16 2 15 3 14 4 13 5 11 6 12 7 10 9 9 10 8 11 5 12 6 13
REMARK SMILES IDX 97 14 7 15 96 16 2 17 1 18 3 19 4 20 89 21 90 22 95 23 91 24
REMARK SMILES IDX 93 25 92 26 94 27 18 28 19 29 20 30 21 31 22 33 23 34 24 35
REMARK SMILES IDX 88 36 25 37 87 38 26 39 27 40 28 41 81 42 29 43 86 44 80 45
REMARK SMILES IDX 82 46 30 47 85 48 79 49 78 50 31 52 65 53 44 54 64 55 45 56
REMARK SMILES IDX 48 57 63 58 83 59 46 60 47 61 62 63 84 64 49 65 32 66 33 67
REMARK SMILES IDX 42 68 34 69 35 70 41 71 43 72 36 73 37 74 38 75 39 76 40 77
REMARK SMILES IDX 66 78 67 79 76 80 68 81 69 82 75 83 77 84 70 85 71 86 72 87
REMARK SMILES IDX 73 88 74 89 50 90 51 91 60 92 52 93 53 94 59 95 61 96 54 97
REMARK SMILES IDX 55 98 56 99 57 100 58 101
REMARK H PARENT 13 8 20 32 82 51 48 62
REMARK Flexibility Score: inf
ROOT
ATOM      1  C   UNL     1       2.303  10.660   6.615  1.00  0.00     0.002 C 
ENDROOT
BRANCH   1   2
ATOM      2  C   UNL     1       1.222   9.591   6.814  1.00  0.00     0.002 C 
BRANCH   2   3
ATOM      3  C   UNL     1       1.144   8.523   5.710  1.00  0.00     0.021 C 
BRANCH   3   4
ATOM      4  C   UNL     1       2.411   7.670   5.586  1.00  0.00     0.116 C 
BRANCH   4   5
ATOM      5  N   UNL     1       2.513   6.773   6.722  1.00  0.00    -0.352 N 
ATOM      6  C   UNL     1       2.278   5.450   6.916  1.00  0.00     0.251 C 
ATOM      7  O   UNL     1       2.408   5.044   8.075  1.00  0.00    -0.269 OA
ATOM      8  H   UNL     1       2.822   7.228   7.539  1.00  0.00     0.163 HD
BRANCH   6   9
ATOM      9  C   UNL     1       1.968   4.474   5.802  1.00  0.00     0.047 C 
ATOM     10  C   UNL     1       1.250   4.819   4.710  1.00  0.00     0.022 C 
BRANCH  10  11
ATOM     11  C   UNL     1       0.960   4.023   3.496  1.00  0.00    -0.025 A 
ATOM     12  C   UNL     1       0.530   2.612   1.104  1.00  0.00     0.067 A 
ATOM     13  C   UNL     1       0.264   2.000   2.330  1.00  0.00     0.021 A 
ATOM     14  C   UNL     1       0.972   3.934   1.057  1.00  0.00     0.021 A 
ATOM     15  C   UNL     1       0.465   2.713   3.518  1.00  0.00     0.009 A 
ATOM     16  C   UNL     1       1.183   4.633   2.250  1.00  0.00     0.009 A 
BRANCH  12  17
ATOM     17  S   UNL     1       0.288   1.712  -0.409  1.00  0.00     0.175 S 
ATOM     18  C   UNL     1       1.167   0.189  -0.188  1.00  0.00     0.163 C 
ATOM     19  O   UNL     1       0.963   2.438  -1.465  1.00  0.00    -0.224 OA
ATOM     20  O   UNL     1      -1.129   1.406  -0.490  1.00  0.00    -0.224 OA
ENDBRANCH  12  17
ENDBRANCH  10  11
BRANCH   9  21
ATOM     21  C   UNL     1       2.347   3.056   6.039  1.00  0.00    -0.012 A 
ATOM     22  C   UNL     1       1.678   2.342   7.049  1.00  0.00     0.009 A 
ATOM     23  C   UNL     1       3.291   2.390   5.248  1.00  0.00     0.024 A 
ATOM     24  C   UNL     1       1.929   0.986   7.258  1.00  0.00     0.002 A 
ATOM     25  C   UNL     1       3.523   1.028   5.450  1.00  0.00     0.018 A 
ATOM     26  C   UNL     1       2.847   0.324   6.449  1.00  0.00     0.016 A 
ATOM     27  Br  UNL     1       4.739   0.109   4.331  1.00  0.00    -0.051 Br
ENDBRANCH   9  21
ENDBRANCH   6   9
ENDBRANCH   4   5
ENDBRANCH   3   4
ENDBRANCH   2   3
ENDBRANCH   1   2
BRANCH   1  28
ATOM     28  C   UNL     1       2.249  11.399   5.275  1.00  0.00     0.021 C 
BRANCH  28  29
ATOM     29  C   UNL     1       0.949  12.158   5.020  1.00  0.00     0.116 C 
BRANCH  29  30
ATOM     30  N   UNL     1       0.789  13.284   5.926  1.00  0.00    -0.352 N 
ATOM     31  C   UNL     1       0.558  14.605   5.628  1.00  0.00     0.251 C 
ATOM     32  H   UNL     1       0.857  13.071   6.885  1.00  0.00     0.163 HD
ATOM     33  O   UNL     1       0.646  15.460   6.504  1.00  0.00    -0.269 OA
BRANCH  31  34
ATOM     34  C   UNL     1       0.220  14.993   4.241  1.00  0.00     0.039 A 
ATOM     35  C   UNL     1       0.900  16.060   3.649  1.00  0.00     0.014 A 
ATOM     36  C   UNL     1      -0.762  14.299   3.529  1.00  0.00     0.014 A 
ATOM     37  C   UNL     1       0.641  16.390   2.316  1.00  0.00     0.010 A 
ATOM     38  C   UNL     1      -0.980  14.593   2.185  1.00  0.00     0.010 A 
ATOM     39  C   UNL     1      -0.277  15.639   1.565  1.00  0.00    -0.014 A 
BRANCH  39  40
ATOM     40  C   UNL     1      -0.512  15.916   0.125  1.00  0.00     0.031 A 
ATOM     41  C   UNL     1      -1.855  16.409  -0.338  1.00  0.00     0.074 A 
ATOM     42  C   UNL     1       0.456  15.646  -0.772  1.00  0.00     0.049 A 
ATOM     43  N   UNL     1      -2.289  16.601  -1.557  1.00  0.00    -0.248 NA
ATOM     44  C   UNL     1      -2.849  16.700   0.707  1.00  0.00     0.031 C 
ATOM     45  C   UNL     1       1.787  15.126  -0.449  1.00  0.00     0.029 A 
ATOM     46  N   UNL     1       0.465  15.752  -2.140  1.00  0.00    -0.354 N 
ATOM     47  C   UNL     1      -3.609  17.016  -1.429  1.00  0.00     0.074 A 
ATOM     48  C   UNL     1      -3.917  17.011  -0.014  1.00  0.00     0.031 C 
ATOM     49  C   UNL     1       2.485  14.967  -1.586  1.00  0.00     0.029 A 
ATOM     50  C   UNL     1       1.642  15.339  -2.718  1.00  0.00     0.049 A 
ATOM     51  H   UNL     1      -0.300  16.091  -2.659  1.00  0.00     0.167 HD
ATOM     52  C   UNL     1      -4.478  17.384  -2.400  1.00  0.00     0.037 A 
ATOM     53  C   UNL     1       1.998  15.256  -4.015  1.00  0.00     0.037 A 
ATOM     54  C   UNL     1      -4.157  17.416  -3.802  1.00  0.00     0.049 A 
ATOM     55  C   UNL     1       1.017  15.674  -5.075  1.00  0.00     0.074 A 
ATOM     56  C   UNL     1      -4.950  17.831  -4.858  1.00  0.00     0.029 A 
ATOM     57  N   UNL     1      -2.945  17.016  -4.346  1.00  0.00    -0.354 N 
ATOM     58  N   UNL     1      -0.211  16.114  -4.933  1.00  0.00    -0.248 NA
ATOM     59  C   UNL     1       1.467  15.585  -6.471  1.00  0.00     0.031 C 
ATOM     60  C   UNL     1      -4.228  17.653  -6.044  1.00  0.00     0.029 A 
ATOM     61  C   UNL     1      -2.973  17.160  -5.723  1.00  0.00     0.049 A 
ATOM     62  H   UNL     1      -2.178  16.679  -3.829  1.00  0.00     0.167 HD
ATOM     63  C   UNL     1      -0.672  16.375  -6.218  1.00  0.00     0.074 A 
ATOM     64  C   UNL     1       0.411  16.052  -7.124  1.00  0.00     0.031 C 
ATOM     65  C   UNL     1      -1.883  16.840  -6.610  1.00  0.00     0.037 A 
BRANCH  52  66
ATOM     66  C   UNL     1      -5.862  17.788  -1.974  1.00  0.00     0.058 A 
ATOM     67  C   UNL     1      -6.103  19.005  -1.317  1.00  0.00     0.135 A 
ATOM     68  C   UNL     1      -6.964  16.962  -2.249  1.00  0.00     0.135 A 
ATOM     69  F   UNL     1      -5.082  19.824  -1.017  1.00  0.00    -0.206 F 
ATOM     70  C   UNL     1      -7.383  19.376  -0.919  1.00  0.00     0.059 A 
ATOM     71  C   UNL     1      -8.257  17.325  -1.882  1.00  0.00     0.059 A 
ATOM     72  F   UNL     1      -6.790  15.788  -2.876  1.00  0.00    -0.206 F 
ATOM     73  C   UNL     1      -8.454  18.526  -1.203  1.00  0.00     0.060 A 
BRANCH  73  74
ATOM     74  S   UNL     1     -10.109  19.017  -0.676  1.00  0.00     0.124 S 
ATOM     75  O   UNL     1     -10.050  18.743   0.757  1.00  0.00    -0.237 OA
ATOM     76  O   UNL     1     -10.152  20.428  -1.049  1.00  0.00    -0.237 OA
ATOM     77  O   UNL     1     -10.985  18.141  -1.448  1.00  0.00    -0.744 OA
ENDBRANCH  73  74
ENDBRANCH  52  66
BRANCH  53  78
ATOM     78  C   UNL     1       3.354  14.772  -4.380  1.00  0.00     0.058 A 
ATOM     79  C   UNL     1       4.330  15.660  -4.856  1.00  0.00     0.135 A 
ATOM     80  C   UNL     1       3.710  13.422  -4.239  1.00  0.00     0.135 A 
ATOM     81  F   UNL     1       4.033  16.959  -5.013  1.00  0.00    -0.206 F 
ATOM     82  C   UNL     1       5.608  15.227  -5.190  1.00  0.00     0.059 A 
ATOM     83  C   UNL     1       4.989  12.968  -4.546  1.00  0.00     0.059 A 
ATOM     84  F   UNL     1       2.817  12.537  -3.771  1.00  0.00    -0.206 F 
ATOM     85  C   UNL     1       5.929  13.878  -5.029  1.00  0.00     0.060 A 
BRANCH  85  86
ATOM     86  S   UNL     1       7.610  13.334  -5.405  1.00  0.00     0.124 S 
ATOM     87  O   UNL     1       7.590  13.308  -6.863  1.00  0.00    -0.237 OA
ATOM     88  O   UNL     1       8.418  14.385  -4.795  1.00  0.00    -0.237 OA
ATOM     89  O   UNL     1       7.694  12.032  -4.750  1.00  0.00    -0.744 OA
ENDBRANCH  85  86
ENDBRANCH  53  78
BRANCH  65  90
ATOM     90  C   UNL     1      -2.097  17.055  -8.082  1.00  0.00     0.058 A 
ATOM     91  C   UNL     1      -2.317  15.980  -8.955  1.00  0.00     0.135 A 
ATOM     92  C   UNL     1      -2.142  18.354  -8.611  1.00  0.00     0.135 A 
ATOM     93  F   UNL     1      -2.276  14.718  -8.498  1.00  0.00    -0.206 F 
ATOM     94  C   UNL     1      -2.564  16.185 -10.309  1.00  0.00     0.059 A 
ATOM     95  C   UNL     1      -2.408  18.584  -9.957  1.00  0.00     0.059 A 
ATOM     96  F   UNL     1      -1.945  19.416  -7.814  1.00  0.00    -0.206 F 
ATOM     97  C   UNL     1      -2.610  17.491 -10.800  1.00  0.00     0.060 A 
BRANCH  97  98
ATOM     98  S   UNL     1      -2.978  17.748 -12.549  1.00  0.00     0.124 S 
ATOM     99  O   UNL     1      -1.704  17.403 -13.171  1.00  0.00    -0.237 OA
ATOM    100  O   UNL     1      -4.072  16.810 -12.782  1.00  0.00    -0.237 OA
ATOM    101  O   UNL     1      -3.347  19.159 -12.614  1.00  0.00    -0.744 OA
ENDBRANCH  97  98
ENDBRANCH  65  90
ENDBRANCH  39  40
ENDBRANCH  31  34
ENDBRANCH  29  30
ENDBRANCH  28  29
ENDBRANCH   1  28
TORSDOF 19
