REMARK SMILES C[C@H](CN(Cc1ccccc1)C(=O)c1cc2ccccc2oc1=O)C(=O)NCCCCCCNC(=O)c1ccc(-c2c3nc(c(-c4c(F)cc(S(=O)(=O)[O-])cc4F)c4ccc([nH]4)c(-c4c(F)cc(S(=O)(=O)[O-])cc4F)c4nc(c(-c5c(F)cc(S(=O)(=O)[O-])cc5F)c5ccc2[nH]5)C=C4)C=C3)cc1
REMARK SMILES IDX 30 1 29 2 28 3 27 4 25 5 26 6 2 8 1 9 3 10 4 11 5 12 6 13
REMARK SMILES IDX 7 14 11 15 8 16 10 17 9 18 12 19 13 20 14 21 15 22 23 23
REMARK SMILES IDX 16 24 22 25 24 26 17 27 21 28 18 29 20 30 19 31 31 32 32 33
REMARK SMILES IDX 33 34 34 35 35 36 36 38 37 39 38 40 102 41 39 42 101 43
REMARK SMILES IDX 40 44 41 45 42 46 95 47 43 48 100 49 94 50 96 51 44 52 99 53
REMARK SMILES IDX 93 54 92 55 45 57 79 58 58 59 78 60 59 61 62 62 77 63 97 64
REMARK SMILES IDX 60 65 61 66 76 68 98 69 63 70 46 71 47 72 56 73 48 74 49 75
REMARK SMILES IDX 55 76 57 77 50 78 51 79 52 80 53 81 54 82 80 83 81 84 90 85
REMARK SMILES IDX 82 86 83 87 89 88 91 89 84 90 85 91 86 92 87 93 88 94 64 95
REMARK SMILES IDX 65 96 74 97 66 98 67 99 73 100 75 101 68 102 69 103 70 104
REMARK SMILES IDX 71 105 72 106
REMARK H PARENT 27 7 34 37 96 56 62 67
REMARK Flexibility Score: inf
ROOT
ATOM      1  C   UNL     1      -3.171   2.498   1.311  1.00  0.00     0.002 C 
ENDROOT
BRANCH   1   2
ATOM      2  C   UNL     1      -1.684   2.126   1.287  1.00  0.00     0.021 C 
BRANCH   2   3
ATOM      3  C   UNL     1      -1.386   0.742   1.867  1.00  0.00     0.116 C 
BRANCH   3   4
ATOM      4  N   UNL     1      -1.645  -0.303   0.888  1.00  0.00    -0.356 N 
ATOM      5  C   UNL     1      -0.793  -1.110   0.199  1.00  0.00     0.224 C 
ATOM      6  O   UNL     1      -1.280  -1.855  -0.657  1.00  0.00    -0.275 OA
ATOM      7  H   UNL     1      -2.599  -0.452   0.691  1.00  0.00     0.163 HD
BRANCH   5   8
ATOM      8  C   UNL     1       0.706  -1.149   0.479  1.00  0.00     0.095 C 
ATOM      9  C   UNL     1       0.977  -1.683   1.887  1.00  0.00     0.020 C 
BRANCH   8  10
ATOM     10  C   UNL     1       1.408   0.161   0.076  1.00  0.00     0.133 C 
BRANCH  10  11
ATOM     11  N   UNL     1       2.716   0.351   0.713  1.00  0.00    -0.333 N 
BRANCH  11  12
ATOM     12  C   UNL     1       3.901  -0.160   0.014  1.00  0.00     0.155 C 
BRANCH  12  13
ATOM     13  C   UNL     1       4.828   0.961  -0.397  1.00  0.00    -0.029 A 
ATOM     14  C   UNL     1       4.432   1.896  -1.366  1.00  0.00     0.005 A 
ATOM     15  C   UNL     1       6.076   1.121   0.225  1.00  0.00     0.005 A 
ATOM     16  C   UNL     1       5.255   2.977  -1.687  1.00  0.00     0.000 A 
ATOM     17  C   UNL     1       6.892   2.208  -0.090  1.00  0.00     0.000 A 
ATOM     18  C   UNL     1       6.481   3.137  -1.043  1.00  0.00     0.000 A 
ENDBRANCH  12  13
ENDBRANCH  11  12
BRANCH  11  19
ATOM     19  C   UNL     1       2.750   1.052   1.916  1.00  0.00     0.261 C 
ATOM     20  O   UNL     1       1.797   1.742   2.282  1.00  0.00    -0.269 OA
BRANCH  19  21
ATOM     21  C   UNL     1       3.958   0.883   2.796  1.00  0.00     0.126 A 
ATOM     22  C   UNL     1       4.162   1.814   3.756  1.00  0.00     0.033 A 
ATOM     23  C   UNL     1       4.090  -0.475   3.398  1.00  0.00     0.349 A 
ATOM     24  C   UNL     1       3.191   1.696   4.866  1.00  0.00     0.018 A 
ATOM     25  O   UNL     1       3.261  -0.707   4.499  1.00  0.00    -0.422 OA
ATOM     26  O   UNL     1       4.829  -1.337   2.937  1.00  0.00    -0.246 OA
ATOM     27  C   UNL     1       2.712   2.790   5.577  1.00  0.00     0.012 A 
ATOM     28  C   UNL     1       2.732   0.410   5.181  1.00  0.00     0.138 A 
ATOM     29  C   UNL     1       1.761   2.588   6.582  1.00  0.00     0.001 A 
ATOM     30  C   UNL     1       1.784   0.197   6.174  1.00  0.00     0.048 A 
ATOM     31  C   UNL     1       1.294   1.300   6.873  1.00  0.00     0.004 A 
ENDBRANCH  19  21
ENDBRANCH  11  19
ENDBRANCH  10  11
ENDBRANCH   8  10
ENDBRANCH   5   8
ENDBRANCH   3   4
ENDBRANCH   2   3
ENDBRANCH   1   2
BRANCH   1  32
ATOM     32  C   UNL     1      -3.762   2.720   2.709  1.00  0.00     0.002 C 
BRANCH  32  33
ATOM     33  C   UNL     1      -3.059   3.776   3.571  1.00  0.00     0.021 C 
BRANCH  33  34
ATOM     34  C   UNL     1      -2.958   5.169   2.951  1.00  0.00     0.116 C 
BRANCH  34  35
ATOM     35  N   UNL     1      -4.263   5.761   2.713  1.00  0.00    -0.352 N 
ATOM     36  C   UNL     1      -4.704   7.035   2.969  1.00  0.00     0.251 C 
ATOM     37  H   UNL     1      -4.930   5.159   2.308  1.00  0.00     0.163 HD
ATOM     38  O   UNL     1      -5.896   7.301   2.847  1.00  0.00    -0.269 OA
BRANCH  36  39
ATOM     39  C   UNL     1      -3.756   8.086   3.406  1.00  0.00     0.039 A 
ATOM     40  C   UNL     1      -4.129   8.926   4.461  1.00  0.00     0.014 A 
ATOM     41  C   UNL     1      -2.535   8.282   2.754  1.00  0.00     0.014 A 
ATOM     42  C   UNL     1      -3.262   9.934   4.891  1.00  0.00     0.010 A 
ATOM     43  C   UNL     1      -1.655   9.267   3.206  1.00  0.00     0.010 A 
ATOM     44  C   UNL     1      -2.012  10.103   4.276  1.00  0.00    -0.014 A 
BRANCH  44  45
ATOM     45  C   UNL     1      -1.076  11.163   4.724  1.00  0.00     0.031 A 
ATOM     46  C   UNL     1      -0.824  12.362   3.853  1.00  0.00     0.074 A 
ATOM     47  C   UNL     1      -0.417  11.025   5.891  1.00  0.00     0.049 A 
ATOM     48  N   UNL     1       0.030  13.339   4.019  1.00  0.00    -0.248 NA
ATOM     49  C   UNL     1      -1.624  12.464   2.622  1.00  0.00     0.031 C 
ATOM     50  C   UNL     1      -0.552   9.894   6.811  1.00  0.00     0.029 A 
ATOM     51  N   UNL     1       0.511  11.836   6.494  1.00  0.00    -0.354 N 
ATOM     52  C   UNL     1      -0.114  14.162   2.909  1.00  0.00     0.074 A 
ATOM     53  C   UNL     1      -1.124  13.558   2.064  1.00  0.00     0.031 C 
ATOM     54  C   UNL     1       0.263  10.085   7.863  1.00  0.00     0.029 A 
ATOM     55  C   UNL     1       0.990  11.338   7.681  1.00  0.00     0.049 A 
ATOM     56  H   UNL     1       0.805  12.694   6.112  1.00  0.00     0.167 HD
ATOM     57  C   UNL     1       0.530  15.318   2.623  1.00  0.00     0.037 A 
ATOM     58  C   UNL     1       1.917  11.832   8.524  1.00  0.00     0.037 A 
ATOM     59  C   UNL     1       1.515  15.933   3.473  1.00  0.00     0.049 A 
ATOM     60  C   UNL     1       2.575  13.147   8.212  1.00  0.00     0.074 A 
ATOM     61  C   UNL     1       2.225  17.103   3.267  1.00  0.00     0.029 A 
ATOM     62  N   UNL     1       1.915  15.434   4.703  1.00  0.00    -0.354 N 
ATOM     63  N   UNL     1       2.426  13.910   7.157  1.00  0.00    -0.248 NA
ATOM     64  C   UNL     1       3.520  13.672   9.208  1.00  0.00     0.031 C 
ATOM     65  C   UNL     1       3.058  17.311   4.374  1.00  0.00     0.029 A 
ATOM     66  C   UNL     1       2.850  16.280   5.275  1.00  0.00     0.049 A 
ATOM     67  H   UNL     1       1.582  14.602   5.111  1.00  0.00     0.167 HD
ATOM     68  C   UNL     1       3.244  15.013   7.369  1.00  0.00     0.074 A 
ATOM     69  C   UNL     1       3.879  14.824   8.657  1.00  0.00     0.031 C 
ATOM     70  C   UNL     1       3.454  16.084   6.566  1.00  0.00     0.037 A 
BRANCH  57  71
ATOM     71  C   UNL     1       0.182  15.998   1.331  1.00  0.00     0.058 A 
ATOM     72  C   UNL     1      -1.006  16.731   1.191  1.00  0.00     0.135 A 
ATOM     73  C   UNL     1       1.053  15.938   0.232  1.00  0.00     0.135 A 
ATOM     74  F   UNL     1      -1.879  16.802   2.208  1.00  0.00    -0.206 F 
ATOM     75  C   UNL     1      -1.331  17.366  -0.003  1.00  0.00     0.059 A 
ATOM     76  C   UNL     1       0.757  16.580  -0.966  1.00  0.00     0.059 A 
ATOM     77  F   UNL     1       2.201  15.247   0.316  1.00  0.00    -0.206 F 
ATOM     78  C   UNL     1      -0.445  17.280  -1.078  1.00  0.00     0.060 A 
BRANCH  78  79
ATOM     79  S   UNL     1      -0.871  18.107  -2.626  1.00  0.00     0.124 S 
ATOM     80  O   UNL     1      -1.793  17.145  -3.223  1.00  0.00    -0.237 OA
ATOM     81  O   UNL     1      -1.469  19.356  -2.166  1.00  0.00    -0.237 OA
ATOM     82  O   UNL     1       0.417  18.244  -3.299  1.00  0.00    -0.744 OA
ENDBRANCH  78  79
ENDBRANCH  57  71
BRANCH  58  83
ATOM     83  C   UNL     1       2.268  11.088   9.758  1.00  0.00     0.058 A 
ATOM     84  C   UNL     1       1.792  11.504  11.009  1.00  0.00     0.135 A 
ATOM     85  C   UNL     1       3.084   9.949   9.709  1.00  0.00     0.135 A 
ATOM     86  F   UNL     1       1.012  12.592  11.101  1.00  0.00    -0.206 F 
ATOM     87  C   UNL     1       2.127  10.826  12.177  1.00  0.00     0.059 A 
ATOM     88  C   UNL     1       3.420   9.245  10.861  1.00  0.00     0.059 A 
ATOM     89  F   UNL     1       3.550   9.504   8.532  1.00  0.00    -0.206 F 
ATOM     90  C   UNL     1       2.946   9.699  12.092  1.00  0.00     0.060 A 
BRANCH  90  91
ATOM     91  S   UNL     1       3.347   8.788  13.600  1.00  0.00     0.124 S 
ATOM     92  O   UNL     1       4.488   9.544  14.101  1.00  0.00    -0.237 OA
ATOM     93  O   UNL     1       2.115   8.901  14.375  1.00  0.00    -0.237 OA
ATOM     94  O   UNL     1       3.641   7.447  13.102  1.00  0.00    -0.744 OA
ENDBRANCH  90  91
ENDBRANCH  58  83
BRANCH  70  95
ATOM     95  C   UNL     1       4.380  17.149   7.073  1.00  0.00     0.058 A 
ATOM     96  C   UNL     1       5.773  17.003   6.995  1.00  0.00     0.135 A 
ATOM     97  C   UNL     1       3.869  18.343   7.604  1.00  0.00     0.135 A 
ATOM     98  F   UNL     1       6.308  15.876   6.500  1.00  0.00    -0.206 F 
ATOM     99  C   UNL     1       6.631  18.003   7.439  1.00  0.00     0.059 A 
ATOM    100  C   UNL     1       4.708  19.361   8.042  1.00  0.00     0.059 A 
ATOM    101  F   UNL     1       2.542  18.528   7.695  1.00  0.00    -0.206 F 
ATOM    102  C   UNL     1       6.089  19.178   7.965  1.00  0.00     0.060 A 
BRANCH 102 103
ATOM    103  S   UNL     1       7.204  20.489   8.510  1.00  0.00     0.124 S 
ATOM    104  O   UNL     1       7.560  20.033   9.849  1.00  0.00    -0.237 OA
ATOM    105  O   UNL     1       8.274  20.433   7.517  1.00  0.00    -0.237 OA
ATOM    106  O   UNL     1       6.369  21.685   8.452  1.00  0.00    -0.744 OA
ENDBRANCH 102 103
ENDBRANCH  70  95
ENDBRANCH  44  45
ENDBRANCH  36  39
ENDBRANCH  34  35
ENDBRANCH  33  34
ENDBRANCH  32  33
ENDBRANCH   1  32
TORSDOF 22
