REMARK SMILES O=C(C[C@@H]1CN(c2cc(C(F)(F)F)ccn2)CCO1)NCCCCCCNC(=O)c1ccc(-c2c3nc(c(-c4c(F)cc(S(=O)(=O)[O-])cc4F)c4ccc([nH]4)c(-c4c(F)cc(S(=O)(=O)[O-])cc4F)c4nc(c(-c5c(F)cc(S(=O)(=O)[O-])cc5F)c5ccc2[nH]5)C=C4)C=C3)cc1
REMARK SMILES IDX 23 1 22 2 21 3 20 4 1 5 2 6 3 8 4 9 5 10 19 11 6 12 18 13
REMARK SMILES IDX 17 14 7 15 8 16 16 17 9 18 15 19 14 20 10 21 11 22 12 23
REMARK SMILES IDX 13 24 24 25 25 26 26 27 27 28 28 29 29 31 30 32 31 33 95 34
REMARK SMILES IDX 32 35 94 36 33 37 34 38 35 39 88 40 36 41 93 42 87 43 89 44
REMARK SMILES IDX 37 45 92 46 86 47 85 48 38 50 72 51 51 52 71 53 52 54 55 55
REMARK SMILES IDX 70 56 90 57 53 58 54 59 69 61 91 62 56 63 39 64 40 65 49 66
REMARK SMILES IDX 41 67 42 68 48 69 50 70 43 71 44 72 45 73 46 74 47 75 73 76
REMARK SMILES IDX 74 77 83 78 75 79 76 80 82 81 84 82 77 83 78 84 79 85 80 86
REMARK SMILES IDX 81 87 57 88 58 89 67 90 59 91 60 92 66 93 68 94 61 95 62 96
REMARK SMILES IDX 63 97 64 98 65 99
REMARK H PARENT 20 7 27 30 89 49 55 60
REMARK Flexibility Score: inf
ROOT
ATOM      1  C   UNL     1       4.112   2.041   3.184  1.00  0.00     0.002 C 
ENDROOT
BRANCH   1   2
ATOM      2  C   UNL     1       2.602   1.767   3.101  1.00  0.00     0.021 C 
BRANCH   2   3
ATOM      3  C   UNL     1       1.993   1.897   1.705  1.00  0.00     0.116 C 
BRANCH   3   4
ATOM      4  N   UNL     1       2.663   1.033   0.765  1.00  0.00    -0.356 N 
ATOM      5  O   UNL     1       0.903  -0.331   0.179  1.00  0.00    -0.275 OA
ATOM      6  C   UNL     1       2.086  -0.016   0.098  1.00  0.00     0.222 C 
ATOM      7  H   UNL     1       3.615   1.211   0.588  1.00  0.00     0.163 HD
BRANCH   6   8
ATOM      8  C   UNL     1       3.092  -0.849  -0.666  1.00  0.00     0.133 C 
BRANCH   8   9
ATOM      9  C   UNL     1       3.875  -0.094  -1.744  1.00  0.00     0.147 C 
ATOM     10  C   UNL     1       5.185  -0.855  -2.054  1.00  0.00     0.150 C 
ATOM     11  O   UNL     1       4.203   1.251  -1.316  1.00  0.00    -0.374 OA
ATOM     12  N   UNL     1       5.948  -0.090  -3.038  1.00  0.00    -0.352 N 
ATOM     13  C   UNL     1       4.894   1.966  -2.361  1.00  0.00     0.182 C 
ATOM     14  C   UNL     1       6.239   1.292  -2.670  1.00  0.00     0.146 C 
BRANCH  12  15
ATOM     15  C   UNL     1       6.758  -0.743  -3.934  1.00  0.00     0.129 A 
ATOM     16  C   UNL     1       6.166  -1.602  -4.853  1.00  0.00     0.060 A 
ATOM     17  N   UNL     1       8.077  -0.478  -3.970  1.00  0.00    -0.239 NA
ATOM     18  C   UNL     1       6.932  -2.194  -5.857  1.00  0.00     0.061 A 
ATOM     19  C   UNL     1       8.823  -1.100  -4.909  1.00  0.00     0.114 A 
ATOM     20  C   UNL     1       8.304  -1.951  -5.868  1.00  0.00     0.033 A 
BRANCH  18  21
ATOM     21  C   UNL     1       6.278  -3.038  -6.912  1.00  0.00     0.416 C 
ATOM     22  F   UNL     1       6.560  -2.607  -8.172  1.00  0.00    -0.166 F 
ATOM     23  F   UNL     1       6.677  -4.338  -6.862  1.00  0.00    -0.166 F 
ATOM     24  F   UNL     1       4.918  -3.062  -6.825  1.00  0.00    -0.166 F 
ENDBRANCH  18  21
ENDBRANCH  12  15
ENDBRANCH   8   9
ENDBRANCH   6   8
ENDBRANCH   3   4
ENDBRANCH   2   3
ENDBRANCH   1   2
BRANCH   1  25
ATOM     25  C   UNL     1       4.567   3.424   2.708  1.00  0.00     0.002 C 
BRANCH  25  26
ATOM     26  C   UNL     1       3.910   4.612   3.414  1.00  0.00     0.021 C 
BRANCH  26  27
ATOM     27  C   UNL     1       4.064   4.639   4.933  1.00  0.00     0.116 C 
BRANCH  27  28
ATOM     28  N   UNL     1       5.451   4.753   5.355  1.00  0.00    -0.352 N 
ATOM     29  C   UNL     1       6.028   5.619   6.250  1.00  0.00     0.251 C 
ATOM     30  H   UNL     1       6.070   4.112   4.936  1.00  0.00     0.163 HD
ATOM     31  O   UNL     1       7.256   5.653   6.353  1.00  0.00    -0.269 OA
BRANCH  29  32
ATOM     32  C   UNL     1       5.195   6.529   7.071  1.00  0.00     0.039 A 
ATOM     33  C   UNL     1       5.616   7.850   7.243  1.00  0.00     0.014 A 
ATOM     34  C   UNL     1       4.017   6.091   7.682  1.00  0.00     0.014 A 
ATOM     35  C   UNL     1       4.825   8.744   7.969  1.00  0.00     0.010 A 
ATOM     36  C   UNL     1       3.192   7.002   8.344  1.00  0.00     0.010 A 
ATOM     37  C   UNL     1       3.586   8.339   8.494  1.00  0.00    -0.014 A 
BRANCH  37  38
ATOM     38  C   UNL     1       2.689   9.320   9.162  1.00  0.00     0.031 A 
ATOM     39  C   UNL     1       2.334   9.181  10.618  1.00  0.00     0.074 A 
ATOM     40  C   UNL     1       2.157  10.325   8.436  1.00  0.00     0.049 A 
ATOM     41  N   UNL     1       1.589   9.958  11.364  1.00  0.00    -0.248 NA
ATOM     42  C   UNL     1       2.865   8.005  11.324  1.00  0.00     0.031 C 
ATOM     43  C   UNL     1       2.373  10.535   7.002  1.00  0.00     0.029 A 
ATOM     44  N   UNL     1       1.331  11.359   8.800  1.00  0.00    -0.354 N 
ATOM     45  C   UNL     1       1.552   9.362  12.620  1.00  0.00     0.074 A 
ATOM     46  C   UNL     1       2.308   8.132  12.520  1.00  0.00     0.031 C 
ATOM     47  C   UNL     1       1.736  11.652   6.620  1.00  0.00     0.029 A 
ATOM     48  C   UNL     1       1.035  12.218   7.768  1.00  0.00     0.049 A 
ATOM     49  H   UNL     1       0.984  11.475   9.714  1.00  0.00     0.167 HD
ATOM     50  C   UNL     1       0.961   9.809  13.755  1.00  0.00     0.037 A 
ATOM     51  C   UNL     1       0.289  13.339   7.747  1.00  0.00     0.037 A 
ATOM     52  C   UNL     1       0.221  11.043  13.850  1.00  0.00     0.049 A 
ATOM     53  C   UNL     1      -0.354  13.817   9.020  1.00  0.00     0.074 A 
ATOM     54  C   UNL     1      -0.349  11.621  14.971  1.00  0.00     0.029 A 
ATOM     55  N   UNL     1      -0.065  11.882  12.782  1.00  0.00    -0.354 N 
ATOM     56  N   UNL     1      -0.302  13.288  10.219  1.00  0.00    -0.248 NA
ATOM     57  C   UNL     1      -1.151  15.047   8.936  1.00  0.00     0.031 C 
ATOM     58  C   UNL     1      -1.028  12.778  14.571  1.00  0.00     0.029 A 
ATOM     59  C   UNL     1      -0.833  12.954  13.211  1.00  0.00     0.049 A 
ATOM     60  H   UNL     1       0.234  11.737  11.855  1.00  0.00     0.167 HD
ATOM     61  C   UNL     1      -1.043  14.133  11.039  1.00  0.00     0.074 A 
ATOM     62  C   UNL     1      -1.512  15.219  10.200  1.00  0.00     0.031 C 
ATOM     63  C   UNL     1      -1.310  14.021  12.364  1.00  0.00     0.037 A 
BRANCH  50  64
ATOM     64  C   UNL     1       1.082   8.950  14.988  1.00  0.00     0.058 A 
ATOM     65  C   UNL     1       2.308   8.768  15.649  1.00  0.00     0.135 A 
ATOM     66  C   UNL     1      -0.050   8.318  15.530  1.00  0.00     0.135 A 
ATOM     67  F   UNL     1       3.425   9.340  15.173  1.00  0.00    -0.206 F 
ATOM     68  C   UNL     1       2.416   7.958  16.776  1.00  0.00     0.059 A 
ATOM     69  C   UNL     1       0.029   7.528  16.674  1.00  0.00     0.059 A 
ATOM     70  F   UNL     1      -1.249   8.459  14.944  1.00  0.00    -0.206 F 
ATOM     71  C   UNL     1       1.271   7.338  17.279  1.00  0.00     0.060 A 
BRANCH  71  72
ATOM     72  S   UNL     1       1.430   6.278  18.731  1.00  0.00     0.124 S 
ATOM     73  O   UNL     1       2.105   5.113  18.167  1.00  0.00    -0.237 OA
ATOM     74  O   UNL     1       2.233   7.100  19.631  1.00  0.00    -0.237 OA
ATOM     75  O   UNL     1       0.049   6.062  19.149  1.00  0.00    -0.744 OA
ENDBRANCH  71  72
ENDBRANCH  50  64
BRANCH  51  76
ATOM     76  C   UNL     1       0.148  14.111   6.482  1.00  0.00     0.058 A 
ATOM     77  C   UNL     1       0.768  15.360   6.330  1.00  0.00     0.135 A 
ATOM     78  C   UNL     1      -0.583  13.607   5.395  1.00  0.00     0.135 A 
ATOM     79  F   UNL     1       1.471  15.887   7.344  1.00  0.00    -0.206 F 
ATOM     80  C   UNL     1       0.663  16.087   5.149  1.00  0.00     0.059 A 
ATOM     81  C   UNL     1      -0.681  14.303   4.195  1.00  0.00     0.059 A 
ATOM     82  F   UNL     1      -1.183  12.410   5.485  1.00  0.00    -0.206 F 
ATOM     83  C   UNL     1      -0.059  15.546   4.084  1.00  0.00     0.060 A 
BRANCH  83  84
ATOM     84  S   UNL     1      -0.133  16.469   2.533  1.00  0.00     0.124 S 
ATOM     85  O   UNL     1      -1.021  17.570   2.887  1.00  0.00    -0.237 OA
ATOM     86  O   UNL     1       1.268  16.821   2.321  1.00  0.00    -0.237 OA
ATOM     87  O   UNL     1      -0.676  15.497   1.589  1.00  0.00    -0.744 OA
ENDBRANCH  83  84
ENDBRANCH  51  76
BRANCH  63  88
ATOM     88  C   UNL     1      -2.139  15.111  12.990  1.00  0.00     0.058 A 
ATOM     89  C   UNL     1      -3.505  15.260  12.700  1.00  0.00     0.135 A 
ATOM     90  C   UNL     1      -1.562  16.014  13.899  1.00  0.00     0.135 A 
ATOM     91  F   UNL     1      -4.106  14.429  11.834  1.00  0.00    -0.206 F 
ATOM     92  C   UNL     1      -4.258  16.291  13.252  1.00  0.00     0.059 A 
ATOM     93  C   UNL     1      -2.305  17.032  14.489  1.00  0.00     0.059 A 
ATOM     94  F   UNL     1      -0.264  15.911  14.224  1.00  0.00    -0.206 F 
ATOM     95  C   UNL     1      -3.647  17.176  14.143  1.00  0.00     0.060 A 
BRANCH  95  96
ATOM     96  S   UNL     1      -4.634  18.512  14.850  1.00  0.00     0.124 S 
ATOM     97  O   UNL     1      -4.756  19.419  13.714  1.00  0.00    -0.237 OA
ATOM     98  O   UNL     1      -5.859  17.822  15.245  1.00  0.00    -0.237 OA
ATOM     99  O   UNL     1      -3.811  18.994  15.955  1.00  0.00    -0.744 OA
ENDBRANCH  95  96
ENDBRANCH  63  88
ENDBRANCH  37  38
ENDBRANCH  29  32
ENDBRANCH  27  28
ENDBRANCH  26  27
ENDBRANCH  25  26
ENDBRANCH   1  25
TORSDOF 19
