REMARK SMILES O=C(NCCCCCCNC(=O)c1cc2c(Cl)c(C(F)(F)F)cnc2n1S(=O)(=O)c1ccccc1)c1ccc(-c2c3nc(c(-c4c(F)cc(S(=O)(=O)[O-])cc4F)c4ccc([nH]4)c(-c4c(F)cc(S(=O)(=O)[O-])cc4F)c4nc(c(-c5c(F)cc(S(=O)(=O)[O-])cc5F)c5ccc2[nH]5)C=C4)C=C3)cc1
REMARK SMILES IDX 6 1 5 2 4 3 3 4 1 5 2 6 36 8 37 9 101 10 38 11 100 12 39 13
REMARK SMILES IDX 40 14 41 15 94 16 42 17 99 18 93 19 95 20 43 21 98 22 92 23
REMARK SMILES IDX 91 24 44 26 78 27 57 28 77 29 58 30 61 31 76 32 96 33 59 34
REMARK SMILES IDX 60 35 75 37 97 38 62 39 45 40 46 41 55 42 47 43 48 44 54 45
REMARK SMILES IDX 56 46 49 47 50 48 51 49 52 50 53 51 79 52 80 53 89 54 81 55
REMARK SMILES IDX 82 56 88 57 90 58 83 59 84 60 85 61 86 62 87 63 63 64 64 65
REMARK SMILES IDX 73 66 65 67 66 68 72 69 74 70 67 71 68 72 69 73 70 74 71 75
REMARK SMILES IDX 7 76 8 77 9 78 10 79 11 80 12 82 13 83 14 84 26 85 15 86
REMARK SMILES IDX 25 87 16 88 24 89 17 90 18 91 23 92 27 93 28 94 29 95 30 96
REMARK SMILES IDX 31 97 35 98 32 99 34 100 33 101 19 102 20 103 21 104 22 105
REMARK H PARENT 3 7 95 25 61 36 10 81
REMARK Flexibility Score: inf
ROOT
ATOM      1  C   UNL     1       4.158  -0.284  -3.617  1.00  0.00     0.002 C 
ENDROOT
BRANCH   1   2
ATOM      2  C   UNL     1       4.734  -0.505  -2.215  1.00  0.00     0.021 C 
BRANCH   2   3
ATOM      3  C   UNL     1       4.715   0.708  -1.290  1.00  0.00     0.116 C 
BRANCH   3   4
ATOM      4  N   UNL     1       3.401   1.226  -0.960  1.00  0.00    -0.352 N 
ATOM      5  O   UNL     1       1.415   1.498   0.026  1.00  0.00    -0.269 OA
ATOM      6  C   UNL     1       2.434   0.816  -0.081  1.00  0.00     0.251 C 
ATOM      7  H   UNL     1       3.157   2.033  -1.468  1.00  0.00     0.163 HD
BRANCH   6   8
ATOM      8  C   UNL     1       2.534  -0.461   0.657  1.00  0.00     0.039 A 
ATOM      9  C   UNL     1       3.727  -0.959   1.180  1.00  0.00     0.014 A 
ATOM     10  C   UNL     1       1.351  -1.198   0.807  1.00  0.00     0.014 A 
ATOM     11  C   UNL     1       3.781  -2.256   1.670  1.00  0.00     0.010 A 
ATOM     12  C   UNL     1       1.389  -2.473   1.358  1.00  0.00     0.010 A 
ATOM     13  C   UNL     1       2.619  -3.028   1.720  1.00  0.00    -0.014 A 
BRANCH  13  14
ATOM     14  C   UNL     1       2.740  -4.405   2.198  1.00  0.00     0.031 A 
ATOM     15  C   UNL     1       3.194  -4.594   3.611  1.00  0.00     0.074 A 
ATOM     16  C   UNL     1       2.329  -5.458   1.466  1.00  0.00     0.049 A 
ATOM     17  N   UNL     1       4.168  -5.315   4.073  1.00  0.00    -0.248 NA
ATOM     18  C   UNL     1       2.478  -3.826   4.643  1.00  0.00     0.031 C 
ATOM     19  C   UNL     1       1.571  -5.445   0.210  1.00  0.00     0.029 A 
ATOM     20  N   UNL     1       2.390  -6.782   1.778  1.00  0.00    -0.354 N 
ATOM     21  C   UNL     1       4.102  -5.212   5.463  1.00  0.00     0.074 A 
ATOM     22  C   UNL     1       3.100  -4.217   5.755  1.00  0.00     0.031 C 
ATOM     23  C   UNL     1       1.036  -6.668   0.009  1.00  0.00     0.029 A 
ATOM     24  C   UNL     1       1.517  -7.568   1.043  1.00  0.00     0.049 A 
ATOM     25  H   UNL     1       2.997  -7.147   2.461  1.00  0.00     0.167 HD
ATOM     26  C   UNL     1       4.771  -6.032   6.322  1.00  0.00     0.037 A 
ATOM     27  C   UNL     1       1.126  -8.828   1.346  1.00  0.00     0.037 A 
ATOM     28  C   UNL     1       5.816  -6.780   5.689  1.00  0.00     0.049 A 
ATOM     29  C   UNL     1       2.128  -9.404   2.280  1.00  0.00     0.074 A 
ATOM     30  C   UNL     1       7.010  -6.457   5.076  1.00  0.00     0.029 A 
ATOM     31  N   UNL     1       5.578  -8.091   5.361  1.00  0.00    -0.354 N 
ATOM     32  N   UNL     1       3.366  -9.677   1.967  1.00  0.00    -0.248 NA
ATOM     33  C   UNL     1       1.852  -9.327   3.707  1.00  0.00     0.031 C 
ATOM     34  C   UNL     1       7.172  -7.421   4.039  1.00  0.00     0.029 A 
ATOM     35  C   UNL     1       6.068  -8.273   4.092  1.00  0.00     0.049 A 
ATOM     36  H   UNL     1       5.140  -8.768   5.926  1.00  0.00     0.167 HD
ATOM     37  C   UNL     1       4.095  -9.422   3.120  1.00  0.00     0.074 A 
ATOM     38  C   UNL     1       3.100  -9.314   4.181  1.00  0.00     0.031 C 
ATOM     39  C   UNL     1       5.411  -9.060   3.070  1.00  0.00     0.037 A 
BRANCH  26  40
ATOM     40  C   UNL     1       4.308  -6.318   7.723  1.00  0.00     0.058 A 
ATOM     41  C   UNL     1       5.210  -6.738   8.716  1.00  0.00     0.135 A 
ATOM     42  C   UNL     1       2.937  -6.405   8.052  1.00  0.00     0.135 A 
ATOM     43  F   UNL     1       6.533  -6.724   8.486  1.00  0.00    -0.206 F 
ATOM     44  C   UNL     1       4.779  -7.226   9.951  1.00  0.00     0.059 A 
ATOM     45  C   UNL     1       2.486  -6.844   9.291  1.00  0.00     0.059 A 
ATOM     46  F   UNL     1       1.987  -6.137   7.144  1.00  0.00    -0.206 F 
ATOM     47  C   UNL     1       3.413  -7.284  10.225  1.00  0.00     0.060 A 
BRANCH  47  48
ATOM     48  S   UNL     1       2.852  -7.995  11.785  1.00  0.00     0.124 S 
ATOM     49  O   UNL     1       3.141  -9.410  11.580  1.00  0.00    -0.237 OA
ATOM     50  O   UNL     1       3.695  -7.306  12.757  1.00  0.00    -0.237 OA
ATOM     51  O   UNL     1       1.438  -7.638  11.827  1.00  0.00    -0.744 OA
ENDBRANCH  47  48
ENDBRANCH  26  40
BRANCH  27  52
ATOM     52  C   UNL     1      -0.245  -9.380   1.190  1.00  0.00     0.058 A 
ATOM     53  C   UNL     1      -0.485 -10.761   1.258  1.00  0.00     0.135 A 
ATOM     54  C   UNL     1      -1.383  -8.546   1.229  1.00  0.00     0.135 A 
ATOM     55  F   UNL     1       0.542 -11.624   1.266  1.00  0.00    -0.206 F 
ATOM     56  C   UNL     1      -1.776 -11.284   1.387  1.00  0.00     0.059 A 
ATOM     57  C   UNL     1      -2.678  -9.044   1.336  1.00  0.00     0.059 A 
ATOM     58  F   UNL     1      -1.267  -7.210   1.258  1.00  0.00    -0.206 F 
ATOM     59  C   UNL     1      -2.865 -10.415   1.440  1.00  0.00     0.060 A 
BRANCH  59  60
ATOM     60  S   UNL     1      -4.515 -11.075   1.765  1.00  0.00     0.124 S 
ATOM     61  O   UNL     1      -4.774 -11.849   0.556  1.00  0.00    -0.237 OA
ATOM     62  O   UNL     1      -4.299 -11.847   2.984  1.00  0.00    -0.237 OA
ATOM     63  O   UNL     1      -5.336  -9.877   1.925  1.00  0.00    -0.744 OA
ENDBRANCH  59  60
ENDBRANCH  27  52
BRANCH  39  64
ATOM     64  C   UNL     1       6.142  -9.212   1.761  1.00  0.00     0.058 A 
ATOM     65  C   UNL     1       5.836  -8.461   0.612  1.00  0.00     0.135 A 
ATOM     66  C   UNL     1       7.293 -10.013   1.713  1.00  0.00     0.135 A 
ATOM     67  F   UNL     1       4.819  -7.588   0.614  1.00  0.00    -0.206 F 
ATOM     68  C   UNL     1       6.616  -8.530  -0.543  1.00  0.00     0.059 A 
ATOM     69  C   UNL     1       8.103 -10.075   0.580  1.00  0.00     0.059 A 
ATOM     70  F   UNL     1       7.678 -10.702   2.800  1.00  0.00    -0.206 F 
ATOM     71  C   UNL     1       7.753  -9.336  -0.549  1.00  0.00     0.060 A 
BRANCH  71  72
ATOM     72  S   UNL     1       8.818  -9.337  -2.009  1.00  0.00     0.124 S 
ATOM     73  O   UNL     1       8.024 -10.095  -2.969  1.00  0.00    -0.237 OA
ATOM     74  O   UNL     1       8.969  -7.913  -2.294  1.00  0.00    -0.237 OA
ATOM     75  O   UNL     1      10.035  -9.998  -1.544  1.00  0.00    -0.744 OA
ENDBRANCH  71  72
ENDBRANCH  39  64
ENDBRANCH  13  14
ENDBRANCH   6   8
ENDBRANCH   3   4
ENDBRANCH   2   3
ENDBRANCH   1   2
BRANCH   1  76
ATOM     76  C   UNL     1       4.583   0.996  -4.351  1.00  0.00     0.002 C 
BRANCH  76  77
ATOM     77  C   UNL     1       6.085   1.302  -4.426  1.00  0.00     0.021 C 
BRANCH  77  78
ATOM     78  C   UNL     1       6.955   0.174  -4.959  1.00  0.00     0.116 C 
BRANCH  78  79
ATOM     79  N   UNL     1       6.738  -0.091  -6.366  1.00  0.00    -0.351 N 
ATOM     80  C   UNL     1       7.649  -0.334  -7.356  1.00  0.00     0.269 C 
ATOM     81  H   UNL     1       5.796  -0.097  -6.652  1.00  0.00     0.163 HD
ATOM     82  O   UNL     1       7.235  -0.528  -8.497  1.00  0.00    -0.268 OA
BRANCH  80  83
ATOM     83  C   UNL     1       9.056  -0.207  -7.072  1.00  0.00     0.124 A 
ATOM     84  C   UNL     1       9.892   0.784  -7.570  1.00  0.00     0.047 A 
ATOM     85  N   UNL     1       9.869  -1.109  -6.404  1.00  0.00    -0.211 N 
ATOM     86  C   UNL     1      11.228   0.482  -7.198  1.00  0.00     0.040 A 
ATOM     87  C   UNL     1      11.185  -0.719  -6.492  1.00  0.00     0.156 A 
ATOM     88  C   UNL     1      12.500   1.053  -7.388  1.00  0.00     0.065 A 
ATOM     89  N   UNL     1      12.257  -1.352  -5.984  1.00  0.00    -0.237 NA
ATOM     90  Cl  UNL     1      12.523   2.504  -8.296  1.00  0.00    -0.083 Cl
ATOM     91  C   UNL     1      13.634   0.450  -6.858  1.00  0.00     0.093 A 
ATOM     92  C   UNL     1      13.442  -0.739  -6.176  1.00  0.00     0.128 A 
BRANCH  85  93
ATOM     93  S   UNL     1       9.344  -2.649  -5.905  1.00  0.00     0.270 S 
ATOM     94  O   UNL     1       8.230  -2.392  -5.030  1.00  0.00    -0.201 OA
ATOM     95  O   UNL     1       9.184  -3.365  -7.166  1.00  0.00    -0.201 OA
BRANCH  93  96
ATOM     96  C   UNL     1      10.577  -3.450  -4.926  1.00  0.00     0.088 A 
ATOM     97  C   UNL     1      10.995  -4.735  -5.282  1.00  0.00     0.022 A 
ATOM     98  C   UNL     1      11.047  -2.851  -3.749  1.00  0.00     0.022 A 
ATOM     99  C   UNL     1      11.918  -5.405  -4.483  1.00  0.00     0.001 A 
ATOM    100  C   UNL     1      11.991  -3.520  -2.968  1.00  0.00     0.001 A 
ATOM    101  C   UNL     1      12.425  -4.794  -3.336  1.00  0.00     0.000 A 
ENDBRANCH  93  96
ENDBRANCH  85  93
BRANCH  91 102
ATOM    102  C   UNL     1      15.001   1.023  -7.004  1.00  0.00     0.419 C 
ATOM    103  F   UNL     1      15.425   1.068  -8.296  1.00  0.00    -0.166 F 
ATOM    104  F   UNL     1      15.101   2.293  -6.525  1.00  0.00    -0.166 F 
ATOM    105  F   UNL     1      15.956   0.314  -6.335  1.00  0.00    -0.166 F 
ENDBRANCH  91 102
ENDBRANCH  80  83
ENDBRANCH  78  79
ENDBRANCH  77  78
ENDBRANCH  76  77
ENDBRANCH   1  76
TORSDOF 19
