REMARK SMILES CCCn1cc(Br)cc1C(=O)NC[C@H]1CC[C@@H](C(=O)NCCCCCCNC(=O)c2ccc(-c3c4nc(c(-c5c(F)cc(S(=O)(=O)[O-])cc5F)c5ccc([nH]5)c(-c5c(F)cc(S(=O)(=O)[O-])cc5F)c5nc(c(-c6c(F)cc(S(=O)(=O)[O-])cc6F)c6ccc3[nH]6)C=C5)C=C4)cc2)O1
REMARK SMILES IDX 22 1 21 2 20 3 18 4 19 5 17 7 14 8 15 9 96 10 16 11 13 12
REMARK SMILES IDX 12 13 10 14 11 15 9 17 4 18 5 19 6 20 8 21 7 22 3 23 2 24
REMARK SMILES IDX 1 25 23 26 24 27 25 28 26 29 27 30 28 31 29 33 30 34 31 35
REMARK SMILES IDX 95 36 32 37 94 38 33 39 34 40 35 41 88 42 36 43 93 44 87 45
REMARK SMILES IDX 89 46 37 47 92 48 86 49 85 50 38 52 72 53 51 54 71 55 52 56
REMARK SMILES IDX 55 57 70 58 90 59 53 60 54 61 69 63 91 64 56 65 39 66 40 67
REMARK SMILES IDX 49 68 41 69 42 70 48 71 50 72 43 73 44 74 45 75 46 76 47 77
REMARK SMILES IDX 73 78 74 79 83 80 75 81 76 82 82 83 84 84 77 85 78 86 79 87
REMARK SMILES IDX 80 88 81 89 57 90 58 91 67 92 59 93 60 94 66 95 68 96 61 97
REMARK SMILES IDX 62 98 63 99 64 100 65 101
REMARK H PARENT 20 6 12 16 27 32 89 51 55 62
REMARK Flexibility Score: inf
ROOT
ATOM      1  C   UNL     1       6.648   2.881  -3.847  1.00  0.00     0.021 C 
ENDROOT
BRANCH   1   2
ATOM      2  C   UNL     1       5.671   2.275  -2.840  1.00  0.00     0.116 C 
BRANCH   2   3
ATOM      3  N   UNL     1       5.899   2.829  -1.523  1.00  0.00    -0.354 N 
ATOM      4  C   UNL     1       5.208   3.848  -0.928  1.00  0.00     0.249 C 
ATOM      5  O   UNL     1       5.636   4.312   0.130  1.00  0.00    -0.272 OA
ATOM      6  H   UNL     1       6.630   2.429  -0.999  1.00  0.00     0.163 HD
BRANCH   4   7
ATOM      7  C   UNL     1       3.894   4.310  -1.580  1.00  0.00     0.207 C 
ATOM      8  C   UNL     1       1.903   4.269  -0.343  1.00  0.00     0.138 C 
ATOM      9  C   UNL     1       2.039   5.655  -0.976  1.00  0.00     0.037 C 
ATOM     10  O   UNL     1       2.830   3.459  -1.082  1.00  0.00    -0.363 OA
ATOM     11  C   UNL     1       3.518   5.751  -1.282  1.00  0.00     0.045 C 
BRANCH   8  12
ATOM     12  C   UNL     1       2.318   4.379   1.127  1.00  0.00     0.148 C 
BRANCH  12  13
ATOM     13  N   UNL     1       2.232   3.285   2.040  1.00  0.00    -0.348 N 
ATOM     14  C   UNL     1       2.976   3.104   3.191  1.00  0.00     0.268 C 
ATOM     15  O   UNL     1       2.626   2.137   3.877  1.00  0.00    -0.268 OA
ATOM     16  H   UNL     1       1.572   2.586   1.828  1.00  0.00     0.163 HD
BRANCH  14  17
ATOM     17  C   UNL     1       4.163   3.902   3.570  1.00  0.00     0.108 A 
ATOM     18  N   UNL     1       4.588   5.231   3.358  1.00  0.00    -0.342 N 
ATOM     19  C   UNL     1       5.889   5.367   3.788  1.00  0.00     0.102 A 
ATOM     20  C   UNL     1       6.246   4.225   4.440  1.00  0.00     0.036 A 
ATOM     21  C   UNL     1       5.179   3.329   4.348  1.00  0.00     0.049 A 
ATOM     22  Br  UNL     1       7.883   3.864   5.269  1.00  0.00    -0.049 Br
BRANCH  18  23
ATOM     23  C   UNL     1       3.858   6.313   2.726  1.00  0.00     0.122 C 
BRANCH  23  24
ATOM     24  C   UNL     1       4.086   7.795   3.041  1.00  0.00     0.018 C 
ATOM     25  C   UNL     1       5.335   8.399   2.410  1.00  0.00     0.006 C 
ENDBRANCH  23  24
ENDBRANCH  18  23
ENDBRANCH  14  17
ENDBRANCH  12  13
ENDBRANCH   8  12
ENDBRANCH   4   7
ENDBRANCH   2   3
ENDBRANCH   1   2
BRANCH   1  26
ATOM     26  C   UNL     1       8.090   2.391  -3.663  1.00  0.00     0.002 C 
BRANCH  26  27
ATOM     27  C   UNL     1       8.258   0.863  -3.591  1.00  0.00     0.002 C 
BRANCH  27  28
ATOM     28  C   UNL     1       7.606   0.058  -4.726  1.00  0.00     0.021 C 
BRANCH  28  29
ATOM     29  C   UNL     1       8.274   0.283  -6.068  1.00  0.00     0.116 C 
BRANCH  29  30
ATOM     30  N   UNL     1       9.635  -0.264  -6.111  1.00  0.00    -0.352 N 
ATOM     31  C   UNL     1      10.527  -0.285  -7.174  1.00  0.00     0.251 C 
ATOM     32  H   UNL     1       9.959  -0.669  -5.274  1.00  0.00     0.163 HD
ATOM     33  O   UNL     1      11.468  -1.056  -7.197  1.00  0.00    -0.269 OA
BRANCH  31  34
ATOM     34  C   UNL     1      10.307   0.681  -8.266  1.00  0.00     0.039 A 
ATOM     35  C   UNL     1      10.523   0.388  -9.617  1.00  0.00     0.014 A 
ATOM     36  C   UNL     1       9.824   1.920  -7.878  1.00  0.00     0.014 A 
ATOM     37  C   UNL     1      10.200   1.358 -10.568  1.00  0.00     0.010 A 
ATOM     38  C   UNL     1       9.235   2.720  -8.802  1.00  0.00     0.010 A 
ATOM     39  C   UNL     1       9.559   2.524 -10.137  1.00  0.00    -0.014 A 
BRANCH  39  40
ATOM     40  C   UNL     1       9.161   3.619 -11.010  1.00  0.00     0.031 A 
ATOM     41  C   UNL     1       8.036   3.296 -11.933  1.00  0.00     0.074 A 
ATOM     42  C   UNL     1       9.552   4.875 -10.676  1.00  0.00     0.049 A 
ATOM     43  N   UNL     1       7.995   3.394 -13.220  1.00  0.00    -0.248 NA
ATOM     44  C   UNL     1       6.843   2.640 -11.359  1.00  0.00     0.031 C 
ATOM     45  C   UNL     1      10.405   5.291  -9.545  1.00  0.00     0.029 A 
ATOM     46  N   UNL     1       9.136   6.072 -11.170  1.00  0.00    -0.354 N 
ATOM     47  C   UNL     1       6.697   3.037 -13.589  1.00  0.00     0.074 A 
ATOM     48  C   UNL     1       6.123   2.378 -12.450  1.00  0.00     0.031 C 
ATOM     49  C   UNL     1      10.239   6.608  -9.299  1.00  0.00     0.029 A 
ATOM     50  C   UNL     1       9.414   7.168 -10.347  1.00  0.00     0.049 A 
ATOM     51  H   UNL     1       8.676   6.160 -12.036  1.00  0.00     0.167 HD
ATOM     52  C   UNL     1       6.108   3.542 -14.710  1.00  0.00     0.037 A 
ATOM     53  C   UNL     1       8.941   8.433 -10.509  1.00  0.00     0.037 A 
ATOM     54  C   UNL     1       7.095   4.120 -15.588  1.00  0.00     0.049 A 
ATOM     55  C   UNL     1       8.478   8.521 -11.922  1.00  0.00     0.074 A 
ATOM     56  C   UNL     1       8.186   3.622 -16.273  1.00  0.00     0.029 A 
ATOM     57  N   UNL     1       7.275   5.482 -15.537  1.00  0.00    -0.354 N 
ATOM     58  N   UNL     1       9.278   8.400 -12.950  1.00  0.00    -0.248 NA
ATOM     59  C   UNL     1       7.080   8.212 -12.180  1.00  0.00     0.031 C 
ATOM     60  C   UNL     1       9.186   4.631 -16.152  1.00  0.00     0.029 A 
ATOM     61  C   UNL     1       8.626   5.721 -15.481  1.00  0.00     0.049 A 
ATOM     62  H   UNL     1       6.564   6.163 -15.540  1.00  0.00     0.167 HD
ATOM     63  C   UNL     1       8.579   7.620 -13.863  1.00  0.00     0.074 A 
ATOM     64  C   UNL     1       7.210   7.576 -13.348  1.00  0.00     0.031 C 
ATOM     65  C   UNL     1       9.226   6.838 -14.780  1.00  0.00     0.037 A 
BRANCH  52  66
ATOM     66  C   UNL     1       4.630   3.839 -14.850  1.00  0.00     0.058 A 
ATOM     67  C   UNL     1       4.126   4.244 -16.105  1.00  0.00     0.135 A 
ATOM     68  C   UNL     1       3.741   4.008 -13.763  1.00  0.00     0.135 A 
ATOM     69  F   UNL     1       4.873   4.123 -17.214  1.00  0.00    -0.206 F 
ATOM     70  C   UNL     1       2.877   4.851 -16.252  1.00  0.00     0.059 A 
ATOM     71  C   UNL     1       2.472   4.560 -13.896  1.00  0.00     0.059 A 
ATOM     72  F   UNL     1       4.088   3.741 -12.499  1.00  0.00    -0.206 F 
ATOM     73  C   UNL     1       2.066   5.023 -15.135  1.00  0.00     0.060 A 
BRANCH  73  74
ATOM     74  S   UNL     1       0.514   5.922 -15.293  1.00  0.00     0.124 S 
ATOM     75  O   UNL     1       0.987   7.270 -15.584  1.00  0.00    -0.237 OA
ATOM     76  O   UNL     1      -0.133   5.217 -16.395  1.00  0.00    -0.237 OA
ATOM     77  O   UNL     1      -0.113   5.741 -13.987  1.00  0.00    -0.744 OA
ENDBRANCH  73  74
ENDBRANCH  52  66
BRANCH  53  78
ATOM     78  C   UNL     1       8.511   9.383  -9.443  1.00  0.00     0.058 A 
ATOM     79  C   UNL     1       8.330  10.756  -9.692  1.00  0.00     0.135 A 
ATOM     80  C   UNL     1       8.012   8.913  -8.210  1.00  0.00     0.135 A 
ATOM     81  F   UNL     1       8.744  11.289 -10.852  1.00  0.00    -0.206 F 
ATOM     82  C   UNL     1       7.672  11.604  -8.787  1.00  0.00     0.059 A 
ATOM     83  C   UNL     1       7.361   9.737  -7.291  1.00  0.00     0.059 A 
ATOM     84  F   UNL     1       8.066   7.609  -7.897  1.00  0.00    -0.206 F 
ATOM     85  C   UNL     1       7.175  11.080  -7.593  1.00  0.00     0.060 A 
BRANCH  85  86
ATOM     86  S   UNL     1       6.194  12.125  -6.484  1.00  0.00     0.124 S 
ATOM     87  O   UNL     1       7.193  13.065  -5.989  1.00  0.00    -0.237 OA
ATOM     88  O   UNL     1       5.190  12.677  -7.386  1.00  0.00    -0.237 OA
ATOM     89  O   UNL     1       5.683  11.181  -5.492  1.00  0.00    -0.744 OA
ENDBRANCH  85  86
ENDBRANCH  53  78
BRANCH  65  90
ATOM     90  C   UNL     1      10.726   6.990 -14.928  1.00  0.00     0.058 A 
ATOM     91  C   UNL     1      11.662   6.626 -13.941  1.00  0.00     0.135 A 
ATOM     92  C   UNL     1      11.238   7.324 -16.188  1.00  0.00     0.135 A 
ATOM     93  F   UNL     1      11.261   6.197 -12.739  1.00  0.00    -0.206 F 
ATOM     94  C   UNL     1      13.038   6.618 -14.185  1.00  0.00     0.059 A 
ATOM     95  C   UNL     1      12.604   7.296 -16.465  1.00  0.00     0.059 A 
ATOM     96  F   UNL     1      10.399   7.619 -17.194  1.00  0.00    -0.206 F 
ATOM     97  C   UNL     1      13.500   6.949 -15.456  1.00  0.00     0.060 A 
BRANCH  97  98
ATOM     98  S   UNL     1      15.271   6.853 -15.802  1.00  0.00     0.124 S 
ATOM     99  O   UNL     1      15.795   7.978 -15.036  1.00  0.00    -0.237 OA
ATOM    100  O   UNL     1      15.620   5.526 -15.301  1.00  0.00    -0.237 OA
ATOM    101  O   UNL     1      15.342   6.999 -17.254  1.00  0.00    -0.744 OA
ENDBRANCH  97  98
ENDBRANCH  65  90
ENDBRANCH  39  40
ENDBRANCH  31  34
ENDBRANCH  29  30
ENDBRANCH  28  29
ENDBRANCH  27  28
ENDBRANCH  26  27
ENDBRANCH   1  26
TORSDOF 21
