REMARK SMILES C[C@@H]1C[N@@H+](CC(C)(C)C(=O)NCCCCCCNC(=O)c2ccc(-c3c4nc(c(-c5c(F)cc(S(=O)(=O)[O-])cc5F)c5ccc([nH]5)c(-c5c(F)cc(S(=O)(=O)[O-])cc5F)c5nc(c(-c6c(F)cc(S(=O)(=O)[O-])cc6F)c6ccc3[nH]6)C=C5)C=C4)cc2)CC[C@@H]1[NH3+]
REMARK SMILES IDX 14 1 13 2 12 3 11 4 9 5 10 6 6 8 7 9 8 10 5 11 4 12 1 13
REMARK SMILES IDX 2 14 3 15 89 16 88 17 87 18 90 20 15 24 16 25 17 26 18 27
REMARK SMILES IDX 19 28 20 30 21 31 22 32 86 33 23 34 85 35 24 36 25 37 26 38
REMARK SMILES IDX 79 39 27 40 84 41 78 42 80 43 28 44 83 45 77 46 76 47 29 49
REMARK SMILES IDX 63 50 42 51 62 52 43 53 46 54 61 55 81 56 44 57 45 58 60 60
REMARK SMILES IDX 82 61 47 62 30 63 31 64 40 65 32 66 33 67 39 68 41 69 34 70
REMARK SMILES IDX 35 71 36 72 37 73 38 74 64 75 65 76 74 77 66 78 67 79 73 80
REMARK SMILES IDX 75 81 68 82 69 83 70 84 71 85 72 86 48 87 49 88 58 89 50 90
REMARK SMILES IDX 51 91 57 92 59 93 52 94 53 95 54 96 55 97 56 98
REMARK H PARENT 11 7 4 19 90 21 90 22 90 23 18 29 80 48 46 59
REMARK Flexibility Score: inf
ROOT
ATOM      1  C   UNL     1       1.139   4.100  -7.983  1.00  0.00     0.002 C 
ENDROOT
BRANCH   1   2
ATOM      2  C   UNL     1       1.911   4.981  -6.995  1.00  0.00     0.021 C 
BRANCH   2   3
ATOM      3  C   UNL     1       1.328   4.996  -5.584  1.00  0.00     0.116 C 
BRANCH   3   4
ATOM      4  N   UNL     1       1.485   3.695  -4.976  1.00  0.00    -0.355 N 
ATOM      5  C   UNL     1       2.329   3.303  -3.989  1.00  0.00     0.231 C 
ATOM      6  O   UNL     1       2.768   2.153  -4.094  1.00  0.00    -0.274 OA
ATOM      7  H   UNL     1       0.895   2.991  -5.329  1.00  0.00     0.163 HD
BRANCH   5   8
ATOM      8  C   UNL     1       2.751   4.235  -2.839  1.00  0.00     0.092 C 
ATOM      9  C   UNL     1       1.758   5.361  -2.505  1.00  0.00     0.027 C 
ATOM     10  C   UNL     1       4.080   4.881  -3.289  1.00  0.00     0.027 C 
BRANCH   8  11
ATOM     11  C   UNL     1       3.037   3.361  -1.551  1.00  0.00     0.278 C 
BRANCH  11  12
ATOM     12  N   UNL     1       1.977   2.613  -0.818  1.00  0.00    -0.333 N 
ATOM     13  C   UNL     1       1.021  -0.230   0.146  1.00  0.00     0.020 C 
ATOM     14  C   UNL     1       0.341   0.693  -0.877  1.00  0.00     0.099 C 
ATOM     15  C   UNL     1       1.361   1.561  -1.632  1.00  0.00     0.271 C 
ATOM     16  C   UNL     1      -0.724   1.635  -0.285  1.00  0.00     0.194 C 
ATOM     17  C   UNL     1      -0.066   2.662   0.642  1.00  0.00     0.126 C 
ATOM     18  C   UNL     1       0.998   3.453  -0.127  1.00  0.00     0.268 C 
ATOM     19  H   UNL     1       2.475   2.141  -0.063  1.00  0.00     0.348 HD
BRANCH  16  20
ATOM     20  N   UNL     1      -1.814   0.925   0.387  1.00  0.00    -0.355 N 
ATOM     21  H   UNL     1      -1.443   0.410   1.185  1.00  0.00     0.344 HD
ATOM     22  H   UNL     1      -2.248   0.273  -0.267  1.00  0.00     0.344 HD
ATOM     23  H   UNL     1      -2.510   1.597   0.709  1.00  0.00     0.344 HD
ENDBRANCH  16  20
ENDBRANCH  11  12
ENDBRANCH   8  11
ENDBRANCH   5   8
ENDBRANCH   3   4
ENDBRANCH   2   3
ENDBRANCH   1   2
BRANCH   1  24
ATOM     24  C   UNL     1      -0.350   4.431  -8.114  1.00  0.00     0.002 C 
BRANCH  24  25
ATOM     25  C   UNL     1      -0.657   5.904  -8.393  1.00  0.00     0.021 C 
BRANCH  25  26
ATOM     26  C   UNL     1       0.058   6.474  -9.611  1.00  0.00     0.116 C 
BRANCH  26  27
ATOM     27  N   UNL     1      -0.325   5.791 -10.834  1.00  0.00    -0.352 N 
ATOM     28  C   UNL     1      -0.809   6.325 -12.003  1.00  0.00     0.251 C 
ATOM     29  H   UNL     1      -0.224   4.812 -10.824  1.00  0.00     0.163 HD
ATOM     30  O   UNL     1      -1.283   5.595 -12.864  1.00  0.00    -0.269 OA
BRANCH  28  31
ATOM     31  C   UNL     1      -0.768   7.790 -12.199  1.00  0.00     0.039 A 
ATOM     32  C   UNL     1      -1.902   8.436 -12.695  1.00  0.00     0.014 A 
ATOM     33  C   UNL     1       0.382   8.520 -11.885  1.00  0.00     0.014 A 
ATOM     34  C   UNL     1      -1.898   9.825 -12.828  1.00  0.00     0.010 A 
ATOM     35  C   UNL     1       0.355   9.910 -11.942  1.00  0.00     0.010 A 
ATOM     36  C   UNL     1      -0.782  10.576 -12.423  1.00  0.00    -0.014 A 
BRANCH  36  37
ATOM     37  C   UNL     1      -0.783  12.059 -12.502  1.00  0.00     0.031 A 
ATOM     38  C   UNL     1       0.195  12.767 -13.401  1.00  0.00     0.074 A 
ATOM     39  C   UNL     1      -1.625  12.768 -11.723  1.00  0.00     0.049 A 
ATOM     40  N   UNL     1       0.391  14.050 -13.559  1.00  0.00    -0.248 NA
ATOM     41  C   UNL     1       1.088  11.920 -14.209  1.00  0.00     0.031 C 
ATOM     42  C   UNL     1      -2.588  12.195 -10.780  1.00  0.00     0.029 A 
ATOM     43  N   UNL     1      -1.801  14.122 -11.593  1.00  0.00    -0.354 N 
ATOM     44  C   UNL     1       1.432  14.165 -14.473  1.00  0.00     0.074 A 
ATOM     45  C   UNL     1       1.866  12.822 -14.789  1.00  0.00     0.031 C 
ATOM     46  C   UNL     1      -3.268  13.189 -10.187  1.00  0.00     0.029 A 
ATOM     47  C   UNL     1      -2.762  14.469 -10.673  1.00  0.00     0.049 A 
ATOM     48  H   UNL     1      -1.287  14.784 -12.111  1.00  0.00     0.167 HD
ATOM     49  C   UNL     1       1.962  15.287 -15.016  1.00  0.00     0.037 A 
ATOM     50  C   UNL     1      -3.180  15.681 -10.258  1.00  0.00     0.037 A 
ATOM     51  C   UNL     1       1.510  16.619 -14.709  1.00  0.00     0.049 A 
ATOM     52  C   UNL     1      -2.564  16.913 -10.864  1.00  0.00     0.074 A 
ATOM     53  C   UNL     1       1.943  17.819 -15.246  1.00  0.00     0.029 A 
ATOM     54  N   UNL     1       0.527  16.929 -13.779  1.00  0.00    -0.354 N 
ATOM     55  N   UNL     1      -1.625  17.002 -11.776  1.00  0.00    -0.248 NA
ATOM     56  C   UNL     1      -3.068  18.210 -10.392  1.00  0.00     0.031 C 
ATOM     57  C   UNL     1       1.263  18.857 -14.601  1.00  0.00     0.029 A 
ATOM     58  C   UNL     1       0.360  18.303 -13.707  1.00  0.00     0.049 A 
ATOM     59  H   UNL     1       0.024  16.271 -13.249  1.00  0.00     0.167 HD
ATOM     60  C   UNL     1      -1.445  18.362 -12.006  1.00  0.00     0.074 A 
ATOM     61  C   UNL     1      -2.384  19.056 -11.149  1.00  0.00     0.031 C 
ATOM     62  C   UNL     1      -0.583  18.980 -12.851  1.00  0.00     0.037 A 
BRANCH  49  63
ATOM     63  C   UNL     1       3.090  15.123 -15.999  1.00  0.00     0.058 A 
ATOM     64  C   UNL     1       2.888  14.561 -17.271  1.00  0.00     0.135 A 
ATOM     65  C   UNL     1       4.384  15.569 -15.682  1.00  0.00     0.135 A 
ATOM     66  F   UNL     1       1.676  14.103 -17.623  1.00  0.00    -0.206 F 
ATOM     67  C   UNL     1       3.932  14.419 -18.179  1.00  0.00     0.059 A 
ATOM     68  C   UNL     1       5.436  15.467 -16.587  1.00  0.00     0.059 A 
ATOM     69  F   UNL     1       4.636  16.114 -14.481  1.00  0.00    -0.206 F 
ATOM     70  C   UNL     1       5.203  14.877 -17.829  1.00  0.00     0.060 A 
BRANCH  70  71
ATOM     71  S   UNL     1       6.543  14.693 -19.023  1.00  0.00     0.124 S 
ATOM     72  O   UNL     1       6.763  13.250 -18.994  1.00  0.00    -0.237 OA
ATOM     73  O   UNL     1       5.945  15.218 -20.246  1.00  0.00    -0.237 OA
ATOM     74  O   UNL     1       7.619  15.501 -18.457  1.00  0.00    -0.744 OA
ENDBRANCH  70  71
ENDBRANCH  49  63
BRANCH  50  75
ATOM     75  C   UNL     1      -4.246  15.787  -9.225  1.00  0.00     0.058 A 
ATOM     76  C   UNL     1      -5.520  16.277  -9.547  1.00  0.00     0.135 A 
ATOM     77  C   UNL     1      -4.016  15.393  -7.897  1.00  0.00     0.135 A 
ATOM     78  F   UNL     1      -5.789  16.673 -10.801  1.00  0.00    -0.206 F 
ATOM     79  C   UNL     1      -6.522  16.391  -8.589  1.00  0.00     0.059 A 
ATOM     80  C   UNL     1      -5.010  15.470  -6.928  1.00  0.00     0.059 A 
ATOM     81  F   UNL     1      -2.819  14.901  -7.539  1.00  0.00    -0.206 F 
ATOM     82  C   UNL     1      -6.258  15.981  -7.281  1.00  0.00     0.060 A 
BRANCH  82  83
ATOM     83  S   UNL     1      -7.580  16.090  -6.056  1.00  0.00     0.124 S 
ATOM     84  O   UNL     1      -7.673  17.531  -5.852  1.00  0.00    -0.237 OA
ATOM     85  O   UNL     1      -8.699  15.470  -6.758  1.00  0.00    -0.237 OA
ATOM     86  O   UNL     1      -7.056  15.325  -4.928  1.00  0.00    -0.744 OA
ENDBRANCH  82  83
ENDBRANCH  50  75
BRANCH  62  87
ATOM     87  C   UNL     1      -0.634  20.483 -12.919  1.00  0.00     0.058 A 
ATOM     88  C   UNL     1      -0.171  21.288 -11.867  1.00  0.00     0.135 A 
ATOM     89  C   UNL     1      -1.105  21.124 -14.076  1.00  0.00     0.135 A 
ATOM     90  F   UNL     1       0.283  20.727 -10.735  1.00  0.00    -0.206 F 
ATOM     91  C   UNL     1      -0.198  22.677 -11.949  1.00  0.00     0.059 A 
ATOM     92  C   UNL     1      -1.110  22.511 -14.193  1.00  0.00     0.059 A 
ATOM     93  F   UNL     1      -1.550  20.402 -15.117  1.00  0.00    -0.206 F 
ATOM     94  C   UNL     1      -0.666  23.279 -13.119  1.00  0.00     0.060 A 
BRANCH  94  95
ATOM     95  S   UNL     1      -0.661  25.081 -13.224  1.00  0.00     0.124 S 
ATOM     96  O   UNL     1      -1.753  25.431 -12.321  1.00  0.00    -0.237 OA
ATOM     97  O   UNL     1       0.680  25.417 -12.758  1.00  0.00    -0.237 OA
ATOM     98  O   UNL     1      -0.910  25.340 -14.639  1.00  0.00    -0.744 OA
ENDBRANCH  94  95
ENDBRANCH  62  87
ENDBRANCH  36  37
ENDBRANCH  28  31
ENDBRANCH  26  27
ENDBRANCH  25  26
ENDBRANCH  24  25
ENDBRANCH   1  24
TORSDOF 19
