REMARK SMILES CCC1C[NH+]([C@H](C(=O)NCCCCCCNC(=O)c2ccc(-c3c4nc(c(-c5c(F)cc(S(=O)(=O)[O-])cc5F)c5ccc([nH]5)c(-c5c(F)cc(S(=O)(=O)[O-])cc5F)c5nc(c(-c6c(F)cc(S(=O)(=O)[O-])cc6F)c6ccc3[nH]6)C=C5)C=C4)cc2)C(C)C)C1
REMARK SMILES IDX 13 1 12 2 11 3 10 4 9 5 7 6 8 7 6 9 5 10 3 11 4 12 88 13
REMARK SMILES IDX 2 15 1 16 85 17 86 18 87 19 14 20 15 21 16 22 17 23 18 25
REMARK SMILES IDX 19 26 20 27 84 28 21 29 83 30 22 31 23 32 24 33 77 34 25 35
REMARK SMILES IDX 82 36 76 37 78 38 26 39 81 40 75 41 74 42 27 44 61 45 40 46
REMARK SMILES IDX 60 47 41 48 44 49 59 50 79 51 42 52 43 53 58 55 80 56 45 57
REMARK SMILES IDX 28 58 29 59 38 60 30 61 31 62 37 63 39 64 32 65 33 66 34 67
REMARK SMILES IDX 35 68 36 69 62 70 63 71 72 72 64 73 65 74 71 75 73 76 66 77
REMARK SMILES IDX 67 78 68 79 69 80 70 81 46 82 47 83 56 84 48 85 49 86 55 87
REMARK SMILES IDX 57 88 50 89 51 90 52 91 53 92 54 93
REMARK H PARENT 9 8 5 14 16 24 78 43 44 54
REMARK Flexibility Score: inf
ROOT
ATOM      1  C   UNL     1      -2.438   2.009   1.482  1.00  0.00     0.002 C 
ENDROOT
BRANCH   1   2
ATOM      2  C   UNL     1      -0.986   1.710   1.103  1.00  0.00     0.002 C 
BRANCH   2   3
ATOM      3  C   UNL     1      -0.611   2.095  -0.326  1.00  0.00     0.021 C 
BRANCH   3   4
ATOM      4  C   UNL     1      -0.400   3.591  -0.562  1.00  0.00     0.116 C 
BRANCH   4   5
ATOM      5  N   UNL     1       1.003   3.913  -0.376  1.00  0.00    -0.351 N 
ATOM      6  C   UNL     1       2.055   3.974  -1.235  1.00  0.00     0.278 C 
ATOM      7  O   UNL     1       3.172   3.965  -0.694  1.00  0.00    -0.268 OA
ATOM      8  H   UNL     1       1.239   4.130   0.555  1.00  0.00     0.163 HD
BRANCH   6   9
ATOM      9  C   UNL     1       1.958   4.114  -2.780  1.00  0.00     0.276 C 
BRANCH   9  10
ATOM     10  N   UNL     1       1.904   2.867  -3.582  1.00  0.00    -0.324 N 
ATOM     11  C   UNL     1       1.465   0.809  -3.558  1.00  0.00     0.099 C 
ATOM     12  C   UNL     1       0.645   2.127  -3.609  1.00  0.00     0.272 C 
ATOM     13  C   UNL     1       2.610   1.708  -3.011  1.00  0.00     0.272 C 
ATOM     14  H   UNL     1       2.233   3.297  -4.446  1.00  0.00     0.348 HD
BRANCH  11  15
ATOM     15  C   UNL     1       0.947  -0.288  -2.635  1.00  0.00     0.012 C 
ATOM     16  C   UNL     1       1.695  -1.591  -2.849  1.00  0.00     0.004 C 
ENDBRANCH  11  15
ENDBRANCH   9  10
BRANCH   9  17
ATOM     17  C   UNL     1       1.025   5.257  -3.274  1.00  0.00     0.051 C 
ATOM     18  C   UNL     1       1.353   6.582  -2.565  1.00  0.00     0.014 C 
ATOM     19  C   UNL     1       1.137   5.483  -4.789  1.00  0.00     0.014 C 
ENDBRANCH   9  17
ENDBRANCH   6   9
ENDBRANCH   4   5
ENDBRANCH   3   4
ENDBRANCH   2   3
ENDBRANCH   1   2
BRANCH   1  20
ATOM     20  C   UNL     1      -3.504   1.415   0.552  1.00  0.00     0.021 C 
BRANCH  20  21
ATOM     21  C   UNL     1      -3.388  -0.089   0.302  1.00  0.00     0.116 C 
BRANCH  21  22
ATOM     22  N   UNL     1      -3.563  -0.855   1.526  1.00  0.00    -0.352 N 
ATOM     23  C   UNL     1      -4.603  -1.663   1.909  1.00  0.00     0.251 C 
ATOM     24  H   UNL     1      -2.826  -0.783   2.175  1.00  0.00     0.163 HD
ATOM     25  O   UNL     1      -4.694  -2.021   3.084  1.00  0.00    -0.269 OA
BRANCH  23  26
ATOM     26  C   UNL     1      -5.615  -2.101   0.924  1.00  0.00     0.039 A 
ATOM     27  C   UNL     1      -6.967  -2.067   1.278  1.00  0.00     0.014 A 
ATOM     28  C   UNL     1      -5.232  -2.587  -0.330  1.00  0.00     0.014 A 
ATOM     29  C   UNL     1      -7.937  -2.472   0.358  1.00  0.00     0.010 A 
ATOM     30  C   UNL     1      -6.204  -2.932  -1.268  1.00  0.00     0.010 A 
ATOM     31  C   UNL     1      -7.565  -2.886  -0.932  1.00  0.00    -0.014 A 
BRANCH  31  32
ATOM     32  C   UNL     1      -8.585  -3.278  -1.939  1.00  0.00     0.031 A 
ATOM     33  C   UNL     1      -8.646  -4.693  -2.447  1.00  0.00     0.074 A 
ATOM     34  C   UNL     1      -9.411  -2.344  -2.449  1.00  0.00     0.049 A 
ATOM     35  N   UNL     1      -9.420  -5.208  -3.368  1.00  0.00    -0.248 NA
ATOM     36  C   UNL     1      -7.691  -5.647  -1.863  1.00  0.00     0.031 C 
ATOM     37  C   UNL     1      -9.412  -0.927  -2.080  1.00  0.00     0.029 A 
ATOM     38  N   UNL     1     -10.397  -2.441  -3.399  1.00  0.00    -0.354 N 
ATOM     39  C   UNL     1      -9.031  -6.537  -3.491  1.00  0.00     0.074 A 
ATOM     40  C   UNL     1      -7.924  -6.737  -2.581  1.00  0.00     0.031 C 
ATOM     41  C   UNL     1     -10.360  -0.290  -2.787  1.00  0.00     0.029 A 
ATOM     42  C   UNL     1     -11.013  -1.245  -3.679  1.00  0.00     0.049 A 
ATOM     43  H   UNL     1     -10.639  -3.288  -3.838  1.00  0.00     0.167 HD
ATOM     44  C   UNL     1      -9.561  -7.507  -4.276  1.00  0.00     0.037 A 
ATOM     45  C   UNL     1     -11.989  -0.946  -4.558  1.00  0.00     0.037 A 
ATOM     46  C   UNL     1     -10.682  -7.309  -5.157  1.00  0.00     0.049 A 
ATOM     47  C   UNL     1     -12.584  -2.042  -5.397  1.00  0.00     0.074 A 
ATOM     48  C   UNL     1     -11.343  -8.245  -5.934  1.00  0.00     0.029 A 
ATOM     49  N   UNL     1     -11.306  -6.091  -5.384  1.00  0.00    -0.354 N 
ATOM     50  N   UNL     1     -12.256  -3.312  -5.445  1.00  0.00    -0.248 NA
ATOM     51  C   UNL     1     -13.687  -1.670  -6.293  1.00  0.00     0.031 C 
ATOM     52  C   UNL     1     -12.341  -7.585  -6.660  1.00  0.00     0.029 A 
ATOM     53  C   UNL     1     -12.330  -6.245  -6.304  1.00  0.00     0.049 A 
ATOM     54  H   UNL     1     -11.057  -5.241  -4.954  1.00  0.00     0.167 HD
ATOM     55  C   UNL     1     -13.124  -3.894  -6.361  1.00  0.00     0.074 A 
ATOM     56  C   UNL     1     -13.999  -2.841  -6.835  1.00  0.00     0.031 C 
ATOM     57  C   UNL     1     -13.191  -5.186  -6.770  1.00  0.00     0.037 A 
BRANCH  44  58
ATOM     58  C   UNL     1      -8.923  -8.869  -4.216  1.00  0.00     0.058 A 
ATOM     59  C   UNL     1      -9.039  -9.691  -3.083  1.00  0.00     0.135 A 
ATOM     60  C   UNL     1      -8.189  -9.361  -5.308  1.00  0.00     0.135 A 
ATOM     61  F   UNL     1      -9.720  -9.266  -2.006  1.00  0.00    -0.206 F 
ATOM     62  C   UNL     1      -8.411 -10.930  -3.015  1.00  0.00     0.059 A 
ATOM     63  C   UNL     1      -7.577 -10.611  -5.273  1.00  0.00     0.059 A 
ATOM     64  F   UNL     1      -8.050  -8.620  -6.418  1.00  0.00    -0.206 F 
ATOM     65  C   UNL     1      -7.674 -11.378  -4.113  1.00  0.00     0.060 A 
BRANCH  65  66
ATOM     66  S   UNL     1      -6.840 -12.975  -4.001  1.00  0.00     0.124 S 
ATOM     67  O   UNL     1      -5.700 -12.647  -3.151  1.00  0.00    -0.237 OA
ATOM     68  O   UNL     1      -7.861 -13.822  -3.392  1.00  0.00    -0.237 OA
ATOM     69  O   UNL     1      -6.518 -13.287  -5.390  1.00  0.00    -0.744 OA
ENDBRANCH  65  66
ENDBRANCH  44  58
BRANCH  45  70
ATOM     70  C   UNL     1     -12.478   0.453  -4.658  1.00  0.00     0.058 A 
ATOM     71  C   UNL     1     -13.720   0.822  -4.123  1.00  0.00     0.135 A 
ATOM     72  C   UNL     1     -11.688   1.459  -5.236  1.00  0.00     0.135 A 
ATOM     73  F   UNL     1     -14.512  -0.107  -3.566  1.00  0.00    -0.206 F 
ATOM     74  C   UNL     1     -14.165   2.139  -4.155  1.00  0.00     0.059 A 
ATOM     75  C   UNL     1     -12.102   2.788  -5.262  1.00  0.00     0.059 A 
ATOM     76  F   UNL     1     -10.484   1.159  -5.746  1.00  0.00    -0.206 F 
ATOM     77  C   UNL     1     -13.343   3.118  -4.719  1.00  0.00     0.060 A 
BRANCH  77  78
ATOM     78  S   UNL     1     -13.889   4.839  -4.673  1.00  0.00     0.124 S 
ATOM     79  O   UNL     1     -14.919   4.849  -5.705  1.00  0.00    -0.237 OA
ATOM     80  O   UNL     1     -14.359   4.975  -3.298  1.00  0.00    -0.237 OA
ATOM     81  O   UNL     1     -12.672   5.583  -4.987  1.00  0.00    -0.744 OA
ENDBRANCH  77  78
ENDBRANCH  45  70
BRANCH  57  82
ATOM     82  C   UNL     1     -14.259  -5.540  -7.767  1.00  0.00     0.058 A 
ATOM     83  C   UNL     1     -14.159  -5.168  -9.116  1.00  0.00     0.135 A 
ATOM     84  C   UNL     1     -15.371  -6.303  -7.377  1.00  0.00     0.135 A 
ATOM     85  F   UNL     1     -13.119  -4.432  -9.539  1.00  0.00    -0.206 F 
ATOM     86  C   UNL     1     -15.135  -5.524 -10.042  1.00  0.00     0.059 A 
ATOM     87  C   UNL     1     -16.347  -6.691  -8.291  1.00  0.00     0.059 A 
ATOM     88  F   UNL     1     -15.511  -6.693  -6.100  1.00  0.00    -0.206 F 
ATOM     89  C   UNL     1     -16.225  -6.287  -9.619  1.00  0.00     0.060 A 
BRANCH  89  90
ATOM     90  S   UNL     1     -17.468  -6.771 -10.836  1.00  0.00     0.124 S 
ATOM     91  O   UNL     1     -18.202  -5.523 -11.019  1.00  0.00    -0.237 OA
ATOM     92  O   UNL     1     -16.651  -7.199 -11.967  1.00  0.00    -0.237 OA
ATOM     93  O   UNL     1     -18.203  -7.839 -10.163  1.00  0.00    -0.744 OA
ENDBRANCH  89  90
ENDBRANCH  57  82
ENDBRANCH  31  32
ENDBRANCH  23  26
ENDBRANCH  21  22
ENDBRANCH  20  21
ENDBRANCH   1  20
TORSDOF 19
