REMARK SMILES O=C(C[NH+]1CCN(c2ncc(C(F)(F)F)cc2Cl)CC1)NCCCCCCNC(=O)c1ccc(-c2c3nc(c(-c4c(F)cc(S(=O)(=O)[O-])cc4F)c4ccc([nH]4)c(-c4c(F)cc(S(=O)(=O)[O-])cc4F)c4nc(c(-c5c(F)cc(S(=O)(=O)[O-])cc5F)c5ccc2[nH]5)C=C4)C=C3)cc1
REMARK SMILES IDX 24 1 23 2 22 3 21 4 1 5 2 6 3 8 4 9 5 10 20 11 6 13 19 14
REMARK SMILES IDX 7 15 8 16 9 17 17 18 10 19 16 20 18 21 11 22 12 23 13 24
REMARK SMILES IDX 14 25 15 26 25 27 26 28 27 29 28 30 29 31 30 33 31 34 32 35
REMARK SMILES IDX 96 36 33 37 95 38 34 39 35 40 36 41 89 42 37 43 94 44 88 45
REMARK SMILES IDX 90 46 38 47 93 48 87 49 86 50 39 52 73 53 52 54 72 55 53 56
REMARK SMILES IDX 56 57 71 58 91 59 54 60 55 61 70 63 92 64 57 65 40 66 41 67
REMARK SMILES IDX 50 68 42 69 43 70 49 71 51 72 44 73 45 74 46 75 47 76 48 77
REMARK SMILES IDX 74 78 75 79 84 80 76 81 77 82 83 83 85 84 78 85 79 86 80 87
REMARK SMILES IDX 81 88 82 89 58 90 59 91 68 92 60 93 61 94 67 95 69 96 62 97
REMARK SMILES IDX 63 98 64 99 65 100 66 101
REMARK H PARENT 21 7 4 12 28 32 90 51 56 62
REMARK Flexibility Score: inf
ROOT
ATOM      1  C   UNL     1       3.818   2.654   2.967  1.00  0.00     0.002 C 
ENDROOT
BRANCH   1   2
ATOM      2  C   UNL     1       2.292   2.439   2.913  1.00  0.00     0.021 C 
BRANCH   2   3
ATOM      3  C   UNL     1       1.720   2.138   1.524  1.00  0.00     0.116 C 
BRANCH   3   4
ATOM      4  N   UNL     1       2.391   0.988   0.965  1.00  0.00    -0.351 N 
ATOM      5  O   UNL     1       0.753   0.168  -0.430  1.00  0.00    -0.269 OA
ATOM      6  C   UNL     1       1.888   0.117   0.025  1.00  0.00     0.275 C 
ATOM      7  H   UNL     1       3.303   0.808   1.289  1.00  0.00     0.163 HD
BRANCH   6   8
ATOM      8  C   UNL     1       2.937  -0.941  -0.361  1.00  0.00     0.363 C 
BRANCH   8   9
ATOM      9  N   UNL     1       3.808  -0.548  -1.490  1.00  0.00    -0.324 N 
ATOM     10  C   UNL     1       4.285   0.853  -1.510  1.00  0.00     0.284 C 
ATOM     11  C   UNL     1       4.979  -1.460  -1.594  1.00  0.00     0.284 C 
ATOM     12  H   UNL     1       3.189  -0.630  -2.297  1.00  0.00     0.348 HD
ATOM     13  C   UNL     1       5.436   1.197  -0.540  1.00  0.00     0.179 C 
ATOM     14  C   UNL     1       6.171  -1.155  -0.638  1.00  0.00     0.179 C 
ATOM     15  N   UNL     1       6.535   0.259  -0.741  1.00  0.00    -0.344 N 
BRANCH  15  16
ATOM     16  C   UNL     1       7.775   0.688  -0.295  1.00  0.00     0.147 A 
ATOM     17  N   UNL     1       7.816   1.403   0.859  1.00  0.00    -0.237 NA
ATOM     18  C   UNL     1       8.926   0.529  -1.082  1.00  0.00     0.084 A 
ATOM     19  C   UNL     1       8.984   1.993   1.216  1.00  0.00     0.126 A 
ATOM     20  C   UNL     1      10.112   1.159  -0.699  1.00  0.00     0.039 A 
ATOM     21  Cl  UNL     1       8.916  -0.319  -2.590  1.00  0.00    -0.080 Cl
ATOM     22  C   UNL     1      10.147   1.925   0.468  1.00  0.00     0.075 A 
BRANCH  22  23
ATOM     23  C   UNL     1      11.366   2.678   0.902  1.00  0.00     0.417 C 
ATOM     24  F   UNL     1      11.134   4.010   1.046  1.00  0.00    -0.166 F 
ATOM     25  F   UNL     1      11.847   2.244   2.098  1.00  0.00    -0.166 F 
ATOM     26  F   UNL     1      12.402   2.573   0.024  1.00  0.00    -0.166 F 
ENDBRANCH  22  23
ENDBRANCH  15  16
ENDBRANCH   8   9
ENDBRANCH   6   8
ENDBRANCH   3   4
ENDBRANCH   2   3
ENDBRANCH   1   2
BRANCH   1  27
ATOM     27  C   UNL     1       4.349   3.820   2.130  1.00  0.00     0.002 C 
BRANCH  27  28
ATOM     28  C   UNL     1       3.807   5.190   2.535  1.00  0.00     0.021 C 
BRANCH  28  29
ATOM     29  C   UNL     1       4.013   5.553   4.002  1.00  0.00     0.116 C 
BRANCH  29  30
ATOM     30  N   UNL     1       5.416   5.695   4.357  1.00  0.00    -0.352 N 
ATOM     31  C   UNL     1       6.028   6.689   5.085  1.00  0.00     0.251 C 
ATOM     32  H   UNL     1       6.010   4.980   4.031  1.00  0.00     0.163 HD
ATOM     33  O   UNL     1       7.250   6.726   5.162  1.00  0.00    -0.269 OA
BRANCH  31  34
ATOM     34  C   UNL     1       5.205   7.731   5.744  1.00  0.00     0.039 A 
ATOM     35  C   UNL     1       5.592   9.068   5.627  1.00  0.00     0.014 A 
ATOM     36  C   UNL     1       4.048   7.398   6.455  1.00  0.00     0.014 A 
ATOM     37  C   UNL     1       4.781  10.073   6.161  1.00  0.00     0.010 A 
ATOM     38  C   UNL     1       3.201   8.405   6.916  1.00  0.00     0.010 A 
ATOM     39  C   UNL     1       3.556   9.754   6.773  1.00  0.00    -0.014 A 
BRANCH  39  40
ATOM     40  C   UNL     1       2.628  10.824   7.228  1.00  0.00     0.031 A 
ATOM     41  C   UNL     1       2.269  10.966   8.683  1.00  0.00     0.074 A 
ATOM     42  C   UNL     1       2.068  11.644   6.316  1.00  0.00     0.049 A 
ATOM     43  N   UNL     1       1.481  11.840   9.257  1.00  0.00    -0.248 NA
ATOM     44  C   UNL     1       2.849   9.983   9.611  1.00  0.00     0.031 C 
ATOM     45  C   UNL     1       2.288  11.573   4.870  1.00  0.00     0.029 A 
ATOM     46  N   UNL     1       1.200  12.697   6.466  1.00  0.00    -0.354 N 
ATOM     47  C   UNL     1       1.465  11.510  10.607  1.00  0.00     0.074 A 
ATOM     48  C   UNL     1       2.275  10.320  10.757  1.00  0.00     0.031 C 
ATOM     49  C   UNL     1       1.609  12.563   4.271  1.00  0.00     0.029 A 
ATOM     50  C   UNL     1       0.872  13.315   5.282  1.00  0.00     0.049 A 
ATOM     51  H   UNL     1       0.846  12.983   7.339  1.00  0.00     0.167 HD
ATOM     52  C   UNL     1       0.850  12.151  11.631  1.00  0.00     0.037 A 
ATOM     53  C   UNL     1       0.069  14.369   5.035  1.00  0.00     0.037 A 
ATOM     54  C   UNL     1       0.051  13.341  11.475  1.00  0.00     0.049 A 
ATOM     55  C   UNL     1      -0.611  15.059   6.185  1.00  0.00     0.074 A 
ATOM     56  C   UNL     1      -0.556  14.105  12.457  1.00  0.00     0.029 A 
ATOM     57  N   UNL     1      -0.264  13.933  10.260  1.00  0.00    -0.354 N 
ATOM     58  N   UNL     1      -0.545  14.785   7.466  1.00  0.00    -0.248 NA
ATOM     59  C   UNL     1      -1.468  16.205   5.856  1.00  0.00     0.031 C 
ATOM     60  C   UNL     1      -1.289  15.120  11.832  1.00  0.00     0.029 A 
ATOM     61  C   UNL     1      -1.088  15.030  10.464  1.00  0.00     0.049 A 
ATOM     62  H   UNL     1       0.050  13.620   9.381  1.00  0.00     0.167 HD
ATOM     63  C   UNL     1      -1.336  15.739   8.099  1.00  0.00     0.074 A 
ATOM     64  C   UNL     1      -1.852  16.607   7.060  1.00  0.00     0.031 C 
ATOM     65  C   UNL     1      -1.608  15.882   9.421  1.00  0.00     0.037 A 
BRANCH  52  66
ATOM     66  C   UNL     1       1.008  11.570  13.012  1.00  0.00     0.058 A 
ATOM     67  C   UNL     1       2.244  11.572  13.682  1.00  0.00     0.135 A 
ATOM     68  C   UNL     1      -0.095  11.018  13.686  1.00  0.00     0.135 A 
ATOM     69  F   UNL     1       3.336  12.076  13.085  1.00  0.00    -0.206 F 
ATOM     70  C   UNL     1       2.390  11.009  14.946  1.00  0.00     0.059 A 
ATOM     71  C   UNL     1       0.021  10.480  14.965  1.00  0.00     0.059 A 
ATOM     72  F   UNL     1      -1.301  10.992  13.099  1.00  0.00    -0.206 F 
ATOM     73  C   UNL     1       1.272  10.462  15.578  1.00  0.00     0.060 A 
BRANCH  73  74
ATOM     74  S   UNL     1       1.483   9.718  17.209  1.00  0.00     0.124 S 
ATOM     75  O   UNL     1       2.214   8.497  16.879  1.00  0.00    -0.237 OA
ATOM     76  O   UNL     1       2.245  10.738  17.922  1.00  0.00    -0.237 OA
ATOM     77  O   UNL     1       0.114   9.522  17.674  1.00  0.00    -0.744 OA
ENDBRANCH  73  74
ENDBRANCH  52  66
BRANCH  53  78
ATOM     78  C   UNL     1      -0.102  14.855   3.639  1.00  0.00     0.058 A 
ATOM     79  C   UNL     1       0.449  16.078   3.229  1.00  0.00     0.135 A 
ATOM     80  C   UNL     1      -0.789  14.095   2.679  1.00  0.00     0.135 A 
ATOM     81  F   UNL     1       1.107  16.846   4.112  1.00  0.00    -0.206 F 
ATOM     82  C   UNL     1       0.322  16.534   1.921  1.00  0.00     0.059 A 
ATOM     83  C   UNL     1      -0.906  14.516   1.359  1.00  0.00     0.059 A 
ATOM     84  F   UNL     1      -1.323  12.910   3.016  1.00  0.00    -0.206 F 
ATOM     85  C   UNL     1      -0.351  15.741   0.991  1.00  0.00     0.060 A 
BRANCH  85  86
ATOM     86  S   UNL     1      -0.446  16.311  -0.721  1.00  0.00     0.124 S 
ATOM     87  O   UNL     1      -1.382  17.424  -0.610  1.00  0.00    -0.237 OA
ATOM     88  O   UNL     1       0.941  16.666  -1.000  1.00  0.00    -0.237 OA
ATOM     89  O   UNL     1      -0.941  15.139  -1.437  1.00  0.00    -0.744 OA
ENDBRANCH  85  86
ENDBRANCH  53  78
BRANCH  65  90
ATOM     90  C   UNL     1      -2.493  17.033   9.822  1.00  0.00     0.058 A 
ATOM     91  C   UNL     1      -3.863  17.054   9.517  1.00  0.00     0.135 A 
ATOM     92  C   UNL     1      -1.968  18.117  10.545  1.00  0.00     0.135 A 
ATOM     93  F   UNL     1      -4.417  16.048   8.822  1.00  0.00    -0.206 F 
ATOM     94  C   UNL     1      -4.674  18.125   9.882  1.00  0.00     0.059 A 
ATOM     95  C   UNL     1      -2.767  19.182  10.950  1.00  0.00     0.059 A 
ATOM     96  F   UNL     1      -0.667  18.145  10.875  1.00  0.00    -0.206 F 
ATOM     97  C   UNL     1      -4.116  19.185  10.599  1.00  0.00     0.060 A 
BRANCH  97  98
ATOM     98  S   UNL     1      -5.182  20.560  11.079  1.00  0.00     0.124 S 
ATOM     99  O   UNL     1      -5.391  21.230   9.800  1.00  0.00    -0.237 OA
ATOM    100  O   UNL     1      -6.345  19.874  11.634  1.00  0.00    -0.237 OA
ATOM    101  O   UNL     1      -4.374  21.295  12.048  1.00  0.00    -0.744 OA
ENDBRANCH  97  98
ENDBRANCH  65  90
ENDBRANCH  39  40
ENDBRANCH  31  34
ENDBRANCH  29  30
ENDBRANCH  28  29
ENDBRANCH  27  28
ENDBRANCH   1  27
TORSDOF 19
