REMARK SMILES COc1cc(/C=C/C(=O)NCCCCCCNC(=O)c2ccc(-c3c4nc(c(-c5c(F)cc(S(=O)(=O)[O-])cc5F)c5ccc([nH]5)c(-c5c(F)cc(S(=O)(=O)[O-])cc5F)c5nc(c(-c6c(F)cc(S(=O)(=O)[O-])cc6F)c6ccc3[nH]6)C=C5)C=C4)cc2)cc(OC)c1O
REMARK SMILES IDX 14 1 13 2 12 3 11 4 10 5 8 6 9 7 7 9 6 10 5 11 3 12 4 13
REMARK SMILES IDX 90 14 87 15 86 16 2 17 1 18 91 19 88 21 89 22 15 23 16 24
REMARK SMILES IDX 17 25 18 26 19 28 20 29 21 30 85 31 22 32 84 33 23 34 24 35
REMARK SMILES IDX 25 36 78 37 26 38 83 39 77 40 79 41 27 42 82 43 76 44 75 45
REMARK SMILES IDX 28 47 62 48 41 49 61 50 42 51 45 52 60 53 80 54 43 55 44 56
REMARK SMILES IDX 59 58 81 59 46 60 29 61 30 62 39 63 31 64 32 65 38 66 40 67
REMARK SMILES IDX 33 68 34 69 35 70 36 71 37 72 63 73 64 74 73 75 65 76 66 77
REMARK SMILES IDX 72 78 74 79 67 80 68 81 69 82 70 83 71 84 47 85 48 86 57 87
REMARK SMILES IDX 49 88 50 89 56 90 58 91 51 92 52 93 53 94 54 95 55 96
REMARK H PARENT 10 8 91 20 17 27 79 46 45 57
REMARK Flexibility Score: inf
ROOT
ATOM      1  C   UNL     1      -2.967   2.467 -10.988  1.00  0.00     0.002 C 
ENDROOT
BRANCH   1   2
ATOM      2  C   UNL     1      -3.601   2.910  -9.663  1.00  0.00     0.002 C 
BRANCH   2   3
ATOM      3  C   UNL     1      -3.127   2.134  -8.425  1.00  0.00     0.021 C 
BRANCH   3   4
ATOM      4  C   UNL     1      -1.628   2.273  -8.152  1.00  0.00     0.116 C 
BRANCH   4   5
ATOM      5  N   UNL     1      -1.347   3.554  -7.528  1.00  0.00    -0.353 N 
ATOM      6  C   UNL     1      -0.867   3.879  -6.301  1.00  0.00     0.243 C 
ATOM      7  O   UNL     1      -0.669   5.064  -6.030  1.00  0.00    -0.270 OA
ATOM      8  H   UNL     1      -1.540   4.331  -8.102  1.00  0.00     0.163 HD
BRANCH   6   9
ATOM      9  C   UNL     1      -0.484   2.849  -5.307  1.00  0.00     0.072 C 
ATOM     10  C   UNL     1      -1.185   1.744  -5.016  1.00  0.00     0.014 C 
BRANCH  10  11
ATOM     11  C   UNL     1      -0.788   0.753  -4.005  1.00  0.00    -0.018 A 
ATOM     12  C   UNL     1      -0.164   0.122  -1.751  1.00  0.00     0.165 A 
ATOM     13  C   UNL     1      -0.380   1.111  -2.716  1.00  0.00     0.058 A 
ATOM     14  C   UNL     1      -0.384  -1.230  -2.056  1.00  0.00     0.200 A 
ATOM     15  C   UNL     1      -0.738  -1.610  -3.353  1.00  0.00     0.165 A 
ATOM     16  C   UNL     1      -0.939  -0.607  -4.314  1.00  0.00     0.058 A 
BRANCH  12  17
ATOM     17  O   UNL     1       0.088   0.543  -0.466  1.00  0.00    -0.493 OA
ATOM     18  C   UNL     1       1.367   0.130   0.021  1.00  0.00     0.278 C 
ENDBRANCH  12  17
BRANCH  14  19
ATOM     19  O   UNL     1      -0.339  -2.145  -1.039  1.00  0.00    -0.502 OA
ATOM     20  H   UNL     1      -0.100  -1.873  -0.175  1.00  0.00     0.293 HD
ENDBRANCH  14  19
BRANCH  15  21
ATOM     21  O   UNL     1      -0.991  -2.864  -3.838  1.00  0.00    -0.493 OA
ATOM     22  C   UNL     1      -0.904  -3.966  -2.947  1.00  0.00     0.278 C 
ENDBRANCH  15  21
ENDBRANCH  10  11
ENDBRANCH   6   9
ENDBRANCH   4   5
ENDBRANCH   3   4
ENDBRANCH   2   3
ENDBRANCH   1   2
BRANCH   1  23
ATOM     23  C   UNL     1      -3.092   0.973 -11.297  1.00  0.00     0.021 C 
BRANCH  23  24
ATOM     24  C   UNL     1      -4.529   0.472 -11.404  1.00  0.00     0.116 C 
BRANCH  24  25
ATOM     25  N   UNL     1      -5.229   1.085 -12.524  1.00  0.00    -0.352 N 
ATOM     26  C   UNL     1      -5.825   0.485 -13.602  1.00  0.00     0.251 C 
ATOM     27  H   UNL     1      -5.280   2.068 -12.504  1.00  0.00     0.163 HD
ATOM     28  O   UNL     1      -6.157   1.163 -14.577  1.00  0.00    -0.269 OA
BRANCH  26  29
ATOM     29  C   UNL     1      -6.059  -0.973 -13.598  1.00  0.00     0.039 A 
ATOM     30  C   UNL     1      -5.764  -1.715 -14.744  1.00  0.00     0.014 A 
ATOM     31  C   UNL     1      -6.579  -1.605 -12.464  1.00  0.00     0.014 A 
ATOM     32  C   UNL     1      -5.941  -3.100 -14.734  1.00  0.00     0.010 A 
ATOM     33  C   UNL     1      -6.684  -2.993 -12.432  1.00  0.00     0.010 A 
ATOM     34  C   UNL     1      -6.374  -3.754 -13.568  1.00  0.00    -0.014 A 
BRANCH  34  35
ATOM     35  C   UNL     1      -6.511  -5.232 -13.521  1.00  0.00     0.031 A 
ATOM     36  C   UNL     1      -7.862  -5.858 -13.303  1.00  0.00     0.074 A 
ATOM     37  C   UNL     1      -5.411  -6.006 -13.614  1.00  0.00     0.049 A 
ATOM     38  N   UNL     1      -8.174  -7.122 -13.171  1.00  0.00    -0.248 NA
ATOM     39  C   UNL     1      -9.009  -4.943 -13.191  1.00  0.00     0.031 C 
ATOM     40  C   UNL     1      -4.042  -5.512 -13.778  1.00  0.00     0.029 A 
ATOM     41  N   UNL     1      -5.268  -7.370 -13.574  1.00  0.00    -0.354 N 
ATOM     42  C   UNL     1      -9.546  -7.152 -12.950  1.00  0.00     0.074 A 
ATOM     43  C   UNL     1      -9.998  -5.779 -12.909  1.00  0.00     0.031 C 
ATOM     44  C   UNL     1      -3.202  -6.558 -13.847  1.00  0.00     0.029 A 
ATOM     45  C   UNL     1      -3.965  -7.793 -13.692  1.00  0.00     0.049 A 
ATOM     46  H   UNL     1      -6.027  -7.988 -13.470  1.00  0.00     0.167 HD
ATOM     47  C   UNL     1     -10.359  -8.228 -12.818  1.00  0.00     0.037 A 
ATOM     48  C   UNL     1      -3.442  -9.034 -13.669  1.00  0.00     0.037 A 
ATOM     49  C   UNL     1      -9.903  -9.592 -12.883  1.00  0.00     0.049 A 
ATOM     50  C   UNL     1      -4.364 -10.213 -13.511  1.00  0.00     0.074 A 
ATOM     51  C   UNL     1     -10.654 -10.753 -12.823  1.00  0.00     0.029 A 
ATOM     52  N   UNL     1      -8.578  -9.980 -13.018  1.00  0.00    -0.354 N 
ATOM     53  N   UNL     1      -5.669 -10.226 -13.376  1.00  0.00    -0.248 NA
ATOM     54  C   UNL     1      -3.745 -11.546 -13.509  1.00  0.00     0.031 C 
ATOM     55  C   UNL     1      -9.779 -11.842 -12.871  1.00  0.00     0.029 A 
ATOM     56  C   UNL     1      -8.487 -11.362 -13.016  1.00  0.00     0.049 A 
ATOM     57  H   UNL     1      -7.815  -9.364 -13.102  1.00  0.00     0.167 HD
ATOM     58  C   UNL     1      -6.029 -11.567 -13.296  1.00  0.00     0.074 A 
ATOM     59  C   UNL     1      -4.807 -12.335 -13.414  1.00  0.00     0.031 C 
ATOM     60  C   UNL     1      -7.261 -12.113 -13.139  1.00  0.00     0.037 A 
BRANCH  47  61
ATOM     61  C   UNL     1     -11.825  -7.973 -12.594  1.00  0.00     0.058 A 
ATOM     62  C   UNL     1     -12.646  -7.444 -13.604  1.00  0.00     0.135 A 
ATOM     63  C   UNL     1     -12.428  -8.296 -11.367  1.00  0.00     0.135 A 
ATOM     64  F   UNL     1     -12.121  -7.104 -14.792  1.00  0.00    -0.206 F 
ATOM     65  C   UNL     1     -14.002  -7.216 -13.396  1.00  0.00     0.059 A 
ATOM     66  C   UNL     1     -13.789  -8.104 -11.147  1.00  0.00     0.059 A 
ATOM     67  F   UNL     1     -11.692  -8.805 -10.366  1.00  0.00    -0.206 F 
ATOM     68  C   UNL     1     -14.565  -7.549 -12.163  1.00  0.00     0.060 A 
BRANCH  68  69
ATOM     69  S   UNL     1     -16.327  -7.251 -11.913  1.00  0.00     0.124 S 
ATOM     70  O   UNL     1     -16.365  -5.795 -11.816  1.00  0.00    -0.237 OA
ATOM     71  O   UNL     1     -16.915  -7.820 -13.121  1.00  0.00    -0.237 OA
ATOM     72  O   UNL     1     -16.622  -7.969 -10.677  1.00  0.00    -0.744 OA
ENDBRANCH  68  69
ENDBRANCH  47  61
BRANCH  48  73
ATOM     73  C   UNL     1      -1.973  -9.225 -13.815  1.00  0.00     0.058 A 
ATOM     74  C   UNL     1      -1.432  -9.801 -14.974  1.00  0.00     0.135 A 
ATOM     75  C   UNL     1      -1.082  -8.825 -12.808  1.00  0.00     0.135 A 
ATOM     76  F   UNL     1      -2.243 -10.205 -15.964  1.00  0.00    -0.206 F 
ATOM     77  C   UNL     1      -0.062  -9.990 -15.123  1.00  0.00     0.059 A 
ATOM     78  C   UNL     1       0.294  -8.979 -12.945  1.00  0.00     0.059 A 
ATOM     79  F   UNL     1      -1.547  -8.253 -11.686  1.00  0.00    -0.206 F 
ATOM     80  C   UNL     1       0.794  -9.572 -14.103  1.00  0.00     0.060 A 
BRANCH  80  81
ATOM     81  S   UNL     1       2.574  -9.780 -14.327  1.00  0.00     0.124 S 
ATOM     82  O   UNL     1       2.722 -11.223 -14.178  1.00  0.00    -0.237 OA
ATOM     83  O   UNL     1       2.777  -9.252 -15.672  1.00  0.00    -0.237 OA
ATOM     84  O   UNL     1       3.144  -8.973 -13.252  1.00  0.00    -0.744 OA
ENDBRANCH  80  81
ENDBRANCH  48  73
BRANCH  60  85
ATOM     85  C   UNL     1      -7.357 -13.613 -13.112  1.00  0.00     0.058 A 
ATOM     86  C   UNL     1      -6.914 -14.361 -12.010  1.00  0.00     0.135 A 
ATOM     87  C   UNL     1      -7.958 -14.306 -14.176  1.00  0.00     0.135 A 
ATOM     88  F   UNL     1      -6.326 -13.749 -10.970  1.00  0.00    -0.206 F 
ATOM     89  C   UNL     1      -7.046 -15.745 -11.972  1.00  0.00     0.059 A 
ATOM     90  C   UNL     1      -8.127 -15.687 -14.146  1.00  0.00     0.059 A 
ATOM     91  F   UNL     1      -8.408 -13.638 -15.250  1.00  0.00    -0.206 F 
ATOM     92  C   UNL     1      -7.659 -16.399 -13.043  1.00  0.00     0.060 A 
BRANCH  92  93
ATOM     93  S   UNL     1      -7.864 -18.190 -12.959  1.00  0.00     0.124 S 
ATOM     94  O   UNL     1      -6.496 -18.653 -13.166  1.00  0.00    -0.237 OA
ATOM     95  O   UNL     1      -8.401 -18.380 -11.615  1.00  0.00    -0.237 OA
ATOM     96  O   UNL     1      -8.795 -18.478 -14.046  1.00  0.00    -0.744 OA
ENDBRANCH  92  93
ENDBRANCH  60  85
ENDBRANCH  34  35
ENDBRANCH  26  29
ENDBRANCH  24  25
ENDBRANCH  23  24
ENDBRANCH   1  23
TORSDOF 20
