REMARK SMILES Cc1nc2cc(S(=O)(=O)N3CCC(C(=O)NCCCCCCNC(=O)c4ccc(-c5c6nc(c(-c7c(F)cc(S(=O)(=O)[O-])cc7F)c7ccc([nH]7)c(-c7c(F)cc(S(=O)(=O)[O-])cc7F)c7nc(c(-c8c(F)cc(S(=O)(=O)[O-])cc8F)c8ccc5[nH]8)C=C7)C=C6)cc4)CC3)ccc2n1C1CCCC1
REMARK SMILES IDX 19 1 18 2 17 3 16 4 14 5 15 6 13 8 10 9 11 10 93 11 12 12
REMARK SMILES IDX 92 13 7 14 8 15 9 16 6 17 1 18 2 19 3 20 97 21 4 22 96 23
REMARK SMILES IDX 5 24 95 25 94 26 98 27 99 28 102 29 100 30 101 31 20 32
REMARK SMILES IDX 21 33 22 34 23 35 24 36 25 38 26 39 27 40 91 41 28 42 90 43
REMARK SMILES IDX 29 44 30 45 31 46 84 47 32 48 89 49 83 50 85 51 33 52 88 53
REMARK SMILES IDX 82 54 81 55 34 57 68 58 47 59 67 60 48 61 51 62 66 63 86 64
REMARK SMILES IDX 49 65 50 66 65 68 87 69 52 70 35 71 36 72 45 73 37 74 38 75
REMARK SMILES IDX 44 76 46 77 39 78 40 79 41 80 42 81 43 82 69 83 70 84 79 85
REMARK SMILES IDX 71 86 72 87 78 88 80 89 73 90 74 91 75 92 76 93 77 94 53 95
REMARK SMILES IDX 54 96 63 97 55 98 56 99 62 100 64 101 57 102 58 103 59 104
REMARK SMILES IDX 60 105 61 106
REMARK H PARENT 16 7 23 37 85 56 51 67
REMARK Flexibility Score: inf
ROOT
ATOM      1  C   UNL     1      -5.044 -13.363  -3.004  1.00  0.00     0.002 C 
ENDROOT
BRANCH   1   2
ATOM      2  C   UNL     1      -4.223 -12.249  -2.358  1.00  0.00     0.021 C 
BRANCH   2   3
ATOM      3  C   UNL     1      -3.505 -11.381  -3.381  1.00  0.00     0.116 C 
BRANCH   3   4
ATOM      4  N   UNL     1      -4.448 -10.512  -4.069  1.00  0.00    -0.356 N 
ATOM      5  C   UNL     1      -4.572  -9.156  -4.046  1.00  0.00     0.223 C 
ATOM      6  O   UNL     1      -5.518  -8.631  -4.636  1.00  0.00    -0.275 OA
ATOM      7  H   UNL     1      -5.099 -10.978  -4.642  1.00  0.00     0.163 HD
BRANCH   5   8
ATOM      8  C   UNL     1      -3.554  -8.305  -3.306  1.00  0.00     0.081 C 
ATOM      9  N   UNL     1      -1.162  -8.088  -1.667  1.00  0.00    -0.198 NA
ATOM     10  C   UNL     1      -2.484  -8.000  -1.004  1.00  0.00     0.103 C 
ATOM     11  C   UNL     1      -1.036  -7.915  -3.135  1.00  0.00     0.103 C 
ATOM     12  C   UNL     1      -3.634  -8.558  -1.806  1.00  0.00     0.030 C 
ATOM     13  C   UNL     1      -2.178  -8.489  -3.937  1.00  0.00     0.030 C 
BRANCH   9  14
ATOM     14  S   UNL     1       0.111  -7.341  -0.770  1.00  0.00     0.243 S 
ATOM     15  O   UNL     1       1.357  -7.615  -1.464  1.00  0.00    -0.207 OA
ATOM     16  O   UNL     1      -0.079  -7.673   0.620  1.00  0.00    -0.207 OA
BRANCH  14  17
ATOM     17  C   UNL     1      -0.170  -5.583  -0.916  1.00  0.00     0.085 A 
ATOM     18  C   UNL     1       1.133   0.167   0.040  1.00  0.00     0.088 C 
ATOM     19  C   UNL     1       0.663  -1.201  -0.289  1.00  0.00     0.106 A 
ATOM     20  N   UNL     1       1.283  -2.305   0.084  1.00  0.00    -0.233 NA
ATOM     21  N   UNL     1      -0.480  -1.493  -1.004  1.00  0.00    -0.325 N 
ATOM     22  C   UNL     1       0.542  -3.345  -0.408  1.00  0.00     0.090 A 
ATOM     23  C   UNL     1      -0.569  -2.865  -1.091  1.00  0.00     0.068 A 
ATOM     24  C   UNL     1       0.757  -4.728  -0.306  1.00  0.00     0.052 A 
ATOM     25  C   UNL     1      -1.501  -3.705  -1.694  1.00  0.00     0.030 A 
ATOM     26  C   UNL     1      -1.272  -5.067  -1.603  1.00  0.00     0.024 A 
BRANCH  21  27
ATOM     27  C   UNL     1      -1.433  -0.556  -1.570  1.00  0.00     0.089 C 
ATOM     28  C   UNL     1      -1.606  -0.666  -3.089  1.00  0.00     0.025 C 
ATOM     29  C   UNL     1      -2.854  -0.692  -1.011  1.00  0.00     0.025 C 
ATOM     30  C   UNL     1      -2.948  -0.007  -3.369  1.00  0.00     0.002 C 
ATOM     31  C   UNL     1      -3.781  -0.158  -2.099  1.00  0.00     0.002 C 
ENDBRANCH  21  27
ENDBRANCH  14  17
ENDBRANCH   9  14
ENDBRANCH   5   8
ENDBRANCH   3   4
ENDBRANCH   2   3
ENDBRANCH   1   2
BRANCH   1  32
ATOM     32  C   UNL     1      -4.215 -14.347  -3.838  1.00  0.00     0.002 C 
BRANCH  32  33
ATOM     33  C   UNL     1      -3.027 -14.973  -3.094  1.00  0.00     0.021 C 
BRANCH  33  34
ATOM     34  C   UNL     1      -3.403 -15.569  -1.737  1.00  0.00     0.116 C 
BRANCH  34  35
ATOM     35  N   UNL     1      -4.451 -16.561  -1.827  1.00  0.00    -0.352 N 
ATOM     36  C   UNL     1      -4.481 -17.911  -2.016  1.00  0.00     0.251 C 
ATOM     37  H   UNL     1      -5.350 -16.172  -1.729  1.00  0.00     0.163 HD
ATOM     38  O   UNL     1      -5.593 -18.441  -1.953  1.00  0.00    -0.269 OA
BRANCH  36  39
ATOM     39  C   UNL     1      -3.303 -18.740  -2.376  1.00  0.00     0.039 A 
ATOM     40  C   UNL     1      -1.984 -18.290  -2.457  1.00  0.00     0.014 A 
ATOM     41  C   UNL     1      -3.595 -20.057  -2.772  1.00  0.00     0.014 A 
ATOM     42  C   UNL     1      -1.025 -19.058  -3.096  1.00  0.00     0.010 A 
ATOM     43  C   UNL     1      -2.631 -20.847  -3.372  1.00  0.00     0.010 A 
ATOM     44  C   UNL     1      -1.379 -20.301  -3.618  1.00  0.00    -0.014 A 
BRANCH  44  45
ATOM     45  C   UNL     1      -0.390 -21.015  -4.409  1.00  0.00     0.031 A 
ATOM     46  C   UNL     1       0.866 -21.341  -3.680  1.00  0.00     0.074 A 
ATOM     47  C   UNL     1      -0.640 -21.390  -5.680  1.00  0.00     0.049 A 
ATOM     48  N   UNL     1       2.059 -20.898  -3.910  1.00  0.00    -0.248 NA
ATOM     49  C   UNL     1       0.753 -22.129  -2.442  1.00  0.00     0.031 C 
ATOM     50  C   UNL     1      -1.891 -21.305  -6.440  1.00  0.00     0.029 A 
ATOM     51  N   UNL     1       0.193 -22.017  -6.551  1.00  0.00    -0.354 N 
ATOM     52  C   UNL     1       2.886 -21.504  -2.967  1.00  0.00     0.074 A 
ATOM     53  C   UNL     1       2.014 -22.125  -2.005  1.00  0.00     0.031 C 
ATOM     54  C   UNL     1      -1.797 -22.071  -7.551  1.00  0.00     0.029 A 
ATOM     55  C   UNL     1      -0.440 -22.574  -7.657  1.00  0.00     0.049 A 
ATOM     56  H   UNL     1       1.166 -22.072  -6.410  1.00  0.00     0.167 HD
ATOM     57  C   UNL     1       4.233 -21.607  -3.149  1.00  0.00     0.037 A 
ATOM     58  C   UNL     1       0.122 -23.438  -8.542  1.00  0.00     0.037 A 
ATOM     59  C   UNL     1       4.695 -20.703  -4.170  1.00  0.00     0.049 A 
ATOM     60  C   UNL     1       1.596 -23.246  -8.441  1.00  0.00     0.074 A 
ATOM     61  C   UNL     1       4.749 -19.328  -4.288  1.00  0.00     0.029 A 
ATOM     62  N   UNL     1       4.847 -21.195  -5.444  1.00  0.00    -0.354 N 
ATOM     63  N   UNL     1       2.196 -22.141  -8.799  1.00  0.00    -0.248 NA
ATOM     64  C   UNL     1       2.321 -24.063  -7.477  1.00  0.00     0.031 C 
ATOM     65  C   UNL     1       4.427 -19.064  -5.651  1.00  0.00     0.029 A 
ATOM     66  C   UNL     1       4.267 -20.290  -6.299  1.00  0.00     0.049 A 
ATOM     67  H   UNL     1       5.289 -22.038  -5.697  1.00  0.00     0.167 HD
ATOM     68  C   UNL     1       3.154 -21.916  -7.819  1.00  0.00     0.074 A 
ATOM     69  C   UNL     1       3.219 -23.165  -7.059  1.00  0.00     0.031 C 
ATOM     70  C   UNL     1       3.596 -20.657  -7.526  1.00  0.00     0.037 A 
BRANCH  57  71
ATOM     71  C   UNL     1       5.081 -22.742  -2.634  1.00  0.00     0.058 A 
ATOM     72  C   UNL     1       6.486 -22.652  -2.699  1.00  0.00     0.135 A 
ATOM     73  C   UNL     1       4.564 -24.024  -2.345  1.00  0.00     0.135 A 
ATOM     74  F   UNL     1       7.085 -21.480  -2.966  1.00  0.00    -0.206 F 
ATOM     75  C   UNL     1       7.312 -23.769  -2.564  1.00  0.00     0.059 A 
ATOM     76  C   UNL     1       5.370 -25.140  -2.157  1.00  0.00     0.059 A 
ATOM     77  F   UNL     1       3.248 -24.274  -2.329  1.00  0.00    -0.206 F 
ATOM     78  C   UNL     1       6.741 -25.013  -2.312  1.00  0.00     0.060 A 
BRANCH  78  79
ATOM     79  S   UNL     1       7.793 -26.475  -2.267  1.00  0.00     0.124 S 
ATOM     80  O   UNL     1       8.270 -26.535  -3.644  1.00  0.00    -0.237 OA
ATOM     81  O   UNL     1       8.783 -26.103  -1.262  1.00  0.00    -0.237 OA
ATOM     82  O   UNL     1       6.875 -27.539  -1.871  1.00  0.00    -0.744 OA
ENDBRANCH  78  79
ENDBRANCH  57  71
BRANCH  58  83
ATOM     83  C   UNL     1      -0.499 -24.669  -9.109  1.00  0.00     0.058 A 
ATOM     84  C   UNL     1       0.101 -25.378 -10.166  1.00  0.00     0.135 A 
ATOM     85  C   UNL     1      -1.548 -25.334  -8.439  1.00  0.00     0.135 A 
ATOM     86  F   UNL     1       1.121 -24.834 -10.847  1.00  0.00    -0.206 F 
ATOM     87  C   UNL     1      -0.283 -26.683 -10.507  1.00  0.00     0.059 A 
ATOM     88  C   UNL     1      -1.951 -26.629  -8.764  1.00  0.00     0.059 A 
ATOM     89  F   UNL     1      -2.156 -24.777  -7.381  1.00  0.00    -0.206 F 
ATOM     90  C   UNL     1      -1.297 -27.309  -9.782  1.00  0.00     0.060 A 
BRANCH  90  91
ATOM     91  S   UNL     1      -1.678 -29.051 -10.096  1.00  0.00     0.124 S 
ATOM     92  O   UNL     1      -2.234 -29.002 -11.444  1.00  0.00    -0.237 OA
ATOM     93  O   UNL     1      -0.368 -29.680  -9.969  1.00  0.00    -0.237 OA
ATOM     94  O   UNL     1      -2.632 -29.386  -9.041  1.00  0.00    -0.744 OA
ENDBRANCH  90  91
ENDBRANCH  58  83
BRANCH  70  95
ATOM     95  C   UNL     1       3.162 -19.524  -8.426  1.00  0.00     0.058 A 
ATOM     96  C   UNL     1       1.832 -19.080  -8.546  1.00  0.00     0.135 A 
ATOM     97  C   UNL     1       4.148 -18.755  -9.059  1.00  0.00     0.135 A 
ATOM     98  F   UNL     1       0.842 -19.688  -7.880  1.00  0.00    -0.206 F 
ATOM     99  C   UNL     1       1.493 -17.953  -9.299  1.00  0.00     0.059 A 
ATOM    100  C   UNL     1       3.837 -17.610  -9.790  1.00  0.00     0.059 A 
ATOM    101  F   UNL     1       5.444 -19.082  -8.923  1.00  0.00    -0.206 F 
ATOM    102  C   UNL     1       2.505 -17.224  -9.919  1.00  0.00     0.060 A 
BRANCH 102 103
ATOM    103  S   UNL     1       2.074 -15.733 -10.844  1.00  0.00     0.124 S 
ATOM    104  O   UNL     1       1.378 -16.280 -12.004  1.00  0.00    -0.237 OA
ATOM    105  O   UNL     1       1.240 -15.000  -9.894  1.00  0.00    -0.237 OA
ATOM    106  O   UNL     1       3.369 -15.118 -11.126  1.00  0.00    -0.744 OA
ENDBRANCH 102 103
ENDBRANCH  70  95
ENDBRANCH  44  45
ENDBRANCH  36  39
ENDBRANCH  34  35
ENDBRANCH  33  34
ENDBRANCH  32  33
ENDBRANCH   1  32
TORSDOF 19
