REMARK SMILES CN1C(=O)C[C@H](C(=O)Nc2ccc(C(=O)NCCCCCCNC(=O)c3ccc(-c4c5nc(c(-c6c(F)cc(S(=O)(=O)[O-])cc6F)c6ccc([nH]6)c(-c6c(F)cc(S(=O)(=O)[O-])cc6F)c6nc(c(-c7c(F)cc(S(=O)(=O)[O-])cc7F)c7ccc4[nH]7)C=C6)C=C5)cc3)cc2)S/C1=[NH+]\c1cccc(C(F)(F)F)c1
REMARK SMILES IDX 19 1 18 2 17 3 16 4 14 5 15 6 13 8 10 9 11 10 93 11 12 12
REMARK SMILES IDX 92 13 9 14 7 15 8 16 6 18 1 19 2 20 3 21 95 22 4 23 5 24
REMARK SMILES IDX 94 25 96 26 97 28 98 29 106 30 99 31 101 32 100 33 102 34
REMARK SMILES IDX 103 35 104 36 105 37 20 38 21 39 22 40 23 41 24 42 25 44
REMARK SMILES IDX 26 45 27 46 91 47 28 48 90 49 29 50 30 51 31 52 84 53 32 54
REMARK SMILES IDX 89 55 83 56 85 57 33 58 88 59 82 60 81 61 34 63 68 64 47 65
REMARK SMILES IDX 67 66 48 67 51 68 66 69 86 70 49 71 50 72 65 74 87 75 52 76
REMARK SMILES IDX 35 77 36 78 45 79 37 80 38 81 44 82 46 83 39 84 40 85 41 86
REMARK SMILES IDX 42 87 43 88 69 89 70 90 79 91 71 92 72 93 78 94 80 95 73 96
REMARK SMILES IDX 74 97 75 98 76 99 77 100 53 101 54 102 63 103 55 104 56 105
REMARK SMILES IDX 62 106 64 107 57 108 58 109 59 110 60 111 61 112
REMARK H PARENT 16 7 9 17 96 27 23 43 85 62 51 73
REMARK Flexibility Score: inf
ROOT
ATOM      1  C   UNL     1      -0.185  -6.008   5.674  1.00  0.00     0.002 C 
ENDROOT
BRANCH   1   2
ATOM      2  C   UNL     1      -0.567  -5.806   4.207  1.00  0.00     0.021 C 
BRANCH   2   3
ATOM      3  C   UNL     1       0.111  -6.733   3.183  1.00  0.00     0.116 C 
BRANCH   3   4
ATOM      4  N   UNL     1      -0.767  -7.809   2.725  1.00  0.00    -0.352 N 
ATOM      5  C   UNL     1      -1.394  -8.088   1.532  1.00  0.00     0.251 C 
ATOM      6  O   UNL     1      -2.167  -9.048   1.500  1.00  0.00    -0.269 OA
ATOM      7  H   UNL     1      -0.949  -8.481   3.421  1.00  0.00     0.163 HD
BRANCH   5   8
ATOM      8  C   UNL     1      -1.240  -7.281   0.288  1.00  0.00     0.039 A 
ATOM      9  C   UNL     1      -1.165  -5.636  -2.026  1.00  0.00     0.041 A 
ATOM     10  C   UNL     1      -2.320  -6.352  -1.693  1.00  0.00     0.027 A 
ATOM     11  C   UNL     1      -0.009  -5.896  -1.290  1.00  0.00     0.027 A 
ATOM     12  C   UNL     1      -2.361  -7.154  -0.544  1.00  0.00     0.016 A 
ATOM     13  C   UNL     1      -0.044  -6.709  -0.139  1.00  0.00     0.016 A 
BRANCH   9  14
ATOM     14  N   UNL     1      -1.303  -4.687  -3.060  1.00  0.00    -0.325 N 
ATOM     15  C   UNL     1      -0.647  -3.535  -3.412  1.00  0.00     0.238 C 
ATOM     16  O   UNL     1      -1.128  -2.913  -4.367  1.00  0.00    -0.273 OA
ATOM     17  H   UNL     1      -2.044  -4.901  -3.673  1.00  0.00     0.169 HD
BRANCH  15  18
ATOM     18  C   UNL     1       0.592  -3.010  -2.680  1.00  0.00     0.160 C 
ATOM     19  C   UNL     1       0.301   1.000  -0.836  1.00  0.00     0.301 C 
ATOM     20  N   UNL     1       0.251  -0.229  -1.604  1.00  0.00    -0.194 N 
ATOM     21  C   UNL     1       1.159  -0.419  -2.627  1.00  0.00     0.311 C 
ATOM     22  C   UNL     1      -0.628  -1.198  -1.203  1.00  0.00     0.319 C 
ATOM     23  O   UNL     1       1.893   0.491  -3.024  1.00  0.00    -0.247 OA
ATOM     24  C   UNL     1       1.217  -1.771  -3.336  1.00  0.00     0.153 C 
ATOM     25  S   UNL     1       0.206  -2.699  -0.948  1.00  0.00    -0.024 SA
ATOM     26  N   UNL     1      -1.876  -0.927  -0.988  1.00  0.00    -0.235 N 
ATOM     27  H   UNL     1      -2.203  -0.006  -1.103  1.00  0.00     0.313 HD
BRANCH  26  28
ATOM     28  C   UNL     1      -2.765  -1.935  -0.595  1.00  0.00     0.126 A 
ATOM     29  C   UNL     1      -3.778  -2.367  -1.456  1.00  0.00     0.052 A 
ATOM     30  C   UNL     1      -2.641  -2.540   0.650  1.00  0.00     0.064 A 
ATOM     31  C   UNL     1      -4.613  -3.432  -1.099  1.00  0.00     0.005 A 
ATOM     32  C   UNL     1      -3.416  -3.656   0.984  1.00  0.00     0.060 A 
ATOM     33  C   UNL     1      -4.417  -4.093   0.112  1.00  0.00     0.013 A 
BRANCH  32  34
ATOM     34  C   UNL     1      -3.009  -4.438   2.191  1.00  0.00     0.416 C 
ATOM     35  F   UNL     1      -3.768  -5.538   2.436  1.00  0.00    -0.166 F 
ATOM     36  F   UNL     1      -1.736  -4.885   2.030  1.00  0.00    -0.166 F 
ATOM     37  F   UNL     1      -3.006  -3.708   3.338  1.00  0.00    -0.166 F 
ENDBRANCH  32  34
ENDBRANCH  26  28
ENDBRANCH  15  18
ENDBRANCH   9  14
ENDBRANCH   5   8
ENDBRANCH   3   4
ENDBRANCH   2   3
ENDBRANCH   1   2
BRANCH   1  38
ATOM     38  C   UNL     1       1.268  -5.685   6.039  1.00  0.00     0.002 C 
BRANCH  38  39
ATOM     39  C   UNL     1       1.741  -4.248   5.777  1.00  0.00     0.021 C 
BRANCH  39  40
ATOM     40  C   UNL     1       0.973  -3.141   6.503  1.00  0.00     0.116 C 
BRANCH  40  41
ATOM     41  N   UNL     1       1.001  -3.300   7.949  1.00  0.00    -0.352 N 
ATOM     42  C   UNL     1       1.656  -2.587   8.923  1.00  0.00     0.251 C 
ATOM     43  H   UNL     1       0.458  -4.047   8.287  1.00  0.00     0.163 HD
ATOM     44  O   UNL     1       1.708  -3.044  10.063  1.00  0.00    -0.269 OA
BRANCH  42  45
ATOM     45  C   UNL     1       2.302  -1.285   8.632  1.00  0.00     0.039 A 
ATOM     46  C   UNL     1       3.547  -1.008   9.210  1.00  0.00     0.014 A 
ATOM     47  C   UNL     1       1.662  -0.304   7.870  1.00  0.00     0.014 A 
ATOM     48  C   UNL     1       4.171   0.223   8.979  1.00  0.00     0.010 A 
ATOM     49  C   UNL     1       2.310   0.903   7.596  1.00  0.00     0.010 A 
ATOM     50  C   UNL     1       3.571   1.181   8.149  1.00  0.00    -0.014 A 
BRANCH  50  51
ATOM     51  C   UNL     1       4.245   2.473   7.845  1.00  0.00     0.031 A 
ATOM     52  C   UNL     1       3.651   3.774   8.317  1.00  0.00     0.074 A 
ATOM     53  C   UNL     1       5.360   2.481   7.087  1.00  0.00     0.049 A 
ATOM     54  N   UNL     1       4.049   4.999   8.082  1.00  0.00    -0.248 NA
ATOM     55  C   UNL     1       2.437   3.688   9.144  1.00  0.00     0.031 C 
ATOM     56  C   UNL     1       6.017   1.293   6.539  1.00  0.00     0.029 A 
ATOM     57  N   UNL     1       6.131   3.523   6.635  1.00  0.00    -0.354 N 
ATOM     58  C   UNL     1       3.126   5.828   8.709  1.00  0.00     0.074 A 
ATOM     59  C   UNL     1       2.127   4.966   9.305  1.00  0.00     0.031 C 
ATOM     60  C   UNL     1       7.099   1.671   5.840  1.00  0.00     0.029 A 
ATOM     61  C   UNL     1       7.195   3.128   5.858  1.00  0.00     0.049 A 
ATOM     62  H   UNL     1       5.941   4.465   6.847  1.00  0.00     0.167 HD
ATOM     63  C   UNL     1       3.118   7.181   8.793  1.00  0.00     0.037 A 
ATOM     64  C   UNL     1       8.137   3.854   5.225  1.00  0.00     0.037 A 
ATOM     65  C   UNL     1       4.133   8.033   8.227  1.00  0.00     0.049 A 
ATOM     66  C   UNL     1       8.111   5.354   5.337  1.00  0.00     0.074 A 
ATOM     67  C   UNL     1       4.251   9.409   8.319  1.00  0.00     0.029 A 
ATOM     68  N   UNL     1       5.204   7.592   7.463  1.00  0.00    -0.354 N 
ATOM     69  N   UNL     1       7.262   6.117   5.983  1.00  0.00    -0.248 NA
ATOM     70  C   UNL     1       9.172   6.092   4.637  1.00  0.00     0.031 C 
ATOM     71  C   UNL     1       5.371   9.804   7.579  1.00  0.00     0.029 A 
ATOM     72  C   UNL     1       5.975   8.670   7.061  1.00  0.00     0.049 A 
ATOM     73  H   UNL     1       5.389   6.651   7.240  1.00  0.00     0.167 HD
ATOM     74  C   UNL     1       7.703   7.422   5.793  1.00  0.00     0.074 A 
ATOM     75  C   UNL     1       8.896   7.345   4.976  1.00  0.00     0.031 C 
ATOM     76  C   UNL     1       7.168   8.579   6.255  1.00  0.00     0.037 A 
BRANCH  63  77
ATOM     77  C   UNL     1       1.973   7.829   9.522  1.00  0.00     0.058 A 
ATOM     78  C   UNL     1       1.846   7.749  10.918  1.00  0.00     0.135 A 
ATOM     79  C   UNL     1       1.009   8.572   8.820  1.00  0.00     0.135 A 
ATOM     80  F   UNL     1       2.732   7.043  11.638  1.00  0.00    -0.206 F 
ATOM     81  C   UNL     1       0.786   8.352  11.589  1.00  0.00     0.059 A 
ATOM     82  C   UNL     1      -0.045   9.205   9.473  1.00  0.00     0.059 A 
ATOM     83  F   UNL     1       1.084   8.685   7.485  1.00  0.00    -0.206 F 
ATOM     84  C   UNL     1      -0.157   9.075  10.856  1.00  0.00     0.060 A 
BRANCH  84  85
ATOM     85  S   UNL     1      -1.529   9.848  11.739  1.00  0.00     0.124 S 
ATOM     86  O   UNL     1      -2.367   8.692  12.042  1.00  0.00    -0.237 OA
ATOM     87  O   UNL     1      -0.861  10.462  12.882  1.00  0.00    -0.237 OA
ATOM     88  O   UNL     1      -2.078  10.783  10.762  1.00  0.00    -0.744 OA
ENDBRANCH  84  85
ENDBRANCH  63  77
BRANCH  64  89
ATOM     89  C   UNL     1       9.204   3.169   4.449  1.00  0.00     0.058 A 
ATOM     90  C   UNL     1      10.524   3.132   4.922  1.00  0.00     0.135 A 
ATOM     91  C   UNL     1       8.927   2.525   3.233  1.00  0.00     0.135 A 
ATOM     92  F   UNL     1      10.839   3.739   6.076  1.00  0.00    -0.206 F 
ATOM     93  C   UNL     1      11.535   2.491   4.214  1.00  0.00     0.059 A 
ATOM     94  C   UNL     1       9.916   1.858   2.517  1.00  0.00     0.059 A 
ATOM     95  F   UNL     1       7.676   2.519   2.745  1.00  0.00    -0.206 F 
ATOM     96  C   UNL     1      11.220   1.853   3.013  1.00  0.00     0.060 A 
BRANCH  96  97
ATOM     97  S   UNL     1      12.528   0.974   2.130  1.00  0.00     0.124 S 
ATOM     98  O   UNL     1      13.288   2.077   1.556  1.00  0.00    -0.237 OA
ATOM     99  O   UNL     1      13.183   0.237   3.206  1.00  0.00    -0.237 OA
ATOM    100  O   UNL     1      11.790   0.149   1.177  1.00  0.00    -0.744 OA
ENDBRANCH  96  97
ENDBRANCH  64  89
BRANCH  76 101
ATOM    101  C   UNL     1       7.887   9.856   5.922  1.00  0.00     0.058 A 
ATOM    102  C   UNL     1       7.841  10.414   4.635  1.00  0.00     0.135 A 
ATOM    103  C   UNL     1       8.587  10.557   6.917  1.00  0.00     0.135 A 
ATOM    104  F   UNL     1       7.191   9.780   3.647  1.00  0.00    -0.206 F 
ATOM    105  C   UNL     1       8.481  11.614   4.342  1.00  0.00     0.059 A 
ATOM    106  C   UNL     1       9.214  11.770   6.652  1.00  0.00     0.059 A 
ATOM    107  F   UNL     1       8.653  10.070   8.167  1.00  0.00    -0.206 F 
ATOM    108  C   UNL     1       9.164  12.286   5.358  1.00  0.00     0.060 A 
BRANCH 108 109
ATOM    109  S   UNL     1       9.960  13.861   4.975  1.00  0.00     0.124 S 
ATOM    110  O   UNL     1      11.143  13.422   4.243  1.00  0.00    -0.237 OA
ATOM    111  O   UNL     1       8.941  14.543   4.182  1.00  0.00    -0.237 OA
ATOM    112  O   UNL     1      10.213  14.442   6.290  1.00  0.00    -0.744 OA
ENDBRANCH 108 109
ENDBRANCH  76 101
ENDBRANCH  50  51
ENDBRANCH  42  45
ENDBRANCH  40  41
ENDBRANCH  39  40
ENDBRANCH  38  39
ENDBRANCH   1  38
TORSDOF 20
