REMARK SMILES Cc1cccc(NS(=O)(=O)c2ccc(Br)c(C(=O)NCCCCCCNC(=O)c3ccc(-c4c5nc(c(-c6c(F)cc(S(=O)(=O)[O-])cc6F)c6ccc([nH]6)c(-c6c(F)cc(S(=O)(=O)[O-])cc6F)c6nc(c(-c7c(F)cc(S(=O)(=O)[O-])cc7F)c7ccc4[nH]7)C=C6)C=C5)cc3)c2)c1
REMARK SMILES IDX 22 1 21 2 20 3 19 4 17 5 18 6 16 8 11 9 12 10 95 11 13 12
REMARK SMILES IDX 14 13 15 14 8 15 9 16 10 17 7 18 6 20 1 21 2 22 3 23 96 24
REMARK SMILES IDX 4 25 5 26 23 27 24 28 25 29 26 30 27 31 28 33 29 34 30 35
REMARK SMILES IDX 94 36 31 37 93 38 32 39 33 40 34 41 87 42 35 43 92 44 86 45
REMARK SMILES IDX 88 46 36 47 91 48 85 49 84 50 37 52 71 53 50 54 70 55 51 56
REMARK SMILES IDX 54 57 69 58 89 59 52 60 53 61 68 63 90 64 55 65 38 66 39 67
REMARK SMILES IDX 48 68 40 69 41 70 47 71 49 72 42 73 43 74 44 75 45 76 46 77
REMARK SMILES IDX 72 78 73 79 82 80 74 81 75 82 81 83 83 84 76 85 77 86 78 87
REMARK SMILES IDX 79 88 80 89 56 90 57 91 66 92 58 93 59 94 65 95 67 96 60 97
REMARK SMILES IDX 61 98 62 99 63 100 64 101
REMARK H PARENT 19 7 7 19 26 32 88 51 54 62
REMARK Flexibility Score: inf
ROOT
ATOM      1  C   UNL     1      -9.629  -4.860   0.941  1.00  0.00     0.002 C 
ENDROOT
BRANCH   1   2
ATOM      2  C   UNL     1      -8.328  -4.275   1.496  1.00  0.00     0.021 C 
BRANCH   2   3
ATOM      3  C   UNL     1      -7.405  -3.500   0.567  1.00  0.00     0.116 C 
BRANCH   3   4
ATOM      4  N   UNL     1      -7.915  -2.302  -0.066  1.00  0.00    -0.352 N 
ATOM      5  C   UNL     1      -7.213  -1.224  -0.578  1.00  0.00     0.252 C 
ATOM      6  O   UNL     1      -7.818  -0.386  -1.245  1.00  0.00    -0.269 OA
ATOM      7  H   UNL     1      -8.895  -2.246  -0.144  1.00  0.00     0.163 HD
BRANCH   5   8
ATOM      8  C   UNL     1      -5.785  -0.961  -0.220  1.00  0.00     0.055 A 
ATOM      9  C   UNL     1      -4.161   0.699   0.525  1.00  0.00     0.088 A 
ATOM     10  C   UNL     1      -3.329  -0.310   0.994  1.00  0.00     0.023 A 
ATOM     11  C   UNL     1      -5.429   0.379   0.014  1.00  0.00     0.037 A 
ATOM     12  C   UNL     1      -3.602  -1.619   0.602  1.00  0.00     0.018 A 
ATOM     13  C   UNL     1      -4.767  -1.911  -0.119  1.00  0.00     0.030 A 
ATOM     14  Br  UNL     1      -4.674  -3.450  -1.240  1.00  0.00    -0.050 Br
BRANCH   9  15
ATOM     15  S   UNL     1      -3.540   2.343   0.219  1.00  0.00     0.261 S 
ATOM     16  O   UNL     1      -3.883   3.140   1.378  1.00  0.00    -0.201 OA
ATOM     17  O   UNL     1      -3.978   2.723  -1.107  1.00  0.00    -0.201 OA
BRANCH  15  18
ATOM     18  N   UNL     1      -1.865   2.309   0.197  1.00  0.00    -0.280 N 
ATOM     19  H   UNL     1      -1.415   3.070   0.631  1.00  0.00     0.180 HD
BRANCH  18  20
ATOM     20  C   UNL     1      -1.004   1.322  -0.369  1.00  0.00     0.049 A 
ATOM     21  C   UNL     1       2.600   0.298   0.351  1.00  0.00     0.044 C 
ATOM     22  C   UNL     1       1.203   0.286  -0.196  1.00  0.00    -0.049 A 
ATOM     23  C   UNL     1       0.734  -0.801  -0.935  1.00  0.00     0.003 A 
ATOM     24  C   UNL     1       0.320   1.335   0.093  1.00  0.00     0.030 A 
ATOM     25  C   UNL     1      -0.548  -0.770  -1.485  1.00  0.00     0.002 A 
ATOM     26  C   UNL     1      -1.396   0.321  -1.254  1.00  0.00     0.027 A 
ENDBRANCH  18  20
ENDBRANCH  15  18
ENDBRANCH   9  15
ENDBRANCH   5   8
ENDBRANCH   3   4
ENDBRANCH   2   3
ENDBRANCH   1   2
BRANCH   1  27
ATOM     27  C   UNL     1      -9.640  -5.533  -0.438  1.00  0.00     0.002 C 
BRANCH  27  28
ATOM     28  C   UNL     1      -8.550  -6.548  -0.778  1.00  0.00     0.021 C 
BRANCH  28  29
ATOM     29  C   UNL     1      -8.436  -7.747   0.154  1.00  0.00     0.116 C 
BRANCH  29  30
ATOM     30  N   UNL     1      -8.934  -8.979  -0.437  1.00  0.00    -0.352 N 
ATOM     31  C   UNL     1      -8.616 -10.280  -0.076  1.00  0.00     0.251 C 
ATOM     32  H   UNL     1      -9.573  -8.878  -1.180  1.00  0.00     0.163 HD
ATOM     33  O   UNL     1      -8.779 -11.227  -0.821  1.00  0.00    -0.269 OA
BRANCH  31  34
ATOM     34  C   UNL     1      -8.215 -10.487   1.331  1.00  0.00     0.039 A 
ATOM     35  C   UNL     1      -9.154 -11.102   2.169  1.00  0.00     0.014 A 
ATOM     36  C   UNL     1      -7.098  -9.844   1.851  1.00  0.00     0.014 A 
ATOM     37  C   UNL     1      -9.076 -10.907   3.544  1.00  0.00     0.010 A 
ATOM     38  C   UNL     1      -7.067  -9.583   3.207  1.00  0.00     0.010 A 
ATOM     39  C   UNL     1      -8.085 -10.069   4.044  1.00  0.00    -0.014 A 
BRANCH  39  40
ATOM     40  C   UNL     1      -8.038  -9.582   5.416  1.00  0.00     0.031 A 
ATOM     41  C   UNL     1      -7.012 -10.109   6.344  1.00  0.00     0.074 A 
ATOM     42  C   UNL     1      -8.826  -8.550   5.786  1.00  0.00     0.049 A 
ATOM     43  N   UNL     1      -6.954  -9.832   7.601  1.00  0.00    -0.248 NA
ATOM     44  C   UNL     1      -6.000 -11.079   5.928  1.00  0.00     0.031 C 
ATOM     45  C   UNL     1      -8.621  -7.641   6.910  1.00  0.00     0.029 A 
ATOM     46  N   UNL     1     -10.110  -8.250   5.331  1.00  0.00    -0.354 N 
ATOM     47  C   UNL     1      -5.768 -10.329   8.088  1.00  0.00     0.074 A 
ATOM     48  C   UNL     1      -5.287 -11.205   7.051  1.00  0.00     0.031 C 
ATOM     49  C   UNL     1      -9.784  -7.044   7.211  1.00  0.00     0.029 A 
ATOM     50  C   UNL     1     -10.813  -7.685   6.412  1.00  0.00     0.049 A 
ATOM     51  H   UNL     1     -10.460  -8.405   4.424  1.00  0.00     0.167 HD
ATOM     52  C   UNL     1      -5.279  -9.823   9.255  1.00  0.00     0.037 A 
ATOM     53  C   UNL     1     -11.912  -8.302   6.942  1.00  0.00     0.037 A 
ATOM     54  C   UNL     1      -6.337  -9.112   9.980  1.00  0.00     0.049 A 
ATOM     55  C   UNL     1     -11.761  -8.707   8.392  1.00  0.00     0.074 A 
ATOM     56  C   UNL     1      -6.625  -7.775  10.188  1.00  0.00     0.029 A 
ATOM     57  N   UNL     1      -7.461  -9.825  10.397  1.00  0.00    -0.354 N 
ATOM     58  N   UNL     1     -10.618  -8.789   9.017  1.00  0.00    -0.248 NA
ATOM     59  C   UNL     1     -12.889  -9.059   9.251  1.00  0.00     0.031 C 
ATOM     60  C   UNL     1      -7.975  -7.685  10.630  1.00  0.00     0.029 A 
ATOM     61  C   UNL     1      -8.489  -8.967  10.735  1.00  0.00     0.049 A 
ATOM     62  H   UNL     1      -7.514 -10.807  10.445  1.00  0.00     0.167 HD
ATOM     63  C   UNL     1     -10.822  -9.236  10.297  1.00  0.00     0.074 A 
ATOM     64  C   UNL     1     -12.265  -9.352  10.405  1.00  0.00     0.031 C 
ATOM     65  C   UNL     1      -9.786  -9.491  11.153  1.00  0.00     0.037 A 
BRANCH  52  66
ATOM     66  C   UNL     1      -3.807  -9.778   9.650  1.00  0.00     0.058 A 
ATOM     67  C   UNL     1      -3.404  -9.093  10.822  1.00  0.00     0.135 A 
ATOM     68  C   UNL     1      -2.729 -10.248   8.865  1.00  0.00     0.135 A 
ATOM     69  F   UNL     1      -4.306  -8.584  11.674  1.00  0.00    -0.206 F 
ATOM     70  C   UNL     1      -2.061  -8.862  11.156  1.00  0.00     0.059 A 
ATOM     71  C   UNL     1      -1.385 -10.062   9.197  1.00  0.00     0.059 A 
ATOM     72  F   UNL     1      -2.900 -10.867   7.696  1.00  0.00    -0.206 F 
ATOM     73  C   UNL     1      -1.055  -9.342  10.329  1.00  0.00     0.060 A 
BRANCH  73  74
ATOM     74  S   UNL     1       0.671  -8.996  10.712  1.00  0.00     0.124 S 
ATOM     75  O   UNL     1       0.747  -7.557  10.482  1.00  0.00    -0.237 OA
ATOM     76  O   UNL     1       0.777  -9.427  12.101  1.00  0.00    -0.237 OA
ATOM     77  O   UNL     1       1.404  -9.817   9.751  1.00  0.00    -0.744 OA
ENDBRANCH  73  74
ENDBRANCH  52  66
BRANCH  53  78
ATOM     78  C   UNL     1     -12.721  -9.023   5.919  1.00  0.00     0.058 A 
ATOM     79  C   UNL     1     -13.391  -8.239   4.961  1.00  0.00     0.135 A 
ATOM     80  C   UNL     1     -12.443 -10.358   5.590  1.00  0.00     0.135 A 
ATOM     81  F   UNL     1     -13.705  -6.963   5.240  1.00  0.00    -0.206 F 
ATOM     82  C   UNL     1     -13.597  -8.693   3.664  1.00  0.00     0.059 A 
ATOM     83  C   UNL     1     -12.654 -10.838   4.296  1.00  0.00     0.059 A 
ATOM     84  F   UNL     1     -11.818 -11.155   6.468  1.00  0.00    -0.206 F 
ATOM     85  C   UNL     1     -13.150  -9.968   3.324  1.00  0.00     0.060 A 
BRANCH  85  86
ATOM     86  S   UNL     1     -13.042 -10.380   1.565  1.00  0.00     0.124 S 
ATOM     87  O   UNL     1     -14.410 -10.152   1.112  1.00  0.00    -0.237 OA
ATOM     88  O   UNL     1     -12.053  -9.409   1.097  1.00  0.00    -0.237 OA
ATOM     89  O   UNL     1     -12.603 -11.770   1.573  1.00  0.00    -0.744 OA
ENDBRANCH  85  86
ENDBRANCH  53  78
BRANCH  65  90
ATOM     90  C   UNL     1      -9.901 -10.192  12.491  1.00  0.00     0.058 A 
ATOM     91  C   UNL     1     -10.885 -11.148  12.802  1.00  0.00     0.135 A 
ATOM     92  C   UNL     1      -8.905 -10.008  13.482  1.00  0.00     0.135 A 
ATOM     93  F   UNL     1     -11.812 -11.514  11.905  1.00  0.00    -0.206 F 
ATOM     94  C   UNL     1     -10.929 -11.810  14.032  1.00  0.00     0.059 A 
ATOM     95  C   UNL     1      -8.897 -10.700  14.691  1.00  0.00     0.059 A 
ATOM     96  F   UNL     1      -7.890  -9.150  13.300  1.00  0.00    -0.206 F 
ATOM     97  C   UNL     1      -9.932 -11.579  14.973  1.00  0.00     0.060 A 
BRANCH  97  98
ATOM     98  S   UNL     1      -9.945 -12.471  16.539  1.00  0.00     0.124 S 
ATOM     99  O   UNL     1     -10.661 -11.536  17.401  1.00  0.00    -0.237 OA
ATOM    100  O   UNL     1     -10.662 -13.700  16.211  1.00  0.00    -0.237 OA
ATOM    101  O   UNL     1      -8.526 -12.644  16.832  1.00  0.00    -0.744 OA
ENDBRANCH  97  98
ENDBRANCH  65  90
ENDBRANCH  39  40
ENDBRANCH  31  34
ENDBRANCH  29  30
ENDBRANCH  28  29
ENDBRANCH  27  28
ENDBRANCH   1  27
TORSDOF 19
