REMARK SMILES C=C1C(=O)O[C@@H]2[C@H]1[C@H](OC(=O)[C@]1(C)O[C@@H]1C)[C@H](OC(C)=O)/C(C(=O)NCCCCCCNC(=O)c1ccc(-c3c4nc(c(-c5c(F)cc(S(=O)(=O)[O-])cc5F)c5ccc([nH]5)c(-c5c(F)cc(S(=O)(=O)[O-])cc5F)c5nc(c(-c6c(F)cc(S(=O)(=O)[O-])cc6F)c6ccc3[nH]6)C=C5)C=C4)cc1)=C\[C@H]1O[C@H]1[C@@]1(C)O[C@@H]21
REMARK SMILES IDX 27 1 26 2 25 3 23 4 24 5 22 7 101 8 102 9 104 10 103 11
REMARK SMILES IDX 105 12 108 13 107 14 106 15 6 16 1 17 2 18 3 19 7 20 4 21
REMARK SMILES IDX 5 22 17 24 8 25 9 27 10 28 11 29 12 30 14 31 15 32 13 33
REMARK SMILES IDX 16 34 18 35 19 36 20 37 21 38 28 39 29 40 30 41 31 42 32 43
REMARK SMILES IDX 33 44 34 46 35 47 36 48 100 49 37 50 99 51 38 52 39 53 40 54
REMARK SMILES IDX 93 55 41 56 98 57 92 58 94 59 42 60 97 61 91 62 90 63 43 65
REMARK SMILES IDX 77 66 56 67 76 68 57 69 60 70 75 71 95 72 58 73 59 74 74 76
REMARK SMILES IDX 96 77 61 78 44 79 45 80 54 81 46 82 47 83 53 84 55 85 48 86
REMARK SMILES IDX 49 87 50 88 51 89 52 90 78 91 79 92 88 93 80 94 81 95 87 96
REMARK SMILES IDX 89 97 82 98 83 99 84 100 85 101 86 102 62 103 63 104 72 105
REMARK SMILES IDX 64 106 65 107 71 108 73 109 66 110 67 111 68 112 69 113
REMARK SMILES IDX 70 114
REMARK H PARENT 25 6 32 45 94 64 60 75
REMARK Flexibility Score: 90.00
ROOT
ATOM      1  C   UNL     1       1.162   4.736   3.215  1.00  0.00     0.021 C 
ENDROOT
BRANCH   1   2
ATOM      2  C   UNL     1       2.570   4.958   2.682  1.00  0.00     0.116 C 
BRANCH   2   3
ATOM      3  N   UNL     1       2.615   5.579   1.365  1.00  0.00    -0.352 N 
ATOM      4  C   UNL     1       3.740   5.936   0.664  1.00  0.00     0.250 C 
ATOM      5  O   UNL     1       3.684   6.517  -0.409  1.00  0.00    -0.270 OA
ATOM      6  H   UNL     1       1.750   5.763   0.934  1.00  0.00     0.163 HD
BRANCH   4   7
ATOM      7  C   UNL     1       5.040   5.614   1.291  1.00  0.00     0.060 C 
ATOM      8  C   UNL     1       5.398   6.458   2.284  1.00  0.00     0.020 C 
BRANCH   8   9
ATOM      9  C   UNL     1       6.327   6.258   3.405  1.00  0.00     0.174 C 
ATOM     10  C   UNL     1       7.781   5.842   3.366  1.00  0.00     0.186 C 
ATOM     11  O   UNL     1       6.752   4.930   3.748  1.00  0.00    -0.362 OA
BRANCH  10  12
ATOM     12  C   UNL     1       8.724   5.476   2.198  1.00  0.00     0.125 C 
ATOM     13  C   UNL     1       9.151   4.356   1.188  1.00  0.00     0.195 C 
ATOM     14  O   UNL     1       9.536   4.332   2.553  1.00  0.00    -0.359 OA
ATOM     15  C   UNL     1       9.547   6.731   1.918  1.00  0.00     0.048 C 
BRANCH  13  16
ATOM     16  C   UNL     1       8.418   3.125   0.708  1.00  0.00     0.220 C 
ATOM     17  C   UNL     1       9.287   4.351  -2.259  1.00  0.00     0.021 C 
ATOM     18  C   UNL     1       8.739   3.405  -1.488  1.00  0.00     0.041 C 
ATOM     19  C   UNL     1       9.596   2.265  -1.081  1.00  0.00     0.334 C 
ATOM     20  C   UNL     1       7.565   3.317  -0.564  1.00  0.00     0.115 CG0
ATOM     21  O   UNL     1      10.317   1.596  -1.796  1.00  0.00    -0.247 OA
ATOM     22  O   UNL     1       9.398   2.137   0.263  1.00  0.00    -0.455 OA
ATOM     23  G   UNL     1       6.329   4.262  -0.569  1.00  0.00     0.000 G0
ENDBRANCH  13  16
ENDBRANCH  10  12
ENDBRANCH   8   9
BRANCH   7  24
ATOM     24  C   UNL     1       5.708   4.336   0.881  1.00  0.00     0.253 C 
BRANCH  24  25
ATOM     25  C   UNL     1       6.329   4.262  -0.569  1.00  0.00     0.233 CG0
ATOM     26  G   UNL     1       7.565   3.317  -0.564  1.00  0.00     0.000 G0
BRANCH  25  27
ATOM     27  O   UNL     1       6.622   5.548  -1.142  1.00  0.00    -0.455 OA
BRANCH  27  28
ATOM     28  C   UNL     1       6.297   5.929  -2.436  1.00  0.00     0.341 C 
ATOM     29  O   UNL     1       6.529   7.081  -2.791  1.00  0.00    -0.249 OA
BRANCH  28  30
ATOM     30  C   UNL     1       5.903   4.898  -3.482  1.00  0.00     0.188 C 
ATOM     31  O   UNL     1       4.892   5.418  -4.394  1.00  0.00    -0.354 OA
ATOM     32  C   UNL     1       4.510   4.287  -3.622  1.00  0.00     0.160 C 
ATOM     33  C   UNL     1       6.989   4.258  -4.320  1.00  0.00     0.058 C 
ATOM     34  C   UNL     1       3.318   4.562  -2.789  1.00  0.00     0.042 C 
ENDBRANCH  28  30
ENDBRANCH  27  28
ENDBRANCH  25  27
ENDBRANCH  24  25
BRANCH  24  35
ATOM     35  O   UNL     1       4.782   3.219   0.995  1.00  0.00    -0.453 OA
BRANCH  35  36
ATOM     36  C   UNL     1       4.934   2.090   1.722  1.00  0.00     0.303 C 
ATOM     37  C   UNL     1       5.707   2.115   3.006  1.00  0.00     0.139 C 
ATOM     38  O   UNL     1       4.346   1.071   1.372  1.00  0.00    -0.253 OA
ENDBRANCH  35  36
ENDBRANCH  24  35
ENDBRANCH   7  24
ENDBRANCH   4   7
ENDBRANCH   2   3
ENDBRANCH   1   2
BRANCH   1  39
ATOM     39  C   UNL     1       0.390   3.591   2.555  1.00  0.00     0.002 C 
BRANCH  39  40
ATOM     40  C   UNL     1       1.033   2.202   2.628  1.00  0.00     0.002 C 
BRANCH  40  41
ATOM     41  C   UNL     1       1.470   1.718   4.013  1.00  0.00     0.021 C 
BRANCH  41  42
ATOM     42  C   UNL     1       0.416   1.803   5.113  1.00  0.00     0.116 C 
BRANCH  42  43
ATOM     43  N   UNL     1      -0.817   1.110   4.784  1.00  0.00    -0.352 N 
ATOM     44  C   UNL     1      -1.653   0.399   5.609  1.00  0.00     0.251 C 
ATOM     45  H   UNL     1      -1.091   1.157   3.839  1.00  0.00     0.163 HD
ATOM     46  O   UNL     1      -2.613  -0.204   5.137  1.00  0.00    -0.269 OA
BRANCH  44  47
ATOM     47  C   UNL     1      -1.374   0.332   7.060  1.00  0.00     0.039 A 
ATOM     48  C   UNL     1      -1.421  -0.912   7.693  1.00  0.00     0.014 A 
ATOM     49  C   UNL     1      -1.064   1.482   7.791  1.00  0.00     0.014 A 
ATOM     50  C   UNL     1      -1.104  -1.011   9.050  1.00  0.00     0.010 A 
ATOM     51  C   UNL     1      -0.683   1.372   9.127  1.00  0.00     0.010 A 
ATOM     52  C   UNL     1      -0.704   0.126   9.770  1.00  0.00    -0.014 A 
BRANCH  52  53
ATOM     53  C   UNL     1      -0.308   0.027  11.198  1.00  0.00     0.031 A 
ATOM     54  C   UNL     1      -1.124   0.720  12.256  1.00  0.00     0.074 A 
ATOM     55  C   UNL     1       0.814  -0.639  11.533  1.00  0.00     0.049 A 
ATOM     56  N   UNL     1      -0.910   0.797  13.544  1.00  0.00    -0.248 NA
ATOM     57  C   UNL     1      -2.322   1.444  11.803  1.00  0.00     0.031 C 
ATOM     58  C   UNL     1       1.712  -1.309  10.589  1.00  0.00     0.029 A 
ATOM     59  N   UNL     1       1.398  -0.857  12.756  1.00  0.00    -0.354 N 
ATOM     60  C   UNL     1      -1.936   1.585  14.053  1.00  0.00     0.074 A 
ATOM     61  C   UNL     1      -2.740   2.008  12.927  1.00  0.00     0.031 C 
ATOM     62  C   UNL     1       2.719  -1.880  11.270  1.00  0.00     0.029 A 
ATOM     63  C   UNL     1       2.560  -1.589  12.691  1.00  0.00     0.049 A 
ATOM     64  H   UNL     1       1.020  -0.521  13.600  1.00  0.00     0.167 HD
ATOM     65  C   UNL     1      -2.196   1.908  15.342  1.00  0.00     0.037 A 
ATOM     66  C   UNL     1       3.405  -1.976  13.666  1.00  0.00     0.037 A 
ATOM     67  C   UNL     1      -1.404   1.460  16.458  1.00  0.00     0.049 A 
ATOM     68  C   UNL     1       3.092  -1.611  15.092  1.00  0.00     0.074 A 
ATOM     69  C   UNL     1      -1.616   1.680  17.808  1.00  0.00     0.029 A 
ATOM     70  N   UNL     1      -0.247   0.701  16.354  1.00  0.00    -0.354 N 
ATOM     71  N   UNL     1       2.081  -0.918  15.561  1.00  0.00    -0.248 NA
ATOM     72  C   UNL     1       4.026  -2.085  16.121  1.00  0.00     0.031 C 
ATOM     73  C   UNL     1      -0.564   1.093  18.517  1.00  0.00     0.029 A 
ATOM     74  C   UNL     1       0.277   0.462  17.614  1.00  0.00     0.049 A 
ATOM     75  H   UNL     1       0.143   0.379  15.510  1.00  0.00     0.167 HD
ATOM     76  C   UNL     1       2.244  -0.896  16.942  1.00  0.00     0.074 A 
ATOM     77  C   UNL     1       3.443  -1.655  17.232  1.00  0.00     0.031 C 
ATOM     78  C   UNL     1       1.470  -0.302  17.884  1.00  0.00     0.037 A 
BRANCH  65  79
ATOM     79  C   UNL     1      -3.389   2.783  15.616  1.00  0.00     0.058 A 
ATOM     80  C   UNL     1      -4.702   2.316  15.444  1.00  0.00     0.135 A 
ATOM     81  C   UNL     1      -3.220   4.095  16.087  1.00  0.00     0.135 A 
ATOM     82  F   UNL     1      -4.924   1.075  14.982  1.00  0.00    -0.206 F 
ATOM     83  C   UNL     1      -5.803   3.127  15.699  1.00  0.00     0.059 A 
ATOM     84  C   UNL     1      -4.307   4.915  16.377  1.00  0.00     0.059 A 
ATOM     85  F   UNL     1      -1.987   4.595  16.269  1.00  0.00    -0.206 F 
ATOM     86  C   UNL     1      -5.595   4.426  16.164  1.00  0.00     0.060 A 
BRANCH  86  87
ATOM     87  S   UNL     1      -7.035   5.465  16.493  1.00  0.00     0.124 S 
ATOM     88  O   UNL     1      -7.484   5.775  15.139  1.00  0.00    -0.237 OA
ATOM     89  O   UNL     1      -7.898   4.570  17.257  1.00  0.00    -0.237 OA
ATOM     90  O   UNL     1      -6.480   6.588  17.242  1.00  0.00    -0.744 OA
ENDBRANCH  86  87
ENDBRANCH  65  79
BRANCH  66  91
ATOM     91  C   UNL     1       4.615  -2.772  13.328  1.00  0.00     0.058 A 
ATOM     92  C   UNL     1       4.712  -4.126  13.684  1.00  0.00     0.135 A 
ATOM     93  C   UNL     1       5.691  -2.202  12.629  1.00  0.00     0.135 A 
ATOM     94  F   UNL     1       3.712  -4.715  14.357  1.00  0.00    -0.206 F 
ATOM     95  C   UNL     1       5.838  -4.882  13.375  1.00  0.00     0.059 A 
ATOM     96  C   UNL     1       6.816  -2.945  12.286  1.00  0.00     0.059 A 
ATOM     97  F   UNL     1       5.641  -0.916  12.249  1.00  0.00    -0.206 F 
ATOM     98  C   UNL     1       6.885  -4.283  12.673  1.00  0.00     0.060 A 
BRANCH  98  99
ATOM     99  S   UNL     1       8.322  -5.285  12.237  1.00  0.00     0.124 S 
ATOM    100  O   UNL     1       8.983  -5.428  13.529  1.00  0.00    -0.237 OA
ATOM    101  O   UNL     1       7.702  -6.492  11.699  1.00  0.00    -0.237 OA
ATOM    102  O   UNL     1       9.021  -4.459  11.257  1.00  0.00    -0.744 OA
ENDBRANCH  98  99
ENDBRANCH  66  91
BRANCH  78 103
ATOM    103  C   UNL     1       1.877  -0.474  19.322  1.00  0.00     0.058 A 
ATOM    104  C   UNL     1       2.989   0.190  19.859  1.00  0.00     0.135 A 
ATOM    105  C   UNL     1       1.109  -1.274  20.185  1.00  0.00     0.135 A 
ATOM    106  F   UNL     1       3.760   0.961  19.075  1.00  0.00    -0.206 F 
ATOM    107  C   UNL     1       3.341   0.051  21.197  1.00  0.00     0.059 A 
ATOM    108  C   UNL     1       1.426  -1.405  21.533  1.00  0.00     0.059 A 
ATOM    109  F   UNL     1       0.028  -1.923  19.723  1.00  0.00    -0.206 F 
ATOM    110  C   UNL     1       2.551  -0.747  22.027  1.00  0.00     0.060 A 
BRANCH 110 111
ATOM    111  S   UNL     1       2.998  -0.890  23.770  1.00  0.00     0.124 S 
ATOM    112  O   UNL     1       4.166  -1.763  23.703  1.00  0.00    -0.237 OA
ATOM    113  O   UNL     1       3.264   0.497  24.140  1.00  0.00    -0.237 OA
ATOM    114  O   UNL     1       1.809  -1.478  24.379  1.00  0.00    -0.744 OA
ENDBRANCH 110 111
ENDBRANCH  78 103
ENDBRANCH  52  53
ENDBRANCH  44  47
ENDBRANCH  42  43
ENDBRANCH  41  42
ENDBRANCH  40  41
ENDBRANCH  39  40
ENDBRANCH   1  39
TORSDOF 21
