REMARK SMILES Cc1c(C(=O)Nc2ccc(C(=O)Nc3ccccc3C(=O)NCCCCCCNC(=O)c3ccc(-c4c5nc(c(-c6c(F)cc(S(=O)(=O)[O-])cc6F)c6ccc([nH]6)c(-c6c(F)cc(S(=O)(=O)[O-])cc6F)c6nc(c(-c7c(F)cc(S(=O)(=O)[O-])cc7F)c7ccc4[nH]7)C=C6)C=C5)cc3)cc2)cccc1[N+](=O)[O-]
REMARK SMILES IDX 24 1 23 2 22 3 20 4 21 5 19 7 14 8 15 9 16 10 18 11 17 12
REMARK SMILES IDX 13 13 11 14 12 15 10 17 7 18 8 19 99 20 9 21 98 22 6 23 4 24
REMARK SMILES IDX 5 25 3 27 1 28 2 29 103 30 100 31 102 32 101 33 104 34
REMARK SMILES IDX 105 35 106 36 25 37 26 38 27 39 28 40 29 41 30 42 31 44
REMARK SMILES IDX 32 45 33 46 97 47 34 48 96 49 35 50 36 51 37 52 90 53 38 54
REMARK SMILES IDX 95 55 89 56 91 57 39 58 94 59 88 60 87 61 40 63 74 64 53 65
REMARK SMILES IDX 73 66 54 67 57 68 72 69 92 70 55 71 56 72 71 74 93 75 58 76
REMARK SMILES IDX 41 77 42 78 51 79 43 80 44 81 50 82 52 83 45 84 46 85 47 86
REMARK SMILES IDX 48 87 49 88 75 89 76 90 85 91 77 92 78 93 84 94 86 95 79 96
REMARK SMILES IDX 80 97 81 98 82 99 83 100 59 101 60 102 69 103 61 104 62 105
REMARK SMILES IDX 68 106 70 107 63 108 64 109 65 110 66 111 67 112
REMARK H PARENT 22 6 13 16 6 26 29 43 91 62 57 73
REMARK Flexibility Score: inf
ROOT
ATOM      1  C   UNL     1       3.184  -1.787   3.916  1.00  0.00     0.021 C 
ENDROOT
BRANCH   1   2
ATOM      2  C   UNL     1       3.470  -0.324   4.262  1.00  0.00     0.116 C 
BRANCH   2   3
ATOM      3  N   UNL     1       4.756   0.193   3.829  1.00  0.00    -0.352 N 
ATOM      4  C   UNL     1       5.144   1.466   3.467  1.00  0.00     0.253 C 
ATOM      5  O   UNL     1       6.338   1.688   3.277  1.00  0.00    -0.269 OA
ATOM      6  H   UNL     1       5.473  -0.480   3.786  1.00  0.00     0.163 HD
BRANCH   4   7
ATOM      7  C   UNL     1       4.161   2.570   3.272  1.00  0.00     0.063 A 
ATOM      8  C   UNL     1       4.249   3.456   2.171  1.00  0.00     0.054 A 
ATOM      9  C   UNL     1       3.343   4.527   2.071  1.00  0.00     0.027 A 
ATOM     10  C   UNL     1       2.310   4.677   2.995  1.00  0.00     0.002 A 
ATOM     11  C   UNL     1       3.169   2.796   4.241  1.00  0.00     0.016 A 
ATOM     12  C   UNL     1       2.224   3.813   4.081  1.00  0.00     0.001 A 
BRANCH   8  13
ATOM     13  N   UNL     1       5.125   3.336   1.072  1.00  0.00    -0.321 N 
ATOM     14  C   UNL     1       5.532   2.240   0.339  1.00  0.00     0.255 C 
ATOM     15  O   UNL     1       6.462   2.379  -0.460  1.00  0.00    -0.269 OA
ATOM     16  H   UNL     1       5.517   4.189   0.775  1.00  0.00     0.170 HD
BRANCH  14  17
ATOM     17  C   UNL     1       4.761   0.961   0.323  1.00  0.00     0.040 A 
ATOM     18  C   UNL     1       3.215  -1.356  -0.095  1.00  0.00     0.041 A 
ATOM     19  C   UNL     1       2.713  -0.296   0.643  1.00  0.00     0.027 A 
ATOM     20  C   UNL     1       4.559  -1.331  -0.477  1.00  0.00     0.027 A 
ATOM     21  C   UNL     1       3.437   0.882   0.752  1.00  0.00     0.016 A 
ATOM     22  C   UNL     1       5.331  -0.176  -0.265  1.00  0.00     0.016 A 
BRANCH  18  23
ATOM     23  N   UNL     1       2.392  -2.389  -0.572  1.00  0.00    -0.322 N 
ATOM     24  C   UNL     1       1.026  -2.431  -0.801  1.00  0.00     0.256 C 
ATOM     25  O   UNL     1       0.508  -3.489  -1.153  1.00  0.00    -0.269 OA
ATOM     26  H   UNL     1       2.867  -3.226  -0.779  1.00  0.00     0.170 HD
BRANCH  24  27
ATOM     27  C   UNL     1       0.139  -1.238  -0.648  1.00  0.00     0.049 A 
ATOM     28  C   UNL     1       1.397   0.192  -2.338  1.00  0.00     0.053 C 
ATOM     29  C   UNL     1       0.390   0.029  -1.230  1.00  0.00     0.039 A 
ATOM     30  C   UNL     1      -0.352   1.123  -0.727  1.00  0.00     0.273 A 
ATOM     31  C   UNL     1      -0.987  -1.425   0.174  1.00  0.00     0.014 A 
ATOM     32  C   UNL     1      -1.458   0.933   0.119  1.00  0.00     0.086 A 
ATOM     33  C   UNL     1      -1.805  -0.352   0.522  1.00  0.00     0.008 A 
BRANCH  30  34
ATOM     34  N   UNL     1       0.072   2.511  -0.962  1.00  0.00     0.063 N 
ATOM     35  O   UNL     1      -0.808   3.381  -1.009  1.00  0.00    -0.258 OA
ATOM     36  O   UNL     1       1.288   2.742  -1.023  1.00  0.00    -0.258 OA
ENDBRANCH  30  34
ENDBRANCH  24  27
ENDBRANCH  18  23
ENDBRANCH  14  17
ENDBRANCH   8  13
ENDBRANCH   4   7
ENDBRANCH   2   3
ENDBRANCH   1   2
BRANCH   1  37
ATOM     37  C   UNL     1       4.270  -2.836   4.162  1.00  0.00     0.002 C 
BRANCH  37  38
ATOM     38  C   UNL     1       4.907  -2.924   5.555  1.00  0.00     0.002 C 
BRANCH  38  39
ATOM     39  C   UNL     1       3.982  -2.850   6.769  1.00  0.00     0.021 C 
BRANCH  39  40
ATOM     40  C   UNL     1       2.874  -3.885   6.809  1.00  0.00     0.116 C 
BRANCH  40  41
ATOM     41  N   UNL     1       3.173  -5.118   7.513  1.00  0.00    -0.352 N 
ATOM     42  C   UNL     1       2.122  -5.740   8.188  1.00  0.00     0.251 C 
ATOM     43  H   UNL     1       4.080  -5.501   7.514  1.00  0.00     0.163 HD
ATOM     44  O   UNL     1       1.808  -5.532   9.347  1.00  0.00    -0.269 OA
BRANCH  42  45
ATOM     45  C   UNL     1       1.195  -6.439   7.271  1.00  0.00     0.039 A 
ATOM     46  C   UNL     1       1.271  -7.811   7.039  1.00  0.00     0.014 A 
ATOM     47  C   UNL     1       0.389  -5.613   6.484  1.00  0.00     0.014 A 
ATOM     48  C   UNL     1       0.627  -8.340   5.918  1.00  0.00     0.010 A 
ATOM     49  C   UNL     1      -0.157  -6.115   5.329  1.00  0.00     0.010 A 
ATOM     50  C   UNL     1      -0.019  -7.473   5.034  1.00  0.00    -0.014 A 
BRANCH  50  51
ATOM     51  C   UNL     1      -0.582  -7.854   3.748  1.00  0.00     0.031 A 
ATOM     52  C   UNL     1      -2.044  -8.010   3.609  1.00  0.00     0.074 A 
ATOM     53  C   UNL     1       0.219  -7.851   2.662  1.00  0.00     0.049 A 
ATOM     54  N   UNL     1      -2.619  -8.607   2.624  1.00  0.00    -0.248 NA
ATOM     55  C   UNL     1      -2.988  -7.511   4.603  1.00  0.00     0.031 C 
ATOM     56  C   UNL     1      -0.183  -7.817   1.260  1.00  0.00     0.029 A 
ATOM     57  N   UNL     1       1.597  -8.074   2.623  1.00  0.00    -0.354 N 
ATOM     58  C   UNL     1      -3.970  -8.347   2.698  1.00  0.00     0.074 A 
ATOM     59  C   UNL     1      -4.154  -7.708   3.980  1.00  0.00     0.031 C 
ATOM     60  C   UNL     1       0.831  -8.271   0.507  1.00  0.00     0.029 A 
ATOM     61  C   UNL     1       1.855  -8.755   1.417  1.00  0.00     0.049 A 
ATOM     62  H   UNL     1       2.257  -7.808   3.303  1.00  0.00     0.167 HD
ATOM     63  C   UNL     1      -4.750  -8.589   1.604  1.00  0.00     0.037 A 
ATOM     64  C   UNL     1       2.330 -10.037   1.436  1.00  0.00     0.037 A 
ATOM     65  C   UNL     1      -3.954  -9.183   0.530  1.00  0.00     0.049 A 
ATOM     66  C   UNL     1       1.395 -11.041   0.799  1.00  0.00     0.074 A 
ATOM     67  C   UNL     1      -3.339  -8.643  -0.589  1.00  0.00     0.029 A 
ATOM     68  N   UNL     1      -3.421 -10.456   0.695  1.00  0.00    -0.354 N 
ATOM     69  N   UNL     1       0.121 -10.838   0.597  1.00  0.00    -0.248 NA
ATOM     70  C   UNL     1       1.829 -12.347   0.317  1.00  0.00     0.031 C 
ATOM     71  C   UNL     1      -2.397  -9.585  -1.072  1.00  0.00     0.029 A 
ATOM     72  C   UNL     1      -2.453 -10.705  -0.260  1.00  0.00     0.049 A 
ATOM     73  H   UNL     1      -3.696 -11.092   1.394  1.00  0.00     0.167 HD
ATOM     74  C   UNL     1      -0.438 -11.937  -0.011  1.00  0.00     0.074 A 
ATOM     75  C   UNL     1       0.684 -12.841  -0.187  1.00  0.00     0.031 C 
ATOM     76  C   UNL     1      -1.773 -11.994  -0.314  1.00  0.00     0.037 A 
BRANCH  63  77
ATOM     77  C   UNL     1      -6.151  -8.039   1.401  1.00  0.00     0.058 A 
ATOM     78  C   UNL     1      -6.638  -7.767   0.102  1.00  0.00     0.135 A 
ATOM     79  C   UNL     1      -7.048  -7.715   2.438  1.00  0.00     0.135 A 
ATOM     80  F   UNL     1      -5.947  -8.107  -0.994  1.00  0.00    -0.206 F 
ATOM     81  C   UNL     1      -7.854  -7.123  -0.140  1.00  0.00     0.059 A 
ATOM     82  C   UNL     1      -8.247  -7.023   2.225  1.00  0.00     0.059 A 
ATOM     83  F   UNL     1      -6.827  -8.105   3.700  1.00  0.00    -0.206 F 
ATOM     84  C   UNL     1      -8.637  -6.718   0.930  1.00  0.00     0.060 A 
BRANCH  84  85
ATOM     85  S   UNL     1     -10.159  -5.811   0.600  1.00  0.00     0.124 S 
ATOM     86  O   UNL     1      -9.677  -4.677  -0.183  1.00  0.00    -0.237 OA
ATOM     87  O   UNL     1     -10.951  -6.796  -0.128  1.00  0.00    -0.237 OA
ATOM     88  O   UNL     1     -10.651  -5.475   1.933  1.00  0.00    -0.744 OA
ENDBRANCH  84  85
ENDBRANCH  63  77
BRANCH  64  89
ATOM     89  C   UNL     1       3.253 -10.286   2.583  1.00  0.00     0.058 A 
ATOM     90  C   UNL     1       4.478  -9.585   2.584  1.00  0.00     0.135 A 
ATOM     91  C   UNL     1       2.772 -10.743   3.818  1.00  0.00     0.135 A 
ATOM     92  F   UNL     1       4.999  -9.147   1.426  1.00  0.00    -0.206 F 
ATOM     93  C   UNL     1       5.089  -9.180   3.767  1.00  0.00     0.059 A 
ATOM     94  C   UNL     1       3.382 -10.361   5.017  1.00  0.00     0.059 A 
ATOM     95  F   UNL     1       1.620 -11.425   3.884  1.00  0.00    -0.206 F 
ATOM     96  C   UNL     1       4.483  -9.503   4.978  1.00  0.00     0.060 A 
BRANCH  96  97
ATOM     97  S   UNL     1       5.047  -8.644   6.469  1.00  0.00     0.124 S 
ATOM     98  O   UNL     1       6.481  -8.906   6.451  1.00  0.00    -0.237 OA
ATOM     99  O   UNL     1       4.650  -7.260   6.194  1.00  0.00    -0.237 OA
ATOM    100  O   UNL     1       4.300  -9.297   7.538  1.00  0.00    -0.744 OA
ENDBRANCH  96  97
ENDBRANCH  64  89
BRANCH  76 101
ATOM    101  C   UNL     1      -2.579 -13.203  -0.773  1.00  0.00     0.058 A 
ATOM    102  C   UNL     1      -2.185 -14.543  -0.616  1.00  0.00     0.135 A 
ATOM    103  C   UNL     1      -3.894 -13.032  -1.291  1.00  0.00     0.135 A 
ATOM    104  F   UNL     1      -1.023 -14.873  -0.039  1.00  0.00    -0.206 F 
ATOM    105  C   UNL     1      -2.996 -15.619  -0.993  1.00  0.00     0.059 A 
ATOM    106  C   UNL     1      -4.743 -14.090  -1.610  1.00  0.00     0.059 A 
ATOM    107  F   UNL     1      -4.424 -11.816  -1.491  1.00  0.00    -0.206 F 
ATOM    108  C   UNL     1      -4.276 -15.385  -1.482  1.00  0.00     0.060 A 
BRANCH 108 109
ATOM    109  S   UNL     1      -5.350 -16.774  -1.881  1.00  0.00     0.124 S 
ATOM    110  O   UNL     1      -4.943 -17.074  -3.250  1.00  0.00    -0.237 OA
ATOM    111  O   UNL     1      -4.974 -17.767  -0.880  1.00  0.00    -0.237 OA
ATOM    112  O   UNL     1      -6.691 -16.219  -1.727  1.00  0.00    -0.744 OA
ENDBRANCH 108 109
ENDBRANCH  76 101
ENDBRANCH  50  51
ENDBRANCH  42  45
ENDBRANCH  40  41
ENDBRANCH  39  40
ENDBRANCH  38  39
ENDBRANCH  37  38
ENDBRANCH   1  37
TORSDOF 21
