REMARK SMILES C[C@@H](C(=O)NCCCCCCNC(=O)c1ccc(-c2c3nc(c(-c4c(F)cc(S(=O)(=O)[O-])cc4F)c4ccc([nH]4)c(-c4c(F)cc(S(=O)(=O)[O-])cc4F)c4nc(c(-c5c(F)cc(S(=O)(=O)[O-])cc5F)c5ccc2[nH]5)C=C4)C=C3)cc1)c1cc(C(=O)c2ccccc2)ccc1O
REMARK SMILES IDX 8 1 7 2 6 3 5 4 3 5 4 6 2 8 1 9 81 10 82 11 94 12 83 13
REMARK SMILES IDX 93 14 92 15 95 16 84 18 85 19 86 20 87 21 91 22 88 23 90 24
REMARK SMILES IDX 89 25 9 26 10 27 11 28 12 29 13 30 14 32 15 33 16 34 80 35
REMARK SMILES IDX 17 36 79 37 18 38 19 39 20 40 73 41 21 42 78 43 72 44 74 45
REMARK SMILES IDX 22 46 77 47 71 48 70 49 23 51 57 52 36 53 56 54 37 55 40 56
REMARK SMILES IDX 55 57 75 58 38 59 39 60 54 62 76 63 41 64 24 65 25 66 34 67
REMARK SMILES IDX 26 68 27 69 33 70 35 71 28 72 29 73 30 74 31 75 32 76 58 77
REMARK SMILES IDX 59 78 68 79 60 80 61 81 67 82 69 83 62 84 63 85 64 86 65 87
REMARK SMILES IDX 66 88 42 89 43 90 52 91 44 92 45 93 51 94 53 95 46 96 47 97
REMARK SMILES IDX 48 98 49 99 50 100
REMARK H PARENT 5 7 95 17 12 31 74 50 40 61
REMARK Flexibility Score: inf
ROOT
ATOM      1  C   UNL     1       4.902  -0.438  -2.817  1.00  0.00     0.002 C 
ENDROOT
BRANCH   1   2
ATOM      2  C   UNL     1       4.146  -0.090  -1.525  1.00  0.00     0.021 C 
BRANCH   2   3
ATOM      3  C   UNL     1       3.314   1.192  -1.632  1.00  0.00     0.116 C 
BRANCH   3   4
ATOM      4  N   UNL     1       2.200   0.969  -2.531  1.00  0.00    -0.356 N 
ATOM      5  C   UNL     1       0.934   0.575  -2.220  1.00  0.00     0.227 C 
ATOM      6  O   UNL     1       0.282   0.008  -3.103  1.00  0.00    -0.274 OA
ATOM      7  H   UNL     1       2.381   1.122  -3.486  1.00  0.00     0.163 HD
BRANCH   5   8
ATOM      8  C   UNL     1       0.364   0.843  -0.819  1.00  0.00     0.109 C 
ATOM      9  C   UNL     1       0.885  -0.151   0.226  1.00  0.00     0.023 C 
BRANCH   8  10
ATOM     10  C   UNL     1      -1.164   0.845  -0.838  1.00  0.00     0.007 A 
ATOM     11  C   UNL     1      -1.861   2.045  -0.613  1.00  0.00     0.020 A 
ATOM     12  C   UNL     1      -1.918  -0.314  -1.076  1.00  0.00     0.119 A 
ATOM     13  C   UNL     1      -3.265   2.067  -0.589  1.00  0.00     0.023 A 
ATOM     14  C   UNL     1      -3.305  -0.313  -1.020  1.00  0.00     0.047 A 
ATOM     15  C   UNL     1      -3.982   0.880  -0.790  1.00  0.00     0.016 A 
BRANCH  12  16
ATOM     16  O   UNL     1      -1.329  -1.489  -1.450  1.00  0.00    -0.508 OA
ATOM     17  H   UNL     1      -0.395  -1.548  -1.504  1.00  0.00     0.293 HD
ENDBRANCH  12  16
BRANCH  13  18
ATOM     18  C   UNL     1      -3.958   3.373  -0.405  1.00  0.00     0.193 C 
ATOM     19  O   UNL     1      -3.384   4.423  -0.680  1.00  0.00    -0.289 OA
BRANCH  18  20
ATOM     20  C   UNL     1      -5.361   3.426   0.065  1.00  0.00     0.022 A 
ATOM     21  C   UNL     1      -6.271   4.231  -0.628  1.00  0.00     0.012 A 
ATOM     22  C   UNL     1      -5.780   2.680   1.172  1.00  0.00     0.012 A 
ATOM     23  C   UNL     1      -7.611   4.250  -0.242  1.00  0.00     0.001 A 
ATOM     24  C   UNL     1      -7.121   2.701   1.553  1.00  0.00     0.001 A 
ATOM     25  C   UNL     1      -8.036   3.478   0.841  1.00  0.00     0.000 A 
ENDBRANCH  18  20
ENDBRANCH  13  18
ENDBRANCH   8  10
ENDBRANCH   5   8
ENDBRANCH   3   4
ENDBRANCH   2   3
ENDBRANCH   1   2
BRANCH   1  26
ATOM     26  C   UNL     1       5.890   0.634  -3.288  1.00  0.00     0.002 C 
BRANCH  26  27
ATOM     27  C   UNL     1       6.937   1.036  -2.247  1.00  0.00     0.021 C 
BRANCH  27  28
ATOM     28  C   UNL     1       7.836  -0.109  -1.791  1.00  0.00     0.116 C 
BRANCH  28  29
ATOM     29  N   UNL     1       8.656  -0.616  -2.881  1.00  0.00    -0.352 N 
ATOM     30  C   UNL     1      10.018  -0.750  -2.946  1.00  0.00     0.251 C 
ATOM     31  H   UNL     1       8.163  -0.903  -3.683  1.00  0.00     0.163 HD
ATOM     32  O   UNL     1      10.561  -0.981  -4.026  1.00  0.00    -0.269 OA
BRANCH  30  33
ATOM     33  C   UNL     1      10.832  -0.601  -1.722  1.00  0.00     0.039 A 
ATOM     34  C   UNL     1      12.012   0.144  -1.777  1.00  0.00     0.014 A 
ATOM     35  C   UNL     1      10.435  -1.201  -0.523  1.00  0.00     0.014 A 
ATOM     36  C   UNL     1      12.765   0.331  -0.616  1.00  0.00     0.010 A 
ATOM     37  C   UNL     1      11.145  -0.950   0.647  1.00  0.00     0.010 A 
ATOM     38  C   UNL     1      12.322  -0.188   0.612  1.00  0.00    -0.014 A 
BRANCH  38  39
ATOM     39  C   UNL     1      13.079   0.057   1.867  1.00  0.00     0.031 A 
ATOM     40  C   UNL     1      13.680  -1.096   2.626  1.00  0.00     0.074 A 
ATOM     41  C   UNL     1      13.177   1.311   2.352  1.00  0.00     0.049 A 
ATOM     42  N   UNL     1      14.326  -1.088   3.763  1.00  0.00    -0.248 NA
ATOM     43  C   UNL     1      13.510  -2.438   2.044  1.00  0.00     0.031 C 
ATOM     44  C   UNL     1      12.593   2.504   1.733  1.00  0.00     0.029 A 
ATOM     45  N   UNL     1      13.793   1.792   3.480  1.00  0.00    -0.354 N 
ATOM     46  C   UNL     1      14.628  -2.417   4.038  1.00  0.00     0.074 A 
ATOM     47  C   UNL     1      14.046  -3.210   2.977  1.00  0.00     0.031 C 
ATOM     48  C   UNL     1      12.899   3.579   2.477  1.00  0.00     0.029 A 
ATOM     49  C   UNL     1      13.663   3.151   3.644  1.00  0.00     0.049 A 
ATOM     50  H   UNL     1      14.282   1.217   4.112  1.00  0.00     0.167 HD
ATOM     51  C   UNL     1      15.345  -2.927   5.068  1.00  0.00     0.037 A 
ATOM     52  C   UNL     1      14.101   3.961   4.628  1.00  0.00     0.037 A 
ATOM     53  C   UNL     1      15.940  -2.128   6.108  1.00  0.00     0.049 A 
ATOM     54  C   UNL     1      14.894   3.370   5.763  1.00  0.00     0.074 A 
ATOM     55  C   UNL     1      16.735  -2.543   7.162  1.00  0.00     0.029 A 
ATOM     56  N   UNL     1      15.803  -0.752   6.229  1.00  0.00    -0.354 N 
ATOM     57  N   UNL     1      15.228   2.118   5.971  1.00  0.00    -0.248 NA
ATOM     58  C   UNL     1      15.378   4.301   6.791  1.00  0.00     0.031 C 
ATOM     59  C   UNL     1      17.034  -1.427   7.950  1.00  0.00     0.029 A 
ATOM     60  C   UNL     1      16.478  -0.306   7.354  1.00  0.00     0.049 A 
ATOM     61  H   UNL     1      15.301  -0.178   5.607  1.00  0.00     0.167 HD
ATOM     62  C   UNL     1      15.985   2.116   7.137  1.00  0.00     0.074 A 
ATOM     63  C   UNL     1      16.071   3.492   7.581  1.00  0.00     0.031 C 
ATOM     64  C   UNL     1      16.559   1.069   7.782  1.00  0.00     0.037 A 
BRANCH  51  65
ATOM     65  C   UNL     1      15.530  -4.420   5.122  1.00  0.00     0.058 A 
ATOM     66  C   UNL     1      16.333  -5.101   4.191  1.00  0.00     0.135 A 
ATOM     67  C   UNL     1      14.935  -5.176   6.146  1.00  0.00     0.135 A 
ATOM     68  F   UNL     1      16.914  -4.432   3.183  1.00  0.00    -0.206 F 
ATOM     69  C   UNL     1      16.516  -6.478   4.257  1.00  0.00     0.059 A 
ATOM     70  C   UNL     1      15.130  -6.551   6.249  1.00  0.00     0.059 A 
ATOM     71  F   UNL     1      14.158  -4.579   7.062  1.00  0.00    -0.206 F 
ATOM     72  C   UNL     1      15.912  -7.194   5.291  1.00  0.00     0.060 A 
BRANCH  72  73
ATOM     73  S   UNL     1      16.172  -8.979   5.369  1.00  0.00     0.124 S 
ATOM     74  O   UNL     1      15.377  -9.438   4.234  1.00  0.00    -0.237 OA
ATOM     75  O   UNL     1      17.619  -9.089   5.214  1.00  0.00    -0.237 OA
ATOM     76  O   UNL     1      15.655  -9.342   6.684  1.00  0.00    -0.744 OA
ENDBRANCH  72  73
ENDBRANCH  51  65
BRANCH  52  77
ATOM     77  C   UNL     1      13.813   5.419   4.573  1.00  0.00     0.058 A 
ATOM     78  C   UNL     1      14.835   6.352   4.344  1.00  0.00     0.135 A 
ATOM     79  C   UNL     1      12.507   5.909   4.734  1.00  0.00     0.135 A 
ATOM     80  F   UNL     1      16.101   5.935   4.191  1.00  0.00    -0.206 F 
ATOM     81  C   UNL     1      14.579   7.718   4.294  1.00  0.00     0.059 A 
ATOM     82  C   UNL     1      12.220   7.269   4.659  1.00  0.00     0.059 A 
ATOM     83  F   UNL     1      11.489   5.058   4.937  1.00  0.00    -0.206 F 
ATOM     84  C   UNL     1      13.266   8.167   4.449  1.00  0.00     0.060 A 
BRANCH  84  85
ATOM     85  S   UNL     1      12.936   9.939   4.334  1.00  0.00     0.124 S 
ATOM     86  O   UNL     1      13.507  10.426   5.584  1.00  0.00    -0.237 OA
ATOM     87  O   UNL     1      13.655  10.304   3.117  1.00  0.00    -0.237 OA
ATOM     88  O   UNL     1      11.481  10.003   4.235  1.00  0.00    -0.744 OA
ENDBRANCH  84  85
ENDBRANCH  52  77
BRANCH  64  89
ATOM     89  C   UNL     1      17.364   1.371   9.017  1.00  0.00     0.058 A 
ATOM     90  C   UNL     1      16.758   1.767  10.219  1.00  0.00     0.135 A 
ATOM     91  C   UNL     1      18.760   1.211   9.009  1.00  0.00     0.135 A 
ATOM     92  F   UNL     1      15.428   1.941  10.280  1.00  0.00    -0.206 F 
ATOM     93  C   UNL     1      17.509   2.022  11.362  1.00  0.00     0.059 A 
ATOM     94  C   UNL     1      19.527   1.429  10.149  1.00  0.00     0.059 A 
ATOM     95  F   UNL     1      19.390   0.822   7.889  1.00  0.00    -0.206 F 
ATOM     96  C   UNL     1      18.893   1.847  11.318  1.00  0.00     0.060 A 
BRANCH  96  97
ATOM     97  S   UNL     1      19.852   2.152  12.816  1.00  0.00     0.124 S 
ATOM     98  O   UNL     1      19.806   3.608  12.903  1.00  0.00    -0.237 OA
ATOM     99  O   UNL     1      19.085   1.432  13.829  1.00  0.00    -0.237 OA
ATOM    100  O   UNL     1      21.159   1.582  12.506  1.00  0.00    -0.744 OA
ENDBRANCH  96  97
ENDBRANCH  64  89
ENDBRANCH  38  39
ENDBRANCH  30  33
ENDBRANCH  28  29
ENDBRANCH  27  28
ENDBRANCH  26  27
ENDBRANCH   1  26
TORSDOF 20
