REMARK SMILES CC(C)[C@H]([NH2+]Cc1ccncc1)C(=O)NCCCCCCNC(=O)c1ccc(-c2c3nc(c(-c4c(F)cc(S(=O)(=O)[O-])cc4F)c4ccc([nH]4)c(-c4c(F)cc(S(=O)(=O)[O-])cc4F)c4nc(c(-c5c(F)cc(S(=O)(=O)[O-])cc5F)c5ccc2[nH]5)C=C4)C=C3)cc1
REMARK SMILES IDX 18 1 17 2 16 3 15 4 13 5 14 6 4 8 2 9 1 10 3 11 5 12 6 15
REMARK SMILES IDX 7 16 8 17 12 18 9 19 11 20 10 21 19 22 20 23 21 24 22 25
REMARK SMILES IDX 23 26 24 28 25 29 26 30 90 31 27 32 89 33 28 34 29 35 30 36
REMARK SMILES IDX 83 37 31 38 88 39 82 40 84 41 32 42 87 43 81 44 80 45 33 47
REMARK SMILES IDX 67 48 46 49 66 50 47 51 50 52 65 53 85 54 48 55 49 56 64 58
REMARK SMILES IDX 86 59 51 60 34 61 35 62 44 63 36 64 37 65 43 66 45 67 38 68
REMARK SMILES IDX 39 69 40 70 41 71 42 72 68 73 69 74 78 75 70 76 71 77 77 78
REMARK SMILES IDX 79 79 72 80 73 81 74 82 75 83 76 84 52 85 53 86 62 87 54 88
REMARK SMILES IDX 55 89 61 90 63 91 56 92 57 93 58 94 59 95 60 96
REMARK H PARENT 15 7 5 13 5 14 22 27 84 46 50 57
REMARK Flexibility Score: inf
ROOT
ATOM      1  C   UNL     1       0.436   4.870   4.261  1.00  0.00     0.002 C 
ENDROOT
BRANCH   1   2
ATOM      2  C   UNL     1       0.861   3.598   3.523  1.00  0.00     0.021 C 
BRANCH   2   3
ATOM      3  C   UNL     1      -0.300   2.684   3.143  1.00  0.00     0.116 C 
BRANCH   3   4
ATOM      4  N   UNL     1      -1.049   3.232   2.034  1.00  0.00    -0.351 N 
ATOM      5  C   UNL     1      -1.431   2.646   0.864  1.00  0.00     0.278 C 
ATOM      6  O   UNL     1      -2.125   3.313   0.092  1.00  0.00    -0.268 OA
ATOM      7  H   UNL     1      -1.325   4.171   2.139  1.00  0.00     0.163 HD
BRANCH   5   8
ATOM      8  C   UNL     1      -1.027   1.186   0.528  1.00  0.00     0.275 C 
BRANCH   8   9
ATOM      9  C   UNL     1      -1.775   0.114   1.381  1.00  0.00     0.051 C 
ATOM     10  C   UNL     1      -3.110   0.593   1.971  1.00  0.00     0.014 C 
ATOM     11  C   UNL     1      -2.060  -1.137   0.535  1.00  0.00     0.014 C 
ENDBRANCH   8   9
BRANCH   8  12
ATOM     12  N   UNL     1       0.453   1.105   0.361  1.00  0.00    -0.332 N 
ATOM     13  H   UNL     1       0.848   1.966   0.739  1.00  0.00     0.347 HD
ATOM     14  H   UNL     1       0.589   0.958  -0.639  1.00  0.00     0.347 HD
BRANCH  12  15
ATOM     15  C   UNL     1       1.150  -0.005   0.992  1.00  0.00     0.298 C 
BRANCH  15  16
ATOM     16  C   UNL     1       2.651   0.158   0.920  1.00  0.00     0.009 A 
ATOM     17  C   UNL     1       3.405  -0.537  -0.029  1.00  0.00     0.029 A 
ATOM     18  C   UNL     1       3.328   0.983   1.826  1.00  0.00     0.029 A 
ATOM     19  C   UNL     1       4.784  -0.395  -0.016  1.00  0.00     0.111 A 
ATOM     20  C   UNL     1       4.710   1.064   1.755  1.00  0.00     0.111 A 
ATOM     21  N   UNL     1       5.453   0.392   0.853  1.00  0.00    -0.265 NA
ENDBRANCH  15  16
ENDBRANCH  12  15
ENDBRANCH   8  12
ENDBRANCH   5   8
ENDBRANCH   3   4
ENDBRANCH   2   3
ENDBRANCH   1   2
BRANCH   1  22
ATOM     22  C   UNL     1      -0.324   4.636   5.571  1.00  0.00     0.002 C 
BRANCH  22  23
ATOM     23  C   UNL     1       0.365   3.702   6.571  1.00  0.00     0.021 C 
BRANCH  23  24
ATOM     24  C   UNL     1       1.783   4.109   6.966  1.00  0.00     0.116 C 
BRANCH  24  25
ATOM     25  N   UNL     1       1.827   5.433   7.560  1.00  0.00    -0.352 N 
ATOM     26  C   UNL     1       2.393   5.844   8.737  1.00  0.00     0.251 C 
ATOM     27  H   UNL     1       1.383   6.141   7.039  1.00  0.00     0.163 HD
ATOM     28  O   UNL     1       2.157   6.977   9.159  1.00  0.00    -0.269 OA
BRANCH  26  29
ATOM     29  C   UNL     1       3.267   4.936   9.511  1.00  0.00     0.039 A 
ATOM     30  C   UNL     1       3.119   4.888  10.899  1.00  0.00     0.014 A 
ATOM     31  C   UNL     1       4.245   4.156   8.884  1.00  0.00     0.014 A 
ATOM     32  C   UNL     1       3.916   4.025  11.652  1.00  0.00     0.010 A 
ATOM     33  C   UNL     1       4.996   3.248   9.630  1.00  0.00     0.010 A 
ATOM     34  C   UNL     1       4.842   3.177  11.022  1.00  0.00    -0.014 A 
BRANCH  34  35
ATOM     35  C   UNL     1       5.631   2.200  11.817  1.00  0.00     0.031 A 
ATOM     36  C   UNL     1       7.125   2.329  11.931  1.00  0.00     0.074 A 
ATOM     37  C   UNL     1       4.993   1.173  12.412  1.00  0.00     0.049 A 
ATOM     38  N   UNL     1       7.968   1.579  12.595  1.00  0.00    -0.248 NA
ATOM     39  C   UNL     1       7.760   3.426  11.185  1.00  0.00     0.031 C 
ATOM     40  C   UNL     1       3.556   0.904  12.321  1.00  0.00     0.029 A 
ATOM     41  N   UNL     1       5.468   0.164  13.211  1.00  0.00    -0.354 N 
ATOM     42  C   UNL     1       9.229   2.107  12.344  1.00  0.00     0.074 A 
ATOM     43  C   UNL     1       9.046   3.211  11.425  1.00  0.00     0.031 C 
ATOM     44  C   UNL     1       3.262  -0.178  13.058  1.00  0.00     0.029 A 
ATOM     45  C   UNL     1       4.490  -0.696  13.653  1.00  0.00     0.049 A 
ATOM     46  H   UNL     1       6.419   0.065  13.446  1.00  0.00     0.167 HD
ATOM     47  C   UNL     1      10.426   1.724  12.851  1.00  0.00     0.037 A 
ATOM     48  C   UNL     1       4.572  -1.778  14.451  1.00  0.00     0.037 A 
ATOM     49  C   UNL     1      10.598   0.637  13.781  1.00  0.00     0.049 A 
ATOM     50  C   UNL     1       5.907  -2.166  15.023  1.00  0.00     0.074 A 
ATOM     51  C   UNL     1      11.760   0.211  14.403  1.00  0.00     0.029 A 
ATOM     52  N   UNL     1       9.582  -0.200  14.221  1.00  0.00    -0.354 N 
ATOM     53  N   UNL     1       7.078  -1.606  14.835  1.00  0.00    -0.248 NA
ATOM     54  C   UNL     1       5.929  -3.325  15.924  1.00  0.00     0.031 C 
ATOM     55  C   UNL     1      11.453  -0.907  15.187  1.00  0.00     0.029 A 
ATOM     56  C   UNL     1      10.093  -1.151  15.090  1.00  0.00     0.049 A 
ATOM     57  H   UNL     1       8.637  -0.128  13.955  1.00  0.00     0.167 HD
ATOM     58  C   UNL     1       7.975  -2.335  15.608  1.00  0.00     0.074 A 
ATOM     59  C   UNL     1       7.205  -3.360  16.283  1.00  0.00     0.031 C 
ATOM     60  C   UNL     1       9.315  -2.174  15.744  1.00  0.00     0.037 A 
BRANCH  47  61
ATOM     61  C   UNL     1      11.645   2.490  12.416  1.00  0.00     0.058 A 
ATOM     62  C   UNL     1      11.878   3.808  12.842  1.00  0.00     0.135 A 
ATOM     63  C   UNL     1      12.613   1.890  11.594  1.00  0.00     0.135 A 
ATOM     64  F   UNL     1      10.979   4.436  13.617  1.00  0.00    -0.206 F 
ATOM     65  C   UNL     1      13.011   4.513  12.449  1.00  0.00     0.059 A 
ATOM     66  C   UNL     1      13.768   2.567  11.210  1.00  0.00     0.059 A 
ATOM     67  F   UNL     1      12.443   0.632  11.157  1.00  0.00    -0.206 F 
ATOM     68  C   UNL     1      13.951   3.883  11.631  1.00  0.00     0.060 A 
BRANCH  68  69
ATOM     69  S   UNL     1      15.420   4.808  11.135  1.00  0.00     0.124 S 
ATOM     70  O   UNL     1      14.864   5.730  10.149  1.00  0.00    -0.237 OA
ATOM     71  O   UNL     1      15.850   5.410  12.393  1.00  0.00    -0.237 OA
ATOM     72  O   UNL     1      16.306   3.779  10.602  1.00  0.00    -0.744 OA
ENDBRANCH  68  69
ENDBRANCH  47  61
BRANCH  48  73
ATOM     73  C   UNL     1       3.345  -2.549  14.780  1.00  0.00     0.058 A 
ATOM     74  C   UNL     1       2.784  -2.502  16.065  1.00  0.00     0.135 A 
ATOM     75  C   UNL     1       2.698  -3.333  13.812  1.00  0.00     0.135 A 
ATOM     76  F   UNL     1       3.369  -1.770  17.025  1.00  0.00    -0.206 F 
ATOM     77  C   UNL     1       1.635  -3.218  16.385  1.00  0.00     0.059 A 
ATOM     78  C   UNL     1       1.534  -4.038  14.101  1.00  0.00     0.059 A 
ATOM     79  F   UNL     1       3.184  -3.395  12.562  1.00  0.00    -0.206 F 
ATOM     80  C   UNL     1       1.016  -3.982  15.394  1.00  0.00     0.060 A 
BRANCH  80  81
ATOM     81  S   UNL     1      -0.507  -4.864  15.802  1.00  0.00     0.124 S 
ATOM     82  O   UNL     1       0.003  -5.981  16.588  1.00  0.00    -0.237 OA
ATOM     83  O   UNL     1      -1.260  -3.853  16.539  1.00  0.00    -0.237 OA
ATOM     84  O   UNL     1      -1.053  -5.208  14.493  1.00  0.00    -0.744 OA
ENDBRANCH  80  81
ENDBRANCH  48  73
BRANCH  60  85
ATOM     85  C   UNL     1      10.024  -3.123  16.670  1.00  0.00     0.058 A 
ATOM     86  C   UNL     1      10.218  -4.472  16.333  1.00  0.00     0.135 A 
ATOM     87  C   UNL     1      10.520  -2.679  17.906  1.00  0.00     0.135 A 
ATOM     88  F   UNL     1       9.759  -4.949  15.164  1.00  0.00    -0.206 F 
ATOM     89  C   UNL     1      10.839  -5.358  17.207  1.00  0.00     0.059 A 
ATOM     90  C   UNL     1      11.169  -3.541  18.784  1.00  0.00     0.059 A 
ATOM     91  F   UNL     1      10.373  -1.396  18.272  1.00  0.00    -0.206 F 
ATOM     92  C   UNL     1      11.305  -4.884  18.434  1.00  0.00     0.060 A 
BRANCH  92  93
ATOM     93  S   UNL     1      12.101  -6.043  19.567  1.00  0.00     0.124 S 
ATOM     94  O   UNL     1      10.951  -6.760  20.107  1.00  0.00    -0.237 OA
ATOM     95  O   UNL     1      12.966  -6.810  18.676  1.00  0.00    -0.237 OA
ATOM     96  O   UNL     1      12.798  -5.171  20.508  1.00  0.00    -0.744 OA
ENDBRANCH  92  93
ENDBRANCH  60  85
ENDBRANCH  34  35
ENDBRANCH  26  29
ENDBRANCH  24  25
ENDBRANCH  23  24
ENDBRANCH  22  23
ENDBRANCH   1  22
TORSDOF 20
