REMARK SMILES O=C(COc1ccccc1[C@@H]1[NH2+]CCc2cc(O)c(O)cc21)NCCCCCCNC(=O)c1ccc(-c2c3nc(c(-c4c(F)cc(S(=O)(=O)[O-])cc4F)c4ccc([nH]4)c(-c4c(F)cc(S(=O)(=O)[O-])cc4F)c4nc(c(-c5c(F)cc(S(=O)(=O)[O-])cc5F)c5ccc2[nH]5)C=C4)C=C3)cc1
REMARK SMILES IDX 26 1 25 2 24 3 23 4 1 5 2 6 3 8 4 9 5 10 6 11 10 12 7 13
REMARK SMILES IDX 9 14 8 15 11 16 12 17 22 18 13 19 15 22 21 23 14 24 16 25
REMARK SMILES IDX 19 26 17 27 20 28 18 30 27 32 28 33 29 34 30 35 31 36 32 38
REMARK SMILES IDX 33 39 34 40 98 41 35 42 97 43 36 44 37 45 38 46 91 47 39 48
REMARK SMILES IDX 96 49 90 50 92 51 40 52 95 53 89 54 88 55 41 57 75 58 54 59
REMARK SMILES IDX 74 60 55 61 58 62 73 63 93 64 56 65 57 66 72 68 94 69 59 70
REMARK SMILES IDX 42 71 43 72 52 73 44 74 45 75 51 76 53 77 46 78 47 79 48 80
REMARK SMILES IDX 49 81 50 82 76 83 77 84 86 85 78 86 79 87 85 88 87 89 80 90
REMARK SMILES IDX 81 91 82 92 83 93 84 94 60 95 61 96 70 97 62 98 63 99 69 100
REMARK SMILES IDX 71 101 64 102 65 103 66 104 67 105 68 106
REMARK H PARENT 23 7 12 20 12 21 20 29 18 31 30 37 92 56 58 67
REMARK Flexibility Score: inf
ROOT
ATOM      1  C   UNL     1       4.590   0.527  -3.824  1.00  0.00     0.002 C 
ENDROOT
BRANCH   1   2
ATOM      2  C   UNL     1       3.120   0.762  -3.478  1.00  0.00     0.021 C 
BRANCH   2   3
ATOM      3  C   UNL     1       2.595  -0.174  -2.401  1.00  0.00     0.116 C 
BRANCH   3   4
ATOM      4  N   UNL     1       3.397  -0.179  -1.196  1.00  0.00    -0.353 N 
ATOM      5  O   UNL     1       2.792   1.925  -0.512  1.00  0.00    -0.271 OA
ATOM      6  C   UNL     1       3.327   0.844  -0.274  1.00  0.00     0.257 C 
ATOM      7  H   UNL     1       4.008  -0.932  -1.030  1.00  0.00     0.163 HD
BRANCH   6   8
ATOM      8  C   UNL     1       3.969   0.521   1.081  1.00  0.00     0.329 C 
BRANCH   8   9
ATOM      9  O   UNL     1       4.315  -0.812   1.391  1.00  0.00    -0.483 OA
BRANCH   9  10
ATOM     10  C   UNL     1       3.477  -1.828   1.756  1.00  0.00     0.129 A 
ATOM     11  C   UNL     1       4.229  -2.804   2.446  1.00  0.00     0.047 A 
ATOM     12  C   UNL     1       2.123  -2.100   1.448  1.00  0.00     0.056 A 
ATOM     13  C   UNL     1       3.727  -4.070   2.727  1.00  0.00     0.004 A 
ATOM     14  C   UNL     1       1.678  -3.433   1.651  1.00  0.00     0.014 A 
ATOM     15  C   UNL     1       2.465  -4.403   2.275  1.00  0.00     0.001 A 
BRANCH  12  16
ATOM     16  C   UNL     1       1.117  -1.100   0.880  1.00  0.00     0.249 C 
ATOM     17  N   UNL     1       1.179   0.205   1.559  1.00  0.00    -0.336 N 
ATOM     18  C   UNL     1      -0.373  -1.461   0.812  1.00  0.00     0.021 A 
ATOM     19  C   UNL     1       0.646   0.185   2.928  1.00  0.00     0.266 C 
ATOM     20  H   UNL     1       0.640   0.877   1.013  1.00  0.00     0.347 HD
ATOM     21  H   UNL     1       2.165   0.459   1.626  1.00  0.00     0.347 HD
ATOM     22  C   UNL     1      -1.143  -1.267   1.984  1.00  0.00    -0.029 A 
ATOM     23  C   UNL     1      -1.011  -1.753  -0.405  1.00  0.00     0.060 A 
ATOM     24  C   UNL     1      -0.393  -0.904   3.237  1.00  0.00     0.097 C 
ATOM     25  C   UNL     1      -2.535  -1.318   1.934  1.00  0.00     0.054 A 
ATOM     26  C   UNL     1      -2.401  -1.772  -0.444  1.00  0.00     0.157 A 
ATOM     27  C   UNL     1      -3.149  -1.537   0.711  1.00  0.00     0.157 A 
BRANCH  26  28
ATOM     28  O   UNL     1      -3.091  -1.962  -1.610  1.00  0.00    -0.504 OA
ATOM     29  H   UNL     1      -4.028  -1.970  -1.604  1.00  0.00     0.293 HD
ENDBRANCH  26  28
BRANCH  27  30
ATOM     30  O   UNL     1      -4.511  -1.470   0.634  1.00  0.00    -0.504 OA
ATOM     31  H   UNL     1      -5.017  -1.312   1.407  1.00  0.00     0.293 HD
ENDBRANCH  27  30
ENDBRANCH  12  16
ENDBRANCH   9  10
ENDBRANCH   8   9
ENDBRANCH   6   8
ENDBRANCH   3   4
ENDBRANCH   2   3
ENDBRANCH   1   2
BRANCH   1  32
ATOM     32  C   UNL     1       4.923  -0.903  -4.256  1.00  0.00     0.002 C 
BRANCH  32  33
ATOM     33  C   UNL     1       4.144  -1.403  -5.474  1.00  0.00     0.021 C 
BRANCH  33  34
ATOM     34  C   UNL     1       4.239  -0.502  -6.700  1.00  0.00     0.116 C 
BRANCH  34  35
ATOM     35  N   UNL     1       5.614  -0.306  -7.131  1.00  0.00    -0.352 N 
ATOM     36  C   UNL     1       6.155  -0.441  -8.385  1.00  0.00     0.251 C 
ATOM     37  H   UNL     1       6.245  -0.040  -6.423  1.00  0.00     0.163 HD
ATOM     38  O   UNL     1       7.370  -0.419  -8.539  1.00  0.00    -0.269 OA
BRANCH  36  39
ATOM     39  C   UNL     1       5.256  -0.635  -9.541  1.00  0.00     0.039 A 
ATOM     40  C   UNL     1       5.550  -1.640 -10.465  1.00  0.00     0.014 A 
ATOM     41  C   UNL     1       4.118   0.161  -9.700  1.00  0.00     0.014 A 
ATOM     42  C   UNL     1       4.668  -1.885 -11.519  1.00  0.00     0.010 A 
ATOM     43  C   UNL     1       3.204  -0.135 -10.706  1.00  0.00     0.010 A 
ATOM     44  C   UNL     1       3.471  -1.158 -11.628  1.00  0.00    -0.014 A 
BRANCH  44  45
ATOM     45  C   UNL     1       2.484  -1.455 -12.697  1.00  0.00     0.031 A 
ATOM     46  C   UNL     1       2.155  -0.409 -13.729  1.00  0.00     0.074 A 
ATOM     47  C   UNL     1       1.837  -2.638 -12.696  1.00  0.00     0.049 A 
ATOM     48  N   UNL     1       1.273  -0.453 -14.694  1.00  0.00    -0.248 NA
ATOM     49  C   UNL     1       2.893   0.862 -13.652  1.00  0.00     0.031 C 
ATOM     50  C   UNL     1       2.036  -3.712 -11.720  1.00  0.00     0.029 A 
ATOM     51  N   UNL     1       0.870  -3.133 -13.536  1.00  0.00    -0.354 N 
ATOM     52  C   UNL     1       1.333   0.786 -15.320  1.00  0.00     0.074 A 
ATOM     53  C   UNL     1       2.308   1.577 -14.603  1.00  0.00     0.031 C 
ATOM     54  C   UNL     1       1.235  -4.744 -12.028  1.00  0.00     0.029 A 
ATOM     55  C   UNL     1       0.432  -4.393 -13.196  1.00  0.00     0.049 A 
ATOM     56  H   UNL     1       0.522  -2.634 -14.309  1.00  0.00     0.167 HD
ATOM     57  C   UNL     1       0.648   1.218 -16.405  1.00  0.00     0.037 A 
ATOM     58  C   UNL     1      -0.517  -5.170 -13.753  1.00  0.00     0.037 A 
ATOM     59  C   UNL     1      -0.291   0.409 -17.138  1.00  0.00     0.049 A 
ATOM     60  C   UNL     1      -1.261  -4.662 -14.961  1.00  0.00     0.074 A 
ATOM     61  C   UNL     1      -0.968   0.725 -18.303  1.00  0.00     0.029 A 
ATOM     62  N   UNL     1      -0.691  -0.868 -16.776  1.00  0.00    -0.354 N 
ATOM     63  N   UNL     1      -1.126  -3.520 -15.592  1.00  0.00    -0.248 NA
ATOM     64  C   UNL     1      -2.283  -5.548 -15.534  1.00  0.00     0.031 C 
ATOM     65  C   UNL     1      -1.822  -0.337 -18.612  1.00  0.00     0.029 A 
ATOM     66  C   UNL     1      -1.632  -1.340 -17.675  1.00  0.00     0.049 A 
ATOM     67  H   UNL     1      -0.356  -1.365 -15.995  1.00  0.00     0.167 HD
ATOM     68  C   UNL     1      -2.018  -3.568 -16.658  1.00  0.00     0.074 A 
ATOM     69  C   UNL     1      -2.680  -4.854 -16.592  1.00  0.00     0.031 C 
ATOM     70  C   UNL     1      -2.268  -2.632 -17.607  1.00  0.00     0.037 A 
BRANCH  57  71
ATOM     71  C   UNL     1       0.880   2.628 -16.877  1.00  0.00     0.058 A 
ATOM     72  C   UNL     1       2.079   3.017 -17.493  1.00  0.00     0.135 A 
ATOM     73  C   UNL     1      -0.146   3.583 -16.780  1.00  0.00     0.135 A 
ATOM     74  F   UNL     1       3.099   2.150 -17.598  1.00  0.00    -0.206 F 
ATOM     75  C   UNL     1       2.259   4.306 -17.985  1.00  0.00     0.059 A 
ATOM     76  C   UNL     1       0.001   4.869 -17.290  1.00  0.00     0.059 A 
ATOM     77  F   UNL     1      -1.312   3.265 -16.196  1.00  0.00    -0.206 F 
ATOM     78  C   UNL     1       1.211   5.223 -17.885  1.00  0.00     0.060 A 
BRANCH  78  79
ATOM     79  S   UNL     1       1.448   6.878 -18.566  1.00  0.00     0.124 S 
ATOM     80  O   UNL     1       2.390   7.454 -17.611  1.00  0.00    -0.237 OA
ATOM     81  O   UNL     1       1.983   6.595 -19.893  1.00  0.00    -0.237 OA
ATOM     82  O   UNL     1       0.105   7.451 -18.543  1.00  0.00    -0.744 OA
ENDBRANCH  78  79
ENDBRANCH  57  71
BRANCH  58  83
ATOM     83  C   UNL     1      -0.822  -6.513 -13.187  1.00  0.00     0.058 A 
ATOM     84  C   UNL     1      -0.536  -7.683 -13.907  1.00  0.00     0.135 A 
ATOM     85  C   UNL     1      -1.429  -6.655 -11.930  1.00  0.00     0.135 A 
ATOM     86  F   UNL     1       0.041  -7.602 -15.116  1.00  0.00    -0.206 F 
ATOM     87  C   UNL     1      -0.874  -8.942 -13.421  1.00  0.00     0.059 A 
ATOM     88  C   UNL     1      -1.749  -7.904 -11.408  1.00  0.00     0.059 A 
ATOM     89  F   UNL     1      -1.707  -5.570 -11.189  1.00  0.00    -0.206 F 
ATOM     90  C   UNL     1      -1.485  -9.041 -12.170  1.00  0.00     0.060 A 
BRANCH  90  91
ATOM     91  S   UNL     1      -1.913 -10.679 -11.542  1.00  0.00     0.124 S 
ATOM     92  O   UNL     1      -3.056 -11.024 -12.379  1.00  0.00    -0.237 OA
ATOM     93  O   UNL     1      -0.688 -11.432 -11.789  1.00  0.00    -0.237 OA
ATOM     94  O   UNL     1      -2.213 -10.429 -10.135  1.00  0.00    -0.744 OA
ENDBRANCH  90  91
ENDBRANCH  58  83
BRANCH  70  95
ATOM     95  C   UNL     1      -3.261  -2.977 -18.682  1.00  0.00     0.058 A 
ATOM     96  C   UNL     1      -4.638  -3.053 -18.423  1.00  0.00     0.135 A 
ATOM     97  C   UNL     1      -2.831  -3.174 -20.005  1.00  0.00     0.135 A 
ATOM     98  F   UNL     1      -5.102  -2.880 -17.176  1.00  0.00    -0.206 F 
ATOM     99  C   UNL     1      -5.552  -3.335 -19.434  1.00  0.00     0.059 A 
ATOM    100  C   UNL     1      -3.730  -3.425 -21.036  1.00  0.00     0.059 A 
ATOM    101  F   UNL     1      -1.525  -3.101 -20.310  1.00  0.00    -0.206 F 
ATOM    102  C   UNL     1      -5.088  -3.515 -20.738  1.00  0.00     0.060 A 
BRANCH 102 103
ATOM    103  S   UNL     1      -6.289  -3.839 -22.046  1.00  0.00     0.124 S 
ATOM    104  O   UNL     1      -6.680  -5.214 -21.752  1.00  0.00    -0.237 OA
ATOM    105  O   UNL     1      -7.306  -2.823 -21.794  1.00  0.00    -0.237 OA
ATOM    106  O   UNL     1      -5.517  -3.654 -23.271  1.00  0.00    -0.744 OA
ENDBRANCH 102 103
ENDBRANCH  70  95
ENDBRANCH  44  45
ENDBRANCH  36  39
ENDBRANCH  34  35
ENDBRANCH  33  34
ENDBRANCH  32  33
ENDBRANCH   1  32
TORSDOF 21
