REMARK SMILES C[C@]1(C(=O)NCCCCCCNC(=O)c2ccc(-c3c4nc(c(-c5c(F)cc(S(=O)(=O)[O-])cc5F)c5ccc([nH]5)c(-c5c(F)cc(S(=O)(=O)[O-])cc5F)c5nc(c(-c6c(F)cc(S(=O)(=O)[O-])cc6F)c6ccc3[nH]6)C=C5)C=C4)cc2)[NH2+]C2(C(=O)c3ccccc3C2=O)[C@@H]2C(=O)N(c3ccccc3)C(=O)[C@H]21
REMARK SMILES IDX 9 1 8 2 7 3 6 4 5 5 3 6 4 7 2 9 1 10 81 11 105 12 82 13
REMARK SMILES IDX 93 16 103 17 83 18 91 19 94 20 96 21 104 22 84 23 85 24
REMARK SMILES IDX 90 25 92 26 95 27 86 28 89 29 87 30 88 31 97 32 98 33 102 34
REMARK SMILES IDX 99 35 101 36 100 37 10 38 11 39 12 40 13 41 14 43 15 44
REMARK SMILES IDX 16 45 80 46 17 47 79 48 18 49 19 50 20 51 73 52 21 53 78 54
REMARK SMILES IDX 72 55 74 56 22 57 77 58 71 59 70 60 23 62 57 63 36 64 56 65
REMARK SMILES IDX 37 66 40 67 55 68 75 69 38 70 39 71 54 73 76 74 41 75 24 76
REMARK SMILES IDX 25 77 34 78 26 79 27 80 33 81 35 82 28 83 29 84 30 85 31 86
REMARK SMILES IDX 32 87 58 88 59 89 68 90 60 91 61 92 67 93 69 94 62 95 63 96
REMARK SMILES IDX 64 97 65 98 66 99 42 100 43 101 52 102 44 103 45 104 51 105
REMARK SMILES IDX 53 106 46 107 47 108 48 109 49 110 50 111
REMARK H PARENT 5 8 81 14 81 15 12 42 74 61 40 72
REMARK Flexibility Score: inf
ROOT
ATOM      1  C   UNL     1      -4.208   1.058  -5.614  1.00  0.00     0.002 C 
ENDROOT
BRANCH   1   2
ATOM      2  C   UNL     1      -4.513  -0.013  -4.557  1.00  0.00     0.002 C 
BRANCH   2   3
ATOM      3  C   UNL     1      -3.328  -0.798  -4.006  1.00  0.00     0.021 C 
BRANCH   3   4
ATOM      4  C   UNL     1      -2.162   0.019  -3.467  1.00  0.00     0.116 C 
BRANCH   4   5
ATOM      5  N   UNL     1      -2.095   0.237  -2.052  1.00  0.00    -0.351 N 
ATOM      6  C   UNL     1      -1.040   0.191  -1.188  1.00  0.00     0.281 C 
ATOM      7  O   UNL     1      -1.369   0.382  -0.005  1.00  0.00    -0.268 OA
ATOM      8  H   UNL     1      -2.957   0.458  -1.632  1.00  0.00     0.163 HD
BRANCH   6   9
ATOM      9  C   UNL     1       0.495  -0.070  -1.550  1.00  0.00     0.186 C 
ATOM     10  C   UNL     1       1.241  -0.059  -0.186  1.00  0.00     0.091 C 
ATOM     11  N   UNL     1       0.757  -1.410  -2.219  1.00  0.00    -0.314 N 
ATOM     12  C   UNL     1       1.224   0.867  -2.472  1.00  0.00     0.170 C 
ATOM     13  C   UNL     1       1.281  -1.169  -3.638  1.00  0.00     0.236 C 
ATOM     14  H   UNL     1      -0.111  -1.945  -2.261  1.00  0.00     0.348 HD
ATOM     15  H   UNL     1       1.448  -1.933  -1.681  1.00  0.00     0.348 HD
ATOM     16  C   UNL     1       1.038   0.296  -3.861  1.00  0.00     0.177 C 
ATOM     17  C   UNL     1       0.917   2.300  -2.701  1.00  0.00     0.244 C 
ATOM     18  C   UNL     1       2.729  -1.635  -3.837  1.00  0.00     0.232 C 
ATOM     19  C   UNL     1       0.517  -2.124  -4.580  1.00  0.00     0.232 C 
ATOM     20  C   UNL     1       1.740   1.352  -4.649  1.00  0.00     0.245 C 
ATOM     21  N   UNL     1       1.412   2.539  -3.983  1.00  0.00    -0.250 N 
ATOM     22  O   UNL     1       0.389   3.048  -1.903  1.00  0.00    -0.273 OA
ATOM     23  O   UNL     1       3.700  -1.258  -3.205  1.00  0.00    -0.286 OA
ATOM     24  C   UNL     1       2.753  -2.680  -4.878  1.00  0.00     0.036 A 
ATOM     25  C   UNL     1       1.461  -2.965  -5.282  1.00  0.00     0.036 A 
ATOM     26  O   UNL     1      -0.679  -2.274  -4.755  1.00  0.00    -0.286 OA
ATOM     27  O   UNL     1       2.299   1.163  -5.715  1.00  0.00    -0.273 OA
ATOM     28  C   UNL     1       3.815  -3.374  -5.428  1.00  0.00     0.013 A 
ATOM     29  C   UNL     1       1.149  -3.944  -6.211  1.00  0.00     0.013 A 
ATOM     30  C   UNL     1       3.529  -4.361  -6.388  1.00  0.00     0.001 A 
ATOM     31  C   UNL     1       2.206  -4.649  -6.772  1.00  0.00     0.001 A 
BRANCH  21  32
ATOM     32  C   UNL     1       1.338   3.817  -4.566  1.00  0.00     0.052 A 
ATOM     33  C   UNL     1       1.851   4.929  -3.885  1.00  0.00     0.027 A 
ATOM     34  C   UNL     1       0.609   4.006  -5.745  1.00  0.00     0.027 A 
ATOM     35  C   UNL     1       1.649   6.216  -4.385  1.00  0.00     0.002 A 
ATOM     36  C   UNL     1       0.361   5.300  -6.210  1.00  0.00     0.002 A 
ATOM     37  C   UNL     1       0.886   6.402  -5.535  1.00  0.00     0.000 A 
ENDBRANCH  21  32
ENDBRANCH   6   9
ENDBRANCH   4   5
ENDBRANCH   3   4
ENDBRANCH   2   3
ENDBRANCH   1   2
BRANCH   1  38
ATOM     38  C   UNL     1      -3.322   0.661  -6.799  1.00  0.00     0.021 C 
BRANCH  38  39
ATOM     39  C   UNL     1      -3.740  -0.575  -7.592  1.00  0.00     0.116 C 
BRANCH  39  40
ATOM     40  N   UNL     1      -5.112  -0.521  -8.072  1.00  0.00    -0.352 N 
ATOM     41  C   UNL     1      -5.618  -0.608  -9.348  1.00  0.00     0.251 C 
ATOM     42  H   UNL     1      -5.790  -0.402  -7.368  1.00  0.00     0.163 HD
ATOM     43  O   UNL     1      -6.818  -0.434  -9.539  1.00  0.00    -0.269 OA
BRANCH  41  44
ATOM     44  C   UNL     1      -4.720  -0.871 -10.495  1.00  0.00     0.039 A 
ATOM     45  C   UNL     1      -3.743  -1.865 -10.436  1.00  0.00     0.014 A 
ATOM     46  C   UNL     1      -4.859  -0.097 -11.653  1.00  0.00     0.014 A 
ATOM     47  C   UNL     1      -2.796  -1.963 -11.453  1.00  0.00     0.010 A 
ATOM     48  C   UNL     1      -3.955  -0.254 -12.709  1.00  0.00     0.010 A 
ATOM     49  C   UNL     1      -2.881  -1.149 -12.595  1.00  0.00    -0.014 A 
BRANCH  49  50
ATOM     50  C   UNL     1      -1.822  -1.227 -13.637  1.00  0.00     0.031 A 
ATOM     51  C   UNL     1      -0.924  -0.044 -13.904  1.00  0.00     0.074 A 
ATOM     52  C   UNL     1      -1.623  -2.384 -14.299  1.00  0.00     0.049 A 
ATOM     53  N   UNL     1       0.058   0.069 -14.763  1.00  0.00    -0.248 NA
ATOM     54  C   UNL     1      -1.157   1.169 -13.104  1.00  0.00     0.031 C 
ATOM     55  C   UNL     1      -2.409  -3.606 -14.114  1.00  0.00     0.029 A 
ATOM     56  N   UNL     1      -0.685  -2.733 -15.238  1.00  0.00    -0.354 N 
ATOM     57  C   UNL     1       0.554   1.360 -14.611  1.00  0.00     0.074 A 
ATOM     58  C   UNL     1      -0.261   2.007 -13.607  1.00  0.00     0.031 C 
ATOM     59  C   UNL     1      -1.887  -4.583 -14.870  1.00  0.00     0.029 A 
ATOM     60  C   UNL     1      -0.772  -4.045 -15.643  1.00  0.00     0.049 A 
ATOM     61  H   UNL     1      -0.014  -2.104 -15.590  1.00  0.00     0.167 HD
ATOM     62  C   UNL     1       1.605   1.945 -15.236  1.00  0.00     0.037 A 
ATOM     63  C   UNL     1      -0.045  -4.736 -16.542  1.00  0.00     0.037 A 
ATOM     64  C   UNL     1       2.424   1.292 -16.225  1.00  0.00     0.049 A 
ATOM     65  C   UNL     1       1.069  -4.040 -17.274  1.00  0.00     0.074 A 
ATOM     66  C   UNL     1       3.508   1.804 -16.917  1.00  0.00     0.029 A 
ATOM     67  N   UNL     1       2.256  -0.015 -16.657  1.00  0.00    -0.354 N 
ATOM     68  N   UNL     1       1.512  -2.815 -17.126  1.00  0.00    -0.248 NA
ATOM     69  C   UNL     1       1.773  -4.816 -18.303  1.00  0.00     0.031 C 
ATOM     70  C   UNL     1       3.972   0.820 -17.796  1.00  0.00     0.029 A 
ATOM     71  C   UNL     1       3.207  -0.321 -17.618  1.00  0.00     0.049 A 
ATOM     72  H   UNL     1       1.564  -0.634 -16.330  1.00  0.00     0.167 HD
ATOM     73  C   UNL     1       2.558  -2.678 -18.032  1.00  0.00     0.074 A 
ATOM     74  C   UNL     1       2.692  -3.951 -18.710  1.00  0.00     0.031 C 
ATOM     75  C   UNL     1       3.332  -1.594 -18.283  1.00  0.00     0.037 A 
BRANCH  62  76
ATOM     76  C   UNL     1       1.939   3.367 -14.871  1.00  0.00     0.058 A 
ATOM     77  C   UNL     1       2.531   3.687 -13.639  1.00  0.00     0.135 A 
ATOM     78  C   UNL     1       1.728   4.411 -15.787  1.00  0.00     0.135 A 
ATOM     79  F   UNL     1       2.740   2.731 -12.720  1.00  0.00    -0.206 F 
ATOM     80  C   UNL     1       2.888   4.994 -13.322  1.00  0.00     0.059 A 
ATOM     81  C   UNL     1       2.100   5.722 -15.500  1.00  0.00     0.059 A 
ATOM     82  F   UNL     1       1.165   4.161 -16.979  1.00  0.00    -0.206 F 
ATOM     83  C   UNL     1       2.673   6.004 -14.261  1.00  0.00     0.060 A 
BRANCH  83  84
ATOM     84  S   UNL     1       3.160   7.690 -13.836  1.00  0.00     0.124 S 
ATOM     85  O   UNL     1       2.185   8.024 -12.802  1.00  0.00    -0.237 OA
ATOM     86  O   UNL     1       4.533   7.509 -13.376  1.00  0.00    -0.237 OA
ATOM     87  O   UNL     1       3.013   8.416 -15.093  1.00  0.00    -0.744 OA
ENDBRANCH  83  84
ENDBRANCH  62  76
BRANCH  63  88
ATOM     88  C   UNL     1      -0.348  -6.169 -16.797  1.00  0.00     0.058 A 
ATOM     89  C   UNL     1       0.548  -7.174 -16.405  1.00  0.00     0.135 A 
ATOM     90  C   UNL     1      -1.543  -6.564 -17.419  1.00  0.00     0.135 A 
ATOM     91  F   UNL     1       1.707  -6.847 -15.814  1.00  0.00    -0.206 F 
ATOM     92  C   UNL     1       0.275  -8.520 -16.627  1.00  0.00     0.059 A 
ATOM     93  C   UNL     1      -1.851  -7.904 -17.627  1.00  0.00     0.059 A 
ATOM     94  F   UNL     1      -2.438  -5.641 -17.803  1.00  0.00    -0.206 F 
ATOM     95  C   UNL     1      -0.931  -8.875 -17.234  1.00  0.00     0.060 A 
BRANCH  95  96
ATOM     96  S   UNL     1      -1.297 -10.627 -17.468  1.00  0.00     0.124 S 
ATOM     97  O   UNL     1      -0.357 -10.985 -18.525  1.00  0.00    -0.237 OA
ATOM     98  O   UNL     1      -1.011 -11.177 -16.147  1.00  0.00    -0.237 OA
ATOM     99  O   UNL     1      -2.706 -10.629 -17.848  1.00  0.00    -0.744 OA
ENDBRANCH  95  96
ENDBRANCH  63  88
BRANCH  75 100
ATOM    100  C   UNL     1       4.410  -1.736 -19.321  1.00  0.00     0.058 A 
ATOM    101  C   UNL     1       4.107  -1.782 -20.690  1.00  0.00     0.135 A 
ATOM    102  C   UNL     1       5.763  -1.759 -18.945  1.00  0.00     0.135 A 
ATOM    103  F   UNL     1       2.829  -1.772 -21.101  1.00  0.00    -0.206 F 
ATOM    104  C   UNL     1       5.109  -1.861 -21.652  1.00  0.00     0.059 A 
ATOM    105  C   UNL     1       6.782  -1.811 -19.892  1.00  0.00     0.059 A 
ATOM    106  F   UNL     1       6.106  -1.709 -17.648  1.00  0.00    -0.206 F 
ATOM    107  C   UNL     1       6.444  -1.870 -21.243  1.00  0.00     0.060 A 
BRANCH 107 108
ATOM    108  S   UNL     1       7.732  -1.928 -22.506  1.00  0.00     0.124 S 
ATOM    109  O   UNL     1       7.602  -3.296 -22.996  1.00  0.00    -0.237 OA
ATOM    110  O   UNL     1       7.308  -0.881 -23.430  1.00  0.00    -0.237 OA
ATOM    111  O   UNL     1       8.954  -1.642 -21.761  1.00  0.00    -0.744 OA
ENDBRANCH 107 108
ENDBRANCH  75 100
ENDBRANCH  49  50
ENDBRANCH  41  44
ENDBRANCH  39  40
ENDBRANCH  38  39
ENDBRANCH   1  38
TORSDOF 17
