REMARK SMILES O=C1C[C@@H](c2cccc(O)c2)c2c(c(C(=O)NCCCCCCNC(=O)c3ccc(-c4c5nc(c(-c6c(F)cc(S(=O)(=O)[O-])cc6F)c6ccc([nH]6)c(-c6c(F)cc(S(=O)(=O)[O-])cc6F)c6nc(c(-c7c(F)cc(S(=O)(=O)[O-])cc7F)c7ccc4[nH]7)C=C6)C=C5)cc3)cn2-c2cccc(C(F)(F)F)c2)N1
REMARK SMILES IDX 21 1 20 2 19 3 18 4 17 5 15 6 16 7 14 9 1 10 2 11 3 12
REMARK SMILES IDX 105 13 4 14 13 15 12 17 94 18 93 19 5 20 6 21 11 22 7 23
REMARK SMILES IDX 9 24 8 25 10 26 95 28 96 29 104 30 97 31 99 32 98 33 100 34
REMARK SMILES IDX 101 35 102 36 103 37 22 38 23 39 24 40 25 41 26 43 27 44
REMARK SMILES IDX 28 45 92 46 29 47 91 48 30 49 31 50 32 51 85 52 33 53 90 54
REMARK SMILES IDX 84 55 86 56 34 57 89 58 83 59 82 60 35 62 69 63 48 64 68 65
REMARK SMILES IDX 49 66 52 67 67 68 87 69 50 70 51 71 66 73 88 74 53 75 36 76
REMARK SMILES IDX 37 77 46 78 38 79 39 80 45 81 47 82 40 83 41 84 42 85 43 86
REMARK SMILES IDX 44 87 70 88 71 89 80 90 72 91 73 92 79 93 81 94 74 95 75 96
REMARK SMILES IDX 76 97 77 98 78 99 54 100 55 101 64 102 56 103 57 104 63 105
REMARK SMILES IDX 65 106 58 107 59 108 60 109 61 110 62 111
REMARK H PARENT 17 8 105 16 10 27 24 42 86 61 52 72
REMARK Flexibility Score: inf
ROOT
ATOM      1  C   UNL     1       8.044  -6.252   4.576  1.00  0.00     0.002 C 
ENDROOT
BRANCH   1   2
ATOM      2  C   UNL     1       6.628  -5.844   5.010  1.00  0.00     0.002 C 
BRANCH   2   3
ATOM      3  C   UNL     1       6.336  -4.346   5.023  1.00  0.00     0.021 C 
BRANCH   3   4
ATOM      4  C   UNL     1       6.708  -3.601   3.747  1.00  0.00     0.116 C 
BRANCH   4   5
ATOM      5  N   UNL     1       5.827  -3.895   2.638  1.00  0.00    -0.352 N 
ATOM      6  C   UNL     1       5.070  -3.091   1.824  1.00  0.00     0.254 C 
ATOM      7  O   UNL     1       4.352  -3.655   0.995  1.00  0.00    -0.269 OA
ATOM      8  H   UNL     1       5.757  -4.854   2.427  1.00  0.00     0.163 HD
BRANCH   6   9
ATOM      9  C   UNL     1       5.076  -1.633   1.930  1.00  0.00     0.081 A 
ATOM     10  O   UNL     1       1.531  -0.367  -1.026  1.00  0.00    -0.275 OA
ATOM     11  C   UNL     1       2.466  -0.082  -0.278  1.00  0.00     0.225 C 
ATOM     12  C   UNL     1       3.044   1.329  -0.222  1.00  0.00     0.115 C 
ATOM     13  N   UNL     1       3.135  -1.054   0.425  1.00  0.00    -0.324 N 
ATOM     14  C   UNL     1       3.656   1.719   1.139  1.00  0.00     0.078 C 
ATOM     15  C   UNL     1       4.151  -0.759   1.303  1.00  0.00     0.076 A 
ATOM     16  H   UNL     1       2.877  -1.996   0.295  1.00  0.00     0.170 HD
ATOM     17  C   UNL     1       4.398   0.538   1.690  1.00  0.00     0.055 A 
ATOM     18  N   UNL     1       5.473   0.515   2.553  1.00  0.00    -0.317 N 
ATOM     19  C   UNL     1       5.987  -0.773   2.520  1.00  0.00     0.107 A 
BRANCH  14  20
ATOM     20  C   UNL     1       2.601   2.273   2.077  1.00  0.00    -0.035 A 
ATOM     21  C   UNL     1       1.589   1.467   2.625  1.00  0.00     0.005 A 
ATOM     22  C   UNL     1       2.675   3.619   2.470  1.00  0.00     0.050 A 
ATOM     23  C   UNL     1       0.711   1.981   3.581  1.00  0.00     0.004 A 
ATOM     24  C   UNL     1       1.818   4.108   3.448  1.00  0.00     0.115 A 
ATOM     25  C   UNL     1       0.835   3.301   4.008  1.00  0.00     0.046 A 
BRANCH  24  26
ATOM     26  O   UNL     1       2.017   5.385   3.884  1.00  0.00    -0.508 OA
ATOM     27  H   UNL     1       1.457   5.748   4.543  1.00  0.00     0.293 HD
ENDBRANCH  24  26
ENDBRANCH  14  20
BRANCH  18  28
ATOM     28  C   UNL     1       6.003   1.527   3.396  1.00  0.00     0.046 A 
ATOM     29  C   UNL     1       7.393   1.659   3.522  1.00  0.00     0.026 A 
ATOM     30  C   UNL     1       5.160   2.264   4.234  1.00  0.00     0.039 A 
ATOM     31  C   UNL     1       7.931   2.554   4.446  1.00  0.00     0.003 A 
ATOM     32  C   UNL     1       5.694   3.165   5.173  1.00  0.00     0.058 A 
ATOM     33  C   UNL     1       7.088   3.307   5.261  1.00  0.00     0.013 A 
BRANCH  32  34
ATOM     34  C   UNL     1       4.805   3.963   6.102  1.00  0.00     0.416 C 
ATOM     35  F   UNL     1       5.184   3.845   7.404  1.00  0.00    -0.166 F 
ATOM     36  F   UNL     1       4.845   5.297   5.824  1.00  0.00    -0.166 F 
ATOM     37  F   UNL     1       3.493   3.611   6.059  1.00  0.00    -0.166 F 
ENDBRANCH  32  34
ENDBRANCH  18  28
ENDBRANCH   6   9
ENDBRANCH   4   5
ENDBRANCH   3   4
ENDBRANCH   2   3
ENDBRANCH   1   2
BRANCH   1  38
ATOM     38  C   UNL     1       9.220  -5.537   5.262  1.00  0.00     0.021 C 
BRANCH  38  39
ATOM     39  C   UNL     1       9.330  -5.808   6.753  1.00  0.00     0.116 C 
BRANCH  39  40
ATOM     40  N   UNL     1       9.612  -7.217   7.044  1.00  0.00    -0.352 N 
ATOM     41  C   UNL     1       9.706  -7.862   8.269  1.00  0.00     0.251 C 
ATOM     42  H   UNL     1       9.756  -7.789   6.256  1.00  0.00     0.163 HD
ATOM     43  O   UNL     1      10.317  -8.912   8.373  1.00  0.00    -0.269 OA
BRANCH  41  44
ATOM     44  C   UNL     1       9.028  -7.263   9.435  1.00  0.00     0.039 A 
ATOM     45  C   UNL     1       9.510  -7.371  10.745  1.00  0.00     0.014 A 
ATOM     46  C   UNL     1       7.863  -6.558   9.175  1.00  0.00     0.014 A 
ATOM     47  C   UNL     1       8.798  -6.744  11.770  1.00  0.00     0.010 A 
ATOM     48  C   UNL     1       7.367  -5.707  10.110  1.00  0.00     0.010 A 
ATOM     49  C   UNL     1       7.714  -5.925  11.430  1.00  0.00    -0.014 A 
BRANCH  49  50
ATOM     50  C   UNL     1       6.919  -5.180  12.390  1.00  0.00     0.031 A 
ATOM     51  C   UNL     1       7.663  -4.050  12.994  1.00  0.00     0.074 A 
ATOM     52  C   UNL     1       5.569  -5.287  12.419  1.00  0.00     0.049 A 
ATOM     53  N   UNL     1       8.170  -3.983  14.179  1.00  0.00    -0.248 NA
ATOM     54  C   UNL     1       8.113  -2.968  12.097  1.00  0.00     0.031 C 
ATOM     55  C   UNL     1       4.694  -6.096  11.557  1.00  0.00     0.029 A 
ATOM     56  N   UNL     1       4.671  -4.584  13.159  1.00  0.00    -0.354 N 
ATOM     57  C   UNL     1       8.738  -2.715  14.255  1.00  0.00     0.074 A 
ATOM     58  C   UNL     1       8.954  -2.308  12.896  1.00  0.00     0.031 C 
ATOM     59  C   UNL     1       3.415  -5.670  11.674  1.00  0.00     0.029 A 
ATOM     60  C   UNL     1       3.347  -4.665  12.717  1.00  0.00     0.049 A 
ATOM     61  H   UNL     1       4.934  -4.057  13.949  1.00  0.00     0.167 HD
ATOM     62  C   UNL     1       8.659  -1.977  15.399  1.00  0.00     0.037 A 
ATOM     63  C   UNL     1       2.314  -3.899  13.166  1.00  0.00     0.037 A 
ATOM     64  C   UNL     1       8.225  -2.808  16.502  1.00  0.00     0.049 A 
ATOM     65  C   UNL     1       2.759  -3.315  14.466  1.00  0.00     0.074 A 
ATOM     66  C   UNL     1       8.681  -3.985  17.068  1.00  0.00     0.029 A 
ATOM     67  N   UNL     1       6.916  -2.685  16.911  1.00  0.00    -0.354 N 
ATOM     68  N   UNL     1       2.985  -4.026  15.538  1.00  0.00    -0.248 NA
ATOM     69  C   UNL     1       3.443  -2.030  14.415  1.00  0.00     0.031 C 
ATOM     70  C   UNL     1       7.502  -4.741  17.345  1.00  0.00     0.029 A 
ATOM     71  C   UNL     1       6.397  -3.948  17.035  1.00  0.00     0.049 A 
ATOM     72  H   UNL     1       6.439  -1.841  17.083  1.00  0.00     0.167 HD
ATOM     73  C   UNL     1       4.148  -3.494  16.080  1.00  0.00     0.074 A 
ATOM     74  C   UNL     1       4.353  -2.230  15.373  1.00  0.00     0.031 C 
ATOM     75  C   UNL     1       5.002  -4.264  16.821  1.00  0.00     0.037 A 
BRANCH  62  76
ATOM     76  C   UNL     1       8.560  -0.461  15.454  1.00  0.00     0.058 A 
ATOM     77  C   UNL     1       8.536   0.162  16.721  1.00  0.00     0.135 A 
ATOM     78  C   UNL     1       8.232   0.384  14.369  1.00  0.00     0.135 A 
ATOM     79  F   UNL     1       8.852  -0.527  17.829  1.00  0.00    -0.206 F 
ATOM     80  C   UNL     1       8.116   1.479  16.905  1.00  0.00     0.059 A 
ATOM     81  C   UNL     1       7.861   1.715  14.525  1.00  0.00     0.059 A 
ATOM     82  F   UNL     1       8.166  -0.038  13.104  1.00  0.00    -0.206 F 
ATOM     83  C   UNL     1       7.762   2.242  15.799  1.00  0.00     0.060 A 
BRANCH  83  84
ATOM     84  S   UNL     1       7.133   3.910  16.035  1.00  0.00     0.124 S 
ATOM     85  O   UNL     1       5.850   3.647  16.675  1.00  0.00    -0.237 OA
ATOM     86  O   UNL     1       8.164   4.500  16.882  1.00  0.00    -0.237 OA
ATOM     87  O   UNL     1       7.068   4.439  14.676  1.00  0.00    -0.744 OA
ENDBRANCH  83  84
ENDBRANCH  62  76
BRANCH  63  88
ATOM     88  C   UNL     1       1.146  -3.344  12.418  1.00  0.00     0.058 A 
ATOM     89  C   UNL     1       0.094  -2.692  13.094  1.00  0.00     0.135 A 
ATOM     90  C   UNL     1       1.182  -3.160  11.022  1.00  0.00     0.135 A 
ATOM     91  F   UNL     1      -0.024  -2.807  14.426  1.00  0.00    -0.206 F 
ATOM     92  C   UNL     1      -0.811  -1.845  12.440  1.00  0.00     0.059 A 
ATOM     93  C   UNL     1       0.285  -2.329  10.347  1.00  0.00     0.059 A 
ATOM     94  F   UNL     1       2.155  -3.705  10.277  1.00  0.00    -0.206 F 
ATOM     95  C   UNL     1      -0.687  -1.644  11.067  1.00  0.00     0.060 A 
BRANCH  95  96
ATOM     96  S   UNL     1      -1.698  -0.381  10.251  1.00  0.00     0.124 S 
ATOM     97  O   UNL     1      -3.025  -0.984  10.287  1.00  0.00    -0.237 OA
ATOM     98  O   UNL     1      -1.500   0.779  11.113  1.00  0.00    -0.237 OA
ATOM     99  O   UNL     1      -1.097  -0.274   8.923  1.00  0.00    -0.744 OA
ENDBRANCH  95  96
ENDBRANCH  63  88
BRANCH  75 100
ATOM    100  C   UNL     1       4.532  -5.620  17.288  1.00  0.00     0.058 A 
ATOM    101  C   UNL     1       4.154  -6.682  16.445  1.00  0.00     0.135 A 
ATOM    102  C   UNL     1       4.603  -5.895  18.662  1.00  0.00     0.135 A 
ATOM    103  F   UNL     1       4.169  -6.544  15.112  1.00  0.00    -0.206 F 
ATOM    104  C   UNL     1       3.808  -7.938  16.951  1.00  0.00     0.059 A 
ATOM    105  C   UNL     1       4.298  -7.147  19.184  1.00  0.00     0.059 A 
ATOM    106  F   UNL     1       5.020  -4.946  19.516  1.00  0.00    -0.206 F 
ATOM    107  C   UNL     1       3.879  -8.159  18.326  1.00  0.00     0.060 A 
BRANCH 107 108
ATOM    108  S   UNL     1       3.457  -9.786  18.985  1.00  0.00     0.124 S 
ATOM    109  O   UNL     1       2.016  -9.842  18.762  1.00  0.00    -0.237 OA
ATOM    110  O   UNL     1       4.262 -10.682  18.160  1.00  0.00    -0.237 OA
ATOM    111  O   UNL     1       3.868  -9.704  20.385  1.00  0.00    -0.744 OA
ENDBRANCH 107 108
ENDBRANCH  75 100
ENDBRANCH  49  50
ENDBRANCH  41  44
ENDBRANCH  39  40
ENDBRANCH  38  39
ENDBRANCH   1  38
TORSDOF 20
