REMARK SMILES O=C(NCCCCCCNC(=O)c1cc2nn[nH]n2n1)c1ccc(-c2c3nc(c(-c4c(F)cc(S(=O)(=O)[O-])cc4F)c4ccc([nH]4)c(-c4c(F)cc(S(=O)(=O)[O-])cc4F)c4nc(c(-c5c(F)cc(S(=O)(=O)[O-])cc5F)c5ccc2[nH]5)C=C4)C=C3)cc1
REMARK SMILES IDX 5 1 4 2 3 3 1 4 2 5 21 7 22 8 86 9 23 10 85 11 24 12 25 13
REMARK SMILES IDX 26 14 79 15 27 16 84 17 78 18 80 19 28 20 83 21 77 22 76 23
REMARK SMILES IDX 29 25 63 26 42 27 62 28 43 29 46 30 61 31 81 32 44 33 45 34
REMARK SMILES IDX 60 36 82 37 47 38 30 39 31 40 40 41 32 42 33 43 39 44 41 45
REMARK SMILES IDX 34 46 35 47 36 48 37 49 38 50 64 51 65 52 74 53 66 54 67 55
REMARK SMILES IDX 73 56 75 57 68 58 69 59 70 60 71 61 72 62 48 63 49 64 58 65
REMARK SMILES IDX 50 66 51 67 57 68 59 69 52 70 53 71 54 72 55 73 56 74 6 75
REMARK SMILES IDX 7 76 8 77 9 78 10 79 11 80 12 82 13 83 14 84 20 85 15 86
REMARK SMILES IDX 19 87 16 88 18 89 17 90
REMARK H PARENT 3 6 80 24 46 35 10 81 18 91
REMARK Flexibility Score: inf
ROOT
ATOM      1  C   UNL     1       4.784  -0.626   2.301  1.00  0.00     0.021 C 
ENDROOT
BRANCH   1   2
ATOM      2  C   UNL     1       4.655  -0.888   0.801  1.00  0.00     0.116 C 
BRANCH   2   3
ATOM      3  N   UNL     1       3.300  -1.103   0.341  1.00  0.00    -0.352 N 
ATOM      4  O   UNL     1       1.244  -0.825  -0.421  1.00  0.00    -0.269 OA
ATOM      5  C   UNL     1       2.244  -0.282   0.057  1.00  0.00     0.251 C 
ATOM      6  H   UNL     1       3.092  -2.054   0.200  1.00  0.00     0.163 HD
BRANCH   5   7
ATOM      7  C   UNL     1       2.203   1.178   0.340  1.00  0.00     0.039 A 
ATOM      8  C   UNL     1       3.314   2.004   0.517  1.00  0.00     0.014 A 
ATOM      9  C   UNL     1       0.920   1.750   0.418  1.00  0.00     0.014 A 
ATOM     10  C   UNL     1       3.151   3.349   0.843  1.00  0.00     0.010 A 
ATOM     11  C   UNL     1       0.750   3.096   0.721  1.00  0.00     0.010 A 
ATOM     12  C   UNL     1       1.869   3.890   0.962  1.00  0.00    -0.014 A 
BRANCH  12  13
ATOM     13  C   UNL     1       1.742   5.327   1.202  1.00  0.00     0.031 A 
ATOM     14  C   UNL     1       2.193   6.208   0.082  1.00  0.00     0.074 A 
ATOM     15  C   UNL     1       1.096   5.843   2.267  1.00  0.00     0.049 A 
ATOM     16  N   UNL     1       3.099   7.133   0.091  1.00  0.00    -0.248 NA
ATOM     17  C   UNL     1       1.606   5.966  -1.247  1.00  0.00     0.031 C 
ATOM     18  C   UNL     1       0.319   5.122   3.278  1.00  0.00     0.029 A 
ATOM     19  N   UNL     1       0.896   7.150   2.599  1.00  0.00    -0.354 N 
ATOM     20  C   UNL     1       3.070   7.718  -1.177  1.00  0.00     0.074 A 
ATOM     21  C   UNL     1       2.235   6.875  -1.992  1.00  0.00     0.031 C 
ATOM     22  C   UNL     1      -0.445   6.003   3.960  1.00  0.00     0.029 A 
ATOM     23  C   UNL     1      -0.121   7.351   3.523  1.00  0.00     0.049 A 
ATOM     24  H   UNL     1       1.425   7.887   2.216  1.00  0.00     0.167 HD
ATOM     25  C   UNL     1       3.584   8.956  -1.425  1.00  0.00     0.037 A 
ATOM     26  C   UNL     1      -0.711   8.532   3.840  1.00  0.00     0.037 A 
ATOM     27  C   UNL     1       4.464   9.389  -0.374  1.00  0.00     0.049 A 
ATOM     28  C   UNL     1       0.208   9.621   3.418  1.00  0.00     0.074 A 
ATOM     29  C   UNL     1       5.647   8.922   0.162  1.00  0.00     0.029 A 
ATOM     30  N   UNL     1       3.990  10.316   0.521  1.00  0.00    -0.354 N 
ATOM     31  N   UNL     1       1.368   9.859   3.965  1.00  0.00    -0.248 NA
ATOM     32  C   UNL     1       0.014  10.202   2.098  1.00  0.00     0.031 C 
ATOM     33  C   UNL     1       5.565   9.220   1.553  1.00  0.00     0.029 A 
ATOM     34  C   UNL     1       4.357   9.885   1.770  1.00  0.00     0.049 A 
ATOM     35  H   UNL     1       3.484  11.133   0.308  1.00  0.00     0.167 HD
ATOM     36  C   UNL     1       2.185  10.245   2.914  1.00  0.00     0.074 A 
ATOM     37  C   UNL     1       1.274  10.536   1.811  1.00  0.00     0.031 C 
ATOM     38  C   UNL     1       3.534  10.032   2.949  1.00  0.00     0.037 A 
BRANCH  25  39
ATOM     39  C   UNL     1       3.048   9.920  -2.459  1.00  0.00     0.058 A 
ATOM     40  C   UNL     1       3.783  11.083  -2.776  1.00  0.00     0.135 A 
ATOM     41  C   UNL     1       1.717   9.894  -2.927  1.00  0.00     0.135 A 
ATOM     42  F   UNL     1       5.058  11.217  -2.377  1.00  0.00    -0.206 F 
ATOM     43  C   UNL     1       3.211  12.171  -3.438  1.00  0.00     0.059 A 
ATOM     44  C   UNL     1       1.144  10.945  -3.636  1.00  0.00     0.059 A 
ATOM     45  F   UNL     1       0.879   8.893  -2.630  1.00  0.00    -0.206 F 
ATOM     46  C   UNL     1       1.882  12.099  -3.845  1.00  0.00     0.060 A 
BRANCH  46  47
ATOM     47  S   UNL     1       1.102  13.548  -4.579  1.00  0.00     0.124 S 
ATOM     48  O   UNL     1       1.004  14.438  -3.428  1.00  0.00    -0.237 OA
ATOM     49  O   UNL     1       2.070  13.929  -5.603  1.00  0.00    -0.237 OA
ATOM     50  O   UNL     1      -0.164  13.026  -5.086  1.00  0.00    -0.744 OA
ENDBRANCH  46  47
ENDBRANCH  25  39
BRANCH  26  51
ATOM     51  C   UNL     1      -2.140   8.780   4.170  1.00  0.00     0.058 A 
ATOM     52  C   UNL     1      -2.562  10.002   4.725  1.00  0.00     0.135 A 
ATOM     53  C   UNL     1      -3.161   7.933   3.692  1.00  0.00     0.135 A 
ATOM     54  F   UNL     1      -1.659  10.883   5.181  1.00  0.00    -0.206 F 
ATOM     55  C   UNL     1      -3.909  10.380   4.763  1.00  0.00     0.059 A 
ATOM     56  C   UNL     1      -4.510   8.281   3.732  1.00  0.00     0.059 A 
ATOM     57  F   UNL     1      -2.872   6.775   3.080  1.00  0.00    -0.206 F 
ATOM     58  C   UNL     1      -4.876   9.518   4.245  1.00  0.00     0.060 A 
BRANCH  58  59
ATOM     59  S   UNL     1      -6.594  10.071   4.127  1.00  0.00     0.124 S 
ATOM     60  O   UNL     1      -7.001  10.091   5.528  1.00  0.00    -0.237 OA
ATOM     61  O   UNL     1      -6.456  11.373   3.483  1.00  0.00    -0.237 OA
ATOM     62  O   UNL     1      -7.226   9.039   3.308  1.00  0.00    -0.744 OA
ENDBRANCH  58  59
ENDBRANCH  26  51
BRANCH  38  63
ATOM     63  C   UNL     1       4.170   9.669   4.263  1.00  0.00     0.058 A 
ATOM     64  C   UNL     1       3.893   8.490   4.978  1.00  0.00     0.135 A 
ATOM     65  C   UNL     1       5.222  10.471   4.732  1.00  0.00     0.135 A 
ATOM     66  F   UNL     1       2.978   7.615   4.539  1.00  0.00    -0.206 F 
ATOM     67  C   UNL     1       4.606   8.145   6.127  1.00  0.00     0.059 A 
ATOM     68  C   UNL     1       5.968  10.130   5.856  1.00  0.00     0.059 A 
ATOM     69  F   UNL     1       5.577  11.577   4.057  1.00  0.00    -0.206 F 
ATOM     70  C   UNL     1       5.646   8.969   6.556  1.00  0.00     0.060 A 
BRANCH  70  71
ATOM     71  S   UNL     1       6.630   8.467   7.985  1.00  0.00     0.124 S 
ATOM     72  O   UNL     1       5.708   8.699   9.091  1.00  0.00    -0.237 OA
ATOM     73  O   UNL     1       6.927   7.067   7.690  1.00  0.00    -0.237 OA
ATOM     74  O   UNL     1       7.785   9.361   7.935  1.00  0.00    -0.744 OA
ENDBRANCH  70  71
ENDBRANCH  38  63
ENDBRANCH  12  13
ENDBRANCH   5   7
ENDBRANCH   2   3
ENDBRANCH   1   2
BRANCH   1  75
ATOM     75  C   UNL     1       4.277  -1.760   3.201  1.00  0.00     0.002 C 
BRANCH  75  76
ATOM     76  C   UNL     1       4.845  -3.153   2.908  1.00  0.00     0.002 C 
BRANCH  76  77
ATOM     77  C   UNL     1       6.374  -3.257   2.891  1.00  0.00     0.021 C 
BRANCH  77  78
ATOM     78  C   UNL     1       7.061  -2.889   4.205  1.00  0.00     0.116 C 
BRANCH  78  79
ATOM     79  N   UNL     1       6.770  -3.853   5.253  1.00  0.00    -0.351 N 
ATOM     80  C   UNL     1       7.629  -4.686   5.923  1.00  0.00     0.271 C 
ATOM     81  H   UNL     1       5.824  -3.916   5.520  1.00  0.00     0.163 HD
ATOM     82  O   UNL     1       7.154  -5.583   6.635  1.00  0.00    -0.267 OA
BRANCH  80  83
ATOM     83  C   UNL     1       9.074  -4.479   5.783  1.00  0.00     0.154 A 
ATOM     84  C   UNL     1       9.795  -3.238   5.955  1.00  0.00     0.089 A 
ATOM     85  N   UNL     1       9.916  -5.499   5.471  1.00  0.00    -0.143 NA
ATOM     86  C   UNL     1      11.090  -3.573   5.684  1.00  0.00     0.199 A 
ATOM     87  N   UNL     1      11.079  -4.883   5.436  1.00  0.00    -0.135 N 
ATOM     88  N   UNL     1      12.355  -3.109   5.570  1.00  0.00    -0.109 NA
ATOM     89  N   UNL     1      12.316  -5.218   5.128  1.00  0.00    -0.177 N 
ATOM     90  N   UNL     1      13.115  -4.100   5.282  1.00  0.00    -0.050 NA
ATOM     91  H   UNL     1      12.618  -6.110   4.840  1.00  0.00     0.216 HD
ENDBRANCH  80  83
ENDBRANCH  78  79
ENDBRANCH  77  78
ENDBRANCH  76  77
ENDBRANCH  75  76
ENDBRANCH   1  75
TORSDOF 16
