REMARK SMILES O=C(NCCCCCCNC(=O)c1ccccc1/N=C/c1coc2ccccc2c1=O)c1ccc(-c2c3nc(c(-c4c(F)cc(S(=O)(=O)[O-])cc4F)c4ccc([nH]4)c(-c4c(F)cc(S(=O)(=O)[O-])cc4F)c4nc(c(-c5c(F)cc(S(=O)(=O)[O-])cc5F)c5ccc2[nH]5)C=C4)C=C3)cc1
REMARK SMILES IDX 6 1 5 2 4 3 3 4 1 5 2 6 32 8 33 9 97 10 34 11 96 12 35 13
REMARK SMILES IDX 36 14 37 15 90 16 38 17 95 18 89 19 91 20 39 21 94 22 88 23
REMARK SMILES IDX 87 24 40 26 74 27 53 28 73 29 54 30 57 31 72 32 92 33 55 34
REMARK SMILES IDX 56 35 71 37 93 38 58 39 41 40 42 41 51 42 43 43 44 44 50 45
REMARK SMILES IDX 52 46 45 47 46 48 47 49 48 50 49 51 75 52 76 53 85 54 77 55
REMARK SMILES IDX 78 56 84 57 86 58 79 59 80 60 81 61 82 62 83 63 59 64 60 65
REMARK SMILES IDX 69 66 61 67 62 68 68 69 70 70 63 71 64 72 65 73 66 74 67 75
REMARK SMILES IDX 7 76 8 77 9 78 10 79 11 80 12 82 13 83 14 84 18 85 15 86
REMARK SMILES IDX 17 87 16 88 19 89 20 90 21 91 22 92 30 93 23 94 29 95 31 96
REMARK SMILES IDX 24 97 28 98 25 99 27 100 26 101
REMARK H PARENT 3 7 91 25 57 36 10 81
REMARK Flexibility Score: inf
ROOT
ATOM      1  C   UNL     1       4.154  -0.124  -3.888  1.00  0.00     0.002 C 
ENDROOT
BRANCH   1   2
ATOM      2  C   UNL     1       4.741  -0.668  -2.585  1.00  0.00     0.021 C 
BRANCH   2   3
ATOM      3  C   UNL     1       4.482   0.156  -1.328  1.00  0.00     0.116 C 
BRANCH   3   4
ATOM      4  N   UNL     1       3.071   0.297  -1.016  1.00  0.00    -0.352 N 
ATOM      5  O   UNL     1       1.185   0.248   0.198  1.00  0.00    -0.269 OA
ATOM      6  C   UNL     1       2.414   0.202   0.186  1.00  0.00     0.251 C 
ATOM      7  H   UNL     1       2.493   0.491  -1.789  1.00  0.00     0.163 HD
BRANCH   6   8
ATOM      8  C   UNL     1       3.150   0.025   1.464  1.00  0.00     0.039 A 
ATOM      9  C   UNL     1       4.338   0.707   1.740  1.00  0.00     0.014 A 
ATOM     10  C   UNL     1       2.590  -0.804   2.445  1.00  0.00     0.014 A 
ATOM     11  C   UNL     1       5.009   0.486   2.945  1.00  0.00     0.010 A 
ATOM     12  C   UNL     1       3.236  -0.987   3.673  1.00  0.00     0.010 A 
ATOM     13  C   UNL     1       4.463  -0.360   3.924  1.00  0.00    -0.014 A 
BRANCH  13  14
ATOM     14  C   UNL     1       5.169  -0.536   5.218  1.00  0.00     0.031 A 
ATOM     15  C   UNL     1       5.852  -1.830   5.559  1.00  0.00     0.074 A 
ATOM     16  C   UNL     1       5.222   0.496   6.082  1.00  0.00     0.049 A 
ATOM     17  N   UNL     1       6.551  -2.135   6.624  1.00  0.00    -0.248 NA
ATOM     18  C   UNL     1       5.734  -2.924   4.583  1.00  0.00     0.031 C 
ATOM     19  C   UNL     1       4.583   1.798   5.881  1.00  0.00     0.029 A 
ATOM     20  N   UNL     1       5.864   0.621   7.287  1.00  0.00    -0.354 N 
ATOM     21  C   UNL     1       6.935  -3.460   6.461  1.00  0.00     0.074 A 
ATOM     22  C   UNL     1       6.391  -3.902   5.193  1.00  0.00     0.031 C 
ATOM     23  C   UNL     1       4.909   2.607   6.901  1.00  0.00     0.029 A 
ATOM     24  C   UNL     1       5.759   1.875   7.836  1.00  0.00     0.049 A 
ATOM     25  H   UNL     1       6.353  -0.118   7.718  1.00  0.00     0.167 HD
ATOM     26  C   UNL     1       7.673  -4.237   7.289  1.00  0.00     0.037 A 
ATOM     27  C   UNL     1       6.299   2.387   8.957  1.00  0.00     0.037 A 
ATOM     28  C   UNL     1       8.240  -3.800   8.538  1.00  0.00     0.049 A 
ATOM     29  C   UNL     1       7.163   1.527   9.829  1.00  0.00     0.074 A 
ATOM     30  C   UNL     1       9.000  -4.522   9.443  1.00  0.00     0.029 A 
ATOM     31  N   UNL     1       8.118  -2.519   9.055  1.00  0.00    -0.354 N 
ATOM     32  N   UNL     1       7.507   0.274   9.661  1.00  0.00    -0.248 NA
ATOM     33  C   UNL     1       7.707   2.149  11.044  1.00  0.00     0.031 C 
ATOM     34  C   UNL     1       9.338  -3.676  10.508  1.00  0.00     0.029 A 
ATOM     35  C   UNL     1       8.793  -2.427  10.261  1.00  0.00     0.049 A 
ATOM     36  H   UNL     1       7.624  -1.783   8.627  1.00  0.00     0.167 HD
ATOM     37  C   UNL     1       8.300  -0.049  10.754  1.00  0.00     0.074 A 
ATOM     38  C   UNL     1       8.402   1.147  11.567  1.00  0.00     0.031 C 
ATOM     39  C   UNL     1       8.882  -1.233  11.060  1.00  0.00     0.037 A 
BRANCH  26  40
ATOM     40  C   UNL     1       7.902  -5.656   6.864  1.00  0.00     0.058 A 
ATOM     41  C   UNL     1       8.928  -5.990   5.968  1.00  0.00     0.135 A 
ATOM     42  C   UNL     1       7.092  -6.690   7.358  1.00  0.00     0.135 A 
ATOM     43  F   UNL     1       9.717  -5.032   5.457  1.00  0.00    -0.206 F 
ATOM     44  C   UNL     1       9.134  -7.304   5.560  1.00  0.00     0.059 A 
ATOM     45  C   UNL     1       7.285  -8.012   6.970  1.00  0.00     0.059 A 
ATOM     46  F   UNL     1       6.094  -6.416   8.213  1.00  0.00    -0.206 F 
ATOM     47  C   UNL     1       8.299  -8.306   6.057  1.00  0.00     0.060 A 
BRANCH  47  48
ATOM     48  S   UNL     1       8.550 -10.012   5.520  1.00  0.00     0.124 S 
ATOM     49  O   UNL     1       7.733 -10.056   4.311  1.00  0.00    -0.237 OA
ATOM     50  O   UNL     1       9.993 -10.079   5.309  1.00  0.00    -0.237 OA
ATOM     51  O   UNL     1       8.050 -10.792   6.648  1.00  0.00    -0.744 OA
ENDBRANCH  47  48
ENDBRANCH  26  40
BRANCH  27  52
ATOM     52  C   UNL     1       6.058   3.810   9.290  1.00  0.00     0.058 A 
ATOM     53  C   UNL     1       6.999   4.790   8.946  1.00  0.00     0.135 A 
ATOM     54  C   UNL     1       4.863   4.220   9.896  1.00  0.00     0.135 A 
ATOM     55  F   UNL     1       8.155   4.435   8.364  1.00  0.00    -0.206 F 
ATOM     56  C   UNL     1       6.761   6.138   9.184  1.00  0.00     0.059 A 
ATOM     57  C   UNL     1       4.599   5.564  10.136  1.00  0.00     0.059 A 
ATOM     58  F   UNL     1       3.933   3.313  10.230  1.00  0.00    -0.206 F 
ATOM     59  C   UNL     1       5.555   6.516   9.776  1.00  0.00     0.060 A 
BRANCH  59  60
ATOM     60  S   UNL     1       5.186   8.270  10.004  1.00  0.00     0.124 S 
ATOM     61  O   UNL     1       5.662   8.494  11.363  1.00  0.00    -0.237 OA
ATOM     62  O   UNL     1       5.962   8.905   8.944  1.00  0.00    -0.237 OA
ATOM     63  O   UNL     1       3.738   8.319   9.820  1.00  0.00    -0.744 OA
ENDBRANCH  59  60
ENDBRANCH  27  52
BRANCH  39  64
ATOM     64  C   UNL     1       9.669  -1.290  12.333  1.00  0.00     0.058 A 
ATOM     65  C   UNL     1       9.034  -1.530  13.561  1.00  0.00     0.135 A 
ATOM     66  C   UNL     1      11.060  -1.115  12.329  1.00  0.00     0.135 A 
ATOM     67  F   UNL     1       7.703  -1.697  13.612  1.00  0.00    -0.206 F 
ATOM     68  C   UNL     1       9.753  -1.580  14.751  1.00  0.00     0.059 A 
ATOM     69  C   UNL     1      11.800  -1.167  13.506  1.00  0.00     0.059 A 
ATOM     70  F   UNL     1      11.708  -0.882  11.177  1.00  0.00    -0.206 F 
ATOM     71  C   UNL     1      11.135  -1.389  14.714  1.00  0.00     0.060 A 
BRANCH  71  72
ATOM     72  S   UNL     1      12.081  -1.464  16.251  1.00  0.00     0.124 S 
ATOM     73  O   UNL     1      12.023  -0.077  16.698  1.00  0.00    -0.237 OA
ATOM     74  O   UNL     1      11.322  -2.419  17.054  1.00  0.00    -0.237 OA
ATOM     75  O   UNL     1      13.391  -1.932  15.809  1.00  0.00    -0.744 OA
ENDBRANCH  71  72
ENDBRANCH  39  64
ENDBRANCH  13  14
ENDBRANCH   6   8
ENDBRANCH   3   4
ENDBRANCH   2   3
ENDBRANCH   1   2
BRANCH   1  76
ATOM     76  C   UNL     1       4.631   1.268  -4.309  1.00  0.00     0.002 C 
BRANCH  76  77
ATOM     77  C   UNL     1       6.143   1.447  -4.498  1.00  0.00     0.021 C 
BRANCH  77  78
ATOM     78  C   UNL     1       6.846   0.413  -5.380  1.00  0.00     0.116 C 
BRANCH  78  79
ATOM     79  N   UNL     1       6.232   0.266  -6.689  1.00  0.00    -0.352 N 
ATOM     80  C   UNL     1       6.822  -0.008  -7.895  1.00  0.00     0.253 C 
ATOM     81  H   UNL     1       5.255   0.379  -6.713  1.00  0.00     0.163 HD
ATOM     82  O   UNL     1       6.129  -0.162  -8.899  1.00  0.00    -0.269 OA
BRANCH  80  83
ATOM     83  C   UNL     1       8.287  -0.076  -8.037  1.00  0.00     0.065 A 
ATOM     84  C   UNL     1       8.879   0.837  -8.926  1.00  0.00     0.016 A 
ATOM     85  C   UNL     1       9.074  -1.034  -7.390  1.00  0.00     0.076 A 
ATOM     86  C   UNL     1      10.259   0.828  -9.137  1.00  0.00     0.001 A 
ATOM     87  C   UNL     1      10.460  -1.025  -7.614  1.00  0.00     0.029 A 
ATOM     88  C   UNL     1      11.053  -0.105  -8.479  1.00  0.00     0.002 A 
BRANCH  85  89
ATOM     89  N   UNL     1       8.636  -1.936  -6.423  1.00  0.00    -0.255 NA
ATOM     90  C   UNL     1       7.815  -2.897  -6.700  1.00  0.00     0.127 C 
BRANCH  90  91
ATOM     91  C   UNL     1       7.662  -3.925  -5.652  1.00  0.00     0.076 A 
ATOM     92  C   UNL     1       8.297  -5.069  -5.955  1.00  0.00     0.209 A 
ATOM     93  C   UNL     1       7.699  -3.530  -4.225  1.00  0.00     0.201 A 
ATOM     94  O   UNL     1       9.032  -5.806  -5.037  1.00  0.00    -0.463 OA
ATOM     95  C   UNL     1       8.953  -3.900  -3.558  1.00  0.00     0.065 A 
ATOM     96  O   UNL     1       6.817  -2.873  -3.692  1.00  0.00    -0.288 OA
ATOM     97  C   UNL     1       9.602  -5.040  -4.037  1.00  0.00     0.137 A 
ATOM     98  C   UNL     1       9.550  -3.064  -2.616  1.00  0.00     0.016 A 
ATOM     99  C   UNL     1      10.871  -5.361  -3.567  1.00  0.00     0.048 A 
ATOM    100  C   UNL     1      10.836  -3.368  -2.171  1.00  0.00     0.001 A 
ATOM    101  C   UNL     1      11.493  -4.510  -2.646  1.00  0.00     0.004 A 
ENDBRANCH  90  91
ENDBRANCH  85  89
ENDBRANCH  80  83
ENDBRANCH  78  79
ENDBRANCH  77  78
ENDBRANCH  76  77
ENDBRANCH   1  76
TORSDOF 18
