REMARK SMILES Cc1ccccc1C(=O)Nc1cc(C(=O)NCCCCCCNC(=O)c2ccc(-c3c4nc(c(-c5c(F)cc(S(=O)(=O)[O-])cc5F)c5ccc([nH]5)c(-c5c(F)cc(S(=O)(=O)[O-])cc5F)c5nc(c(-c6c(F)cc(S(=O)(=O)[O-])cc6F)c6ccc3[nH]6)C=C5)C=C4)cc2)ccc1N1CC[NH+](CC(=O)Nc2ccc(F)cc2)CC1
REMARK SMILES IDX 19 1 18 2 17 3 16 4 14 5 15 6 13 8 11 9 12 10 94 11 93 12
REMARK SMILES IDX 92 13 10 14 8 15 9 16 7 18 1 19 2 20 3 21 4 22 6 23 5 24
REMARK SMILES IDX 95 25 96 26 111 27 97 28 110 29 98 30 99 32 100 33 101 34
REMARK SMILES IDX 102 35 103 37 104 38 109 39 105 40 108 41 106 42 107 43
REMARK SMILES IDX 20 44 21 45 22 46 23 47 24 48 25 50 26 51 27 52 91 53 28 54
REMARK SMILES IDX 90 55 29 56 30 57 31 58 84 59 32 60 89 61 83 62 85 63 33 64
REMARK SMILES IDX 88 65 82 66 81 67 34 69 68 70 47 71 67 72 48 73 51 74 66 75
REMARK SMILES IDX 86 76 49 77 50 78 65 80 87 81 52 82 35 83 36 84 45 85 37 86
REMARK SMILES IDX 38 87 44 88 46 89 39 90 40 91 41 92 42 93 43 94 69 95 70 96
REMARK SMILES IDX 79 97 71 98 72 99 78 100 80 101 73 102 74 103 75 104 76 105
REMARK SMILES IDX 77 106 53 107 54 108 63 109 55 110 56 111 62 112 64 113
REMARK SMILES IDX 57 114 58 115 59 116 60 117 61 118
REMARK H PARENT 16 7 10 17 98 31 102 36 23 49 85 68 51 79
REMARK Flexibility Score: inf
ROOT
ATOM      1  C   UNL     1       0.332  -1.489  -5.301  1.00  0.00     0.002 C 
ENDROOT
BRANCH   1   2
ATOM      2  C   UNL     1       1.037  -0.764  -4.146  1.00  0.00     0.021 C 
BRANCH   2   3
ATOM      3  C   UNL     1       1.212  -1.618  -2.887  1.00  0.00     0.116 C 
BRANCH   3   4
ATOM      4  N   UNL     1       2.469  -2.348  -2.894  1.00  0.00    -0.352 N 
ATOM      5  C   UNL     1       3.712  -2.099  -2.362  1.00  0.00     0.251 C 
ATOM      6  O   UNL     1       4.559  -2.988  -2.474  1.00  0.00    -0.269 OA
ATOM      7  H   UNL     1       2.421  -3.201  -3.383  1.00  0.00     0.163 HD
BRANCH   5   8
ATOM      8  C   UNL     1       4.080  -0.857  -1.615  1.00  0.00     0.042 A 
ATOM      9  C   UNL     1       3.654   1.366  -0.751  1.00  0.00     0.065 A 
ATOM     10  C   UNL     1       3.327   0.305  -1.603  1.00  0.00     0.042 A 
ATOM     11  C   UNL     1       4.852   1.391   0.023  1.00  0.00     0.061 A 
ATOM     12  C   UNL     1       5.655   0.247  -0.089  1.00  0.00     0.029 A 
ATOM     13  C   UNL     1       5.264  -0.864  -0.862  1.00  0.00     0.016 A 
BRANCH   9  14
ATOM     14  N   UNL     1       2.759   2.442  -0.697  1.00  0.00    -0.320 N 
ATOM     15  C   UNL     1       1.440   2.453  -0.275  1.00  0.00     0.255 C 
ATOM     16  O   UNL     1       0.934   3.549  -0.013  1.00  0.00    -0.269 OA
ATOM     17  H   UNL     1       3.115   3.308  -1.000  1.00  0.00     0.170 HD
BRANCH  15  18
ATOM     18  C   UNL     1       0.581   1.243  -0.094  1.00  0.00     0.043 A 
ATOM     19  C   UNL     1       2.069  -0.152   1.508  1.00  0.00     0.045 C 
ATOM     20  C   UNL     1       0.848   0.086   0.670  1.00  0.00    -0.038 A 
ATOM     21  C   UNL     1      -0.114  -0.951   0.688  1.00  0.00     0.004 A 
ATOM     22  C   UNL     1      -1.350  -0.810   0.060  1.00  0.00     0.000 A 
ATOM     23  C   UNL     1      -0.693   1.380  -0.684  1.00  0.00     0.014 A 
ATOM     24  C   UNL     1      -1.652   0.370  -0.601  1.00  0.00     0.001 A 
ENDBRANCH  15  18
ENDBRANCH   9  14
BRANCH  11  25
ATOM     25  N   UNL     1       5.200   2.440   0.875  1.00  0.00    -0.359 N 
ATOM     26  C   UNL     1       6.551   2.584   1.485  1.00  0.00     0.178 C 
ATOM     27  C   UNL     1       4.183   3.110   1.687  1.00  0.00     0.178 C 
ATOM     28  C   UNL     1       6.820   4.020   2.089  1.00  0.00     0.284 C 
ATOM     29  C   UNL     1       4.525   4.600   1.722  1.00  0.00     0.284 C 
ATOM     30  N   UNL     1       5.685   4.839   2.575  1.00  0.00    -0.324 N 
ATOM     31  H   UNL     1       5.993   5.807   2.485  1.00  0.00     0.348 HD
BRANCH  30  32
ATOM     32  C   UNL     1       5.389   4.835   4.024  1.00  0.00     0.364 C 
BRANCH  32  33
ATOM     33  C   UNL     1       5.246   3.483   4.718  1.00  0.00     0.279 C 
ATOM     34  O   UNL     1       6.253   2.780   4.902  1.00  0.00    -0.268 OA
ATOM     35  N   UNL     1       4.080   2.988   5.235  1.00  0.00    -0.321 N 
ATOM     36  H   UNL     1       4.254   2.268   5.883  1.00  0.00     0.170 HD
BRANCH  35  37
ATOM     37  C   UNL     1       2.697   3.228   5.092  1.00  0.00     0.041 A 
ATOM     38  C   UNL     1       1.845   2.398   5.844  1.00  0.00     0.029 A 
ATOM     39  C   UNL     1       2.106   4.119   4.202  1.00  0.00     0.029 A 
ATOM     40  C   UNL     1       0.456   2.425   5.665  1.00  0.00     0.041 A 
ATOM     41  C   UNL     1       0.721   4.114   3.979  1.00  0.00     0.041 A 
ATOM     42  C   UNL     1      -0.093   3.266   4.712  1.00  0.00     0.123 A 
ATOM     43  F   UNL     1      -1.415   3.262   4.504  1.00  0.00    -0.207 F 
ENDBRANCH  35  37
ENDBRANCH  32  33
ENDBRANCH  30  32
ENDBRANCH  11  25
ENDBRANCH   5   8
ENDBRANCH   3   4
ENDBRANCH   2   3
ENDBRANCH   1   2
BRANCH   1  44
ATOM     44  C   UNL     1      -1.092  -2.003  -5.017  1.00  0.00     0.002 C 
BRANCH  44  45
ATOM     45  C   UNL     1      -2.059  -1.000  -4.383  1.00  0.00     0.021 C 
BRANCH  45  46
ATOM     46  C   UNL     1      -2.439   0.151  -5.300  1.00  0.00     0.116 C 
BRANCH  46  47
ATOM     47  N   UNL     1      -3.597  -0.106  -6.143  1.00  0.00    -0.352 N 
ATOM     48  C   UNL     1      -4.333   0.960  -6.664  1.00  0.00     0.251 C 
ATOM     49  H   UNL     1      -3.861  -1.032  -6.346  1.00  0.00     0.163 HD
ATOM     50  O   UNL     1      -5.485   1.210  -6.391  1.00  0.00    -0.269 OA
BRANCH  48  51
ATOM     51  C   UNL     1      -3.544   1.829  -7.568  1.00  0.00     0.039 A 
ATOM     52  C   UNL     1      -3.576   1.612  -8.947  1.00  0.00     0.014 A 
ATOM     53  C   UNL     1      -2.585   2.654  -6.985  1.00  0.00     0.014 A 
ATOM     54  C   UNL     1      -2.542   2.118  -9.737  1.00  0.00     0.010 A 
ATOM     55  C   UNL     1      -1.518   3.070  -7.752  1.00  0.00     0.010 A 
ATOM     56  C   UNL     1      -1.478   2.778  -9.123  1.00  0.00    -0.014 A 
BRANCH  56  57
ATOM     57  C   UNL     1      -0.236   3.154  -9.793  1.00  0.00     0.031 A 
ATOM     58  C   UNL     1       0.084   4.584 -10.023  1.00  0.00     0.074 A 
ATOM     59  C   UNL     1       0.703   2.214 -10.040  1.00  0.00     0.049 A 
ATOM     60  N   UNL     1       1.017   5.003 -10.810  1.00  0.00    -0.248 NA
ATOM     61  C   UNL     1      -0.656   5.672  -9.392  1.00  0.00     0.031 C 
ATOM     62  C   UNL     1       2.125   2.437 -10.286  1.00  0.00     0.029 A 
ATOM     63  N   UNL     1       0.515   0.858 -10.308  1.00  0.00    -0.354 N 
ATOM     64  C   UNL     1       1.190   6.350 -10.586  1.00  0.00     0.074 A 
ATOM     65  C   UNL     1       0.093   6.728  -9.726  1.00  0.00     0.031 C 
ATOM     66  C   UNL     1       2.638   1.361 -10.897  1.00  0.00     0.029 A 
ATOM     67  C   UNL     1       1.533   0.473 -11.204  1.00  0.00     0.049 A 
ATOM     68  H   UNL     1      -0.193   0.280  -9.942  1.00  0.00     0.167 HD
ATOM     69  C   UNL     1       2.313   6.968 -11.055  1.00  0.00     0.037 A 
ATOM     70  C   UNL     1       1.239   0.009 -12.456  1.00  0.00     0.037 A 
ATOM     71  C   UNL     1       3.136   6.046 -11.834  1.00  0.00     0.049 A 
ATOM     72  C   UNL     1       1.805   0.853 -13.577  1.00  0.00     0.074 A 
ATOM     73  C   UNL     1       4.255   5.289 -11.524  1.00  0.00     0.029 A 
ATOM     74  N   UNL     1       2.664   5.570 -13.051  1.00  0.00    -0.354 N 
ATOM     75  N   UNL     1       2.248   2.071 -13.425  1.00  0.00    -0.248 NA
ATOM     76  C   UNL     1       1.921   0.396 -14.959  1.00  0.00     0.031 C 
ATOM     77  C   UNL     1       4.433   4.325 -12.547  1.00  0.00     0.029 A 
ATOM     78  C   UNL     1       3.431   4.505 -13.485  1.00  0.00     0.049 A 
ATOM     79  H   UNL     1       1.892   5.939 -13.537  1.00  0.00     0.167 HD
ATOM     80  C   UNL     1       2.673   2.571 -14.632  1.00  0.00     0.074 A 
ATOM     81  C   UNL     1       2.474   1.469 -15.554  1.00  0.00     0.031 C 
ATOM     82  C   UNL     1       3.144   3.851 -14.754  1.00  0.00     0.037 A 
BRANCH  69  83
ATOM     83  C   UNL     1       2.792   8.326 -10.582  1.00  0.00     0.058 A 
ATOM     84  C   UNL     1       4.172   8.616 -10.485  1.00  0.00     0.135 A 
ATOM     85  C   UNL     1       1.944   9.370 -10.164  1.00  0.00     0.135 A 
ATOM     86  F   UNL     1       5.104   7.762 -10.928  1.00  0.00    -0.206 F 
ATOM     87  C   UNL     1       4.666   9.792  -9.916  1.00  0.00     0.059 A 
ATOM     88  C   UNL     1       2.413  10.531  -9.538  1.00  0.00     0.059 A 
ATOM     89  F   UNL     1       0.623   9.322 -10.389  1.00  0.00    -0.206 F 
ATOM     90  C   UNL     1       3.780  10.729  -9.408  1.00  0.00     0.060 A 
BRANCH  90  91
ATOM     91  S   UNL     1       4.439  12.192  -8.587  1.00  0.00     0.124 S 
ATOM     92  O   UNL     1       5.341  11.611  -7.597  1.00  0.00    -0.237 OA
ATOM     93  O   UNL     1       5.080  12.898  -9.691  1.00  0.00    -0.237 OA
ATOM     94  O   UNL     1       3.251  12.837  -8.036  1.00  0.00    -0.744 OA
ENDBRANCH  90  91
ENDBRANCH  69  83
BRANCH  70  95
ATOM     95  C   UNL     1      -0.021  -0.785 -12.489  1.00  0.00     0.058 A 
ATOM     96  C   UNL     1      -0.017  -2.012 -11.795  1.00  0.00     0.135 A 
ATOM     97  C   UNL     1      -1.260  -0.165 -12.699  1.00  0.00     0.135 A 
ATOM     98  F   UNL     1       1.141  -2.663 -11.594  1.00  0.00    -0.206 F 
ATOM     99  C   UNL     1      -1.154  -2.492 -11.153  1.00  0.00     0.059 A 
ATOM    100  C   UNL     1      -2.418  -0.640 -12.077  1.00  0.00     0.059 A 
ATOM    101  F   UNL     1      -1.331   0.996 -13.368  1.00  0.00    -0.206 F 
ATOM    102  C   UNL     1      -2.328  -1.748 -11.230  1.00  0.00     0.060 A 
BRANCH 102 103
ATOM    103  S   UNL     1      -3.669  -2.151 -10.081  1.00  0.00     0.124 S 
ATOM    104  O   UNL     1      -3.827  -3.587 -10.284  1.00  0.00    -0.237 OA
ATOM    105  O   UNL     1      -3.100  -1.754  -8.791  1.00  0.00    -0.237 OA
ATOM    106  O   UNL     1      -4.773  -1.323 -10.552  1.00  0.00    -0.744 OA
ENDBRANCH 102 103
ENDBRANCH  70  95
BRANCH  82 107
ATOM    107  C   UNL     1       3.469   4.605 -16.034  1.00  0.00     0.058 A 
ATOM    108  C   UNL     1       2.929   4.312 -17.297  1.00  0.00     0.135 A 
ATOM    109  C   UNL     1       4.266   5.782 -15.985  1.00  0.00     0.135 A 
ATOM    110  F   UNL     1       2.071   3.300 -17.475  1.00  0.00    -0.206 F 
ATOM    111  C   UNL     1       3.203   5.084 -18.432  1.00  0.00     0.059 A 
ATOM    112  C   UNL     1       4.502   6.598 -17.090  1.00  0.00     0.059 A 
ATOM    113  F   UNL     1       4.837   6.200 -14.846  1.00  0.00    -0.206 F 
ATOM    114  C   UNL     1       3.986   6.228 -18.320  1.00  0.00     0.060 A 
BRANCH 114 115
ATOM    115  S   UNL     1       4.270   7.273 -19.760  1.00  0.00     0.124 S 
ATOM    116  O   UNL     1       5.488   6.687 -20.310  1.00  0.00    -0.237 OA
ATOM    117  O   UNL     1       3.060   7.070 -20.551  1.00  0.00    -0.237 OA
ATOM    118  O   UNL     1       4.413   8.606 -19.182  1.00  0.00    -0.744 OA
ENDBRANCH 114 115
ENDBRANCH  82 107
ENDBRANCH  56  57
ENDBRANCH  48  51
ENDBRANCH  46  47
ENDBRANCH  45  46
ENDBRANCH  44  45
ENDBRANCH   1  44
TORSDOF 22
