REMARK SMILES O=C(NCCCCCCNC(=O)[C@H]1C[C@H]2CCCC[C@@H]2[N@@H+]1C1CCSCC1)c1ccc(-c2c3nc(c(-c4c(F)cc(S(=O)(=O)[O-])cc4F)c4ccc([nH]4)c(-c4c(F)cc(S(=O)(=O)[O-])cc4F)c4nc(c(-c5c(F)cc(S(=O)(=O)[O-])cc5F)c5ccc2[nH]5)C=C4)C=C3)cc1
REMARK SMILES IDX 5 1 4 2 3 3 1 4 2 5 28 7 29 8 93 9 30 10 92 11 31 12 32 13
REMARK SMILES IDX 33 14 86 15 34 16 91 17 85 18 87 19 35 20 90 21 84 22 83 23
REMARK SMILES IDX 36 25 70 26 49 27 69 28 50 29 53 30 68 31 88 32 51 33 52 34
REMARK SMILES IDX 67 36 89 37 54 38 37 39 38 40 47 41 39 42 40 43 46 44 48 45
REMARK SMILES IDX 41 46 42 47 43 48 44 49 45 50 71 51 72 52 81 53 73 54 74 55
REMARK SMILES IDX 80 56 82 57 75 58 76 59 77 60 78 61 79 62 55 63 56 64 65 65
REMARK SMILES IDX 57 66 58 67 64 68 66 69 59 70 60 71 61 72 62 73 63 74 6 75
REMARK SMILES IDX 7 76 8 77 9 78 10 79 11 80 12 82 13 83 14 84 21 85 15 86
REMARK SMILES IDX 20 87 16 89 19 90 17 91 18 92 22 93 23 94 27 95 24 96 26 97
REMARK SMILES IDX 25 98
REMARK H PARENT 3 6 87 24 53 35 10 81 21 88
REMARK Flexibility Score: inf
ROOT
ATOM      1  C   UNL     1       4.788  -5.823   1.968  1.00  0.00     0.021 C 
ENDROOT
BRANCH   1   2
ATOM      2  C   UNL     1       3.393  -5.206   1.940  1.00  0.00     0.116 C 
BRANCH   2   3
ATOM      3  N   UNL     1       2.997  -4.844   0.589  1.00  0.00    -0.352 N 
ATOM      4  O   UNL     1       1.967  -5.133  -1.395  1.00  0.00    -0.269 OA
ATOM      5  C   UNL     1       2.000  -5.373  -0.186  1.00  0.00     0.251 C 
ATOM      6  H   UNL     1       3.517  -4.119   0.173  1.00  0.00     0.163 HD
BRANCH   5   7
ATOM      7  C   UNL     1       0.972  -6.234   0.429  1.00  0.00     0.039 A 
ATOM      8  C   UNL     1       0.349  -5.851   1.622  1.00  0.00     0.014 A 
ATOM      9  C   UNL     1       0.606  -7.419  -0.211  1.00  0.00     0.014 A 
ATOM     10  C   UNL     1      -0.567  -6.704   2.229  1.00  0.00     0.010 A 
ATOM     11  C   UNL     1      -0.364  -8.240   0.365  1.00  0.00     0.010 A 
ATOM     12  C   UNL     1      -0.946  -7.896   1.597  1.00  0.00    -0.014 A 
BRANCH  12  13
ATOM     13  C   UNL     1      -2.004  -8.753   2.186  1.00  0.00     0.031 A 
ATOM     14  C   UNL     1      -1.691 -10.143   2.655  1.00  0.00     0.074 A 
ATOM     15  C   UNL     1      -3.264  -8.281   2.243  1.00  0.00     0.049 A 
ATOM     16  N   UNL     1      -2.505 -11.068   3.094  1.00  0.00    -0.248 NA
ATOM     17  C   UNL     1      -0.279 -10.552   2.616  1.00  0.00     0.031 C 
ATOM     18  C   UNL     1      -3.682  -6.947   1.806  1.00  0.00     0.029 A 
ATOM     19  N   UNL     1      -4.426  -8.872   2.667  1.00  0.00    -0.354 N 
ATOM     20  C   UNL     1      -1.713 -12.178   3.358  1.00  0.00     0.074 A 
ATOM     21  C   UNL     1      -0.355 -11.816   3.010  1.00  0.00     0.031 C 
ATOM     22  C   UNL     1      -5.005  -6.823   1.980  1.00  0.00     0.029 A 
ATOM     23  C   UNL     1      -5.537  -8.086   2.479  1.00  0.00     0.049 A 
ATOM     24  H   UNL     1      -4.460  -9.772   3.066  1.00  0.00     0.167 HD
ATOM     25  C   UNL     1      -2.089 -13.385   3.845  1.00  0.00     0.037 A 
ATOM     26  C   UNL     1      -6.845  -8.361   2.647  1.00  0.00     0.037 A 
ATOM     27  C   UNL     1      -3.448 -13.726   4.183  1.00  0.00     0.049 A 
ATOM     28  C   UNL     1      -7.247  -9.714   3.155  1.00  0.00     0.074 A 
ATOM     29  C   UNL     1      -3.930 -14.905   4.724  1.00  0.00     0.029 A 
ATOM     30  N   UNL     1      -4.545 -12.896   3.993  1.00  0.00    -0.354 N 
ATOM     31  N   UNL     1      -6.482 -10.740   3.446  1.00  0.00    -0.248 NA
ATOM     32  C   UNL     1      -8.680  -9.951   3.364  1.00  0.00     0.031 C 
ATOM     33  C   UNL     1      -5.323 -14.809   4.808  1.00  0.00     0.029 A 
ATOM     34  C   UNL     1      -5.706 -13.547   4.379  1.00  0.00     0.049 A 
ATOM     35  H   UNL     1      -4.505 -11.980   3.636  1.00  0.00     0.167 HD
ATOM     36  C   UNL     1      -7.339 -11.737   3.896  1.00  0.00     0.074 A 
ATOM     37  C   UNL     1      -8.680 -11.191   3.838  1.00  0.00     0.031 C 
ATOM     38  C   UNL     1      -7.036 -12.987   4.325  1.00  0.00     0.037 A 
BRANCH  25  39
ATOM     39  C   UNL     1      -1.021 -14.435   4.000  1.00  0.00     0.058 A 
ATOM     40  C   UNL     1      -0.003 -14.327   4.961  1.00  0.00     0.135 A 
ATOM     41  C   UNL     1      -1.013 -15.567   3.168  1.00  0.00     0.135 A 
ATOM     42  F   UNL     1       0.046 -13.263   5.779  1.00  0.00    -0.206 F 
ATOM     43  C   UNL     1       1.013 -15.273   5.055  1.00  0.00     0.059 A 
ATOM     44  C   UNL     1      -0.024 -16.542   3.265  1.00  0.00     0.059 A 
ATOM     45  F   UNL     1      -1.966 -15.729   2.236  1.00  0.00    -0.206 F 
ATOM     46  C   UNL     1       1.000 -16.372   4.194  1.00  0.00     0.060 A 
BRANCH  46  47
ATOM     47  S   UNL     1       2.355 -17.561   4.290  1.00  0.00     0.124 S 
ATOM     48  O   UNL     1       3.444 -16.807   3.676  1.00  0.00    -0.237 OA
ATOM     49  O   UNL     1       2.474 -17.786   5.727  1.00  0.00    -0.237 OA
ATOM     50  O   UNL     1       1.866 -18.699   3.518  1.00  0.00    -0.744 OA
ENDBRANCH  46  47
ENDBRANCH  25  39
BRANCH  26  51
ATOM     51  C   UNL     1      -7.846  -7.317   2.307  1.00  0.00     0.058 A 
ATOM     52  C   UNL     1      -8.525  -6.613   3.308  1.00  0.00     0.135 A 
ATOM     53  C   UNL     1      -8.063  -6.936   0.972  1.00  0.00     0.135 A 
ATOM     54  F   UNL     1      -8.352  -6.944   4.597  1.00  0.00    -0.206 F 
ATOM     55  C   UNL     1      -9.378  -5.557   3.002  1.00  0.00     0.059 A 
ATOM     56  C   UNL     1      -8.891  -5.868   0.642  1.00  0.00     0.059 A 
ATOM     57  F   UNL     1      -7.419  -7.568  -0.021  1.00  0.00    -0.206 F 
ATOM     58  C   UNL     1      -9.543  -5.184   1.666  1.00  0.00     0.060 A 
BRANCH  58  59
ATOM     59  S   UNL     1     -10.569  -3.745   1.291  1.00  0.00     0.124 S 
ATOM     60  O   UNL     1     -11.907  -4.262   1.554  1.00  0.00    -0.237 OA
ATOM     61  O   UNL     1     -10.068  -2.757   2.241  1.00  0.00    -0.237 OA
ATOM     62  O   UNL     1     -10.262  -3.469  -0.109  1.00  0.00    -0.744 OA
ENDBRANCH  58  59
ENDBRANCH  26  51
BRANCH  38  63
ATOM     63  C   UNL     1      -8.164 -13.852   4.814  1.00  0.00     0.058 A 
ATOM     64  C   UNL     1      -9.060 -14.470   3.929  1.00  0.00     0.135 A 
ATOM     65  C   UNL     1      -8.278 -14.152   6.181  1.00  0.00     0.135 A 
ATOM     66  F   UNL     1      -9.002 -14.207   2.614  1.00  0.00    -0.206 F 
ATOM     67  C   UNL     1     -10.027 -15.361   4.383  1.00  0.00     0.059 A 
ATOM     68  C   UNL     1      -9.220 -15.058   6.654  1.00  0.00     0.059 A 
ATOM     69  F   UNL     1      -7.441 -13.589   7.068  1.00  0.00    -0.206 F 
ATOM     70  C   UNL     1     -10.091 -15.659   5.747  1.00  0.00     0.060 A 
BRANCH  70  71
ATOM     71  S   UNL     1     -11.289 -16.886   6.310  1.00  0.00     0.124 S 
ATOM     72  O   UNL     1     -12.544 -16.152   6.186  1.00  0.00    -0.237 OA
ATOM     73  O   UNL     1     -11.093 -17.974   5.357  1.00  0.00    -0.237 OA
ATOM     74  O   UNL     1     -10.864 -17.175   7.677  1.00  0.00    -0.744 OA
ENDBRANCH  70  71
ENDBRANCH  38  63
ENDBRANCH  12  13
ENDBRANCH   5   7
ENDBRANCH   2   3
ENDBRANCH   1   2
BRANCH   1  75
ATOM     75  C   UNL     1       5.899  -4.904   1.451  1.00  0.00     0.002 C 
BRANCH  75  76
ATOM     76  C   UNL     1       5.983  -3.542   2.142  1.00  0.00     0.002 C 
BRANCH  76  77
ATOM     77  C   UNL     1       6.074  -3.602   3.668  1.00  0.00     0.021 C 
BRANCH  77  78
ATOM     78  C   UNL     1       7.332  -4.295   4.191  1.00  0.00     0.116 C 
BRANCH  78  79
ATOM     79  N   UNL     1       8.487  -3.415   4.103  1.00  0.00    -0.351 N 
ATOM     80  C   UNL     1       9.276  -2.889   5.093  1.00  0.00     0.278 C 
ATOM     81  H   UNL     1       8.743  -3.157   3.188  1.00  0.00     0.163 HD
ATOM     82  O   UNL     1      10.184  -2.126   4.755  1.00  0.00    -0.268 OA
BRANCH  80  83
ATOM     83  C   UNL     1       9.046  -3.339   6.549  1.00  0.00     0.275 C 
ATOM     84  C   UNL     1      10.010  -4.495   6.870  1.00  0.00     0.085 C 
ATOM     85  N   UNL     1       9.326  -2.248   7.526  1.00  0.00    -0.320 N 
ATOM     86  C   UNL     1      10.484  -4.160   8.268  1.00  0.00     0.054 C 
ATOM     87  C   UNL     1      10.573  -2.639   8.206  1.00  0.00     0.188 C 
ATOM     88  H   UNL     1       9.444  -1.371   7.018  1.00  0.00     0.349 HD
ATOM     89  C   UNL     1      11.794  -4.786   8.718  1.00  0.00     0.010 C 
ATOM     90  C   UNL     1      10.962  -2.046   9.563  1.00  0.00     0.065 C 
ATOM     91  C   UNL     1      12.187  -4.218  10.085  1.00  0.00     0.001 C 
ATOM     92  C   UNL     1      12.257  -2.687  10.075  1.00  0.00     0.006 C 
BRANCH  85  93
ATOM     93  C   UNL     1       8.225  -1.736   8.367  1.00  0.00     0.186 C 
ATOM     94  C   UNL     1       7.190  -0.904   7.585  1.00  0.00     0.076 C 
ATOM     95  C   UNL     1       7.519  -2.692   9.354  1.00  0.00     0.076 C 
ATOM     96  C   UNL     1       6.131  -1.688   6.838  1.00  0.00     0.075 C 
ATOM     97  C   UNL     1       6.494  -3.658   8.781  1.00  0.00     0.075 C 
ATOM     98  S   UNL     1       5.164  -2.815   7.879  1.00  0.00    -0.162 SA
ENDBRANCH  85  93
ENDBRANCH  80  83
ENDBRANCH  78  79
ENDBRANCH  77  78
ENDBRANCH  76  77
ENDBRANCH  75  76
ENDBRANCH   1  75
TORSDOF 17
