REMARK SMILES O=C(NCCCCCCNC(=O)c1ccc(-c2c3nc(c(-c4c(F)cc(S(=O)(=O)[O-])cc4F)c4ccc([nH]4)c(-c4c(F)cc(S(=O)(=O)[O-])cc4F)c4nc(c(-c5c(F)cc(S(=O)(=O)[O-])cc5F)c5ccc2[nH]5)C=C4)C=C3)cc1)c1ccc(NC(=S)NC(=O)C(Cl)(Cl)Cl)cc1
REMARK SMILES IDX 6 1 5 2 4 3 3 4 1 5 2 6 79 8 80 9 94 10 81 11 93 12 82 13
REMARK SMILES IDX 83 14 84 16 85 17 86 18 87 19 88 21 89 22 90 23 91 24 92 25
REMARK SMILES IDX 7 26 8 27 9 28 10 29 11 30 12 32 13 33 14 34 78 35 15 36
REMARK SMILES IDX 77 37 16 38 17 39 18 40 71 41 19 42 76 43 70 44 72 45 20 46
REMARK SMILES IDX 75 47 69 48 68 49 21 51 55 52 34 53 54 54 35 55 38 56 53 57
REMARK SMILES IDX 73 58 36 59 37 60 52 62 74 63 39 64 22 65 23 66 32 67 24 68
REMARK SMILES IDX 25 69 31 70 33 71 26 72 27 73 28 74 29 75 30 76 56 77 57 78
REMARK SMILES IDX 66 79 58 80 59 81 65 82 67 83 60 84 61 85 62 86 63 87 64 88
REMARK SMILES IDX 40 89 41 90 50 91 42 92 43 93 49 94 51 95 44 96 45 97 46 98
REMARK SMILES IDX 47 99 48 100
REMARK H PARENT 3 7 83 15 86 20 10 31 72 50 38 61
REMARK Flexibility Score: inf
ROOT
ATOM      1  C   UNL     1       4.242   2.821   2.410  1.00  0.00     0.002 C 
ENDROOT
BRANCH   1   2
ATOM      2  C   UNL     1       4.615   2.253   1.037  1.00  0.00     0.021 C 
BRANCH   2   3
ATOM      3  C   UNL     1       4.038   0.872   0.719  1.00  0.00     0.116 C 
BRANCH   3   4
ATOM      4  N   UNL     1       2.588   0.889   0.564  1.00  0.00    -0.352 N 
ATOM      5  O   UNL     1       0.617   0.476  -0.493  1.00  0.00    -0.269 OA
ATOM      6  C   UNL     1       1.830   0.309  -0.427  1.00  0.00     0.251 C 
ATOM      7  H   UNL     1       2.088   1.379   1.256  1.00  0.00     0.163 HD
BRANCH   6   8
ATOM      8  C   UNL     1       2.510  -0.530  -1.428  1.00  0.00     0.039 A 
ATOM      9  C   UNL     1       2.908  -1.827  -1.093  1.00  0.00     0.016 A 
ATOM     10  C   UNL     1       2.811   0.001  -2.679  1.00  0.00     0.016 A 
ATOM     11  C   UNL     1       3.738  -2.546  -1.961  1.00  0.00     0.027 A 
ATOM     12  C   UNL     1       3.657  -0.716  -3.526  1.00  0.00     0.027 A 
ATOM     13  C   UNL     1       4.208  -1.942  -3.116  1.00  0.00     0.040 A 
BRANCH  13  14
ATOM     14  N   UNL     1       5.200  -2.490  -3.930  1.00  0.00    -0.332 N 
ATOM     15  H   UNL     1       5.214  -2.070  -4.821  1.00  0.00     0.169 HD
BRANCH  14  16
ATOM     16  C   UNL     1       6.133  -3.436  -3.817  1.00  0.00     0.177 C 
ATOM     17  S   UNL     1       6.677  -4.098  -5.266  1.00  0.00    -0.040 S 
BRANCH  16  18
ATOM     18  N   UNL     1       6.766  -3.904  -2.692  1.00  0.00    -0.299 N 
ATOM     19  C   UNL     1       7.112  -3.869  -1.329  1.00  0.00     0.278 C 
ATOM     20  H   UNL     1       7.237  -4.705  -3.020  1.00  0.00     0.172 HD
ATOM     21  O   UNL     1       7.735  -4.891  -0.985  1.00  0.00    -0.270 OA
BRANCH  19  22
ATOM     22  C   UNL     1       6.800  -2.763  -0.313  1.00  0.00     0.269 C 
ATOM     23  Cl  UNL     1       6.615  -1.170  -1.040  1.00  0.00    -0.073 Cl
ATOM     24  Cl  UNL     1       5.413  -3.280   0.683  1.00  0.00    -0.073 Cl
ATOM     25  Cl  UNL     1       8.193  -2.631   0.834  1.00  0.00    -0.073 Cl
ENDBRANCH  19  22
ENDBRANCH  16  18
ENDBRANCH  14  16
ENDBRANCH  13  14
ENDBRANCH   6   8
ENDBRANCH   3   4
ENDBRANCH   2   3
ENDBRANCH   1   2
BRANCH   1  26
ATOM     26  C   UNL     1       4.805   2.067   3.618  1.00  0.00     0.002 C 
BRANCH  26  27
ATOM     27  C   UNL     1       6.332   1.975   3.701  1.00  0.00     0.021 C 
BRANCH  27  28
ATOM     28  C   UNL     1       7.085   3.303   3.660  1.00  0.00     0.116 C 
BRANCH  28  29
ATOM     29  N   UNL     1       6.750   4.183   4.769  1.00  0.00    -0.352 N 
ATOM     30  C   UNL     1       7.574   4.849   5.646  1.00  0.00     0.251 C 
ATOM     31  H   UNL     1       5.786   4.323   4.914  1.00  0.00     0.163 HD
ATOM     32  O   UNL     1       7.086   5.439   6.607  1.00  0.00    -0.269 OA
BRANCH  30  33
ATOM     33  C   UNL     1       9.044   4.838   5.457  1.00  0.00     0.039 A 
ATOM     34  C   UNL     1       9.866   4.639   6.570  1.00  0.00     0.014 A 
ATOM     35  C   UNL     1       9.617   5.036   4.197  1.00  0.00     0.014 A 
ATOM     36  C   UNL     1      11.253   4.567   6.409  1.00  0.00     0.010 A 
ATOM     37  C   UNL     1      10.994   4.892   4.028  1.00  0.00     0.010 A 
ATOM     38  C   UNL     1      11.828   4.653   5.131  1.00  0.00    -0.014 A 
BRANCH  38  39
ATOM     39  C   UNL     1      13.293   4.478   4.928  1.00  0.00     0.031 A 
ATOM     40  C   UNL     1      14.127   5.605   4.378  1.00  0.00     0.074 A 
ATOM     41  C   UNL     1      13.862   3.280   5.179  1.00  0.00     0.049 A 
ATOM     42  N   UNL     1      15.400   5.619   4.075  1.00  0.00    -0.248 NA
ATOM     43  C   UNL     1      13.436   6.876   4.111  1.00  0.00     0.031 C 
ATOM     44  C   UNL     1      13.156   2.096   5.674  1.00  0.00     0.029 A 
ATOM     45  N   UNL     1      15.161   2.856   5.043  1.00  0.00    -0.354 N 
ATOM     46  C   UNL     1      15.658   6.887   3.567  1.00  0.00     0.074 A 
ATOM     47  C   UNL     1      14.399   7.601   3.560  1.00  0.00     0.031 C 
ATOM     48  C   UNL     1      14.033   1.090   5.824  1.00  0.00     0.029 A 
ATOM     49  C   UNL     1      15.354   1.540   5.395  1.00  0.00     0.049 A 
ATOM     50  H   UNL     1      15.887   3.439   4.723  1.00  0.00     0.167 HD
ATOM     51  C   UNL     1      16.838   7.414   3.160  1.00  0.00     0.037 A 
ATOM     52  C   UNL     1      16.465   0.777   5.367  1.00  0.00     0.037 A 
ATOM     53  C   UNL     1      18.093   6.707   3.196  1.00  0.00     0.049 A 
ATOM     54  C   UNL     1      17.761   1.384   4.899  1.00  0.00     0.074 A 
ATOM     55  C   UNL     1      19.354   7.179   2.874  1.00  0.00     0.029 A 
ATOM     56  N   UNL     1      18.248   5.379   3.567  1.00  0.00    -0.354 N 
ATOM     57  N   UNL     1      17.999   2.609   4.493  1.00  0.00    -0.248 NA
ATOM     58  C   UNL     1      18.941   0.508   4.888  1.00  0.00     0.031 C 
ATOM     59  C   UNL     1      20.261   6.122   2.994  1.00  0.00     0.029 A 
ATOM     60  C   UNL     1      19.578   5.007   3.452  1.00  0.00     0.049 A 
ATOM     61  H   UNL     1      17.520   4.789   3.869  1.00  0.00     0.167 HD
ATOM     62  C   UNL     1      19.361   2.658   4.213  1.00  0.00     0.074 A 
ATOM     63  C   UNL     1      19.895   1.345   4.505  1.00  0.00     0.031 C 
ATOM     64  C   UNL     1      20.102   3.699   3.757  1.00  0.00     0.037 A 
BRANCH  51  65
ATOM     65  C   UNL     1      16.837   8.825   2.634  1.00  0.00     0.058 A 
ATOM     66  C   UNL     1      16.620   9.930   3.474  1.00  0.00     0.135 A 
ATOM     67  C   UNL     1      17.116   9.079   1.281  1.00  0.00     0.135 A 
ATOM     68  F   UNL     1      16.336   9.746   4.773  1.00  0.00    -0.206 F 
ATOM     69  C   UNL     1      16.653  11.232   2.986  1.00  0.00     0.059 A 
ATOM     70  C   UNL     1      17.184  10.375   0.778  1.00  0.00     0.059 A 
ATOM     71  F   UNL     1      17.332   8.062   0.432  1.00  0.00    -0.206 F 
ATOM     72  C   UNL     1      16.939  11.445   1.637  1.00  0.00     0.060 A 
BRANCH  72  73
ATOM     73  S   UNL     1      16.994  13.143   1.025  1.00  0.00     0.124 S 
ATOM     74  O   UNL     1      15.582  13.509   1.056  1.00  0.00    -0.237 OA
ATOM     75  O   UNL     1      17.841  13.802   2.014  1.00  0.00    -0.237 OA
ATOM     76  O   UNL     1      17.578  13.007  -0.306  1.00  0.00    -0.744 OA
ENDBRANCH  72  73
ENDBRANCH  51  65
BRANCH  52  77
ATOM     77  C   UNL     1      16.411  -0.644   5.812  1.00  0.00     0.058 A 
ATOM     78  C   UNL     1      17.066  -1.058   6.982  1.00  0.00     0.135 A 
ATOM     79  C   UNL     1      15.717  -1.616   5.075  1.00  0.00     0.135 A 
ATOM     80  F   UNL     1      17.750  -0.168   7.718  1.00  0.00    -0.206 F 
ATOM     81  C   UNL     1      17.058  -2.386   7.393  1.00  0.00     0.059 A 
ATOM     82  C   UNL     1      15.668  -2.946   5.482  1.00  0.00     0.059 A 
ATOM     83  F   UNL     1      15.060  -1.272   3.957  1.00  0.00    -0.206 F 
ATOM     84  C   UNL     1      16.354  -3.324   6.635  1.00  0.00     0.060 A 
BRANCH  84  85
ATOM     85  S   UNL     1      16.326  -5.041   7.194  1.00  0.00     0.124 S 
ATOM     86  O   UNL     1      17.691  -5.467   6.904  1.00  0.00    -0.237 OA
ATOM     87  O   UNL     1      15.988  -4.897   8.607  1.00  0.00    -0.237 OA
ATOM     88  O   UNL     1      15.287  -5.646   6.367  1.00  0.00    -0.744 OA
ENDBRANCH  84  85
ENDBRANCH  52  77
BRANCH  64  89
ATOM     89  C   UNL     1      21.581   3.479   3.588  1.00  0.00     0.058 A 
ATOM     90  C   UNL     1      22.099   2.675   2.561  1.00  0.00     0.135 A 
ATOM     91  C   UNL     1      22.495   4.128   4.435  1.00  0.00     0.135 A 
ATOM     92  F   UNL     1      21.271   2.026   1.727  1.00  0.00    -0.206 F 
ATOM     93  C   UNL     1      23.470   2.501   2.396  1.00  0.00     0.059 A 
ATOM     94  C   UNL     1      23.870   3.994   4.268  1.00  0.00     0.059 A 
ATOM     95  F   UNL     1      22.054   4.918   5.427  1.00  0.00    -0.206 F 
ATOM     96  C   UNL     1      24.348   3.168   3.253  1.00  0.00     0.060 A 
BRANCH  96  97
ATOM     97  S   UNL     1      26.124   2.962   3.004  1.00  0.00     0.124 S 
ATOM     98  O   UNL     1      26.331   1.598   3.478  1.00  0.00    -0.237 OA
ATOM     99  O   UNL     1      26.262   3.161   1.565  1.00  0.00    -0.237 OA
ATOM    100  O   UNL     1      26.708   4.011   3.835  1.00  0.00    -0.744 OA
ENDBRANCH  96  97
ENDBRANCH  64  89
ENDBRANCH  38  39
ENDBRANCH  30  33
ENDBRANCH  28  29
ENDBRANCH  27  28
ENDBRANCH  26  27
ENDBRANCH   1  26
TORSDOF 20
