REMARK SMILES CC(C)(C)C[N@H+]1[C@@H](C(=O)NCCCCCCNC(=O)c2ccc(-c3c4nc(c(-c5c(F)cc(S(=O)(=O)[O-])cc5F)c5ccc([nH]5)c(-c5c(F)cc(S(=O)(=O)[O-])cc5F)c5nc(c(-c6c(F)cc(S(=O)(=O)[O-])cc6F)c6ccc3[nH]6)C=C5)C=C4)cc2)CC[C@H]2CCCC[C@@H]21
REMARK SMILES IDX 14 1 13 2 12 3 11 4 10 5 8 6 9 7 7 9 6 10 93 11 86 13 88 14
REMARK SMILES IDX 92 15 87 16 89 17 91 18 90 19 5 20 2 21 1 22 3 23 4 24 15 25
REMARK SMILES IDX 16 26 17 27 18 28 19 30 20 31 21 32 85 33 22 34 84 35 23 36
REMARK SMILES IDX 24 37 25 38 78 39 26 40 83 41 77 42 79 43 27 44 82 45 76 46
REMARK SMILES IDX 75 47 28 49 62 50 41 51 61 52 42 53 45 54 60 55 80 56 43 57
REMARK SMILES IDX 44 58 59 60 81 61 46 62 29 63 30 64 39 65 31 66 32 67 38 68
REMARK SMILES IDX 40 69 33 70 34 71 35 72 36 73 37 74 63 75 64 76 73 77 65 78
REMARK SMILES IDX 66 79 72 80 74 81 67 82 68 83 69 84 70 85 71 86 47 87 48 88
REMARK SMILES IDX 57 89 49 90 50 91 56 92 58 93 51 94 52 95 53 96 54 97 55 98
REMARK H PARENT 10 8 6 12 17 29 79 48 45 59
REMARK Flexibility Score: inf
ROOT
ATOM      1  C   UNL     1      -1.689   5.804   1.061  1.00  0.00     0.002 C 
ENDROOT
BRANCH   1   2
ATOM      2  C   UNL     1      -2.695   5.032   1.919  1.00  0.00     0.002 C 
BRANCH   2   3
ATOM      3  C   UNL     1      -2.610   3.500   1.835  1.00  0.00     0.021 C 
BRANCH   3   4
ATOM      4  C   UNL     1      -1.339   2.934   2.471  1.00  0.00     0.116 C 
BRANCH   4   5
ATOM      5  N   UNL     1      -1.570   1.653   3.143  1.00  0.00    -0.351 N 
ATOM      6  C   UNL     1      -1.553   0.315   3.033  1.00  0.00     0.278 C 
ATOM      7  O   UNL     1      -1.909  -0.195   4.121  1.00  0.00    -0.268 OA
ATOM      8  H   UNL     1      -1.860   1.861   4.061  1.00  0.00     0.163 HD
BRANCH   6   9
ATOM      9  C   UNL     1      -1.109  -0.697   1.913  1.00  0.00     0.274 C 
ATOM     10  N   UNL     1       0.318  -1.041   2.033  1.00  0.00    -0.322 N 
ATOM     11  C   UNL     1       0.645  -2.432   1.667  1.00  0.00     0.187 C 
ATOM     12  H   UNL     1       0.472  -1.069   3.041  1.00  0.00     0.349 HD
ATOM     13  C   UNL     1      -1.641  -0.886   0.468  1.00  0.00     0.076 C 
ATOM     14  C   UNL     1      -0.328  -2.999   0.606  1.00  0.00     0.048 C 
ATOM     15  C   UNL     1       0.548  -3.419   2.866  1.00  0.00     0.065 C 
ATOM     16  C   UNL     1      -0.752  -1.891  -0.351  1.00  0.00     0.016 C 
ATOM     17  C   UNL     1       0.276  -4.287   0.041  1.00  0.00     0.010 C 
ATOM     18  C   UNL     1       0.861  -4.878   2.463  1.00  0.00     0.006 C 
ATOM     19  C   UNL     1       0.213  -5.348   1.151  1.00  0.00     0.001 C 
BRANCH  10  20
ATOM     20  C   UNL     1       1.307   0.018   1.828  1.00  0.00     0.269 C 
BRANCH  20  21
ATOM     21  C   UNL     1       1.462   0.991   0.577  1.00  0.00     0.011 C 
ATOM     22  C   UNL     1       2.336   0.371  -0.537  1.00  0.00     0.017 C 
ATOM     23  C   UNL     1       2.205   2.242   1.134  1.00  0.00     0.017 C 
ATOM     24  C   UNL     1       0.184   1.514  -0.103  1.00  0.00     0.017 C 
ENDBRANCH  20  21
ENDBRANCH  10  20
ENDBRANCH   6   9
ENDBRANCH   4   5
ENDBRANCH   3   4
ENDBRANCH   2   3
ENDBRANCH   1   2
BRANCH   1  25
ATOM     25  C   UNL     1      -1.909   5.708  -0.451  1.00  0.00     0.021 C 
BRANCH  25  26
ATOM     26  C   UNL     1      -3.315   6.069  -0.929  1.00  0.00     0.116 C 
BRANCH  26  27
ATOM     27  N   UNL     1      -3.744   7.379  -0.454  1.00  0.00    -0.352 N 
ATOM     28  C   UNL     1      -4.179   8.464  -1.167  1.00  0.00     0.251 C 
ATOM     29  H   UNL     1      -3.716   7.501   0.523  1.00  0.00     0.163 HD
ATOM     30  O   UNL     1      -4.286   9.563  -0.615  1.00  0.00    -0.269 OA
BRANCH  28  31
ATOM     31  C   UNL     1      -4.516   8.316  -2.594  1.00  0.00     0.039 A 
ATOM     32  C   UNL     1      -4.075   9.277  -3.507  1.00  0.00     0.014 A 
ATOM     33  C   UNL     1      -5.275   7.225  -3.025  1.00  0.00     0.014 A 
ATOM     34  C   UNL     1      -4.350   9.111  -4.865  1.00  0.00     0.010 A 
ATOM     35  C   UNL     1      -5.478   7.021  -4.384  1.00  0.00     0.010 A 
ATOM     36  C   UNL     1      -5.027   7.966  -5.317  1.00  0.00    -0.014 A 
BRANCH  36  37
ATOM     37  C   UNL     1      -5.278   7.735  -6.760  1.00  0.00     0.031 A 
ATOM     38  C   UNL     1      -6.688   7.679  -7.279  1.00  0.00     0.074 A 
ATOM     39  C   UNL     1      -4.237   7.504  -7.584  1.00  0.00     0.049 A 
ATOM     40  N   UNL     1      -7.113   7.439  -8.492  1.00  0.00    -0.248 NA
ATOM     41  C   UNL     1      -7.763   7.891  -6.297  1.00  0.00     0.031 C 
ATOM     42  C   UNL     1      -2.829   7.491  -7.182  1.00  0.00     0.029 A 
ATOM     43  N   UNL     1      -4.202   7.233  -8.927  1.00  0.00    -0.354 N 
ATOM     44  C   UNL     1      -8.501   7.453  -8.416  1.00  0.00     0.074 A 
ATOM     45  C   UNL     1      -8.844   7.663  -7.026  1.00  0.00     0.031 C 
ATOM     46  C   UNL     1      -2.066   7.267  -8.263  1.00  0.00     0.029 A 
ATOM     47  C   UNL     1      -2.930   7.076  -9.424  1.00  0.00     0.049 A 
ATOM     48  H   UNL     1      -5.011   7.158  -9.483  1.00  0.00     0.167 HD
ATOM     49  C   UNL     1      -9.406   7.325  -9.416  1.00  0.00     0.037 A 
ATOM     50  C   UNL     1      -2.509   6.809 -10.675  1.00  0.00     0.037 A 
ATOM     51  C   UNL     1      -9.046   7.127 -10.796  1.00  0.00     0.049 A 
ATOM     52  C   UNL     1      -3.530   6.646 -11.767  1.00  0.00     0.074 A 
ATOM     53  C   UNL     1      -9.876   7.049 -11.900  1.00  0.00     0.029 A 
ATOM     54  N   UNL     1      -7.747   6.960 -11.260  1.00  0.00    -0.354 N 
ATOM     55  N   UNL     1      -4.837   6.737 -11.694  1.00  0.00    -0.248 NA
ATOM     56  C   UNL     1      -3.020   6.344 -13.111  1.00  0.00     0.031 C 
ATOM     57  C   UNL     1      -9.085   6.774 -13.021  1.00  0.00     0.029 A 
ATOM     58  C   UNL     1      -7.756   6.743 -12.628  1.00  0.00     0.049 A 
ATOM     59  H   UNL     1      -6.939   6.991 -10.698  1.00  0.00     0.167 HD
ATOM     60  C   UNL     1      -5.305   6.535 -12.988  1.00  0.00     0.074 A 
ATOM     61  C   UNL     1      -4.139   6.323 -13.822  1.00  0.00     0.031 C 
ATOM     62  C   UNL     1      -6.583   6.530 -13.444  1.00  0.00     0.037 A 
BRANCH  49  63
ATOM     63  C   UNL     1     -10.864   7.374  -9.041  1.00  0.00     0.058 A 
ATOM     64  C   UNL     1     -11.466   8.542  -8.542  1.00  0.00     0.135 A 
ATOM     65  C   UNL     1     -11.671   6.231  -9.167  1.00  0.00     0.135 A 
ATOM     66  F   UNL     1     -10.743   9.664  -8.389  1.00  0.00    -0.206 F 
ATOM     67  C   UNL     1     -12.793   8.559  -8.126  1.00  0.00     0.059 A 
ATOM     68  C   UNL     1     -13.011   6.235  -8.791  1.00  0.00     0.059 A 
ATOM     69  F   UNL     1     -11.155   5.087  -9.643  1.00  0.00    -0.206 F 
ATOM     70  C   UNL     1     -13.556   7.397  -8.246  1.00  0.00     0.060 A 
BRANCH  70  71
ATOM     71  S   UNL     1     -15.263   7.421  -7.660  1.00  0.00     0.124 S 
ATOM     72  O   UNL     1     -15.072   7.434  -6.212  1.00  0.00    -0.237 OA
ATOM     73  O   UNL     1     -15.776   8.657  -8.242  1.00  0.00    -0.237 OA
ATOM     74  O   UNL     1     -15.828   6.191  -8.206  1.00  0.00    -0.744 OA
ENDBRANCH  70  71
ENDBRANCH  49  63
BRANCH  50  75
ATOM     75  C   UNL     1      -1.052   6.738 -10.963  1.00  0.00     0.058 A 
ATOM     76  C   UNL     1      -0.419   7.753 -11.695  1.00  0.00     0.135 A 
ATOM     77  C   UNL     1      -0.255   5.691 -10.473  1.00  0.00     0.135 A 
ATOM     78  F   UNL     1      -1.140   8.771 -12.189  1.00  0.00    -0.206 F 
ATOM     79  C   UNL     1       0.950   7.736 -11.933  1.00  0.00     0.059 A 
ATOM     80  C   UNL     1       1.121   5.664 -10.678  1.00  0.00     0.059 A 
ATOM     81  F   UNL     1      -0.809   4.703  -9.753  1.00  0.00    -0.206 F 
ATOM     82  C   UNL     1       1.715   6.691 -11.411  1.00  0.00     0.060 A 
BRANCH  82  83
ATOM     83  S   UNL     1       3.503   6.723 -11.661  1.00  0.00     0.124 S 
ATOM     84  O   UNL     1       3.606   6.454 -13.090  1.00  0.00    -0.237 OA
ATOM     85  O   UNL     1       3.844   8.078 -11.239  1.00  0.00    -0.237 OA
ATOM     86  O   UNL     1       3.984   5.662 -10.781  1.00  0.00    -0.744 OA
ENDBRANCH  82  83
ENDBRANCH  50  75
BRANCH  62  87
ATOM     87  C   UNL     1      -6.790   6.316 -14.919  1.00  0.00     0.058 A 
ATOM     88  C   UNL     1      -6.580   5.067 -15.523  1.00  0.00     0.135 A 
ATOM     89  C   UNL     1      -7.260   7.365 -15.727  1.00  0.00     0.135 A 
ATOM     90  F   UNL     1      -6.123   4.034 -14.798  1.00  0.00    -0.206 F 
ATOM     91  C   UNL     1      -6.808   4.870 -16.881  1.00  0.00     0.059 A 
ATOM     92  C   UNL     1      -7.525   7.182 -17.081  1.00  0.00     0.059 A 
ATOM     93  F   UNL     1      -7.487   8.578 -15.199  1.00  0.00    -0.206 F 
ATOM     94  C   UNL     1      -7.285   5.933 -17.651  1.00  0.00     0.060 A 
BRANCH  94  95
ATOM     95  S   UNL     1      -7.616   5.650 -19.403  1.00  0.00     0.124 S 
ATOM     96  O   UNL     1      -6.264   5.550 -19.945  1.00  0.00    -0.237 OA
ATOM     97  O   UNL     1      -8.383   4.409 -19.378  1.00  0.00    -0.237 OA
ATOM     98  O   UNL     1      -8.366   6.837 -19.803  1.00  0.00    -0.744 OA
ENDBRANCH  94  95
ENDBRANCH  62  87
ENDBRANCH  36  37
ENDBRANCH  28  31
ENDBRANCH  26  27
ENDBRANCH  25  26
ENDBRANCH   1  25
TORSDOF 18
