REMARK SMILES O=C(NCCCCCCNC(=O)[C@@H](Cc1ccc(O)cc1)Nc1c2ccccc2nc2ccccc12)c1ccc(-c2c3nc(c(-c4c(F)cc(S(=O)(=O)[O-])cc4F)c4ccc([nH]4)c(-c4c(F)cc(S(=O)(=O)[O-])cc4F)c4nc(c(-c5c(F)cc(S(=O)(=O)[O-])cc5F)c5ccc2[nH]5)C=C4)C=C3)cc1
REMARK SMILES IDX 6 1 5 2 4 3 3 4 1 5 2 6 37 8 38 9 102 10 39 11 101 12 40 13
REMARK SMILES IDX 41 14 42 15 95 16 43 17 100 18 94 19 96 20 44 21 99 22 93 23
REMARK SMILES IDX 92 24 45 26 79 27 58 28 78 29 59 30 62 31 77 32 97 33 60 34
REMARK SMILES IDX 61 35 76 37 98 38 63 39 46 40 47 41 56 42 48 43 49 44 55 45
REMARK SMILES IDX 57 46 50 47 51 48 52 49 53 50 54 51 80 52 81 53 90 54 82 55
REMARK SMILES IDX 83 56 89 57 91 58 84 59 85 60 86 61 87 62 88 63 64 64 65 65
REMARK SMILES IDX 74 66 66 67 67 68 73 69 75 70 68 71 69 72 70 73 71 74 72 75
REMARK SMILES IDX 7 76 8 77 9 78 10 79 11 80 12 82 13 83 14 84 15 85 16 86
REMARK SMILES IDX 21 87 17 88 20 89 18 90 19 91 22 93 23 95 24 96 36 97 25 98
REMARK SMILES IDX 29 99 31 100 35 101 26 102 28 103 30 104 32 105 34 106
REMARK SMILES IDX 27 107 33 108
REMARK H PARENT 3 7 96 25 62 36 10 81 19 92 22 94
REMARK Flexibility Score: inf
ROOT
ATOM      1  C   UNL     1       3.593   1.010  -3.950  1.00  0.00     0.002 C 
ENDROOT
BRANCH   1   2
ATOM      2  C   UNL     1       4.251   0.111  -2.900  1.00  0.00     0.021 C 
BRANCH   2   3
ATOM      3  C   UNL     1       4.183   0.641  -1.473  1.00  0.00     0.116 C 
BRANCH   3   4
ATOM      4  N   UNL     1       2.814   0.719  -0.983  1.00  0.00    -0.352 N 
ATOM      5  O   UNL     1       0.987   0.049   0.152  1.00  0.00    -0.269 OA
ATOM      6  C   UNL     1       2.203   0.007   0.022  1.00  0.00     0.251 C 
ATOM      7  H   UNL     1       2.242   1.379  -1.439  1.00  0.00     0.163 HD
BRANCH   6   8
ATOM      8  C   UNL     1       3.026  -0.814   0.939  1.00  0.00     0.039 A 
ATOM      9  C   UNL     1       4.222  -0.309   1.450  1.00  0.00     0.014 A 
ATOM     10  C   UNL     1       2.592  -2.093   1.303  1.00  0.00     0.014 A 
ATOM     11  C   UNL     1       5.056  -1.133   2.192  1.00  0.00     0.010 A 
ATOM     12  C   UNL     1       3.386  -2.883   2.143  1.00  0.00     0.010 A 
ATOM     13  C   UNL     1       4.637  -2.418   2.575  1.00  0.00    -0.014 A 
BRANCH  13  14
ATOM     14  C   UNL     1       5.501  -3.196   3.503  1.00  0.00     0.031 A 
ATOM     15  C   UNL     1       6.126  -4.502   3.098  1.00  0.00     0.074 A 
ATOM     16  C   UNL     1       5.764  -2.664   4.714  1.00  0.00     0.049 A 
ATOM     17  N   UNL     1       6.954  -5.257   3.774  1.00  0.00    -0.248 NA
ATOM     18  C   UNL     1       5.774  -5.036   1.774  1.00  0.00     0.031 C 
ATOM     19  C   UNL     1       5.184  -1.418   5.228  1.00  0.00     0.029 A 
ATOM     20  N   UNL     1       6.599  -3.076   5.720  1.00  0.00    -0.354 N 
ATOM     21  C   UNL     1       7.225  -6.353   2.962  1.00  0.00     0.074 A 
ATOM     22  C   UNL     1       6.438  -6.186   1.758  1.00  0.00     0.031 C 
ATOM     23  C   UNL     1       5.724  -1.138   6.422  1.00  0.00     0.029 A 
ATOM     24  C   UNL     1       6.631  -2.216   6.793  1.00  0.00     0.049 A 
ATOM     25  H   UNL     1       7.125  -3.907   5.678  1.00  0.00     0.167 HD
ATOM     26  C   UNL     1       8.064  -7.392   3.196  1.00  0.00     0.037 A 
ATOM     27  C   UNL     1       7.300  -2.292   7.958  1.00  0.00     0.037 A 
ATOM     28  C   UNL     1       8.842  -7.548   4.402  1.00  0.00     0.049 A 
ATOM     29  C   UNL     1       8.210  -3.462   8.194  1.00  0.00     0.074 A 
ATOM     30  C   UNL     1       9.727  -8.562   4.731  1.00  0.00     0.029 A 
ATOM     31  N   UNL     1       8.834  -6.668   5.475  1.00  0.00    -0.354 N 
ATOM     32  N   UNL     1       8.471  -4.474   7.402  1.00  0.00    -0.248 NA
ATOM     33  C   UNL     1       8.919  -3.499   9.479  1.00  0.00     0.031 C 
ATOM     34  C   UNL     1      10.218  -8.318   6.018  1.00  0.00     0.029 A 
ATOM     35  C   UNL     1       9.684  -7.124   6.472  1.00  0.00     0.049 A 
ATOM     36  H   UNL     1       8.301  -5.841   5.522  1.00  0.00     0.167 HD
ATOM     37  C   UNL     1       9.382  -5.267   8.089  1.00  0.00     0.074 A 
ATOM     38  C   UNL     1       9.652  -4.595   9.345  1.00  0.00     0.031 C 
ATOM     39  C   UNL     1       9.936  -6.448   7.720  1.00  0.00     0.037 A 
BRANCH  26  40
ATOM     40  C   UNL     1       8.192  -8.450   2.131  1.00  0.00     0.058 A 
ATOM     41  C   UNL     1       8.856  -8.196   0.920  1.00  0.00     0.135 A 
ATOM     42  C   UNL     1       7.708  -9.751   2.348  1.00  0.00     0.135 A 
ATOM     43  F   UNL     1       9.327  -6.968   0.651  1.00  0.00    -0.206 F 
ATOM     44  C   UNL     1       9.023  -9.188  -0.042  1.00  0.00     0.059 A 
ATOM     45  C   UNL     1       7.886 -10.765   1.410  1.00  0.00     0.059 A 
ATOM     46  F   UNL     1       7.065 -10.051   3.487  1.00  0.00    -0.206 F 
ATOM     47  C   UNL     1       8.537 -10.471   0.213  1.00  0.00     0.060 A 
BRANCH  47  48
ATOM     48  S   UNL     1       8.784 -11.750  -1.037  1.00  0.00     0.124 S 
ATOM     49  O   UNL     1       7.865 -11.314  -2.085  1.00  0.00    -0.237 OA
ATOM     50  O   UNL     1      10.204 -11.615  -1.345  1.00  0.00    -0.237 OA
ATOM     51  O   UNL     1       8.409 -12.980  -0.347  1.00  0.00    -0.744 OA
ENDBRANCH  47  48
ENDBRANCH  26  40
BRANCH  27  52
ATOM     52  C   UNL     1       7.106  -1.242   8.992  1.00  0.00     0.058 A 
ATOM     53  C   UNL     1       8.140  -0.367   9.352  1.00  0.00     0.135 A 
ATOM     54  C   UNL     1       5.867  -1.089   9.637  1.00  0.00     0.135 A 
ATOM     55  F   UNL     1       9.342  -0.471   8.765  1.00  0.00    -0.206 F 
ATOM     56  C   UNL     1       7.964   0.605  10.332  1.00  0.00     0.059 A 
ATOM     57  C   UNL     1       5.656  -0.103  10.593  1.00  0.00     0.059 A 
ATOM     58  F   UNL     1       4.836  -1.885   9.313  1.00  0.00    -0.206 F 
ATOM     59  C   UNL     1       6.716   0.728  10.947  1.00  0.00     0.060 A 
BRANCH  59  60
ATOM     60  S   UNL     1       6.486   2.010  12.196  1.00  0.00     0.124 S 
ATOM     61  O   UNL     1       7.207   1.445  13.331  1.00  0.00    -0.237 OA
ATOM     62  O   UNL     1       7.100   3.172  11.561  1.00  0.00    -0.237 OA
ATOM     63  O   UNL     1       5.034   2.079  12.340  1.00  0.00    -0.744 OA
ENDBRANCH  59  60
ENDBRANCH  27  52
BRANCH  39  64
ATOM     64  C   UNL     1      10.906  -7.073   8.686  1.00  0.00     0.058 A 
ATOM     65  C   UNL     1      10.479  -7.625   9.905  1.00  0.00     0.135 A 
ATOM     66  C   UNL     1      12.277  -7.121   8.389  1.00  0.00     0.135 A 
ATOM     67  F   UNL     1       9.180  -7.598  10.242  1.00  0.00    -0.206 F 
ATOM     68  C   UNL     1      11.384  -8.163  10.815  1.00  0.00     0.059 A 
ATOM     69  C   UNL     1      13.195  -7.684   9.270  1.00  0.00     0.059 A 
ATOM     70  F   UNL     1      12.737  -6.618   7.232  1.00  0.00    -0.206 F 
ATOM     71  C   UNL     1      12.741  -8.183  10.489  1.00  0.00     0.060 A 
BRANCH  71  72
ATOM     72  S   UNL     1      13.905  -8.879  11.680  1.00  0.00     0.124 S 
ATOM     73  O   UNL     1      13.952  -7.830  12.693  1.00  0.00    -0.237 OA
ATOM     74  O   UNL     1      13.242 -10.117  12.079  1.00  0.00    -0.237 OA
ATOM     75  O   UNL     1      15.126  -9.053  10.899  1.00  0.00    -0.744 OA
ENDBRANCH  71  72
ENDBRANCH  39  64
ENDBRANCH  13  14
ENDBRANCH   6   8
ENDBRANCH   3   4
ENDBRANCH   2   3
ENDBRANCH   1   2
BRANCH   1  76
ATOM     76  C   UNL     1       4.111   2.452  -4.003  1.00  0.00     0.002 C 
BRANCH  76  77
ATOM     77  C   UNL     1       5.633   2.587  -4.043  1.00  0.00     0.021 C 
BRANCH  77  78
ATOM     78  C   UNL     1       6.301   1.998  -5.284  1.00  0.00     0.116 C 
BRANCH  78  79
ATOM     79  N   UNL     1       6.429   3.003  -6.315  1.00  0.00    -0.354 N 
ATOM     80  C   UNL     1       7.488   3.759  -6.715  1.00  0.00     0.242 C 
ATOM     81  H   UNL     1       5.601   3.172  -6.818  1.00  0.00     0.163 HD
ATOM     82  O   UNL     1       7.214   4.702  -7.471  1.00  0.00    -0.273 OA
BRANCH  80  83
ATOM     83  C   UNL     1       8.963   3.510  -6.293  1.00  0.00     0.173 C 
BRANCH  83  84
ATOM     84  C   UNL     1       9.302   3.980  -4.851  1.00  0.00     0.070 C 
BRANCH  84  85
ATOM     85  C   UNL     1       8.992   3.147  -3.625  1.00  0.00    -0.045 A 
ATOM     86  C   UNL     1       8.367   3.754  -2.521  1.00  0.00     0.007 A 
ATOM     87  C   UNL     1       9.381   1.805  -3.506  1.00  0.00     0.007 A 
ATOM     88  C   UNL     1       8.019   3.010  -1.389  1.00  0.00     0.046 A 
ATOM     89  C   UNL     1       9.005   1.050  -2.391  1.00  0.00     0.046 A 
ATOM     90  C   UNL     1       8.304   1.651  -1.354  1.00  0.00     0.115 A 
BRANCH  90  91
ATOM     91  O   UNL     1       7.891   0.864  -0.323  1.00  0.00    -0.508 OA
ATOM     92  H   UNL     1       7.416   1.240   0.392  1.00  0.00     0.293 HD
ENDBRANCH  90  91
ENDBRANCH  84  85
ENDBRANCH  83  84
BRANCH  83  93
ATOM     93  N   UNL     1       9.416   2.152  -6.622  1.00  0.00    -0.372 N 
ATOM     94  H   UNL     1       9.008   1.425  -6.099  1.00  0.00     0.161 HD
BRANCH  93  95
ATOM     95  C   UNL     1      10.356   1.757  -7.587  1.00  0.00     0.054 A 
ATOM     96  C   UNL     1      11.594   2.443  -7.839  1.00  0.00     0.024 A 
ATOM     97  C   UNL     1      10.058   0.585  -8.366  1.00  0.00     0.024 A 
ATOM     98  C   UNL     1      12.072   3.612  -7.187  1.00  0.00     0.012 A 
ATOM     99  C   UNL     1      12.460   1.879  -8.802  1.00  0.00     0.073 A 
ATOM    100  C   UNL     1      11.034   0.136  -9.277  1.00  0.00     0.073 A 
ATOM    101  C   UNL     1       8.844  -0.156  -8.301  1.00  0.00     0.012 A 
ATOM    102  C   UNL     1      13.298   4.210  -7.491  1.00  0.00     0.001 A 
ATOM    103  C   UNL     1      13.685   2.474  -9.081  1.00  0.00     0.029 A 
ATOM    104  N   UNL     1      12.191   0.765  -9.481  1.00  0.00    -0.248 NA
ATOM    105  C   UNL     1      10.813  -1.014 -10.023  1.00  0.00     0.029 A 
ATOM    106  C   UNL     1       8.634  -1.303  -9.071  1.00  0.00     0.001 A 
ATOM    107  C   UNL     1      14.111   3.635  -8.445  1.00  0.00     0.002 A 
ATOM    108  C   UNL     1       9.629  -1.741  -9.928  1.00  0.00     0.002 A 
ENDBRANCH  93  95
ENDBRANCH  83  93
ENDBRANCH  80  83
ENDBRANCH  78  79
ENDBRANCH  77  78
ENDBRANCH  76  77
ENDBRANCH   1  76
TORSDOF 21
