REMARK SMILES CC1=C2C(=O)N(C[C@H]3CCCO3)C(=O)N=C2S[C@@H]1C(=O)NCCCCCCNC(=O)c1ccc(-c2c3nc(c(-c4c(F)cc(S(=O)(=O)[O-])cc4F)c4ccc([nH]4)c(-c4c(F)cc(S(=O)(=O)[O-])cc4F)c4nc(c(-c5c(F)cc(S(=O)(=O)[O-])cc5F)c5ccc2[nH]5)C=C4)C=C3)cc1
REMARK SMILES IDX 25 1 24 2 23 3 22 4 21 5 19 6 20 7 18 9 1 10 2 11 3 12 4 13
REMARK SMILES IDX 16 14 17 15 5 16 6 17 15 18 13 19 14 20 7 21 8 22 9 23 12 24
REMARK SMILES IDX 10 25 11 26 26 27 27 28 28 29 29 30 30 32 31 33 32 34 96 35
REMARK SMILES IDX 33 36 95 37 34 38 35 39 36 40 89 41 37 42 94 43 88 44 90 45
REMARK SMILES IDX 38 46 93 47 87 48 86 49 39 51 73 52 52 53 72 54 53 55 56 56
REMARK SMILES IDX 71 57 91 58 54 59 55 60 70 62 92 63 57 64 40 65 41 66 50 67
REMARK SMILES IDX 42 68 43 69 49 70 51 71 44 72 45 73 46 74 47 75 48 76 74 77
REMARK SMILES IDX 75 78 84 79 76 80 77 81 83 82 85 83 78 84 79 85 80 86 81 87
REMARK SMILES IDX 82 88 58 89 59 90 68 91 60 92 61 93 67 94 69 95 62 96 63 97
REMARK SMILES IDX 64 98 65 99 66 100
REMARK H PARENT 21 8 28 31 90 50 56 61
REMARK Flexibility Score: inf
ROOT
ATOM      1  C   UNL     1      -5.661  -1.354   5.829  1.00  0.00     0.002 C 
ENDROOT
BRANCH   1   2
ATOM      2  C   UNL     1      -6.934  -2.126   5.465  1.00  0.00     0.002 C 
BRANCH   2   3
ATOM      3  C   UNL     1      -7.179  -2.309   3.965  1.00  0.00     0.021 C 
BRANCH   3   4
ATOM      4  C   UNL     1      -6.059  -3.042   3.236  1.00  0.00     0.116 C 
BRANCH   4   5
ATOM      5  N   UNL     1      -6.059  -4.460   3.547  1.00  0.00    -0.355 N 
ATOM      6  C   UNL     1      -6.111  -5.557   2.740  1.00  0.00     0.237 C 
ATOM      7  O   UNL     1      -6.083  -6.663   3.290  1.00  0.00    -0.273 OA
ATOM      8  H   UNL     1      -6.013  -4.665   4.509  1.00  0.00     0.163 HD
BRANCH   6   9
ATOM      9  C   UNL     1      -6.135  -5.466   1.208  1.00  0.00     0.169 C 
ATOM     10  C   UNL     1      -3.597  -5.143   0.926  1.00  0.00     0.042 C 
ATOM     11  C   UNL     1      -4.990  -4.694   0.611  1.00  0.00    -0.035 C 
ATOM     12  C   UNL     1      -5.338  -3.687  -0.203  1.00  0.00     0.073 C 
ATOM     13  C   UNL     1      -4.509  -2.720  -0.921  1.00  0.00     0.264 C 
ATOM     14  C   UNL     1      -6.769  -3.580  -0.419  1.00  0.00     0.116 C 
ATOM     15  S   UNL     1      -7.661  -4.677   0.594  1.00  0.00    -0.087 SA
ATOM     16  O   UNL     1      -3.425  -2.367  -0.479  1.00  0.00    -0.268 OA
ATOM     17  N   UNL     1      -5.125  -2.256  -2.058  1.00  0.00    -0.256 N 
ATOM     18  N   UNL     1      -7.328  -2.795  -1.260  1.00  0.00    -0.186 NA
ATOM     19  C   UNL     1      -6.519  -2.081  -2.115  1.00  0.00     0.351 C 
ATOM     20  O   UNL     1      -7.027  -1.328  -2.941  1.00  0.00    -0.246 OA
BRANCH  17  21
ATOM     21  C   UNL     1      -4.364  -1.920  -3.263  1.00  0.00     0.163 C 
BRANCH  21  22
ATOM     22  C   UNL     1      -2.872  -1.542  -3.198  1.00  0.00     0.138 C 
ATOM     23  C   UNL     1      -1.881  -2.644  -2.837  1.00  0.00     0.036 C 
ATOM     24  O   UNL     1      -2.501  -1.155  -4.550  1.00  0.00    -0.376 OA
ATOM     25  C   UNL     1      -1.557  -3.291  -4.154  1.00  0.00     0.031 C 
ATOM     26  C   UNL     1      -1.590  -2.117  -5.099  1.00  0.00     0.160 C 
ENDBRANCH  21  22
ENDBRANCH  17  21
ENDBRANCH   6   9
ENDBRANCH   4   5
ENDBRANCH   3   4
ENDBRANCH   2   3
ENDBRANCH   1   2
BRANCH   1  27
ATOM     27  C   UNL     1      -5.500   0.011   5.152  1.00  0.00     0.021 C 
BRANCH  27  28
ATOM     28  C   UNL     1      -6.657   0.984   5.364  1.00  0.00     0.116 C 
BRANCH  28  29
ATOM     29  N   UNL     1      -6.867   1.295   6.767  1.00  0.00    -0.352 N 
ATOM     30  C   UNL     1      -7.030   2.517   7.372  1.00  0.00     0.251 C 
ATOM     31  H   UNL     1      -6.896   0.519   7.372  1.00  0.00     0.163 HD
ATOM     32  O   UNL     1      -7.034   2.594   8.597  1.00  0.00    -0.269 OA
BRANCH  30  33
ATOM     33  C   UNL     1      -7.178   3.738   6.551  1.00  0.00     0.039 A 
ATOM     34  C   UNL     1      -6.446   4.876   6.901  1.00  0.00     0.014 A 
ATOM     35  C   UNL     1      -8.048   3.773   5.456  1.00  0.00     0.014 A 
ATOM     36  C   UNL     1      -6.543   6.032   6.122  1.00  0.00     0.010 A 
ATOM     37  C   UNL     1      -8.103   4.908   4.649  1.00  0.00     0.010 A 
ATOM     38  C   UNL     1      -7.353   6.048   4.976  1.00  0.00    -0.014 A 
BRANCH  38  39
ATOM     39  C   UNL     1      -7.427   7.249   4.106  1.00  0.00     0.031 A 
ATOM     40  C   UNL     1      -8.712   8.024   3.996  1.00  0.00     0.074 A 
ATOM     41  C   UNL     1      -6.359   7.599   3.362  1.00  0.00     0.049 A 
ATOM     42  N   UNL     1      -8.995   9.048   3.232  1.00  0.00    -0.248 NA
ATOM     43  C   UNL     1      -9.833   7.574   4.836  1.00  0.00     0.031 C 
ATOM     44  C   UNL     1      -5.073   6.897   3.344  1.00  0.00     0.029 A 
ATOM     45  N   UNL     1      -6.190   8.623   2.464  1.00  0.00    -0.354 N 
ATOM     46  C   UNL     1     -10.329   9.348   3.479  1.00  0.00     0.074 A 
ATOM     47  C   UNL     1     -10.809   8.380   4.441  1.00  0.00     0.031 C 
ATOM     48  C   UNL     1      -4.246   7.517   2.486  1.00  0.00     0.029 A 
ATOM     49  C   UNL     1      -4.949   8.639   1.872  1.00  0.00     0.049 A 
ATOM     50  H   UNL     1      -6.891   9.283   2.262  1.00  0.00     0.167 HD
ATOM     51  C   UNL     1     -11.081  10.350   2.962  1.00  0.00     0.037 A 
ATOM     52  C   UNL     1      -4.438   9.461   0.935  1.00  0.00     0.037 A 
ATOM     53  C   UNL     1     -10.587  11.338   2.040  1.00  0.00     0.049 A 
ATOM     54  C   UNL     1      -5.284  10.584   0.400  1.00  0.00     0.074 A 
ATOM     55  C   UNL     1     -11.246  12.441   1.526  1.00  0.00     0.029 A 
ATOM     56  N   UNL     1      -9.312  11.345   1.494  1.00  0.00    -0.354 N 
ATOM     57  N   UNL     1      -6.522  10.896   0.700  1.00  0.00    -0.248 NA
ATOM     58  C   UNL     1      -4.664  11.468  -0.596  1.00  0.00     0.031 C 
ATOM     59  C   UNL     1     -10.380  13.098   0.645  1.00  0.00     0.029 A 
ATOM     60  C   UNL     1      -9.170  12.423   0.637  1.00  0.00     0.049 A 
ATOM     61  H   UNL     1      -8.611  10.681   1.687  1.00  0.00     0.167 HD
ATOM     62  C   UNL     1      -6.820  12.027  -0.051  1.00  0.00     0.074 A 
ATOM     63  C   UNL     1      -5.631  12.349  -0.814  1.00  0.00     0.031 C 
ATOM     64  C   UNL     1      -7.975  12.736  -0.105  1.00  0.00     0.037 A 
BRANCH  51  65
ATOM     65  C   UNL     1     -12.519  10.433   3.388  1.00  0.00     0.058 A 
ATOM     66  C   UNL     1     -12.883  10.874   4.669  1.00  0.00     0.135 A 
ATOM     67  C   UNL     1     -13.548  10.106   2.489  1.00  0.00     0.135 A 
ATOM     68  F   UNL     1     -11.938  11.184   5.571  1.00  0.00    -0.206 F 
ATOM     69  C   UNL     1     -14.217  10.966   5.054  1.00  0.00     0.059 A 
ATOM     70  C   UNL     1     -14.889  10.212   2.846  1.00  0.00     0.059 A 
ATOM     71  F   UNL     1     -13.254   9.678   1.251  1.00  0.00    -0.206 F 
ATOM     72  C   UNL     1     -15.213  10.631   4.136  1.00  0.00     0.060 A 
BRANCH  72  73
ATOM     73  S   UNL     1     -16.940  10.764   4.645  1.00  0.00     0.124 S 
ATOM     74  O   UNL     1     -17.090   9.573   5.476  1.00  0.00    -0.237 OA
ATOM     75  O   UNL     1     -16.962  12.038   5.356  1.00  0.00    -0.237 OA
ATOM     76  O   UNL     1     -17.669  10.743   3.381  1.00  0.00    -0.744 OA
ENDBRANCH  72  73
ENDBRANCH  51  65
BRANCH  52  77
ATOM     77  C   UNL     1      -3.045   9.267   0.455  1.00  0.00     0.058 A 
ATOM     78  C   UNL     1      -2.026  10.154   0.830  1.00  0.00     0.135 A 
ATOM     79  C   UNL     1      -2.705   8.194  -0.382  1.00  0.00     0.135 A 
ATOM     80  F   UNL     1      -2.306  11.198   1.625  1.00  0.00    -0.206 F 
ATOM     81  C   UNL     1      -0.720   9.996   0.379  1.00  0.00     0.059 A 
ATOM     82  C   UNL     1      -1.402   8.003  -0.830  1.00  0.00     0.059 A 
ATOM     83  F   UNL     1      -3.642   7.308  -0.754  1.00  0.00    -0.206 F 
ATOM     84  C   UNL     1      -0.418   8.917  -0.454  1.00  0.00     0.060 A 
BRANCH  84  85
ATOM     85  S   UNL     1       1.288   8.693  -1.002  1.00  0.00     0.124 S 
ATOM     86  O   UNL     1       1.387   9.688  -2.063  1.00  0.00    -0.237 OA
ATOM     87  O   UNL     1       2.045   8.977   0.213  1.00  0.00    -0.237 OA
ATOM     88  O   UNL     1       1.318   7.299  -1.436  1.00  0.00    -0.744 OA
ENDBRANCH  84  85
ENDBRANCH  52  77
BRANCH  64  89
ATOM     89  C   UNL     1      -7.999  13.948  -0.991  1.00  0.00     0.058 A 
ATOM     90  C   UNL     1      -8.101  13.836  -2.385  1.00  0.00     0.135 A 
ATOM     91  C   UNL     1      -7.972  15.236  -0.433  1.00  0.00     0.135 A 
ATOM     92  F   UNL     1      -8.122  12.626  -2.966  1.00  0.00    -0.206 F 
ATOM     93  C   UNL     1      -8.157  14.961  -3.200  1.00  0.00     0.059 A 
ATOM     94  C   UNL     1      -8.048  16.375  -1.227  1.00  0.00     0.059 A 
ATOM     95  F   UNL     1      -7.884  15.395   0.897  1.00  0.00    -0.206 F 
ATOM     96  C   UNL     1      -8.130  16.227  -2.612  1.00  0.00     0.060 A 
BRANCH  96  97
ATOM     97  S   UNL     1      -8.241  17.683  -3.674  1.00  0.00     0.124 S 
ATOM     98  O   UNL     1      -6.881  17.773  -4.193  1.00  0.00    -0.237 OA
ATOM     99  O   UNL     1      -9.264  17.293  -4.640  1.00  0.00    -0.237 OA
ATOM    100  O   UNL     1      -8.634  18.745  -2.752  1.00  0.00    -0.744 OA
ENDBRANCH  96  97
ENDBRANCH  64  89
ENDBRANCH  38  39
ENDBRANCH  30  33
ENDBRANCH  28  29
ENDBRANCH  27  28
ENDBRANCH   1  27
TORSDOF 18
