REMARK SMILES CC[C@H]1CCCC[N@H+]1[C@@H]1CC(=O)N(c2nc(CC(=O)NCCCCCCNC(=O)c3ccc(-c4c5nc(c(-c6c(F)cc(S(=O)(=O)[O-])cc6F)c6ccc([nH]6)c(-c6c(F)cc(S(=O)(=O)[O-])cc6F)c6nc(c(-c7c(F)cc(S(=O)(=O)[O-])cc7F)c7ccc4[nH]7)C=C6)C=C5)cc3)cs2)C1=O
REMARK SMILES IDX 23 1 22 2 21 3 20 4 18 5 19 6 17 8 16 9 14 10 15 11 97 12
REMARK SMILES IDX 96 13 13 14 9 15 10 16 98 17 11 18 99 19 12 20 8 21 3 22
REMARK SMILES IDX 4 23 5 24 7 25 6 27 2 28 1 29 24 30 25 31 26 32 27 33 28 34
REMARK SMILES IDX 29 36 30 37 31 38 95 39 32 40 94 41 33 42 34 43 35 44 88 45
REMARK SMILES IDX 36 46 93 47 87 48 89 49 37 50 92 51 86 52 85 53 38 55 72 56
REMARK SMILES IDX 51 57 71 58 52 59 55 60 70 61 90 62 53 63 54 64 69 66 91 67
REMARK SMILES IDX 56 68 39 69 40 70 49 71 41 72 42 73 48 74 50 75 43 76 44 77
REMARK SMILES IDX 45 78 46 79 47 80 73 81 74 82 83 83 75 84 76 85 82 86 84 87
REMARK SMILES IDX 77 88 78 89 79 90 80 91 81 92 57 93 58 94 67 95 59 96 60 97
REMARK SMILES IDX 66 98 68 99 61 100 62 101 63 102 64 103 65 104
REMARK H PARENT 20 7 8 26 27 35 89 54 55 65
REMARK Flexibility Score: inf
ROOT
ATOM      1  C   UNL     1       5.428   1.490   5.610  1.00  0.00     0.002 C 
ENDROOT
BRANCH   1   2
ATOM      2  C   UNL     1       5.788   1.238   4.141  1.00  0.00     0.021 C 
BRANCH   2   3
ATOM      3  C   UNL     1       6.901   2.137   3.593  1.00  0.00     0.116 C 
BRANCH   3   4
ATOM      4  N   UNL     1       8.185   1.828   4.202  1.00  0.00    -0.356 N 
ATOM      5  C   UNL     1       9.254   1.158   3.675  1.00  0.00     0.226 C 
ATOM      6  O   UNL     1      10.219   0.928   4.407  1.00  0.00    -0.275 OA
ATOM      7  H   UNL     1       8.301   2.147   5.126  1.00  0.00     0.163 HD
BRANCH   5   8
ATOM      8  C   UNL     1       9.263   0.744   2.214  1.00  0.00     0.157 C 
BRANCH   8   9
ATOM      9  C   UNL     1       8.235  -0.293   1.916  1.00  0.00     0.063 A 
ATOM     10  C   UNL     1       6.348  -0.907   0.931  1.00  0.00     0.199 A 
ATOM     11  N   UNL     1       7.320  -0.026   0.911  1.00  0.00    -0.224 NA
ATOM     12  S   UNL     1       6.584  -2.220   2.012  1.00  0.00    -0.104 S 
ATOM     13  C   UNL     1       8.041  -1.501   2.558  1.00  0.00     0.093 A 
BRANCH  10  14
ATOM     14  N   UNL     1       5.233  -0.890   0.134  1.00  0.00    -0.219 N 
ATOM     15  C   UNL     1       3.015  -1.026  -0.594  1.00  0.00     0.285 C 
ATOM     16  C   UNL     1       3.899  -0.535  -1.730  1.00  0.00     0.176 C 
ATOM     17  C   UNL     1       3.976  -1.204   0.577  1.00  0.00     0.294 C 
ATOM     18  C   UNL     1       5.253  -0.349  -1.119  1.00  0.00     0.242 C 
ATOM     19  O   UNL     1       3.630  -1.480   1.720  1.00  0.00    -0.267 OA
ATOM     20  O   UNL     1       6.187   0.140  -1.741  1.00  0.00    -0.274 OA
BRANCH  15  21
ATOM     21  N   UNL     1       2.175  -2.208  -0.827  1.00  0.00    -0.322 N 
ATOM     22  C   UNL     1       1.080  -2.070  -1.796  1.00  0.00     0.184 C 
ATOM     23  C   UNL     1      -0.014  -3.116  -1.498  1.00  0.00     0.065 C 
ATOM     24  C   UNL     1       0.510  -4.537  -1.341  1.00  0.00     0.012 C 
ATOM     25  C   UNL     1       2.757  -3.536  -0.693  1.00  0.00     0.263 C 
ATOM     26  H   UNL     1       1.681  -2.178   0.066  1.00  0.00     0.349 HD
ATOM     27  C   UNL     1       1.684  -4.580  -0.375  1.00  0.00     0.062 C 
BRANCH  22  28
ATOM     28  C   UNL     1       1.425  -1.983  -3.307  1.00  0.00     0.061 C 
ATOM     29  C   UNL     1       2.314  -3.047  -3.935  1.00  0.00     0.010 C 
ENDBRANCH  22  28
ENDBRANCH  15  21
ENDBRANCH  10  14
ENDBRANCH   8   9
ENDBRANCH   5   8
ENDBRANCH   3   4
ENDBRANCH   2   3
ENDBRANCH   1   2
BRANCH   1  30
ATOM     30  C   UNL     1       4.934   2.904   5.933  1.00  0.00     0.002 C 
BRANCH  30  31
ATOM     31  C   UNL     1       3.737   3.385   5.109  1.00  0.00     0.021 C 
BRANCH  31  32
ATOM     32  C   UNL     1       2.476   2.533   5.238  1.00  0.00     0.116 C 
BRANCH  32  33
ATOM     33  N   UNL     1       1.927   2.562   6.585  1.00  0.00    -0.352 N 
ATOM     34  C   UNL     1       0.651   2.850   7.003  1.00  0.00     0.251 C 
ATOM     35  H   UNL     1       2.565   2.344   7.303  1.00  0.00     0.163 HD
ATOM     36  O   UNL     1       0.419   2.995   8.200  1.00  0.00    -0.269 OA
BRANCH  34  37
ATOM     37  C   UNL     1      -0.440   3.007   6.014  1.00  0.00     0.039 A 
ATOM     38  C   UNL     1      -1.328   4.078   6.154  1.00  0.00     0.014 A 
ATOM     39  C   UNL     1      -0.601   2.098   4.965  1.00  0.00     0.014 A 
ATOM     40  C   UNL     1      -2.338   4.272   5.207  1.00  0.00     0.010 A 
ATOM     41  C   UNL     1      -1.569   2.327   3.989  1.00  0.00     0.010 A 
ATOM     42  C   UNL     1      -2.447   3.417   4.099  1.00  0.00    -0.014 A 
BRANCH  42  43
ATOM     43  C   UNL     1      -3.463   3.652   3.041  1.00  0.00     0.031 A 
ATOM     44  C   UNL     1      -4.565   2.655   2.811  1.00  0.00     0.074 A 
ATOM     45  C   UNL     1      -3.346   4.724   2.233  1.00  0.00     0.049 A 
ATOM     46  N   UNL     1      -5.490   2.644   1.886  1.00  0.00    -0.248 NA
ATOM     47  C   UNL     1      -4.618   1.504   3.726  1.00  0.00     0.031 C 
ATOM     48  C   UNL     1      -2.289   5.735   2.317  1.00  0.00     0.029 A 
ATOM     49  N   UNL     1      -4.112   5.134   1.170  1.00  0.00    -0.354 N 
ATOM     50  C   UNL     1      -6.219   1.479   2.091  1.00  0.00     0.074 A 
ATOM     51  C   UNL     1      -5.605   0.789   3.205  1.00  0.00     0.031 C 
ATOM     52  C   UNL     1      -2.478   6.650   1.352  1.00  0.00     0.029 A 
ATOM     53  C   UNL     1      -3.648   6.277   0.563  1.00  0.00     0.049 A 
ATOM     54  H   UNL     1      -4.918   4.655   0.871  1.00  0.00     0.167 HD
ATOM     55  C   UNL     1      -7.310   1.033   1.422  1.00  0.00     0.037 A 
ATOM     56  C   UNL     1      -4.105   6.945  -0.514  1.00  0.00     0.037 A 
ATOM     57  C   UNL     1      -7.939   1.741   0.337  1.00  0.00     0.049 A 
ATOM     58  C   UNL     1      -5.336   6.450  -1.221  1.00  0.00     0.074 A 
ATOM     59  C   UNL     1      -9.094   1.411  -0.351  1.00  0.00     0.029 A 
ATOM     60  N   UNL     1      -7.465   2.920  -0.221  1.00  0.00    -0.354 N 
ATOM     61  N   UNL     1      -6.056   5.383  -0.967  1.00  0.00    -0.248 NA
ATOM     62  C   UNL     1      -5.822   7.250  -2.353  1.00  0.00     0.031 C 
ATOM     63  C   UNL     1      -9.298   2.371  -1.349  1.00  0.00     0.029 A 
ATOM     64  C   UNL     1      -8.292   3.320  -1.257  1.00  0.00     0.049 A 
ATOM     65  H   UNL     1      -6.659   3.401   0.077  1.00  0.00     0.167 HD
ATOM     66  C   UNL     1      -7.091   5.394  -1.895  1.00  0.00     0.074 A 
ATOM     67  C   UNL     1      -6.910   6.580  -2.708  1.00  0.00     0.031 C 
ATOM     68  C   UNL     1      -8.100   4.503  -2.058  1.00  0.00     0.037 A 
BRANCH  55  69
ATOM     69  C   UNL     1      -7.895  -0.285   1.848  1.00  0.00     0.058 A 
ATOM     70  C   UNL     1      -8.586  -0.428   3.061  1.00  0.00     0.135 A 
ATOM     71  C   UNL     1      -7.783  -1.414   1.020  1.00  0.00     0.135 A 
ATOM     72  F   UNL     1      -8.711   0.616   3.895  1.00  0.00    -0.206 F 
ATOM     73  C   UNL     1      -9.117  -1.652   3.456  1.00  0.00     0.059 A 
ATOM     74  C   UNL     1      -8.329  -2.642   1.383  1.00  0.00     0.059 A 
ATOM     75  F   UNL     1      -7.134  -1.333  -0.152  1.00  0.00    -0.206 F 
ATOM     76  C   UNL     1      -8.978  -2.755   2.612  1.00  0.00     0.060 A 
BRANCH  76  77
ATOM     77  S   UNL     1      -9.664  -4.340   3.139  1.00  0.00     0.124 S 
ATOM     78  O   UNL     1      -8.684  -4.763   4.135  1.00  0.00    -0.237 OA
ATOM     79  O   UNL     1     -10.972  -3.958   3.662  1.00  0.00    -0.237 OA
ATOM     80  O   UNL     1      -9.689  -5.125   1.909  1.00  0.00    -0.744 OA
ENDBRANCH  76  77
ENDBRANCH  55  69
BRANCH  56  81
ATOM     81  C   UNL     1      -3.399   8.169  -0.975  1.00  0.00     0.058 A 
ATOM     82  C   UNL     1      -3.951   9.441  -0.770  1.00  0.00     0.135 A 
ATOM     83  C   UNL     1      -2.144   8.091  -1.598  1.00  0.00     0.135 A 
ATOM     84  F   UNL     1      -5.152   9.564  -0.184  1.00  0.00    -0.206 F 
ATOM     85  C   UNL     1      -3.290  10.596  -1.174  1.00  0.00     0.059 A 
ATOM     86  C   UNL     1      -1.453   9.233  -1.991  1.00  0.00     0.059 A 
ATOM     87  F   UNL     1      -1.566   6.897  -1.801  1.00  0.00    -0.206 F 
ATOM     88  C   UNL     1      -2.038  10.481  -1.781  1.00  0.00     0.060 A 
BRANCH  88  89
ATOM     89  S   UNL     1      -1.155  11.988  -2.241  1.00  0.00     0.124 S 
ATOM     90  O   UNL     1      -1.876  12.395  -3.441  1.00  0.00    -0.237 OA
ATOM     91  O   UNL     1      -1.347  12.830  -1.064  1.00  0.00    -0.237 OA
ATOM     92  O   UNL     1       0.213  11.522  -2.451  1.00  0.00    -0.744 OA
ENDBRANCH  88  89
ENDBRANCH  56  81
BRANCH  68  93
ATOM     93  C   UNL     1      -9.102   4.784  -3.142  1.00  0.00     0.058 A 
ATOM     94  C   UNL     1      -8.793   4.586  -4.496  1.00  0.00     0.135 A 
ATOM     95  C   UNL     1     -10.402   5.203  -2.819  1.00  0.00     0.135 A 
ATOM     96  F   UNL     1      -7.561   4.193  -4.858  1.00  0.00    -0.206 F 
ATOM     97  C   UNL     1      -9.734   4.811  -5.496  1.00  0.00     0.059 A 
ATOM     98  C   UNL     1     -11.366   5.411  -3.800  1.00  0.00     0.059 A 
ATOM     99  F   UNL     1     -10.751   5.398  -1.537  1.00  0.00    -0.206 F 
ATOM    100  C   UNL     1     -11.019   5.222  -5.137  1.00  0.00     0.060 A 
BRANCH 100 101
ATOM    101  S   UNL     1     -12.244   5.473  -6.440  1.00  0.00     0.124 S 
ATOM    102  O   UNL     1     -11.824   6.755  -6.995  1.00  0.00    -0.237 OA
ATOM    103  O   UNL     1     -12.034   4.311  -7.298  1.00  0.00    -0.237 OA
ATOM    104  O   UNL     1     -13.511   5.487  -5.715  1.00  0.00    -0.744 OA
ENDBRANCH 100 101
ENDBRANCH  68  93
ENDBRANCH  42  43
ENDBRANCH  34  37
ENDBRANCH  32  33
ENDBRANCH  31  32
ENDBRANCH  30  31
ENDBRANCH   1  30
TORSDOF 20
