REMARK SMILES O=C(CCCC[C@@H]1CCSS1)NCCCCCCNC(=O)c1ccc(-c2c3nc(c(-c4c(F)cc(S(=O)(=O)[O-])cc4F)c4ccc([nH]4)c(-c4c(F)cc(S(=O)(=O)[O-])cc4F)c4nc(c(-c5c(F)cc(S(=O)(=O)[O-])cc5F)c5ccc2[nH]5)C=C4)C=C3)cc1
REMARK SMILES IDX 15 1 14 2 13 3 12 4 1 5 2 6 3 8 4 9 5 10 6 11 7 12 8 13
REMARK SMILES IDX 11 14 9 15 10 16 16 17 17 18 18 19 19 20 20 21 21 23 22 24
REMARK SMILES IDX 23 25 87 26 24 27 86 28 25 29 26 30 27 31 80 32 28 33 85 34
REMARK SMILES IDX 79 35 81 36 29 37 84 38 78 39 77 40 30 42 64 43 43 44 63 45
REMARK SMILES IDX 44 46 47 47 62 48 82 49 45 50 46 51 61 53 83 54 48 55 31 56
REMARK SMILES IDX 32 57 41 58 33 59 34 60 40 61 42 62 35 63 36 64 37 65 38 66
REMARK SMILES IDX 39 67 65 68 66 69 75 70 67 71 68 72 74 73 76 74 69 75 70 76
REMARK SMILES IDX 71 77 72 78 73 79 49 80 50 81 59 82 51 83 52 84 58 85 60 86
REMARK SMILES IDX 53 87 54 88 55 89 56 90 57 91
REMARK H PARENT 12 7 19 22 81 41 47 52
REMARK Flexibility Score: inf
ROOT
ATOM      1  C   UNL     1       4.171   2.664   2.713  1.00  0.00     0.002 C 
ENDROOT
BRANCH   1   2
ATOM      2  C   UNL     1       2.662   2.375   2.667  1.00  0.00     0.021 C 
BRANCH   2   3
ATOM      3  C   UNL     1       2.096   2.121   1.270  1.00  0.00     0.116 C 
BRANCH   3   4
ATOM      4  N   UNL     1       2.732   0.974   0.658  1.00  0.00    -0.356 N 
ATOM      5  O   UNL     1       0.882   0.109  -0.394  1.00  0.00    -0.275 OA
ATOM      6  C   UNL     1       2.078   0.062  -0.130  1.00  0.00     0.219 C 
ATOM      7  H   UNL     1       3.694   0.840   0.818  1.00  0.00     0.163 HD
BRANCH   6   8
ATOM      8  C   UNL     1       2.975  -1.055  -0.632  1.00  0.00     0.100 C 
BRANCH   8   9
ATOM      9  C   UNL     1       3.887  -0.643  -1.788  1.00  0.00     0.010 C 
BRANCH   9  10
ATOM     10  C   UNL     1       5.057   0.287  -1.451  1.00  0.00     0.002 C 
BRANCH  10  11
ATOM     11  C   UNL     1       6.022  -0.157  -0.341  1.00  0.00     0.015 C 
BRANCH  11  12
ATOM     12  C   UNL     1       6.881  -1.382  -0.692  1.00  0.00     0.059 C 
ATOM     13  C   UNL     1       6.269  -2.711  -0.228  1.00  0.00     0.027 C 
ATOM     14  S   UNL     1       8.498  -1.255   0.158  1.00  0.00    -0.091 SA
ATOM     15  C   UNL     1       7.301  -3.830  -0.317  1.00  0.00     0.083 C 
ATOM     16  S   UNL     1       8.770  -3.244   0.552  1.00  0.00    -0.094 SA
ENDBRANCH  11  12
ENDBRANCH  10  11
ENDBRANCH   9  10
ENDBRANCH   8   9
ENDBRANCH   6   8
ENDBRANCH   3   4
ENDBRANCH   2   3
ENDBRANCH   1   2
BRANCH   1  17
ATOM     17  C   UNL     1       4.626   3.900   1.932  1.00  0.00     0.002 C 
BRANCH  17  18
ATOM     18  C   UNL     1       3.974   5.215   2.363  1.00  0.00     0.021 C 
BRANCH  18  19
ATOM     19  C   UNL     1       4.129   5.560   3.842  1.00  0.00     0.116 C 
BRANCH  19  20
ATOM     20  N   UNL     1       5.519   5.753   4.227  1.00  0.00    -0.352 N 
ATOM     21  C   UNL     1       6.096   6.789   4.920  1.00  0.00     0.251 C 
ATOM     22  H   UNL     1       6.135   5.036   3.952  1.00  0.00     0.163 HD
ATOM     23  O   UNL     1       7.321   6.855   5.007  1.00  0.00    -0.269 OA
BRANCH  21  24
ATOM     24  C   UNL     1       5.252   7.838   5.534  1.00  0.00     0.039 A 
ATOM     25  C   UNL     1       5.636   9.175   5.398  1.00  0.00     0.014 A 
ATOM     26  C   UNL     1       4.090   7.514   6.241  1.00  0.00     0.014 A 
ATOM     27  C   UNL     1       4.820  10.186   5.911  1.00  0.00     0.010 A 
ATOM     28  C   UNL     1       3.240   8.526   6.685  1.00  0.00     0.010 A 
ATOM     29  C   UNL     1       3.594   9.873   6.523  1.00  0.00    -0.014 A 
BRANCH  29  30
ATOM     30  C   UNL     1       2.666  10.949   6.962  1.00  0.00     0.031 A 
ATOM     31  C   UNL     1       2.309  11.116   8.414  1.00  0.00     0.074 A 
ATOM     32  C   UNL     1       2.103  11.752   6.036  1.00  0.00     0.049 A 
ATOM     33  N   UNL     1       1.518  11.996   8.974  1.00  0.00    -0.248 NA
ATOM     34  C   UNL     1       2.897  10.153   9.359  1.00  0.00     0.031 C 
ATOM     35  C   UNL     1       2.324  11.656   4.591  1.00  0.00     0.029 A 
ATOM     36  N   UNL     1       1.232  12.805   6.167  1.00  0.00    -0.354 N 
ATOM     37  C   UNL     1       1.507  11.691  10.330  1.00  0.00     0.074 A 
ATOM     38  C   UNL     1       2.324  10.509  10.500  1.00  0.00     0.031 C 
ATOM     39  C   UNL     1       1.641  12.633   3.975  1.00  0.00     0.029 A 
ATOM     40  C   UNL     1       0.900  13.399   4.972  1.00  0.00     0.049 A 
ATOM     41  H   UNL     1       0.879  13.106   7.035  1.00  0.00     0.167 HD
ATOM     42  C   UNL     1       0.890  12.348  11.343  1.00  0.00     0.037 A 
ATOM     43  C   UNL     1       0.092  14.443   4.707  1.00  0.00     0.037 A 
ATOM     44  C   UNL     1       0.084  13.530  11.166  1.00  0.00     0.049 A 
ATOM     45  C   UNL     1      -0.591  15.150   5.845  1.00  0.00     0.074 A 
ATOM     46  C   UNL     1      -0.528  14.307  12.134  1.00  0.00     0.029 A 
ATOM     47  N   UNL     1      -0.235  14.098   9.940  1.00  0.00    -0.354 N 
ATOM     48  N   UNL     1      -0.523  14.899   7.131  1.00  0.00    -0.248 NA
ATOM     49  C   UNL     1      -1.455  16.285   5.497  1.00  0.00     0.031 C 
ATOM     50  C   UNL     1      -1.266  15.307  11.491  1.00  0.00     0.029 A 
ATOM     51  C   UNL     1      -1.065  15.194  10.125  1.00  0.00     0.049 A 
ATOM     52  H   UNL     1       0.081  13.771   9.067  1.00  0.00     0.167 HD
ATOM     53  C   UNL     1      -1.318  15.859   7.748  1.00  0.00     0.074 A 
ATOM     54  C   UNL     1      -1.840  16.706   6.694  1.00  0.00     0.031 C 
ATOM     55  C   UNL     1      -1.590  16.024   9.067  1.00  0.00     0.037 A 
BRANCH  42  56
ATOM     56  C   UNL     1       1.054  11.793  12.735  1.00  0.00     0.058 A 
ATOM     57  C   UNL     1       2.291  11.816  13.402  1.00  0.00     0.135 A 
ATOM     58  C   UNL     1      -0.044  11.246  13.420  1.00  0.00     0.135 A 
ATOM     59  F   UNL     1       3.378  12.316  12.795  1.00  0.00    -0.206 F 
ATOM     60  C   UNL     1       2.442  11.277  14.677  1.00  0.00     0.059 A 
ATOM     61  C   UNL     1       0.077  10.733  14.708  1.00  0.00     0.059 A 
ATOM     62  F   UNL     1      -1.252  11.201  12.835  1.00  0.00    -0.206 F 
ATOM     63  C   UNL     1       1.329  10.734  15.320  1.00  0.00     0.060 A 
BRANCH  63  64
ATOM     64  S   UNL     1       1.546  10.023  16.965  1.00  0.00     0.124 S 
ATOM     65  O   UNL     1       2.284   8.801  16.658  1.00  0.00    -0.237 OA
ATOM     66  O   UNL     1       2.303  11.061  17.657  1.00  0.00    -0.237 OA
ATOM     67  O   UNL     1       0.179   9.828  17.436  1.00  0.00    -0.744 OA
ENDBRANCH  63  64
ENDBRANCH  42  56
BRANCH  43  68
ATOM     68  C   UNL     1      -0.085  14.901   3.302  1.00  0.00     0.058 A 
ATOM     69  C   UNL     1       0.460  16.119   2.868  1.00  0.00     0.135 A 
ATOM     70  C   UNL     1      -0.768  14.119   2.358  1.00  0.00     0.135 A 
ATOM     71  F   UNL     1       1.115  16.907   3.734  1.00  0.00    -0.206 F 
ATOM     72  C   UNL     1       0.330  16.548   1.552  1.00  0.00     0.059 A 
ATOM     73  C   UNL     1      -0.888  14.513   1.030  1.00  0.00     0.059 A 
ATOM     74  F   UNL     1      -1.295  12.938   2.719  1.00  0.00    -0.206 F 
ATOM     75  C   UNL     1      -0.340  15.733   0.637  1.00  0.00     0.060 A 
BRANCH  75  76
ATOM     76  S   UNL     1      -0.439  16.268  -1.085  1.00  0.00     0.124 S 
ATOM     77  O   UNL     1      -1.381  17.378  -0.996  1.00  0.00    -0.237 OA
ATOM     78  O   UNL     1       0.946  16.627  -1.373  1.00  0.00    -0.237 OA
ATOM     79  O   UNL     1      -0.927  15.079  -1.778  1.00  0.00    -0.744 OA
ENDBRANCH  75  76
ENDBRANCH  43  68
BRANCH  55  80
ATOM     80  C   UNL     1      -2.480  17.177   9.449  1.00  0.00     0.058 A 
ATOM     81  C   UNL     1      -3.851  17.184   9.147  1.00  0.00     0.135 A 
ATOM     82  C   UNL     1      -1.960  18.277  10.151  1.00  0.00     0.135 A 
ATOM     83  F   UNL     1      -4.401  16.162   8.472  1.00  0.00    -0.206 F 
ATOM     84  C   UNL     1      -4.668  18.255   9.497  1.00  0.00     0.059 A 
ATOM     85  C   UNL     1      -2.765  19.344  10.540  1.00  0.00     0.059 A 
ATOM     86  F   UNL     1      -0.658  18.318  10.476  1.00  0.00    -0.206 F 
ATOM     87  C   UNL     1      -4.115  19.331  10.194  1.00  0.00     0.060 A 
BRANCH  87  88
ATOM     88  S   UNL     1      -5.189  20.707  10.655  1.00  0.00     0.124 S 
ATOM     89  O   UNL     1      -5.408  21.354   9.365  1.00  0.00    -0.237 OA
ATOM     90  O   UNL     1      -6.345  20.023  11.225  1.00  0.00    -0.237 OA
ATOM     91  O   UNL     1      -4.383  21.464  11.608  1.00  0.00    -0.744 OA
ENDBRANCH  87  88
ENDBRANCH  55  80
ENDBRANCH  29  30
ENDBRANCH  21  24
ENDBRANCH  19  20
ENDBRANCH  18  19
ENDBRANCH  17  18
ENDBRANCH   1  17
TORSDOF 20
