REMARK SMILES CC(C)n1ccc(C[C@@H](C(=O)NCCCCCCNC(=O)c2ccc(-c3c4nc(c(-c5c(F)cc(S(=O)(=O)[O-])cc5F)c5ccc([nH]5)c(-c5c(F)cc(S(=O)(=O)[O-])cc5F)c5nc(c(-c6c(F)cc(S(=O)(=O)[O-])cc6F)c6ccc3[nH]6)C=C5)C=C4)cc2)c2cccc(Cl)c2)n1
REMARK SMILES IDX 15 1 14 2 13 3 12 4 10 5 11 6 9 8 8 9 7 10 4 11 5 12 95 13
REMARK SMILES IDX 6 14 2 15 1 16 3 17 88 18 89 19 94 20 90 21 92 22 91 23
REMARK SMILES IDX 93 24 16 25 17 26 18 27 19 28 20 29 21 31 22 32 23 33 87 34
REMARK SMILES IDX 24 35 86 36 25 37 26 38 27 39 80 40 28 41 85 42 79 43 81 44
REMARK SMILES IDX 29 45 84 46 78 47 77 48 30 50 64 51 43 52 63 53 44 54 47 55
REMARK SMILES IDX 62 56 82 57 45 58 46 59 61 61 83 62 48 63 31 64 32 65 41 66
REMARK SMILES IDX 33 67 34 68 40 69 42 70 35 71 36 72 37 73 38 74 39 75 65 76
REMARK SMILES IDX 66 77 75 78 67 79 68 80 74 81 76 82 69 83 70 84 71 85 72 86
REMARK SMILES IDX 73 87 49 88 50 89 59 90 51 91 52 92 58 93 60 94 53 95 54 96
REMARK SMILES IDX 55 97 56 98 57 99
REMARK H PARENT 12 7 19 30 81 49 47 60
REMARK Flexibility Score: inf
ROOT
ATOM      1  C   UNL     1      -3.005  -5.040  -1.299  1.00  0.00     0.002 C 
ENDROOT
BRANCH   1   2
ATOM      2  C   UNL     1      -2.865  -3.521  -1.164  1.00  0.00     0.021 C 
BRANCH   2   3
ATOM      3  C   UNL     1      -3.439  -2.690  -2.322  1.00  0.00     0.116 C 
BRANCH   3   4
ATOM      4  N   UNL     1      -4.875  -2.550  -2.157  1.00  0.00    -0.356 N 
ATOM      5  C   UNL     1      -5.514  -1.590  -1.416  1.00  0.00     0.227 C 
ATOM      6  O   UNL     1      -6.432  -1.994  -0.698  1.00  0.00    -0.274 OA
ATOM      7  H   UNL     1      -5.443  -3.206  -2.622  1.00  0.00     0.163 HD
BRANCH   5   8
ATOM      8  C   UNL     1      -5.132  -0.096  -1.548  1.00  0.00     0.114 C 
BRANCH   8   9
ATOM      9  C   UNL     1      -4.379   0.404  -0.296  1.00  0.00     0.076 C 
BRANCH   9  10
ATOM     10  C   UNL     1      -3.148  -0.315   0.134  1.00  0.00     0.064 A 
ATOM     11  N   UNL     1      -1.095  -0.856   0.254  1.00  0.00    -0.270 N 
ATOM     12  C   UNL     1      -1.675  -1.421   1.354  1.00  0.00     0.109 A 
ATOM     13  N   UNL     1      -1.988  -0.200  -0.529  1.00  0.00    -0.178 NA
ATOM     14  C   UNL     1      -3.004  -1.083   1.308  1.00  0.00     0.045 A 
BRANCH  11  15
ATOM     15  C   UNL     1       0.304  -0.944  -0.164  1.00  0.00     0.101 C 
ATOM     16  C   UNL     1       1.054   0.354   0.128  1.00  0.00     0.033 C 
ATOM     17  C   UNL     1       1.050  -2.134   0.449  1.00  0.00     0.033 C 
ENDBRANCH  11  15
ENDBRANCH   9  10
ENDBRANCH   8   9
BRANCH   8  18
ATOM     18  C   UNL     1      -6.357   0.861  -1.724  1.00  0.00    -0.034 A 
ATOM     19  C   UNL     1      -6.122   2.242  -1.902  1.00  0.00     0.004 A 
ATOM     20  C   UNL     1      -7.697   0.460  -1.572  1.00  0.00     0.025 A 
ATOM     21  C   UNL     1      -7.158   3.180  -1.815  1.00  0.00     0.002 A 
ATOM     22  C   UNL     1      -8.732   1.399  -1.496  1.00  0.00     0.041 A 
ATOM     23  C   UNL     1      -8.465   2.759  -1.591  1.00  0.00     0.020 A 
ATOM     24  Cl  UNL     1     -10.353   0.871  -1.237  1.00  0.00    -0.084 Cl
ENDBRANCH   8  18
ENDBRANCH   5   8
ENDBRANCH   3   4
ENDBRANCH   2   3
ENDBRANCH   1   2
BRANCH   1  25
ATOM     25  C   UNL     1      -2.176  -5.684  -2.416  1.00  0.00     0.002 C 
BRANCH  25  26
ATOM     26  C   UNL     1      -0.685  -5.317  -2.451  1.00  0.00     0.021 C 
BRANCH  26  27
ATOM     27  C   UNL     1       0.078  -5.663  -1.176  1.00  0.00     0.116 C 
BRANCH  27  28
ATOM     28  N   UNL     1       0.231  -7.099  -0.988  1.00  0.00    -0.352 N 
ATOM     29  C   UNL     1       1.052  -7.757  -0.107  1.00  0.00     0.251 C 
ATOM     30  H   UNL     1      -0.324  -7.670  -1.567  1.00  0.00     0.163 HD
ATOM     31  O   UNL     1       1.338  -8.945  -0.311  1.00  0.00    -0.269 OA
BRANCH  29  32
ATOM     32  C   UNL     1       1.589  -7.068   1.083  1.00  0.00     0.039 A 
ATOM     33  C   UNL     1       2.869  -7.381   1.556  1.00  0.00     0.014 A 
ATOM     34  C   UNL     1       0.794  -6.148   1.771  1.00  0.00     0.014 A 
ATOM     35  C   UNL     1       3.360  -6.731   2.686  1.00  0.00     0.010 A 
ATOM     36  C   UNL     1       1.308  -5.446   2.841  1.00  0.00     0.010 A 
ATOM     37  C   UNL     1       2.579  -5.755   3.322  1.00  0.00    -0.014 A 
BRANCH  37  38
ATOM     38  C   UNL     1       3.171  -4.897   4.354  1.00  0.00     0.031 A 
ATOM     39  C   UNL     1       4.352  -4.133   3.853  1.00  0.00     0.074 A 
ATOM     40  C   UNL     1       2.557  -4.625   5.530  1.00  0.00     0.049 A 
ATOM     41  N   UNL     1       5.580  -4.197   4.250  1.00  0.00    -0.248 NA
ATOM     42  C   UNL     1       4.178  -3.327   2.628  1.00  0.00     0.031 C 
ATOM     43  C   UNL     1       1.236  -5.097   5.960  1.00  0.00     0.029 A 
ATOM     44  N   UNL     1       2.903  -3.773   6.540  1.00  0.00    -0.354 N 
ATOM     45  C   UNL     1       6.262  -3.229   3.512  1.00  0.00     0.074 A 
ATOM     46  C   UNL     1       5.425  -2.920   2.388  1.00  0.00     0.031 C 
ATOM     47  C   UNL     1       0.797  -4.343   6.992  1.00  0.00     0.029 A 
ATOM     48  C   UNL     1       1.850  -3.429   7.393  1.00  0.00     0.049 A 
ATOM     49  H   UNL     1       3.818  -3.429   6.657  1.00  0.00     0.167 HD
ATOM     50  C   UNL     1       7.292  -2.531   4.067  1.00  0.00     0.037 A 
ATOM     51  C   UNL     1       1.823  -2.437   8.326  1.00  0.00     0.037 A 
ATOM     52  C   UNL     1       7.803  -3.225   5.224  1.00  0.00     0.049 A 
ATOM     53  C   UNL     1       3.232  -2.064   8.602  1.00  0.00     0.074 A 
ATOM     54  C   UNL     1       8.324  -4.481   5.466  1.00  0.00     0.029 A 
ATOM     55  N   UNL     1       7.449  -2.717   6.448  1.00  0.00    -0.354 N 
ATOM     56  N   UNL     1       4.094  -2.847   9.187  1.00  0.00    -0.248 NA
ATOM     57  C   UNL     1       3.805  -0.970   7.835  1.00  0.00     0.031 C 
ATOM     58  C   UNL     1       7.847  -4.839   6.762  1.00  0.00     0.029 A 
ATOM     59  C   UNL     1       7.137  -3.755   7.281  1.00  0.00     0.049 A 
ATOM     60  H   UNL     1       7.423  -1.762   6.687  1.00  0.00     0.167 HD
ATOM     61  C   UNL     1       5.279  -2.636   8.500  1.00  0.00     0.074 A 
ATOM     62  C   UNL     1       5.069  -1.393   7.762  1.00  0.00     0.031 C 
ATOM     63  C   UNL     1       6.192  -3.643   8.370  1.00  0.00     0.037 A 
BRANCH  50  64
ATOM     64  C   UNL     1       7.515  -1.038   3.869  1.00  0.00     0.058 A 
ATOM     65  C   UNL     1       8.624  -0.430   4.500  1.00  0.00     0.135 A 
ATOM     66  C   UNL     1       6.549  -0.137   3.363  1.00  0.00     0.135 A 
ATOM     67  F   UNL     1       9.612  -1.178   5.016  1.00  0.00    -0.206 F 
ATOM     68  C   UNL     1       8.713   0.948   4.705  1.00  0.00     0.059 A 
ATOM     69  C   UNL     1       6.644   1.243   3.511  1.00  0.00     0.059 A 
ATOM     70  F   UNL     1       5.417  -0.536   2.776  1.00  0.00    -0.206 F 
ATOM     71  C   UNL     1       7.706   1.775   4.219  1.00  0.00     0.060 A 
BRANCH  71  72
ATOM     72  S   UNL     1       7.772   3.544   4.543  1.00  0.00     0.124 S 
ATOM     73  O   UNL     1       7.537   3.583   5.981  1.00  0.00    -0.237 OA
ATOM     74  O   UNL     1       9.123   3.878   4.103  1.00  0.00    -0.237 OA
ATOM     75  O   UNL     1       6.698   4.075   3.709  1.00  0.00    -0.744 OA
ENDBRANCH  71  72
ENDBRANCH  50  64
BRANCH  51  76
ATOM     76  C   UNL     1       0.688  -1.576   8.775  1.00  0.00     0.058 A 
ATOM     77  C   UNL     1       0.812  -0.728   9.895  1.00  0.00     0.135 A 
ATOM     78  C   UNL     1      -0.430  -1.340   7.951  1.00  0.00     0.135 A 
ATOM     79  F   UNL     1       1.850  -0.865  10.734  1.00  0.00    -0.206 F 
ATOM     80  C   UNL     1      -0.076   0.328  10.143  1.00  0.00     0.059 A 
ATOM     81  C   UNL     1      -1.335  -0.303   8.184  1.00  0.00     0.059 A 
ATOM     82  F   UNL     1      -0.625  -2.051   6.830  1.00  0.00    -0.206 F 
ATOM     83  C   UNL     1      -1.135   0.548   9.265  1.00  0.00     0.060 A 
BRANCH  83  84
ATOM     84  S   UNL     1      -2.170   2.022   9.460  1.00  0.00     0.124 S 
ATOM     85  O   UNL     1      -2.914   1.712  10.675  1.00  0.00    -0.237 OA
ATOM     86  O   UNL     1      -1.177   3.084   9.573  1.00  0.00    -0.237 OA
ATOM     87  O   UNL     1      -2.961   2.043   8.232  1.00  0.00    -0.744 OA
ENDBRANCH  83  84
ENDBRANCH  51  76
BRANCH  63  88
ATOM     88  C   UNL     1       6.113  -4.805   9.326  1.00  0.00     0.058 A 
ATOM     89  C   UNL     1       5.027  -5.687   9.461  1.00  0.00     0.135 A 
ATOM     90  C   UNL     1       7.264  -5.087  10.078  1.00  0.00     0.135 A 
ATOM     91  F   UNL     1       3.929  -5.557   8.701  1.00  0.00    -0.206 F 
ATOM     92  C   UNL     1       5.065  -6.763  10.352  1.00  0.00     0.059 A 
ATOM     93  C   UNL     1       7.339  -6.174  10.939  1.00  0.00     0.059 A 
ATOM     94  F   UNL     1       8.358  -4.317   9.951  1.00  0.00    -0.206 F 
ATOM     95  C   UNL     1       6.227  -6.995  11.090  1.00  0.00     0.060 A 
BRANCH  95  96
ATOM     96  S   UNL     1       6.293  -8.397  12.225  1.00  0.00     0.124 S 
ATOM     97  O   UNL     1       5.371  -7.984  13.277  1.00  0.00    -0.237 OA
ATOM     98  O   UNL     1       5.846  -9.505  11.387  1.00  0.00    -0.237 OA
ATOM     99  O   UNL     1       7.700  -8.453  12.617  1.00  0.00    -0.744 OA
ENDBRANCH  95  96
ENDBRANCH  63  88
ENDBRANCH  37  38
ENDBRANCH  29  32
ENDBRANCH  27  28
ENDBRANCH  26  27
ENDBRANCH  25  26
ENDBRANCH   1  25
TORSDOF 20
