REMARK SMILES O=C(NCCCCCCNC(=O)c1ccc(-c2c3nc(c(-c4c(F)cc(S(=O)(=O)[O-])cc4F)c4ccc([nH]4)c(-c4c(F)cc(S(=O)(=O)[O-])cc4F)c4nc(c(-c5c(F)cc(S(=O)(=O)[O-])cc5F)c5ccc2[nH]5)C=C4)C=C3)cc1)c1ccc(N[C@H]2OC[C@@H](O)[C@@H](O)[C@H]2O)cc1
REMARK SMILES IDX 6 1 5 2 4 3 3 4 1 5 2 6 79 8 80 9 94 10 81 11 93 12 82 13
REMARK SMILES IDX 83 14 84 16 85 17 91 18 86 19 89 20 87 21 92 22 90 24 88 26
REMARK SMILES IDX 7 28 8 29 9 30 10 31 11 32 12 34 13 35 14 36 78 37 15 38
REMARK SMILES IDX 77 39 16 40 17 41 18 42 71 43 19 44 76 45 70 46 72 47 20 48
REMARK SMILES IDX 75 49 69 50 68 51 21 53 55 54 34 55 54 56 35 57 38 58 53 59
REMARK SMILES IDX 73 60 36 61 37 62 52 64 74 65 39 66 22 67 23 68 32 69 24 70
REMARK SMILES IDX 25 71 31 72 33 73 26 74 27 75 28 76 29 77 30 78 56 79 57 80
REMARK SMILES IDX 66 81 58 82 59 83 65 84 67 85 60 86 61 87 62 88 63 89 64 90
REMARK SMILES IDX 40 91 41 92 50 93 42 94 43 95 49 96 51 97 44 98 45 99 46 100
REMARK SMILES IDX 47 101 48 102
REMARK H PARENT 3 7 83 15 92 23 90 25 88 27 10 33 72 52 38 63
REMARK Flexibility Score: inf
ROOT
ATOM      1  C   UNL     1       0.421  11.293   3.930  1.00  0.00     0.002 C 
ENDROOT
BRANCH   1   2
ATOM      2  C   UNL     1       1.482  10.191   3.878  1.00  0.00     0.021 C 
BRANCH   2   3
ATOM      3  C   UNL     1       2.015   9.872   2.484  1.00  0.00     0.116 C 
BRANCH   3   4
ATOM      4  N   UNL     1       2.719  11.000   1.893  1.00  0.00    -0.352 N 
ATOM      5  O   UNL     1       4.513  12.133   1.108  1.00  0.00    -0.269 OA
ATOM      6  C   UNL     1       4.006  11.059   1.420  1.00  0.00     0.251 C 
ATOM      7  H   UNL     1       2.201  11.835   1.823  1.00  0.00     0.163 HD
BRANCH   6   8
ATOM      8  C   UNL     1       4.790   9.814   1.307  1.00  0.00     0.039 A 
ATOM      9  C   UNL     1       4.282   8.720   0.609  1.00  0.00     0.016 A 
ATOM     10  C   UNL     1       6.046   9.739   1.903  1.00  0.00     0.016 A 
ATOM     11  C   UNL     1       4.993   7.519   0.593  1.00  0.00     0.026 A 
ATOM     12  C   UNL     1       6.756   8.534   1.865  1.00  0.00     0.026 A 
ATOM     13  C   UNL     1       6.224   7.390   1.246  1.00  0.00     0.036 A 
BRANCH  13  14
ATOM     14  N   UNL     1       6.973   6.223   1.246  1.00  0.00    -0.358 N 
ATOM     15  H   UNL     1       7.889   6.258   1.604  1.00  0.00     0.163 HD
BRANCH  14  16
ATOM     16  C   UNL     1       6.478   4.947   0.744  1.00  0.00     0.244 C 
ATOM     17  O   UNL     1       6.191   5.081  -0.650  1.00  0.00    -0.353 OA
ATOM     18  C   UNL     1       7.600   3.892   0.902  1.00  0.00     0.195 C 
ATOM     19  C   UNL     1       5.646   3.886  -1.222  1.00  0.00     0.197 C 
ATOM     20  C   UNL     1       7.131   2.562   0.301  1.00  0.00     0.178 C 
ATOM     21  C   UNL     1       6.657   2.741  -1.150  1.00  0.00     0.171 C 
BRANCH  18  22
ATOM     22  O   UNL     1       8.786   4.348   0.199  1.00  0.00    -0.386 OA
ATOM     23  H   UNL     1       8.577   4.470  -0.741  1.00  0.00     0.211 HD
ENDBRANCH  18  22
BRANCH  20  24
ATOM     24  O   UNL     1       8.191   1.604   0.355  1.00  0.00    -0.387 OA
ATOM     25  H   UNL     1       8.943   1.924  -0.168  1.00  0.00     0.211 HD
ENDBRANCH  20  24
BRANCH  21  26
ATOM     26  O   UNL     1       7.778   3.035  -1.999  1.00  0.00    -0.388 OA
ATOM     27  H   UNL     1       8.202   3.856  -1.703  1.00  0.00     0.211 HD
ENDBRANCH  21  26
ENDBRANCH  14  16
ENDBRANCH  13  14
ENDBRANCH   6   8
ENDBRANCH   3   4
ENDBRANCH   2   3
ENDBRANCH   1   2
BRANCH   1  28
ATOM     28  C   UNL     1      -0.804  11.075   3.037  1.00  0.00     0.002 C 
BRANCH  28  29
ATOM     29  C   UNL     1      -1.537   9.745   3.231  1.00  0.00     0.021 C 
BRANCH  29  30
ATOM     30  C   UNL     1      -2.000   9.457   4.655  1.00  0.00     0.116 C 
BRANCH  30  31
ATOM     31  N   UNL     1      -2.950  10.442   5.144  1.00  0.00    -0.352 N 
ATOM     32  C   UNL     1      -4.176  10.254   5.734  1.00  0.00     0.251 C 
ATOM     33  H   UNL     1      -2.674  11.381   5.037  1.00  0.00     0.163 HD
ATOM     34  O   UNL     1      -4.907  11.219   5.940  1.00  0.00    -0.269 OA
BRANCH  32  35
ATOM     35  C   UNL     1      -4.627   8.892   6.097  1.00  0.00     0.039 A 
ATOM     36  C   UNL     1      -5.937   8.512   5.791  1.00  0.00     0.014 A 
ATOM     37  C   UNL     1      -3.771   7.995   6.743  1.00  0.00     0.014 A 
ATOM     38  C   UNL     1      -6.368   7.214   6.076  1.00  0.00     0.010 A 
ATOM     39  C   UNL     1      -4.181   6.681   6.965  1.00  0.00     0.010 A 
ATOM     40  C   UNL     1      -5.483   6.277   6.635  1.00  0.00    -0.014 A 
BRANCH  40  41
ATOM     41  C   UNL     1      -5.900   4.870   6.874  1.00  0.00     0.031 A 
ATOM     42  C   UNL     1      -5.962   4.324   8.275  1.00  0.00     0.074 A 
ATOM     43  C   UNL     1      -6.159   4.065   5.825  1.00  0.00     0.049 A 
ATOM     44  N   UNL     1      -6.240   3.111   8.677  1.00  0.00    -0.248 NA
ATOM     45  C   UNL     1      -5.642   5.258   9.366  1.00  0.00     0.031 C 
ATOM     46  C   UNL     1      -6.091   4.463   4.417  1.00  0.00     0.029 A 
ATOM     47  N   UNL     1      -6.522   2.742   5.777  1.00  0.00    -0.354 N 
ATOM     48  C   UNL     1      -6.110   3.129  10.060  1.00  0.00     0.074 A 
ATOM     49  C   UNL     1      -5.684   4.463  10.425  1.00  0.00     0.031 C 
ATOM     50  C   UNL     1      -6.428   3.415   3.647  1.00  0.00     0.029 A 
ATOM     51  C   UNL     1      -6.697   2.262   4.500  1.00  0.00     0.049 A 
ATOM     52  H   UNL     1      -6.645   2.189   6.582  1.00  0.00     0.167 HD
ATOM     53  C   UNL     1      -6.342   2.131  10.947  1.00  0.00     0.037 A 
ATOM     54  C   UNL     1      -7.034   1.032   4.065  1.00  0.00     0.037 A 
ATOM     55  C   UNL     1      -6.797   0.815  10.581  1.00  0.00     0.049 A 
ATOM     56  C   UNL     1      -7.290  -0.058   5.069  1.00  0.00     0.074 A 
ATOM     57  C   UNL     1      -7.133  -0.241  11.410  1.00  0.00     0.029 A 
ATOM     58  N   UNL     1      -6.975   0.371   9.278  1.00  0.00    -0.354 N 
ATOM     59  N   UNL     1      -7.228  -0.004   6.378  1.00  0.00    -0.248 NA
ATOM     60  C   UNL     1      -7.665  -1.376   4.537  1.00  0.00     0.031 C 
ATOM     61  C   UNL     1      -7.471  -1.337  10.609  1.00  0.00     0.029 A 
ATOM     62  C   UNL     1      -7.391  -0.950   9.280  1.00  0.00     0.049 A 
ATOM     63  H   UNL     1      -6.827   0.915   8.471  1.00  0.00     0.167 HD
ATOM     64  C   UNL     1      -7.584  -1.271   6.828  1.00  0.00     0.074 A 
ATOM     65  C   UNL     1      -7.866  -2.067   5.651  1.00  0.00     0.031 C 
ATOM     66  C   UNL     1      -7.673  -1.731   8.101  1.00  0.00     0.037 A 
BRANCH  53  67
ATOM     67  C   UNL     1      -6.102   2.425  12.403  1.00  0.00     0.058 A 
ATOM     68  C   UNL     1      -6.937   3.286  13.133  1.00  0.00     0.135 A 
ATOM     69  C   UNL     1      -5.035   1.817  13.085  1.00  0.00     0.135 A 
ATOM     70  F   UNL     1      -7.965   3.904  12.528  1.00  0.00    -0.206 F 
ATOM     71  C   UNL     1      -6.701   3.565  14.475  1.00  0.00     0.059 A 
ATOM     72  C   UNL     1      -4.797   2.060  14.435  1.00  0.00     0.059 A 
ATOM     73  F   UNL     1      -4.205   0.983  12.438  1.00  0.00    -0.206 F 
ATOM     74  C   UNL     1      -5.625   2.950  15.117  1.00  0.00     0.060 A 
BRANCH  74  75
ATOM     75  S   UNL     1      -5.324   3.332  16.855  1.00  0.00     0.124 S 
ATOM     76  O   UNL     1      -4.763   4.677  16.763  1.00  0.00    -0.237 OA
ATOM     77  O   UNL     1      -6.660   3.241  17.433  1.00  0.00    -0.237 OA
ATOM     78  O   UNL     1      -4.391   2.291  17.275  1.00  0.00    -0.744 OA
ENDBRANCH  74  75
ENDBRANCH  53  67
BRANCH  54  79
ATOM     79  C   UNL     1      -7.180   0.777   2.608  1.00  0.00     0.058 A 
ATOM     80  C   UNL     1      -8.446   0.580   2.038  1.00  0.00     0.135 A 
ATOM     81  C   UNL     1      -6.066   0.749   1.754  1.00  0.00     0.135 A 
ATOM     82  F   UNL     1      -9.540   0.591   2.815  1.00  0.00    -0.206 F 
ATOM     83  C   UNL     1      -8.605   0.355   0.675  1.00  0.00     0.059 A 
ATOM     84  C   UNL     1      -6.201   0.549   0.384  1.00  0.00     0.059 A 
ATOM     85  F   UNL     1      -4.834   0.948   2.248  1.00  0.00    -0.206 F 
ATOM     86  C   UNL     1      -7.475   0.345  -0.145  1.00  0.00     0.060 A 
BRANCH  86  87
ATOM     87  S   UNL     1      -7.697   0.113  -1.923  1.00  0.00     0.124 S 
ATOM     88  O   UNL     1      -8.016  -1.308  -1.995  1.00  0.00    -0.237 OA
ATOM     89  O   UNL     1      -8.793   1.031  -2.217  1.00  0.00    -0.237 OA
ATOM     90  O   UNL     1      -6.402   0.499  -2.474  1.00  0.00    -0.744 OA
ENDBRANCH  86  87
ENDBRANCH  54  79
BRANCH  66  91
ATOM     91  C   UNL     1      -8.122  -3.152   8.293  1.00  0.00     0.058 A 
ATOM     92  C   UNL     1      -7.282  -4.238   8.002  1.00  0.00     0.135 A 
ATOM     93  C   UNL     1      -9.392  -3.430   8.824  1.00  0.00     0.135 A 
ATOM     94  F   UNL     1      -6.061  -4.028   7.486  1.00  0.00    -0.206 F 
ATOM     95  C   UNL     1      -7.693  -5.551   8.211  1.00  0.00     0.059 A 
ATOM     96  C   UNL     1      -9.814  -4.733   9.066  1.00  0.00     0.059 A 
ATOM     97  F   UNL     1     -10.231  -2.427   9.129  1.00  0.00    -0.206 F 
ATOM     98  C   UNL     1      -8.961  -5.788   8.746  1.00  0.00     0.060 A 
BRANCH  98  99
ATOM     99  S   UNL     1      -9.469  -7.494   9.047  1.00  0.00     0.124 S 
ATOM    100  O   UNL     1      -9.751  -7.959   7.693  1.00  0.00    -0.237 OA
ATOM    101  O   UNL     1      -8.285  -8.067   9.680  1.00  0.00    -0.237 OA
ATOM    102  O   UNL     1     -10.631  -7.353   9.918  1.00  0.00    -0.744 OA
ENDBRANCH  98  99
ENDBRANCH  66  91
ENDBRANCH  40  41
ENDBRANCH  32  35
ENDBRANCH  30  31
ENDBRANCH  29  30
ENDBRANCH  28  29
ENDBRANCH   1  28
TORSDOF 21
