REMARK SMILES CCOc1ccc(C(=O)NC(=S)Nc2cccc(C(=O)NCCCCCCNC(=O)c3ccc(-c4c5nc(c(-c6c(F)cc(S(=O)(=O)[O-])cc6F)c6ccc([nH]6)c(-c6c(F)cc(S(=O)(=O)[O-])cc6F)c6nc(c(-c7c(F)cc(S(=O)(=O)[O-])cc7F)c7ccc4[nH]7)C=C6)C=C5)cc3)c2C)cc1Br
REMARK SMILES IDX 23 1 22 2 21 3 19 4 20 5 18 7 14 8 15 9 97 10 16 11 98 12
REMARK SMILES IDX 17 13 13 14 11 16 12 17 10 18 8 19 9 20 7 22 4 23 5 24
REMARK SMILES IDX 100 25 6 26 99 27 101 28 3 29 2 30 1 31 24 32 25 33 26 34
REMARK SMILES IDX 27 35 28 36 29 37 30 39 31 40 32 41 96 42 33 43 95 44 34 45
REMARK SMILES IDX 35 46 36 47 89 48 37 49 94 50 88 51 90 52 38 53 93 54 87 55
REMARK SMILES IDX 86 56 39 58 73 59 52 60 72 61 53 62 56 63 71 64 91 65 54 66
REMARK SMILES IDX 55 67 70 69 92 70 57 71 40 72 41 73 50 74 42 75 43 76 49 77
REMARK SMILES IDX 51 78 44 79 45 80 46 81 47 82 48 83 74 84 75 85 84 86 76 87
REMARK SMILES IDX 77 88 83 89 85 90 78 91 79 92 80 93 81 94 82 95 58 96 59 97
REMARK SMILES IDX 68 98 60 99 61 100 67 101 69 102 62 103 63 104 64 105 65 106
REMARK SMILES IDX 66 107
REMARK H PARENT 21 6 13 15 10 21 28 38 90 57 56 68
REMARK Flexibility Score: inf
ROOT
ATOM      1  C   UNL     1      -1.101  -3.765   2.944  1.00  0.00     0.021 C 
ENDROOT
BRANCH   1   2
ATOM      2  C   UNL     1       0.414  -4.034   2.812  1.00  0.00     0.116 C 
BRANCH   2   3
ATOM      3  N   UNL     1       1.289  -3.790   1.599  1.00  0.00    -0.352 N 
ATOM      4  C   UNL     1       2.530  -3.143   1.220  1.00  0.00     0.251 C 
ATOM      5  O   UNL     1       2.964  -3.562   0.134  1.00  0.00    -0.269 OA
ATOM      6  H   UNL     1       0.881  -4.209   0.807  1.00  0.00     0.163 HD
BRANCH   4   7
ATOM      7  C   UNL     1       3.444  -1.848   1.878  1.00  0.00     0.044 A 
ATOM      8  C   UNL     1       4.753   0.844   0.851  1.00  0.00     0.044 A 
ATOM      9  C   UNL     1       5.045   1.396   2.524  1.00  0.00     0.026 A 
ATOM     10  C   UNL     1       3.861  -0.704   0.489  1.00  0.00    -0.015 A 
ATOM     11  C   UNL     1       4.652   0.478   3.943  1.00  0.00     0.003 A 
ATOM     12  C   UNL     1       3.720  -1.056  -0.961  1.00  0.00     0.047 C 
ATOM     13  C   UNL     1       3.911  -1.129   3.733  1.00  0.00     0.014 A 
BRANCH   8  14
ATOM     14  N   UNL     1       6.135   0.822   0.234  1.00  0.00    -0.332 N 
ATOM     15  H   UNL     1       6.196   1.147  -0.693  1.00  0.00     0.169 HD
BRANCH  14  16
ATOM     16  C   UNL     1       7.361   0.392   0.823  1.00  0.00     0.177 C 
ATOM     17  S   UNL     1       8.740   1.279   0.459  1.00  0.00    -0.040 S 
BRANCH  16  18
ATOM     18  N   UNL     1       7.553  -0.819   1.665  1.00  0.00    -0.299 N 
ATOM     19  C   UNL     1       7.016  -2.067   2.423  1.00  0.00     0.257 C 
ATOM     20  O   UNL     1       7.816  -2.878   2.881  1.00  0.00    -0.269 OA
ATOM     21  H   UNL     1       8.524  -0.844   1.827  1.00  0.00     0.172 HD
BRANCH  19  22
ATOM     22  C   UNL     1       5.534  -2.209   2.703  1.00  0.00     0.041 A 
ATOM     23  C   UNL     1       1.925  -1.210   3.151  1.00  0.00     0.133 A 
ATOM     24  C   UNL     1       2.672  -2.797   3.711  1.00  0.00     0.048 A 
ATOM     25  C   UNL     1       3.076  -0.035   2.414  1.00  0.00     0.060 A 
ATOM     26  C   UNL     1       4.403  -3.255   3.444  1.00  0.00     0.018 A 
ATOM     27  C   UNL     1       4.944  -0.743   2.242  1.00  0.00     0.033 A 
ATOM     28  Br  UNL     1       2.237   1.770   2.247  1.00  0.00    -0.047 Br
BRANCH  23  29
ATOM     29  O   UNL     1       0.583  -0.949   2.995  1.00  0.00    -0.493 OA
BRANCH  29  30
ATOM     30  C   UNL     1       0.018  -1.011   1.644  1.00  0.00     0.226 C 
ATOM     31  C   UNL     1       0.280   0.005   0.536  1.00  0.00     0.049 C 
ENDBRANCH  29  30
ENDBRANCH  23  29
ENDBRANCH  19  22
ENDBRANCH  16  18
ENDBRANCH  14  16
ENDBRANCH   8  14
ENDBRANCH   4   7
ENDBRANCH   2   3
ENDBRANCH   1   2
BRANCH   1  32
ATOM     32  C   UNL     1      -2.100  -4.917   2.990  1.00  0.00     0.002 C 
BRANCH  32  33
ATOM     33  C   UNL     1      -1.623  -6.269   3.521  1.00  0.00     0.002 C 
BRANCH  33  34
ATOM     34  C   UNL     1      -0.952  -6.306   4.894  1.00  0.00     0.021 C 
BRANCH  34  35
ATOM     35  C   UNL     1      -1.862  -6.032   6.067  1.00  0.00     0.116 C 
BRANCH  35  36
ATOM     36  N   UNL     1      -2.737  -7.134   6.430  1.00  0.00    -0.352 N 
ATOM     37  C   UNL     1      -3.110  -7.375   7.751  1.00  0.00     0.251 C 
ATOM     38  H   UNL     1      -3.076  -7.729   5.722  1.00  0.00     0.163 HD
ATOM     39  O   UNL     1      -2.903  -8.419   8.351  1.00  0.00    -0.269 OA
BRANCH  37  40
ATOM     40  C   UNL     1      -3.876  -6.274   8.373  1.00  0.00     0.039 A 
ATOM     41  C   UNL     1      -5.223  -6.460   8.698  1.00  0.00     0.014 A 
ATOM     42  C   UNL     1      -3.310  -5.005   8.338  1.00  0.00     0.014 A 
ATOM     43  C   UNL     1      -6.051  -5.350   8.782  1.00  0.00     0.010 A 
ATOM     44  C   UNL     1      -4.140  -3.934   8.232  1.00  0.00     0.010 A 
ATOM     45  C   UNL     1      -5.508  -4.118   8.440  1.00  0.00    -0.014 A 
BRANCH  45  46
ATOM     46  C   UNL     1      -6.204  -2.857   8.470  1.00  0.00     0.031 A 
ATOM     47  C   UNL     1      -6.115  -2.130   9.749  1.00  0.00     0.074 A 
ATOM     48  C   UNL     1      -6.539  -2.339   7.270  1.00  0.00     0.049 A 
ATOM     49  N   UNL     1      -6.856  -1.140  10.075  1.00  0.00    -0.248 NA
ATOM     50  C   UNL     1      -5.170  -2.499  10.811  1.00  0.00     0.031 C 
ATOM     51  C   UNL     1      -6.789  -0.956   6.895  1.00  0.00     0.029 A 
ATOM     52  N   UNL     1      -6.881  -3.065   6.125  1.00  0.00    -0.354 N 
ATOM     53  C   UNL     1      -6.265  -0.533  11.167  1.00  0.00     0.074 A 
ATOM     54  C   UNL     1      -5.306  -1.481  11.665  1.00  0.00     0.031 C 
ATOM     55  C   UNL     1      -7.513  -0.939   5.758  1.00  0.00     0.029 A 
ATOM     56  C   UNL     1      -7.871  -2.320   5.459  1.00  0.00     0.049 A 
ATOM     57  H   UNL     1      -6.503  -3.928   5.840  1.00  0.00     0.167 HD
ATOM     58  C   UNL     1      -6.533   0.784  11.383  1.00  0.00     0.037 A 
ATOM     59  C   UNL     1      -9.154  -2.800   5.442  1.00  0.00     0.037 A 
ATOM     60  C   UNL     1      -7.479   1.243  10.368  1.00  0.00     0.049 A 
ATOM     61  C   UNL     1     -10.082  -1.939   6.269  1.00  0.00     0.074 A 
ATOM     62  C   UNL     1      -7.279   1.846   9.137  1.00  0.00     0.029 A 
ATOM     63  N   UNL     1      -8.756   0.699  10.341  1.00  0.00    -0.354 N 
ATOM     64  N   UNL     1      -9.705  -1.237   7.305  1.00  0.00    -0.248 NA
ATOM     65  C   UNL     1     -11.487  -1.734   5.934  1.00  0.00     0.031 C 
ATOM     66  C   UNL     1      -8.429   1.607   8.345  1.00  0.00     0.029 A 
ATOM     67  C   UNL     1      -9.325   0.862   9.094  1.00  0.00     0.049 A 
ATOM     68  H   UNL     1      -9.194   0.259  11.105  1.00  0.00     0.167 HD
ATOM     69  C   UNL     1     -10.763  -0.493   7.761  1.00  0.00     0.074 A 
ATOM     70  C   UNL     1     -11.852  -0.837   6.865  1.00  0.00     0.031 C 
ATOM     71  C   UNL     1     -10.665   0.367   8.821  1.00  0.00     0.037 A 
BRANCH  58  72
ATOM     72  C   UNL     1      -5.741   1.722  12.266  1.00  0.00     0.058 A 
ATOM     73  C   UNL     1      -5.699   3.101  11.958  1.00  0.00     0.135 A 
ATOM     74  C   UNL     1      -5.002   1.353  13.408  1.00  0.00     0.135 A 
ATOM     75  F   UNL     1      -6.383   3.615  10.927  1.00  0.00    -0.206 F 
ATOM     76  C   UNL     1      -4.952   4.026  12.682  1.00  0.00     0.059 A 
ATOM     77  C   UNL     1      -4.216   2.260  14.135  1.00  0.00     0.059 A 
ATOM     78  F   UNL     1      -5.043   0.106  13.896  1.00  0.00    -0.206 F 
ATOM     79  C   UNL     1      -4.201   3.598  13.764  1.00  0.00     0.060 A 
BRANCH  79  80
ATOM     80  S   UNL     1      -3.249   4.826  14.673  1.00  0.00     0.124 S 
ATOM     81  O   UNL     1      -2.397   5.387  13.628  1.00  0.00    -0.237 OA
ATOM     82  O   UNL     1      -4.296   5.708  15.178  1.00  0.00    -0.237 OA
ATOM     83  O   UNL     1      -2.552   4.038  15.685  1.00  0.00    -0.744 OA
ENDBRANCH  79  80
ENDBRANCH  58  72
BRANCH  59  84
ATOM     84  C   UNL     1      -9.181  -4.298   5.352  1.00  0.00     0.058 A 
ATOM     85  C   UNL     1      -8.666  -4.868   4.167  1.00  0.00     0.135 A 
ATOM     86  C   UNL     1      -9.165  -5.097   6.506  1.00  0.00     0.135 A 
ATOM     87  F   UNL     1      -8.687  -4.165   3.022  1.00  0.00    -0.206 F 
ATOM     88  C   UNL     1      -7.968  -6.073   4.175  1.00  0.00     0.059 A 
ATOM     89  C   UNL     1      -8.486  -6.321   6.529  1.00  0.00     0.059 A 
ATOM     90  F   UNL     1      -9.662  -4.629   7.660  1.00  0.00    -0.206 F 
ATOM     91  C   UNL     1      -7.816  -6.751   5.381  1.00  0.00     0.060 A 
BRANCH  91  92
ATOM     92  S   UNL     1      -6.604  -8.096   5.449  1.00  0.00     0.124 S 
ATOM     93  O   UNL     1      -7.112  -9.012   4.434  1.00  0.00    -0.237 OA
ATOM     94  O   UNL     1      -5.356  -7.406   5.113  1.00  0.00    -0.237 OA
ATOM     95  O   UNL     1      -6.701  -8.569   6.824  1.00  0.00    -0.744 OA
ENDBRANCH  91  92
ENDBRANCH  59  84
BRANCH  71  96
ATOM     96  C   UNL     1     -11.822   0.921   9.625  1.00  0.00     0.058 A 
ATOM     97  C   UNL     1     -13.108   0.357   9.638  1.00  0.00     0.135 A 
ATOM     98  C   UNL     1     -11.628   1.988  10.543  1.00  0.00     0.135 A 
ATOM     99  F   UNL     1     -13.399  -0.755   8.949  1.00  0.00    -0.206 F 
ATOM    100  C   UNL     1     -14.149   0.885  10.398  1.00  0.00     0.059 A 
ATOM    101  C   UNL     1     -12.629   2.472  11.376  1.00  0.00     0.059 A 
ATOM    102  F   UNL     1     -10.446   2.606  10.682  1.00  0.00    -0.206 F 
ATOM    103  C   UNL     1     -13.902   1.947  11.258  1.00  0.00     0.060 A 
BRANCH 103 104
ATOM    104  S   UNL     1     -15.253   2.626  12.226  1.00  0.00     0.124 S 
ATOM    105  O   UNL     1     -15.929   3.452  11.231  1.00  0.00    -0.237 OA
ATOM    106  O   UNL     1     -15.973   1.428  12.648  1.00  0.00    -0.237 OA
ATOM    107  O   UNL     1     -14.576   3.353  13.296  1.00  0.00    -0.744 OA
ENDBRANCH 103 104
ENDBRANCH  71  96
ENDBRANCH  45  46
ENDBRANCH  37  40
ENDBRANCH  35  36
ENDBRANCH  34  35
ENDBRANCH  33  34
ENDBRANCH  32  33
ENDBRANCH   1  32
TORSDOF 22
