REMARK SMILES COc1ccc(NC2=[NH+]C(=O)/C(=C\c3ccccc3C(=O)NCCCCCCNC(=O)c3ccc(-c4c5nc(c(-c6c(F)cc(S(=O)(=O)[O-])cc6F)c6ccc([nH]6)c(-c6c(F)cc(S(=O)(=O)[O-])cc6F)c6nc(c(-c7c(F)cc(S(=O)(=O)[O-])cc7F)c7ccc4[nH]7)C=C6)C=C5)cc3)S2)cc1
REMARK SMILES IDX 25 1 24 2 23 3 22 4 20 5 21 6 19 8 14 9 15 10 16 11 18 12
REMARK SMILES IDX 17 13 13 14 7 15 8 16 9 18 98 19 10 20 12 22 11 23 6 24 3 25
REMARK SMILES IDX 4 26 100 27 5 28 99 29 2 30 1 31 26 32 27 33 28 34 29 35
REMARK SMILES IDX 30 36 31 38 32 39 33 40 97 41 34 42 96 43 35 44 36 45 37 46
REMARK SMILES IDX 90 47 38 48 95 49 89 50 91 51 39 52 94 53 88 54 87 55 40 57
REMARK SMILES IDX 74 58 53 59 73 60 54 61 57 62 72 63 92 64 55 65 56 66 71 68
REMARK SMILES IDX 93 69 58 70 41 71 42 72 51 73 43 74 44 75 50 76 52 77 45 78
REMARK SMILES IDX 46 79 47 80 48 81 49 82 75 83 76 84 85 85 77 86 78 87 84 88
REMARK SMILES IDX 86 89 79 90 80 91 81 92 82 93 83 94 59 95 60 96 69 97 61 98
REMARK SMILES IDX 62 99 68 100 70 101 63 102 64 103 65 104 66 105 67 106
REMARK H PARENT 22 7 7 17 9 21 29 37 91 56 57 67
REMARK Flexibility Score: inf
ROOT
ATOM      1  C   UNL     1      -2.580   0.754   5.685  1.00  0.00     0.002 C 
ENDROOT
BRANCH   1   2
ATOM      2  C   UNL     1      -3.318   0.687   7.026  1.00  0.00     0.021 C 
BRANCH   2   3
ATOM      3  C   UNL     1      -2.532   1.113   8.264  1.00  0.00     0.116 C 
BRANCH   3   4
ATOM      4  N   UNL     1      -2.231   2.527   8.332  1.00  0.00    -0.352 N 
ATOM      5  C   UNL     1      -2.077   3.322   9.446  1.00  0.00     0.251 C 
ATOM      6  O   UNL     1      -1.978   4.538   9.292  1.00  0.00    -0.269 OA
ATOM      7  H   UNL     1      -2.120   2.981   7.465  1.00  0.00     0.163 HD
BRANCH   5   8
ATOM      8  C   UNL     1      -2.160   2.758  10.824  1.00  0.00     0.047 A 
ATOM      9  C   UNL     1      -1.475   1.628  11.316  1.00  0.00    -0.011 A 
ATOM     10  C   UNL     1      -1.847   1.137  12.588  1.00  0.00     0.009 A 
ATOM     11  C   UNL     1      -2.792   1.789  13.384  1.00  0.00     0.001 A 
ATOM     12  C   UNL     1      -3.061   3.445  11.666  1.00  0.00     0.014 A 
ATOM     13  C   UNL     1      -3.374   2.965  12.937  1.00  0.00     0.001 A 
BRANCH   9  14
ATOM     14  C   UNL     1      -0.448   0.811  10.635  1.00  0.00     0.032 C 
ATOM     15  N   UNL     1       2.587   0.761   6.734  1.00  0.00    -0.235 N 
ATOM     16  C   UNL     1       1.998   1.252   7.863  1.00  0.00     0.322 C 
ATOM     17  H   UNL     1       3.297   0.092   6.868  1.00  0.00     0.313 HD
ATOM     18  N   UNL     1       1.664   2.453   8.187  1.00  0.00    -0.199 N 
ATOM     19  S   UNL     1       1.570   0.010   9.037  1.00  0.00     0.006 SA
ATOM     20  C   UNL     1       1.035   2.525   9.419  1.00  0.00     0.346 C 
ATOM     21  H   UNL     1       1.837   3.238   7.618  1.00  0.00     0.316 HD
ATOM     22  C   UNL     1       0.582   1.170   9.855  1.00  0.00     0.110 C 
ATOM     23  O   UNL     1       0.905   3.524  10.092  1.00  0.00    -0.240 OA
BRANCH  15  24
ATOM     24  C   UNL     1       2.297   1.102   5.398  1.00  0.00     0.125 A 
ATOM     25  C   UNL     1       1.506   1.455   2.701  1.00  0.00     0.119 A 
ATOM     26  C   UNL     1       1.103   2.355   3.688  1.00  0.00     0.051 A 
ATOM     27  C   UNL     1       2.376   0.425   3.047  1.00  0.00     0.051 A 
ATOM     28  C   UNL     1       1.505   2.190   5.022  1.00  0.00     0.055 A 
ATOM     29  C   UNL     1       2.773   0.260   4.380  1.00  0.00     0.055 A 
BRANCH  25  30
ATOM     30  O   UNL     1       0.989   1.681   1.456  1.00  0.00    -0.497 OA
ATOM     31  C   UNL     1       1.147   0.631   0.505  1.00  0.00     0.278 C 
ENDBRANCH  25  30
ENDBRANCH  15  24
ENDBRANCH   9  14
ENDBRANCH   5   8
ENDBRANCH   3   4
ENDBRANCH   2   3
ENDBRANCH   1   2
BRANCH   1  32
ATOM     32  C   UNL     1      -1.142   0.241   5.668  1.00  0.00     0.002 C 
BRANCH  32  33
ATOM     33  C   UNL     1      -0.911  -1.221   6.036  1.00  0.00     0.021 C 
BRANCH  33  34
ATOM     34  C   UNL     1      -1.375  -2.234   4.997  1.00  0.00     0.116 C 
BRANCH  34  35
ATOM     35  N   UNL     1      -0.728  -2.076   3.699  1.00  0.00    -0.352 N 
ATOM     36  C   UNL     1      -0.131  -2.999   2.874  1.00  0.00     0.251 C 
ATOM     37  H   UNL     1      -0.717  -1.153   3.357  1.00  0.00     0.163 HD
ATOM     38  O   UNL     1       0.455  -2.618   1.863  1.00  0.00    -0.269 OA
BRANCH  36  39
ATOM     39  C   UNL     1      -0.142  -4.441   3.208  1.00  0.00     0.039 A 
ATOM     40  C   UNL     1       0.993  -5.206   2.914  1.00  0.00     0.014 A 
ATOM     41  C   UNL     1      -1.249  -5.047   3.802  1.00  0.00     0.014 A 
ATOM     42  C   UNL     1       1.045  -6.550   3.291  1.00  0.00     0.010 A 
ATOM     43  C   UNL     1      -1.156  -6.351   4.273  1.00  0.00     0.010 A 
ATOM     44  C   UNL     1      -0.012  -7.120   4.017  1.00  0.00    -0.014 A 
BRANCH  44  45
ATOM     45  C   UNL     1       0.044  -8.520   4.506  1.00  0.00     0.031 A 
ATOM     46  C   UNL     1      -0.999  -9.508   4.054  1.00  0.00     0.074 A 
ATOM     47  C   UNL     1       0.972  -8.872   5.418  1.00  0.00     0.049 A 
ATOM     48  N   UNL     1      -1.210 -10.732   4.462  1.00  0.00    -0.248 NA
ATOM     49  C   UNL     1      -1.963  -9.040   3.044  1.00  0.00     0.031 C 
ATOM     50  C   UNL     1       1.989  -7.980   5.981  1.00  0.00     0.029 A 
ATOM     51  N   UNL     1       1.204 -10.070   6.044  1.00  0.00    -0.354 N 
ATOM     52  C   UNL     1      -2.348 -11.163   3.790  1.00  0.00     0.074 A 
ATOM     53  C   UNL     1      -2.816 -10.052   2.992  1.00  0.00     0.031 C 
ATOM     54  C   UNL     1       2.754  -8.669   6.843  1.00  0.00     0.029 A 
ATOM     55  C   UNL     1       2.260 -10.039   6.924  1.00  0.00     0.049 A 
ATOM     56  H   UNL     1       0.665 -10.877   5.878  1.00  0.00     0.167 HD
ATOM     57  C   UNL     1      -2.934 -12.383   3.815  1.00  0.00     0.037 A 
ATOM     58  C   UNL     1       2.771 -11.008   7.708  1.00  0.00     0.037 A 
ATOM     59  C   UNL     1      -2.418 -13.499   4.561  1.00  0.00     0.049 A 
ATOM     60  C   UNL     1       2.147 -12.376   7.664  1.00  0.00     0.074 A 
ATOM     61  C   UNL     1      -2.883 -14.801   4.600  1.00  0.00     0.029 A 
ATOM     62  N   UNL     1      -1.304 -13.445   5.388  1.00  0.00    -0.354 N 
ATOM     63  N   UNL     1       1.101 -12.780   6.983  1.00  0.00    -0.248 NA
ATOM     64  C   UNL     1       2.775 -13.420   8.484  1.00  0.00     0.031 C 
ATOM     65  C   UNL     1      -2.062 -15.530   5.468  1.00  0.00     0.029 A 
ATOM     66  C   UNL     1      -1.067 -14.690   5.943  1.00  0.00     0.049 A 
ATOM     67  H   UNL     1      -0.763 -12.640   5.554  1.00  0.00     0.167 HD
ATOM     68  C   UNL     1       0.957 -14.131   7.275  1.00  0.00     0.074 A 
ATOM     69  C   UNL     1       2.032 -14.477   8.183  1.00  0.00     0.031 C 
ATOM     70  C   UNL     1       0.020 -15.007   6.835  1.00  0.00     0.037 A 
BRANCH  57  71
ATOM     71  C   UNL     1      -4.181 -12.575   2.996  1.00  0.00     0.058 A 
ATOM     72  C   UNL     1      -4.145 -12.592   1.592  1.00  0.00     0.135 A 
ATOM     73  C   UNL     1      -5.427 -12.754   3.619  1.00  0.00     0.135 A 
ATOM     74  F   UNL     1      -2.984 -12.408   0.944  1.00  0.00    -0.206 F 
ATOM     75  C   UNL     1      -5.302 -12.742   0.835  1.00  0.00     0.059 A 
ATOM     76  C   UNL     1      -6.594 -12.934   2.881  1.00  0.00     0.059 A 
ATOM     77  F   UNL     1      -5.521 -12.744   4.958  1.00  0.00    -0.206 F 
ATOM     78  C   UNL     1      -6.523 -12.908   1.489  1.00  0.00     0.060 A 
BRANCH  78  79
ATOM     79  S   UNL     1      -8.017 -13.096   0.493  1.00  0.00     0.124 S 
ATOM     80  O   UNL     1      -8.242 -11.724   0.048  1.00  0.00    -0.237 OA
ATOM     81  O   UNL     1      -7.590 -14.034  -0.540  1.00  0.00    -0.237 OA
ATOM     82  O   UNL     1      -8.995 -13.617   1.443  1.00  0.00    -0.744 OA
ENDBRANCH  78  79
ENDBRANCH  57  71
BRANCH  58  83
ATOM     83  C   UNL     1       3.955 -10.729   8.562  1.00  0.00     0.058 A 
ATOM     84  C   UNL     1       5.215 -11.253   8.236  1.00  0.00     0.135 A 
ATOM     85  C   UNL     1       3.862  -9.915   9.701  1.00  0.00     0.135 A 
ATOM     86  F   UNL     1       5.354 -12.038   7.156  1.00  0.00    -0.206 F 
ATOM     87  C   UNL     1       6.338 -10.995   9.015  1.00  0.00     0.059 A 
ATOM     88  C   UNL     1       4.975  -9.624  10.485  1.00  0.00     0.059 A 
ATOM     89  F   UNL     1       2.684  -9.370  10.044  1.00  0.00    -0.206 F 
ATOM     90  C   UNL     1       6.207 -10.177  10.139  1.00  0.00     0.060 A 
BRANCH  90  91
ATOM     91  S   UNL     1       7.681  -9.802  11.115  1.00  0.00     0.124 S 
ATOM     92  O   UNL     1       7.875 -11.050  11.842  1.00  0.00    -0.237 OA
ATOM     93  O   UNL     1       8.667  -9.503  10.081  1.00  0.00    -0.237 OA
ATOM     94  O   UNL     1       7.264  -8.658  11.920  1.00  0.00    -0.744 OA
ENDBRANCH  90  91
ENDBRANCH  58  83
BRANCH  70  95
ATOM     95  C   UNL     1       0.136 -16.427   7.304  1.00  0.00     0.058 A 
ATOM     96  C   UNL     1      -0.227 -16.800   8.606  1.00  0.00     0.135 A 
ATOM     97  C   UNL     1       0.559 -17.433   6.421  1.00  0.00     0.135 A 
ATOM     98  F   UNL     1      -0.632 -15.871   9.487  1.00  0.00    -0.206 F 
ATOM     99  C   UNL     1      -0.158 -18.123   9.025  1.00  0.00     0.059 A 
ATOM    100  C   UNL     1       0.614 -18.766   6.811  1.00  0.00     0.059 A 
ATOM    101  F   UNL     1       0.908 -17.125   5.162  1.00  0.00    -0.206 F 
ATOM    102  C   UNL     1       0.262 -19.100   8.119  1.00  0.00     0.060 A 
BRANCH 102 103
ATOM    103  S   UNL     1       0.309 -20.821   8.661  1.00  0.00     0.124 S 
ATOM    104  O   UNL     1       1.522 -20.839   9.472  1.00  0.00    -0.237 OA
ATOM    105  O   UNL     1      -0.946 -20.953   9.394  1.00  0.00    -0.237 OA
ATOM    106  O   UNL     1       0.378 -21.568   7.408  1.00  0.00    -0.744 OA
ENDBRANCH 102 103
ENDBRANCH  70  95
ENDBRANCH  44  45
ENDBRANCH  36  39
ENDBRANCH  34  35
ENDBRANCH  33  34
ENDBRANCH  32  33
ENDBRANCH   1  32
TORSDOF 19
