REMARK SMILES O=C(NCCCCCCNC(=O)[C@H]1CC[C@H](CN2C(=O)c3cccnc3C2=O)O1)c1ccc(-c2c3nc(c(-c4c(F)cc(S(=O)(=O)[O-])cc4F)c4ccc([nH]4)c(-c4c(F)cc(S(=O)(=O)[O-])cc4F)c4nc(c(-c5c(F)cc(S(=O)(=O)[O-])cc5F)c5ccc2[nH]5)C=C4)C=C3)cc1
REMARK SMILES IDX 6 1 5 2 4 3 3 4 1 5 2 6 30 8 31 9 95 10 32 11 94 12 33 13
REMARK SMILES IDX 34 14 35 15 88 16 36 17 93 18 87 19 89 20 37 21 92 22 86 23
REMARK SMILES IDX 85 24 38 26 72 27 51 28 71 29 52 30 55 31 70 32 90 33 53 34
REMARK SMILES IDX 54 35 69 37 91 38 56 39 39 40 40 41 49 42 41 43 42 44 48 45
REMARK SMILES IDX 50 46 43 47 44 48 45 49 46 50 47 51 73 52 74 53 83 54 75 55
REMARK SMILES IDX 76 56 82 57 84 58 77 59 78 60 79 61 80 62 81 63 57 64 58 65
REMARK SMILES IDX 67 66 59 67 60 68 66 69 68 70 61 71 62 72 63 73 64 74 65 75
REMARK SMILES IDX 7 76 8 77 9 78 10 79 11 80 12 82 13 83 14 84 29 85 15 86
REMARK SMILES IDX 16 87 17 88 18 89 19 90 27 91 20 92 21 93 26 94 28 95 22 96
REMARK SMILES IDX 25 97 23 98 24 99
REMARK H PARENT 3 7 89 25 55 36 10 81
REMARK Flexibility Score: inf
ROOT
ATOM      1  C   UNL     1       8.366  10.125   0.392  1.00  0.00     0.002 C 
ENDROOT
BRANCH   1   2
ATOM      2  C   UNL     1       7.899  11.414  -0.281  1.00  0.00     0.021 C 
BRANCH   2   3
ATOM      3  C   UNL     1       6.514  11.874   0.143  1.00  0.00     0.116 C 
BRANCH   3   4
ATOM      4  N   UNL     1       6.458  12.252   1.547  1.00  0.00    -0.352 N 
ATOM      5  O   UNL     1       6.204  13.666   3.291  1.00  0.00    -0.269 OA
ATOM      6  C   UNL     1       6.029  13.436   2.099  1.00  0.00     0.251 C 
ATOM      7  H   UNL     1       6.768  11.569   2.186  1.00  0.00     0.163 HD
BRANCH   6   8
ATOM      8  C   UNL     1       5.375  14.435   1.228  1.00  0.00     0.039 A 
ATOM      9  C   UNL     1       4.414  14.027   0.301  1.00  0.00     0.014 A 
ATOM     10  C   UNL     1       5.747  15.779   1.311  1.00  0.00     0.014 A 
ATOM     11  C   UNL     1       3.949  14.925  -0.647  1.00  0.00     0.010 A 
ATOM     12  C   UNL     1       5.186  16.708   0.428  1.00  0.00     0.010 A 
ATOM     13  C   UNL     1       4.299  16.284  -0.573  1.00  0.00    -0.014 A 
BRANCH  13  14
ATOM     14  C   UNL     1       3.629  17.238  -1.494  1.00  0.00     0.031 A 
ATOM     15  C   UNL     1       4.401  18.044  -2.502  1.00  0.00     0.074 A 
ATOM     16  C   UNL     1       2.285  17.329  -1.433  1.00  0.00     0.049 A 
ATOM     17  N   UNL     1       3.948  18.888  -3.393  1.00  0.00    -0.248 NA
ATOM     18  C   UNL     1       5.864  17.893  -2.512  1.00  0.00     0.031 C 
ATOM     19  C   UNL     1       1.436  16.606  -0.478  1.00  0.00     0.029 A 
ATOM     20  N   UNL     1       1.391  18.038  -2.192  1.00  0.00    -0.354 N 
ATOM     21  C   UNL     1       5.063  19.375  -4.065  1.00  0.00     0.074 A 
ATOM     22  C   UNL     1       6.221  18.755  -3.456  1.00  0.00     0.031 C 
ATOM     23  C   UNL     1       0.150  16.862  -0.746  1.00  0.00     0.029 A 
ATOM     24  C   UNL     1       0.080  17.830  -1.831  1.00  0.00     0.049 A 
ATOM     25  H   UNL     1       1.661  18.637  -2.924  1.00  0.00     0.167 HD
ATOM     26  C   UNL     1       5.110  20.250  -5.100  1.00  0.00     0.037 A 
ATOM     27  C   UNL     1      -1.055  18.379  -2.299  1.00  0.00     0.037 A 
ATOM     28  C   UNL     1       3.944  20.857  -5.697  1.00  0.00     0.049 A 
ATOM     29  C   UNL     1      -0.965  19.374  -3.419  1.00  0.00     0.074 A 
ATOM     30  C   UNL     1       3.886  21.741  -6.762  1.00  0.00     0.029 A 
ATOM     31  N   UNL     1       2.636  20.651  -5.282  1.00  0.00    -0.354 N 
ATOM     32  N   UNL     1       0.098  19.795  -4.063  1.00  0.00    -0.248 NA
ATOM     33  C   UNL     1      -2.225  19.970  -3.876  1.00  0.00     0.031 C 
ATOM     34  C   UNL     1       2.550  22.109  -6.955  1.00  0.00     0.029 A 
ATOM     35  C   UNL     1       1.767  21.408  -6.053  1.00  0.00     0.049 A 
ATOM     36  H   UNL     1       2.364  20.054  -4.548  1.00  0.00     0.167 HD
ATOM     37  C   UNL     1      -0.369  20.694  -5.013  1.00  0.00     0.074 A 
ATOM     38  C   UNL     1      -1.812  20.728  -4.880  1.00  0.00     0.031 C 
ATOM     39  C   UNL     1       0.332  21.432  -5.909  1.00  0.00     0.037 A 
BRANCH  26  40
ATOM     40  C   UNL     1       6.458  20.617  -5.662  1.00  0.00     0.058 A 
ATOM     41  C   UNL     1       7.213  19.709  -6.421  1.00  0.00     0.135 A 
ATOM     42  C   UNL     1       6.962  21.921  -5.516  1.00  0.00     0.135 A 
ATOM     43  F   UNL     1       6.790  18.445  -6.581  1.00  0.00    -0.206 F 
ATOM     44  C   UNL     1       8.421  20.077  -7.008  1.00  0.00     0.059 A 
ATOM     45  C   UNL     1       8.154  22.319  -6.117  1.00  0.00     0.059 A 
ATOM     46  F   UNL     1       6.283  22.831  -4.800  1.00  0.00    -0.206 F 
ATOM     47  C   UNL     1       8.879  21.387  -6.857  1.00  0.00     0.060 A 
BRANCH  47  48
ATOM     48  S   UNL     1      10.428  21.854  -7.660  1.00  0.00     0.124 S 
ATOM     49  O   UNL     1      11.402  21.104  -6.873  1.00  0.00    -0.237 OA
ATOM     50  O   UNL     1      10.223  21.384  -9.026  1.00  0.00    -0.237 OA
ATOM     51  O   UNL     1      10.475  23.303  -7.497  1.00  0.00    -0.744 OA
ENDBRANCH  47  48
ENDBRANCH  26  40
BRANCH  27  52
ATOM     52  C   UNL     1      -2.363  18.026  -1.685  1.00  0.00     0.058 A 
ATOM     53  C   UNL     1      -3.350  17.346  -2.413  1.00  0.00     0.135 A 
ATOM     54  C   UNL     1      -2.654  18.372  -0.355  1.00  0.00     0.135 A 
ATOM     55  F   UNL     1      -3.121  16.991  -3.686  1.00  0.00    -0.206 F 
ATOM     56  C   UNL     1      -4.593  17.056  -1.858  1.00  0.00     0.059 A 
ATOM     57  C   UNL     1      -3.873  18.059   0.234  1.00  0.00     0.059 A 
ATOM     58  F   UNL     1      -1.736  19.004   0.393  1.00  0.00    -0.206 F 
ATOM     59  C   UNL     1      -4.844  17.420  -0.533  1.00  0.00     0.060 A 
BRANCH  59  60
ATOM     60  S   UNL     1      -6.456  17.035   0.180  1.00  0.00     0.124 S 
ATOM     61  O   UNL     1      -7.312  18.004  -0.493  1.00  0.00    -0.237 OA
ATOM     62  O   UNL     1      -6.638  15.640  -0.210  1.00  0.00    -0.237 OA
ATOM     63  O   UNL     1      -6.252  17.257   1.609  1.00  0.00    -0.744 OA
ENDBRANCH  59  60
ENDBRANCH  27  52
BRANCH  39  64
ATOM     64  C   UNL     1      -0.462  22.314  -6.833  1.00  0.00     0.058 A 
ATOM     65  C   UNL     1      -1.135  23.456  -6.369  1.00  0.00     0.135 A 
ATOM     66  C   UNL     1      -0.543  22.018  -8.204  1.00  0.00     0.135 A 
ATOM     67  F   UNL     1      -1.097  23.780  -5.066  1.00  0.00    -0.206 F 
ATOM     68  C   UNL     1      -1.895  24.249  -7.222  1.00  0.00     0.059 A 
ATOM     69  C   UNL     1      -1.268  22.817  -9.081  1.00  0.00     0.059 A 
ATOM     70  F   UNL     1       0.089  20.944  -8.703  1.00  0.00    -0.206 F 
ATOM     71  C   UNL     1      -1.956  23.920  -8.577  1.00  0.00     0.060 A 
BRANCH  71  72
ATOM     72  S   UNL     1      -2.939  24.962  -9.675  1.00  0.00     0.124 S 
ATOM     73  O   UNL     1      -4.298  24.601  -9.283  1.00  0.00    -0.237 OA
ATOM     74  O   UNL     1      -2.506  26.304  -9.300  1.00  0.00    -0.237 OA
ATOM     75  O   UNL     1      -2.535  24.528 -11.008  1.00  0.00    -0.744 OA
ENDBRANCH  71  72
ENDBRANCH  39  64
ENDBRANCH  13  14
ENDBRANCH   6   8
ENDBRANCH   3   4
ENDBRANCH   2   3
ENDBRANCH   1   2
BRANCH   1  76
ATOM     76  C   UNL     1       7.421   8.931   0.223  1.00  0.00     0.002 C 
BRANCH  76  77
ATOM     77  C   UNL     1       7.041   8.599  -1.225  1.00  0.00     0.021 C 
BRANCH  77  78
ATOM     78  C   UNL     1       8.231   8.373  -2.149  1.00  0.00     0.116 C 
BRANCH  78  79
ATOM     79  N   UNL     1       9.030   7.242  -1.717  1.00  0.00    -0.354 N 
ATOM     80  C   UNL     1       9.397   6.134  -2.427  1.00  0.00     0.249 C 
ATOM     81  H   UNL     1       9.350   7.278  -0.787  1.00  0.00     0.163 HD
ATOM     82  O   UNL     1      10.060   5.269  -1.855  1.00  0.00    -0.272 OA
BRANCH  80  83
ATOM     83  C   UNL     1       8.982   6.042  -3.909  1.00  0.00     0.207 C 
ATOM     84  C   UNL     1       9.763   7.045  -4.745  1.00  0.00     0.045 C 
ATOM     85  O   UNL     1       9.259   4.756  -4.479  1.00  0.00    -0.363 OA
ATOM     86  C   UNL     1      10.993   6.252  -5.104  1.00  0.00     0.037 C 
ATOM     87  C   UNL     1      10.436   4.849  -5.306  1.00  0.00     0.139 C 
BRANCH  87  88
ATOM     88  C   UNL     1      10.021   4.546  -6.756  1.00  0.00     0.161 C 
BRANCH  88  89
ATOM     89  N   UNL     1      11.101   4.732  -7.705  1.00  0.00    -0.270 N 
ATOM     90  C   UNL     1      11.136   5.726  -8.644  1.00  0.00     0.263 C 
ATOM     91  C   UNL     1      12.241   3.969  -7.727  1.00  0.00     0.280 C 
ATOM     92  O   UNL     1      10.314   6.586  -8.886  1.00  0.00    -0.269 OA
ATOM     93  C   UNL     1      12.415   5.608  -9.329  1.00  0.00     0.071 A 
ATOM     94  C   UNL     1      13.092   4.548  -8.774  1.00  0.00     0.141 A 
ATOM     95  O   UNL     1      12.519   3.022  -7.015  1.00  0.00    -0.267 OA
ATOM     96  C   UNL     1      13.001   6.356 -10.325  1.00  0.00     0.018 A 
ATOM     97  N   UNL     1      14.331   4.146  -9.105  1.00  0.00    -0.250 NA
ATOM     98  C   UNL     1      14.290   5.981 -10.711  1.00  0.00     0.021 A 
ATOM     99  C   UNL     1      14.906   4.890 -10.081  1.00  0.00     0.112 A 
ENDBRANCH  88  89
ENDBRANCH  87  88
ENDBRANCH  80  83
ENDBRANCH  78  79
ENDBRANCH  77  78
ENDBRANCH  76  77
ENDBRANCH   1  76
TORSDOF 18
