REMARK SMILES [NH3+][C@](CCC[P@TB4](=O)([O-])[O-])(Cc1ccccc1)C(=O)NCCCCCCNC(=O)c1ccc(-c2c3nc(c(-c4c(F)cc(S(=O)(=O)[O-])cc4F)c4ccc([nH]4)c(-c4c(F)cc(S(=O)(=O)[O-])cc4F)c4nc(c(-c5c(F)cc(S(=O)(=O)[O-])cc5F)c5ccc2[nH]5)C=C4)C=C3)cc1
REMARK SMILES IDX 22 1 21 2 20 3 19 4 17 5 18 6 2 8 1 9 10 13 11 14 12 15
REMARK SMILES IDX 16 16 13 17 15 18 14 19 3 20 4 21 5 22 6 23 7 24 8 25 9 26
REMARK SMILES IDX 23 27 24 28 25 29 26 30 27 31 28 33 29 34 30 35 94 36 31 37
REMARK SMILES IDX 93 38 32 39 33 40 34 41 87 42 35 43 92 44 86 45 88 46 36 47
REMARK SMILES IDX 91 48 85 49 84 50 37 52 71 53 50 54 70 55 51 56 54 57 69 58
REMARK SMILES IDX 89 59 52 60 53 61 68 63 90 64 55 65 38 66 39 67 48 68 40 69
REMARK SMILES IDX 41 70 47 71 49 72 42 73 43 74 44 75 45 76 46 77 72 78 73 79
REMARK SMILES IDX 82 80 74 81 75 82 81 83 83 84 76 85 77 86 78 87 79 88 80 89
REMARK SMILES IDX 56 90 57 91 66 92 58 93 59 94 65 95 67 96 60 97 61 98 62 99
REMARK SMILES IDX 63 100 64 101
REMARK H PARENT 19 7 1 10 1 11 1 12 26 32 88 51 54 62
REMARK Flexibility Score: inf
ROOT
ATOM      1  C   UNL     1      -0.935  -3.862  -5.066  1.00  0.00       nan C 
ENDROOT
BRANCH   1   2
ATOM      2  C   UNL     1      -1.483  -3.499  -3.686  1.00  0.00       nan C 
BRANCH   2   3
ATOM      3  C   UNL     1      -0.449  -3.517  -2.570  1.00  0.00       nan C 
BRANCH   3   4
ATOM      4  N   UNL     1       0.467  -2.396  -2.643  1.00  0.00       nan N 
ATOM      5  C   UNL     1       0.741  -1.431  -1.718  1.00  0.00       nan C 
ATOM      6  O   UNL     1       1.801  -0.813  -1.877  1.00  0.00       nan OA
ATOM      7  H   UNL     1       0.968  -2.320  -3.487  1.00  0.00       nan HD
BRANCH   5   8
ATOM      8  C   UNL     1      -0.173  -1.195  -0.464  1.00  0.00       nan C 
BRANCH   8   9
ATOM      9  N   UNL     1      -0.280  -2.478   0.290  1.00  0.00       nan N 
ATOM     10  H   UNL     1      -0.668  -3.199  -0.319  1.00  0.00       nan HD
ATOM     11  H   UNL     1      -0.891  -2.349   1.096  1.00  0.00       nan HD
ATOM     12  H   UNL     1       0.646  -2.763   0.608  1.00  0.00       nan HD
ENDBRANCH   8   9
BRANCH   8  13
ATOM     13  C   UNL     1      -1.634  -0.829  -0.870  1.00  0.00       nan C 
BRANCH  13  14
ATOM     14  C   UNL     1      -1.956   0.349  -1.770  1.00  0.00       nan A 
ATOM     15  C   UNL     1      -1.345   1.605  -1.675  1.00  0.00       nan A 
ATOM     16  C   UNL     1      -3.038   0.216  -2.657  1.00  0.00       nan A 
ATOM     17  C   UNL     1      -1.787   2.684  -2.447  1.00  0.00       nan A 
ATOM     18  C   UNL     1      -3.481   1.292  -3.430  1.00  0.00       nan A 
ATOM     19  C   UNL     1      -2.855   2.528  -3.322  1.00  0.00       nan A 
ENDBRANCH  13  14
ENDBRANCH   8  13
BRANCH   8  20
ATOM     20  C   UNL     1       0.416  -0.064   0.434  1.00  0.00       nan C 
BRANCH  20  21
ATOM     21  C   UNL     1       1.277  -0.443   1.629  1.00  0.00       nan C 
BRANCH  21  22
ATOM     22  C   UNL     1       2.492  -1.290   1.335  1.00  0.00       nan C 
BRANCH  22  23
ATOM     23  P   UNL     1       3.914  -0.683   0.355  1.00  0.00       nan P 
ATOM     24  O   UNL     1       3.640   0.747   0.830  1.00  0.00       nan OA
ATOM     25  O   UNL     1       5.001  -1.221   1.454  1.00  0.00       nan OA
ATOM     26  O   UNL     1       5.258  -0.109  -0.571  1.00  0.00       nan OA
ENDBRANCH  22  23
ENDBRANCH  21  22
ENDBRANCH  20  21
ENDBRANCH   8  20
ENDBRANCH   5   8
ENDBRANCH   3   4
ENDBRANCH   2   3
ENDBRANCH   1   2
BRANCH   1  27
ATOM     27  C   UNL     1      -0.172  -5.189  -5.144  1.00  0.00       nan C 
BRANCH  27  28
ATOM     28  C   UNL     1      -0.884  -6.397  -4.528  1.00  0.00       nan C 
BRANCH  28  29
ATOM     29  C   UNL     1      -2.277  -6.668  -5.079  1.00  0.00       inf C 
BRANCH  29  30
ATOM     30  N   UNL     1      -2.252  -6.952  -6.502  1.00  0.00    -0.352 N 
ATOM     31  C   UNL     1      -2.808  -8.006  -7.183  1.00  0.00     0.251 C 
ATOM     32  H   UNL     1      -1.769  -6.297  -7.056  1.00  0.00     0.163 HD
ATOM     33  O   UNL     1      -2.511  -8.198  -8.357  1.00  0.00    -0.269 OA
BRANCH  31  34
ATOM     34  C   UNL     1      -3.751  -8.911  -6.491  1.00  0.00     0.039 A 
ATOM     35  C   UNL     1      -3.648 -10.287  -6.710  1.00  0.00     0.014 A 
ATOM     36  C   UNL     1      -4.748  -8.406  -5.651  1.00  0.00     0.014 A 
ATOM     37  C   UNL     1      -4.527 -11.157  -6.062  1.00  0.00     0.010 A 
ATOM     38  C   UNL     1      -5.569  -9.279  -4.944  1.00  0.00     0.010 A 
ATOM     39  C   UNL     1      -5.484 -10.662  -5.161  1.00  0.00    -0.014 A 
BRANCH  39  40
ATOM     40  C   UNL     1      -6.439 -11.572  -4.478  1.00  0.00     0.031 A 
ATOM     41  C   UNL     1      -7.915 -11.450  -4.754  1.00  0.00     0.074 A 
ATOM     42  C   UNL     1      -5.987 -12.477  -3.588  1.00  0.00     0.049 A 
ATOM     43  N   UNL     1      -8.913 -12.108  -4.223  1.00  0.00    -0.248 NA
ATOM     44  C   UNL     1      -8.326 -10.434  -5.739  1.00  0.00     0.031 C 
ATOM     45  C   UNL     1      -4.585 -12.664  -3.208  1.00  0.00     0.029 A 
ATOM     46  N   UNL     1      -6.659 -13.408  -2.837  1.00  0.00    -0.354 N 
ATOM     47  C   UNL     1     -10.064 -11.583  -4.800  1.00  0.00     0.074 A 
ATOM     48  C   UNL     1      -9.647 -10.507  -5.671  1.00  0.00     0.031 C 
ATOM     49  C   UNL     1      -4.499 -13.666  -2.318  1.00  0.00     0.029 A 
ATOM     50  C   UNL     1      -5.840 -14.167  -2.034  1.00  0.00     0.049 A 
ATOM     51  H   UNL     1      -7.637 -13.522  -2.870  1.00  0.00     0.167 HD
ATOM     52  C   UNL     1     -11.349 -11.980  -4.644  1.00  0.00     0.037 A 
ATOM     53  C   UNL     1      -6.139 -15.153  -1.165  1.00  0.00     0.037 A 
ATOM     54  C   UNL     1     -11.754 -13.070  -3.795  1.00  0.00     0.049 A 
ATOM     55  C   UNL     1      -7.578 -15.569  -1.000  1.00  0.00     0.074 A 
ATOM     56  C   UNL     1     -13.025 -13.577  -3.592  1.00  0.00     0.029 A 
ATOM     57  N   UNL     1     -10.893 -13.826  -3.013  1.00  0.00    -0.354 N 
ATOM     58  N   UNL     1      -8.649 -15.091  -1.589  1.00  0.00    -0.248 NA
ATOM     59  C   UNL     1      -7.848 -16.667  -0.062  1.00  0.00     0.031 C 
ATOM     60  C   UNL     1     -12.939 -14.611  -2.655  1.00  0.00     0.029 A 
ATOM     61  C   UNL     1     -11.607 -14.787  -2.317  1.00  0.00     0.049 A 
ATOM     62  H   UNL     1      -9.918 -13.698  -2.960  1.00  0.00     0.167 HD
ATOM     63  C   UNL     1      -9.713 -15.858  -1.125  1.00  0.00     0.074 A 
ATOM     64  C   UNL     1      -9.155 -16.834  -0.211  1.00  0.00     0.031 C 
ATOM     65  C   UNL     1     -11.031 -15.766  -1.429  1.00  0.00     0.037 A 
BRANCH  52  66
ATOM     66  C   UNL     1     -12.409 -11.242  -5.417  1.00  0.00     0.058 A 
ATOM     67  C   UNL     1     -12.510 -11.349  -6.814  1.00  0.00     0.135 A 
ATOM     68  C   UNL     1     -13.359 -10.450  -4.752  1.00  0.00     0.135 A 
ATOM     69  F   UNL     1     -11.618 -12.078  -7.503  1.00  0.00    -0.206 F 
ATOM     70  C   UNL     1     -13.497 -10.675  -7.526  1.00  0.00     0.059 A 
ATOM     71  C   UNL     1     -14.375  -9.793  -5.442  1.00  0.00     0.059 A 
ATOM     72  F   UNL     1     -13.310 -10.310  -3.418  1.00  0.00    -0.206 F 
ATOM     73  C   UNL     1     -14.427  -9.901  -6.831  1.00  0.00     0.060 A 
BRANCH  73  74
ATOM     74  S   UNL     1     -15.709  -9.046  -7.771  1.00  0.00     0.124 S 
ATOM     75  O   UNL     1     -14.937  -7.994  -8.425  1.00  0.00    -0.237 OA
ATOM     76  O   UNL     1     -16.209 -10.102  -8.646  1.00  0.00    -0.237 OA
ATOM     77  O   UNL     1     -16.640  -8.593  -6.743  1.00  0.00    -0.744 OA
ENDBRANCH  73  74
ENDBRANCH  52  66
BRANCH  53  78
ATOM     78  C   UNL     1      -5.058 -15.836  -0.404  1.00  0.00     0.058 A 
ATOM     79  C   UNL     1      -4.731 -17.177  -0.658  1.00  0.00     0.135 A 
ATOM     80  C   UNL     1      -4.338 -15.168   0.599  1.00  0.00     0.135 A 
ATOM     81  F   UNL     1      -5.393 -17.860  -1.605  1.00  0.00    -0.206 F 
ATOM     82  C   UNL     1      -3.752 -17.841   0.073  1.00  0.00     0.059 A 
ATOM     83  C   UNL     1      -3.334 -15.803   1.324  1.00  0.00     0.059 A 
ATOM     84  F   UNL     1      -4.596 -13.879   0.869  1.00  0.00    -0.206 F 
ATOM     85  C   UNL     1      -3.059 -17.145   1.065  1.00  0.00     0.060 A 
BRANCH  85  86
ATOM     86  S   UNL     1      -1.774 -18.009   1.993  1.00  0.00     0.124 S 
ATOM     87  O   UNL     1      -2.568 -18.892   2.840  1.00  0.00    -0.237 OA
ATOM     88  O   UNL     1      -1.012 -18.657   0.930  1.00  0.00    -0.237 OA
ATOM     89  O   UNL     1      -1.077 -16.929   2.685  1.00  0.00    -0.744 OA
ENDBRANCH  85  86
ENDBRANCH  53  78
BRANCH  65  90
ATOM     90  C   UNL     1     -11.957 -16.784  -0.821  1.00  0.00     0.058 A 
ATOM     91  C   UNL     1     -12.286 -16.771   0.543  1.00  0.00     0.135 A 
ATOM     92  C   UNL     1     -12.560 -17.760  -1.632  1.00  0.00     0.135 A 
ATOM     93  F   UNL     1     -11.734 -15.863   1.363  1.00  0.00    -0.206 F 
ATOM     94  C   UNL     1     -13.158 -17.709   1.088  1.00  0.00     0.059 A 
ATOM     95  C   UNL     1     -13.459 -18.686  -1.115  1.00  0.00     0.059 A 
ATOM     96  F   UNL     1     -12.290 -17.809  -2.946  1.00  0.00    -0.206 F 
ATOM     97  C   UNL     1     -13.741 -18.662   0.250  1.00  0.00     0.060 A 
BRANCH  97  98
ATOM     98  S   UNL     1     -14.891 -19.855   0.965  1.00  0.00     0.124 S 
ATOM     99  O   UNL     1     -13.985 -20.734   1.697  1.00  0.00    -0.237 OA
ATOM    100  O   UNL     1     -15.751 -19.007   1.785  1.00  0.00    -0.237 OA
ATOM    101  O   UNL     1     -15.535 -20.448  -0.202  1.00  0.00    -0.744 OA
ENDBRANCH  97  98
ENDBRANCH  65  90
ENDBRANCH  39  40
ENDBRANCH  31  34
ENDBRANCH  29  30
ENDBRANCH  28  29
ENDBRANCH  27  28
ENDBRANCH   1  27
TORSDOF 23
