REMARK SMILES CCCCc1cc(S(F)(F)(F)(F)F)cc2c1O[C@@H](C(F)(F)F)C(C(=O)NCCCCCCNC(=O)c1ccc(-c3c4nc(c(-c5c(F)cc(S(=O)(=O)[O-])cc5F)c5ccc([nH]5)c(-c5c(F)cc(S(=O)(=O)[O-])cc5F)c5nc(c(-c6c(F)cc(S(=O)(=O)[O-])cc6F)c6ccc3[nH]6)C=C5)C=C4)cc1)=C2
REMARK SMILES IDX 29 1 28 2 27 3 26 4 24 5 25 6 23 8 5 9 6 10 16 11 7 12 15 13
REMARK SMILES IDX 17 14 14 15 102 16 18 17 4 18 3 19 2 20 1 21 8 22 9 23 10 24
REMARK SMILES IDX 11 25 12 26 13 27 19 28 20 29 21 30 22 31 30 32 31 33 32 34
REMARK SMILES IDX 33 35 34 36 35 38 36 39 37 40 101 41 38 42 100 43 39 44
REMARK SMILES IDX 40 45 41 46 94 47 42 48 99 49 93 50 95 51 43 52 98 53 92 54
REMARK SMILES IDX 91 55 44 57 78 58 57 59 77 60 58 61 61 62 76 63 96 64 59 65
REMARK SMILES IDX 60 66 75 68 97 69 62 70 45 71 46 72 55 73 47 74 48 75 54 76
REMARK SMILES IDX 56 77 49 78 50 79 51 80 52 81 53 82 79 83 80 84 89 85 81 86
REMARK SMILES IDX 82 87 88 88 90 89 83 90 84 91 85 92 86 93 87 94 63 95 64 96
REMARK SMILES IDX 73 97 65 98 66 99 72 100 74 101 67 102 68 103 69 104 70 105
REMARK SMILES IDX 71 106
REMARK H PARENT 26 7 33 37 95 56 61 67
REMARK Flexibility Score: inf
ROOT
ATOM      1  C   UNL     1      -7.989  -3.022   1.746  1.00  0.00     0.002 C 
ENDROOT
BRANCH   1   2
ATOM      2  C   UNL     1      -7.077  -1.819   1.574  1.00  0.00     0.021 C 
BRANCH   2   3
ATOM      3  C   UNL     1      -5.947  -1.890   2.588  1.00  0.00     0.116 C 
BRANCH   3   4
ATOM      4  N   UNL     1      -5.176  -3.124   2.378  1.00  0.00    -0.352 N 
ATOM      5  C   UNL     1      -3.744  -3.050   2.054  1.00  0.00     0.251 C 
ATOM      6  O   UNL     1      -3.078  -4.117   1.872  1.00  0.00    -0.270 OA
ATOM      7  H   UNL     1      -5.619  -4.000   2.453  1.00  0.00     0.163 HD
BRANCH   5   8
ATOM      8  C   UNL     1      -3.060  -1.698   1.938  1.00  0.00     0.067 C 
ATOM      9  C   UNL     1      -1.011   1.939   2.095  1.00  0.00    -0.004 A 
ATOM     10  C   UNL     1      -1.716   3.129   2.093  1.00  0.00     0.032 A 
ATOM     11  C   UNL     1      -1.712   0.757   2.097  1.00  0.00     0.131 A 
ATOM     12  C   UNL     1      -3.087   3.136   2.098  1.00  0.00     0.108 A 
ATOM     13  C   UNL     1      -3.094   0.725   2.083  1.00  0.00     0.019 A 
ATOM     14  O   UNL     1      -1.001  -0.413   2.213  1.00  0.00    -0.475 OA
ATOM     15  C   UNL     1      -3.772   1.939   2.086  1.00  0.00     0.036 A 
ATOM     16  C   UNL     1      -3.742  -0.575   2.126  1.00  0.00     0.025 C 
ATOM     17  C   UNL     1      -1.577  -1.602   1.604  1.00  0.00     0.314 C 
BRANCH   9  18
ATOM     18  C   UNL     1       0.509   1.939   2.095  1.00  0.00     0.039 C 
BRANCH  18  19
ATOM     19  C   UNL     1       1.015   0.553   2.460  1.00  0.00     0.005 C 
BRANCH  19  20
ATOM     20  C   UNL     1       0.509  -0.456   1.442  1.00  0.00    -0.003 C 
ATOM     21  C   UNL     1       1.015  -0.079   0.059  1.00  0.00     0.004 C 
ENDBRANCH  19  20
ENDBRANCH  18  19
ENDBRANCH   9  18
BRANCH  12  22
ATOM     22  S   UNL     1      -3.990   4.704   2.120  1.00  0.00     0.310 S 
ATOM     23  F   UNL     1      -4.054   4.717   3.705  1.00  0.00    -0.094 F 
ATOM     24  F   UNL     1      -5.340   3.892   2.141  1.00  0.00    -0.094 F 
ATOM     25  F   UNL     1      -4.767   6.051   2.138  1.00  0.00    -0.094 F 
ATOM     26  F   UNL     1      -2.629   5.497   2.241  1.00  0.00    -0.094 F 
ATOM     27  F   UNL     1      -3.189   3.344   2.216  1.00  0.00    -0.094 F 
ENDBRANCH  12  22
BRANCH  17  28
ATOM     28  C   UNL     1      -0.866  -2.831   2.147  1.00  0.00     0.429 C 
ATOM     29  F   UNL     1      -1.384  -3.924   1.592  1.00  0.00    -0.167 F 
ATOM     30  F   UNL     1       0.429  -2.758   1.856  1.00  0.00    -0.167 F 
ATOM     31  F   UNL     1      -1.022  -2.887   3.466  1.00  0.00    -0.167 F 
ENDBRANCH  17  28
ENDBRANCH   5   8
ENDBRANCH   3   4
ENDBRANCH   2   3
ENDBRANCH   1   2
BRANCH   1  32
ATOM     32  C   UNL     1      -8.569  -3.021   3.151  1.00  0.00     0.002 C 
BRANCH  32  33
ATOM     33  C   UNL     1      -9.366  -1.745   3.369  1.00  0.00     0.021 C 
BRANCH  33  34
ATOM     34  C   UNL     1     -10.496  -1.673   2.355  1.00  0.00     0.116 C 
BRANCH  34  35
ATOM     35  N   UNL     1     -11.379  -2.837   2.522  1.00  0.00    -0.352 N 
ATOM     36  C   UNL     1     -12.798  -2.641   2.850  1.00  0.00     0.251 C 
ATOM     37  H   UNL     1     -11.019  -3.747   2.414  1.00  0.00     0.163 HD
ATOM     38  O   UNL     1     -13.561  -3.647   2.994  1.00  0.00    -0.269 OA
BRANCH  36  39
ATOM     39  C   UNL     1     -13.353  -1.236   3.016  1.00  0.00     0.039 A 
ATOM     40  C   UNL     1     -14.184  -0.957   4.088  1.00  0.00     0.014 A 
ATOM     41  C   UNL     1     -13.032  -0.300   2.131  1.00  0.00     0.014 A 
ATOM     42  C   UNL     1     -14.865   0.279   3.979  1.00  0.00     0.010 A 
ATOM     43  C   UNL     1     -13.638   0.933   2.166  1.00  0.00     0.010 A 
ATOM     44  C   UNL     1     -14.515   1.257   3.164  1.00  0.00    -0.014 A 
BRANCH  44  45
ATOM     45  C   UNL     1     -15.059   2.667   3.325  1.00  0.00     0.031 A 
ATOM     46  C   UNL     1     -15.785   3.232   2.275  1.00  0.00     0.074 A 
ATOM     47  C   UNL     1     -14.800   3.313   4.522  1.00  0.00     0.049 A 
ATOM     48  N   UNL     1     -16.370   4.430   2.242  1.00  0.00    -0.248 NA
ATOM     49  C   UNL     1     -16.031   2.561   0.990  1.00  0.00     0.031 C 
ATOM     50  C   UNL     1     -14.076   2.748   5.590  1.00  0.00     0.029 A 
ATOM     51  N   UNL     1     -15.181   4.582   4.897  1.00  0.00    -0.354 N 
ATOM     52  C   UNL     1     -16.989   4.609   1.073  1.00  0.00     0.074 A 
ATOM     53  C   UNL     1     -16.775   3.412   0.249  1.00  0.00     0.031 C 
ATOM     54  C   UNL     1     -14.011   3.667   6.589  1.00  0.00     0.029 A 
ATOM     55  C   UNL     1     -14.694   4.822   6.163  1.00  0.00     0.049 A 
ATOM     56  H   UNL     1     -15.711   5.210   4.354  1.00  0.00     0.167 HD
ATOM     57  C   UNL     1     -17.725   5.721   0.663  1.00  0.00     0.037 A 
ATOM     58  C   UNL     1     -14.826   5.975   6.919  1.00  0.00     0.037 A 
ATOM     59  C   UNL     1     -17.893   6.859   1.437  1.00  0.00     0.049 A 
ATOM     60  C   UNL     1     -15.513   7.112   6.486  1.00  0.00     0.074 A 
ATOM     61  C   UNL     1     -18.639   7.986   1.042  1.00  0.00     0.029 A 
ATOM     62  N   UNL     1     -17.385   7.107   2.693  1.00  0.00    -0.354 N 
ATOM     63  N   UNL     1     -16.165   7.275   5.334  1.00  0.00    -0.248 NA
ATOM     64  C   UNL     1     -15.632   8.351   7.266  1.00  0.00     0.031 C 
ATOM     65  C   UNL     1     -18.573   8.906   2.042  1.00  0.00     0.029 A 
ATOM     66  C   UNL     1     -17.785   8.368   3.077  1.00  0.00     0.049 A 
ATOM     67  H   UNL     1     -16.832   6.490   3.224  1.00  0.00     0.167 HD
ATOM     68  C   UNL     1     -16.715   8.490   5.285  1.00  0.00     0.074 A 
ATOM     69  C   UNL     1     -16.374   9.203   6.524  1.00  0.00     0.031 C 
ATOM     70  C   UNL     1     -17.491   9.031   4.258  1.00  0.00     0.037 A 
BRANCH  57  71
ATOM     71  C   UNL     1     -18.378   5.684  -0.708  1.00  0.00     0.058 A 
ATOM     72  C   UNL     1     -19.311   4.699  -0.990  1.00  0.00     0.135 A 
ATOM     73  C   UNL     1     -18.045   6.596  -1.614  1.00  0.00     0.135 A 
ATOM     74  F   UNL     1     -19.859   3.930  -0.054  1.00  0.00    -0.206 F 
ATOM     75  C   UNL     1     -19.627   4.586  -2.365  1.00  0.00     0.059 A 
ATOM     76  C   UNL     1     -18.501   6.498  -2.906  1.00  0.00     0.059 A 
ATOM     77  F   UNL     1     -17.263   7.615  -1.266  1.00  0.00    -0.206 F 
ATOM     78  C   UNL     1     -19.378   5.515  -3.270  1.00  0.00     0.060 A 
BRANCH  78  79
ATOM     79  S   UNL     1     -20.157   5.487  -4.903  1.00  0.00     0.124 S 
ATOM     80  O   UNL     1     -19.780   4.192  -5.627  1.00  0.00    -0.237 OA
ATOM     81  O   UNL     1     -21.678   5.559  -4.745  1.00  0.00    -0.237 OA
ATOM     82  O   UNL     1     -19.615   6.828  -5.816  1.00  0.00    -0.744 OA
ENDBRANCH  78  79
ENDBRANCH  57  71
BRANCH  58  83
ATOM     83  C   UNL     1     -14.187   6.006   8.298  1.00  0.00     0.058 A 
ATOM     84  C   UNL     1     -14.984   6.210   9.412  1.00  0.00     0.135 A 
ATOM     85  C   UNL     1     -12.874   5.838   8.411  1.00  0.00     0.135 A 
ATOM     86  F   UNL     1     -16.311   6.130   9.379  1.00  0.00    -0.206 F 
ATOM     87  C   UNL     1     -14.258   6.509  10.589  1.00  0.00     0.059 A 
ATOM     88  C   UNL     1     -12.248   6.014   9.622  1.00  0.00     0.059 A 
ATOM     89  F   UNL     1     -12.159   5.496   7.343  1.00  0.00    -0.206 F 
ATOM     90  C   UNL     1     -12.968   6.276  10.754  1.00  0.00     0.060 A 
BRANCH  90  91
ATOM     91  S   UNL     1     -12.196   6.302  12.391  1.00  0.00     0.124 S 
ATOM     92  O   UNL     1     -12.379   7.685  13.020  1.00  0.00    -0.237 OA
ATOM     93  O   UNL     1     -12.854   5.245  13.282  1.00  0.00    -0.237 OA
ATOM     94  O   UNL     1     -10.527   5.961  12.239  1.00  0.00    -0.744 OA
ENDBRANCH  90  91
ENDBRANCH  58  83
BRANCH  70  95
ATOM     95  C   UNL     1     -18.046  10.434   4.447  1.00  0.00     0.058 A 
ATOM     96  C   UNL     1     -17.167  11.488   4.638  1.00  0.00     0.135 A 
ATOM     97  C   UNL     1     -19.359  10.626   4.430  1.00  0.00     0.135 A 
ATOM     98  F   UNL     1     -15.860  11.392   4.413  1.00  0.00    -0.206 F 
ATOM     99  C   UNL     1     -17.787  12.676   5.092  1.00  0.00     0.059 A 
ATOM    100  C   UNL     1     -19.891  11.851   4.753  1.00  0.00     0.059 A 
ATOM    101  F   UNL     1     -20.168   9.624   4.096  1.00  0.00    -0.206 F 
ATOM    102  C   UNL     1     -19.082  12.923   5.011  1.00  0.00     0.060 A 
BRANCH 102 103
ATOM    103  S   UNL     1     -19.750  14.591   5.230  1.00  0.00     0.124 S 
ATOM    104  O   UNL     1     -19.387  15.107   6.625  1.00  0.00    -0.237 OA
ATOM    105  O   UNL     1     -19.154  15.522   4.171  1.00  0.00    -0.237 OA
ATOM    106  O   UNL     1     -21.451  14.550   5.062  1.00  0.00    -0.744 OA
ENDBRANCH 102 103
ENDBRANCH  70  95
ENDBRANCH  44  45
ENDBRANCH  36  39
ENDBRANCH  34  35
ENDBRANCH  33  34
ENDBRANCH  32  33
ENDBRANCH   1  32
TORSDOF 21
