REMARK SMILES C[C@H]1C[NH+](CC[C@@H]2CCC[C@]2([NH3+])C(=O)NCCCCCCNC(=O)c2ccc(-c3c4nc(c(-c5c(F)cc(S(=O)(=O)[O-])cc5F)c5ccc([nH]5)c(-c5c(F)cc(S(=O)(=O)[O-])cc5F)c5nc(c(-c6c(F)cc(S(=O)(=O)[O-])cc6F)c6ccc3[nH]6)C=C5)C=C4)cc2)C[C@H](C)O1
REMARK SMILES IDX 18 1 17 2 16 3 15 4 13 5 14 6 11 8 7 9 8 10 9 11 10 12 6 13
REMARK SMILES IDX 5 14 4 15 1 16 2 17 3 18 94 19 92 20 91 21 93 23 12 24 19 28
REMARK SMILES IDX 20 29 21 30 22 31 23 32 24 34 25 35 26 36 90 37 27 38 89 39
REMARK SMILES IDX 28 40 29 41 30 42 83 43 31 44 88 45 82 46 84 47 32 48 87 49
REMARK SMILES IDX 81 50 80 51 33 53 67 54 46 55 66 56 47 57 50 58 65 59 85 60
REMARK SMILES IDX 48 61 49 62 64 64 86 65 51 66 34 67 35 68 44 69 36 70 37 71
REMARK SMILES IDX 43 72 45 73 38 74 39 75 40 76 41 77 42 78 68 79 69 80 78 81
REMARK SMILES IDX 70 82 71 83 77 84 79 85 72 86 73 87 74 88 75 89 76 90 52 91
REMARK SMILES IDX 53 92 62 93 54 94 55 95 61 96 63 97 56 98 57 99 58 100
REMARK SMILES IDX 59 101 60 102
REMARK H PARENT 15 7 4 22 12 25 12 26 12 27 22 33 84 52 50 63
REMARK Flexibility Score: inf
ROOT
ATOM      1  C   UNL     1       5.547   3.304   0.232  1.00  0.00     0.002 C 
ENDROOT
BRANCH   1   2
ATOM      2  C   UNL     1       4.135   3.877   0.415  1.00  0.00     0.021 C 
BRANCH   2   3
ATOM      3  C   UNL     1       3.292   3.288   1.573  1.00  0.00     0.116 C 
BRANCH   3   4
ATOM      4  N   UNL     1       2.856   4.290   2.566  1.00  0.00    -0.351 N 
ATOM      5  C   UNL     1       1.814   4.982   3.075  1.00  0.00     0.281 C 
ATOM      6  O   UNL     1       2.182   5.518   4.143  1.00  0.00    -0.268 OA
ATOM      7  H   UNL     1       3.658   4.569   3.064  1.00  0.00     0.163 HD
BRANCH   5   8
ATOM      8  C   UNL     1       0.274   5.181   2.627  1.00  0.00     0.177 C 
ATOM      9  C   UNL     1      -0.162   5.879   1.289  1.00  0.00     0.066 C 
ATOM     10  C   UNL     1       0.357   7.322   1.479  1.00  0.00     0.011 C 
ATOM     11  C   UNL     1       0.166   7.630   2.961  1.00  0.00     0.008 C 
ATOM     12  C   UNL     1      -0.280   6.314   3.582  1.00  0.00     0.079 C 
BRANCH   9  13
ATOM     13  C   UNL     1      -0.025   5.420  -0.185  1.00  0.00     0.072 C 
BRANCH  13  14
ATOM     14  C   UNL     1       1.062   4.441  -0.585  1.00  0.00     0.262 C 
BRANCH  14  15
ATOM     15  N   UNL     1       0.838   2.991  -0.508  1.00  0.00    -0.331 N 
ATOM     16  C   UNL     1       0.062   0.106  -2.875  1.00  0.00     0.045 C 
ATOM     17  C   UNL     1       0.410   0.812  -1.577  1.00  0.00     0.170 C 
ATOM     18  C   UNL     1       0.489   2.347  -1.778  1.00  0.00     0.294 C 
ATOM     19  O   UNL     1      -0.603   0.460  -0.620  1.00  0.00    -0.364 OA
ATOM     20  C   UNL     1      -0.380   1.060   0.655  1.00  0.00     0.170 C 
ATOM     21  C   UNL     1      -0.104   2.566   0.521  1.00  0.00     0.294 C 
ATOM     22  H   UNL     1       1.767   2.667  -0.237  1.00  0.00     0.348 HD
ATOM     23  C   UNL     1       0.689   0.322   1.462  1.00  0.00     0.045 C 
ENDBRANCH  14  15
ENDBRANCH  13  14
ENDBRANCH   9  13
BRANCH   8  24
ATOM     24  N   UNL     1      -0.572   4.067   3.107  1.00  0.00    -0.345 N 
ATOM     25  H   UNL     1      -1.535   4.220   2.810  1.00  0.00     0.345 HD
ATOM     26  H   UNL     1      -0.533   4.026   4.125  1.00  0.00     0.345 HD
ATOM     27  H   UNL     1      -0.230   3.189   2.718  1.00  0.00     0.345 HD
ENDBRANCH   8  24
ENDBRANCH   5   8
ENDBRANCH   3   4
ENDBRANCH   2   3
ENDBRANCH   1   2
BRANCH   1  28
ATOM     28  C   UNL     1       5.628   1.827  -0.172  1.00  0.00     0.002 C 
BRANCH  28  29
ATOM     29  C   UNL     1       5.066   1.454  -1.550  1.00  0.00     0.021 C 
BRANCH  29  30
ATOM     30  C   UNL     1       5.685   2.166  -2.755  1.00  0.00     0.116 C 
BRANCH  30  31
ATOM     31  N   UNL     1       7.133   2.009  -2.823  1.00  0.00    -0.352 N 
ATOM     32  C   UNL     1       7.918   1.442  -3.793  1.00  0.00     0.251 C 
ATOM     33  H   UNL     1       7.624   2.366  -2.048  1.00  0.00     0.163 HD
ATOM     34  O   UNL     1       9.115   1.234  -3.562  1.00  0.00    -0.269 OA
BRANCH  32  35
ATOM     35  C   UNL     1       7.354   1.073  -5.107  1.00  0.00     0.039 A 
ATOM     36  C   UNL     1       7.691  -0.161  -5.675  1.00  0.00     0.014 A 
ATOM     37  C   UNL     1       6.523   1.956  -5.802  1.00  0.00     0.014 A 
ATOM     38  C   UNL     1       7.146  -0.534  -6.907  1.00  0.00     0.010 A 
ATOM     39  C   UNL     1       5.932   1.557  -6.999  1.00  0.00     0.010 A 
ATOM     40  C   UNL     1       6.235   0.309  -7.565  1.00  0.00    -0.014 A 
BRANCH  40  41
ATOM     41  C   UNL     1       5.585  -0.093  -8.841  1.00  0.00     0.031 A 
ATOM     42  C   UNL     1       5.836   0.697 -10.097  1.00  0.00     0.074 A 
ATOM     43  C   UNL     1       4.702  -1.113  -8.845  1.00  0.00     0.049 A 
ATOM     44  N   UNL     1       5.278   0.576 -11.274  1.00  0.00    -0.248 NA
ATOM     45  C   UNL     1       6.824   1.785 -10.013  1.00  0.00     0.031 C 
ATOM     46  C   UNL     1       4.337  -1.921  -7.679  1.00  0.00     0.029 A 
ATOM     47  N   UNL     1       3.929  -1.629  -9.857  1.00  0.00    -0.354 N 
ATOM     48  C   UNL     1       5.823   1.586 -12.059  1.00  0.00     0.074 A 
ATOM     49  C   UNL     1       6.731   2.333 -11.217  1.00  0.00     0.031 C 
ATOM     50  C   UNL     1       3.416  -2.828  -8.041  1.00  0.00     0.029 A 
ATOM     51  C   UNL     1       3.091  -2.642  -9.451  1.00  0.00     0.049 A 
ATOM     52  H   UNL     1       3.970  -1.304 -10.785  1.00  0.00     0.167 HD
ATOM     53  C   UNL     1       5.596   1.855 -13.367  1.00  0.00     0.037 A 
ATOM     54  C   UNL     1       2.151  -3.329 -10.131  1.00  0.00     0.037 A 
ATOM     55  C   UNL     1       4.721   1.078 -14.207  1.00  0.00     0.049 A 
ATOM     56  C   UNL     1       1.932  -3.021 -11.589  1.00  0.00     0.074 A 
ATOM     57  C   UNL     1       4.494   1.213 -15.565  1.00  0.00     0.029 A 
ATOM     58  N   UNL     1       3.927   0.028 -13.771  1.00  0.00    -0.354 N 
ATOM     59  N   UNL     1       2.522  -2.118 -12.337  1.00  0.00    -0.248 NA
ATOM     60  C   UNL     1       0.929  -3.826 -12.300  1.00  0.00     0.031 C 
ATOM     61  C   UNL     1       3.520   0.283 -15.940  1.00  0.00     0.029 A 
ATOM     62  C   UNL     1       3.185  -0.473 -14.828  1.00  0.00     0.049 A 
ATOM     63  H   UNL     1       3.895  -0.311 -12.847  1.00  0.00     0.167 HD
ATOM     64  C   UNL     1       1.982  -2.268 -13.611  1.00  0.00     0.074 A 
ATOM     65  C   UNL     1       1.029  -3.355 -13.536  1.00  0.00     0.031 C 
ATOM     66  C   UNL     1       2.252  -1.568 -14.740  1.00  0.00     0.037 A 
BRANCH  53  67
ATOM     67  C   UNL     1       6.296   3.034 -13.985  1.00  0.00     0.058 A 
ATOM     68  C   UNL     1       7.675   3.027 -14.243  1.00  0.00     0.135 A 
ATOM     69  C   UNL     1       5.559   4.157 -14.398  1.00  0.00     0.135 A 
ATOM     70  F   UNL     1       8.431   1.987 -13.856  1.00  0.00    -0.206 F 
ATOM     71  C   UNL     1       8.302   4.094 -14.879  1.00  0.00     0.059 A 
ATOM     72  C   UNL     1       6.160   5.224 -15.061  1.00  0.00     0.059 A 
ATOM     73  F   UNL     1       4.237   4.219 -14.173  1.00  0.00    -0.206 F 
ATOM     74  C   UNL     1       7.534   5.185 -15.291  1.00  0.00     0.060 A 
BRANCH  74  75
ATOM     75  S   UNL     1       8.357   6.542 -16.152  1.00  0.00     0.124 S 
ATOM     76  O   UNL     1       9.120   7.155 -15.068  1.00  0.00    -0.237 OA
ATOM     77  O   UNL     1       9.144   5.838 -17.160  1.00  0.00    -0.237 OA
ATOM     78  O   UNL     1       7.250   7.340 -16.668  1.00  0.00    -0.744 OA
ENDBRANCH  74  75
ENDBRANCH  53  67
BRANCH  54  79
ATOM     79  C   UNL     1       1.337  -4.369  -9.443  1.00  0.00     0.058 A 
ATOM     80  C   UNL     1       1.472  -5.728  -9.762  1.00  0.00     0.135 A 
ATOM     81  C   UNL     1       0.396  -4.021  -8.460  1.00  0.00     0.135 A 
ATOM     82  F   UNL     1       2.354  -6.113 -10.697  1.00  0.00    -0.206 F 
ATOM     83  C   UNL     1       0.684  -6.702  -9.156  1.00  0.00     0.059 A 
ATOM     84  C   UNL     1      -0.382  -4.980  -7.818  1.00  0.00     0.059 A 
ATOM     85  F   UNL     1       0.240  -2.737  -8.102  1.00  0.00    -0.206 F 
ATOM     86  C   UNL     1      -0.242  -6.317  -8.186  1.00  0.00     0.060 A 
BRANCH  86  87
ATOM     87  S   UNL     1      -1.248  -7.590  -7.392  1.00  0.00     0.124 S 
ATOM     88  O   UNL     1      -2.174  -7.941  -8.462  1.00  0.00    -0.237 OA
ATOM     89  O   UNL     1      -0.250  -8.601  -7.054  1.00  0.00    -0.237 OA
ATOM     90  O   UNL     1      -1.833  -6.892  -6.252  1.00  0.00    -0.744 OA
ENDBRANCH  86  87
ENDBRANCH  54  79
BRANCH  66  91
ATOM     91  C   UNL     1       1.546  -1.979 -16.003  1.00  0.00     0.058 A 
ATOM     92  C   UNL     1       0.183  -1.714 -16.207  1.00  0.00     0.135 A 
ATOM     93  C   UNL     1       2.263  -2.578 -17.051  1.00  0.00     0.135 A 
ATOM     94  F   UNL     1      -0.550  -1.150 -15.234  1.00  0.00    -0.206 F 
ATOM     95  C   UNL     1      -0.448  -2.044 -17.402  1.00  0.00     0.059 A 
ATOM     96  C   UNL     1       1.659  -2.888 -18.265  1.00  0.00     0.059 A 
ATOM     97  F   UNL     1       3.571  -2.843 -16.911  1.00  0.00    -0.206 F 
ATOM     98  C   UNL     1       0.300  -2.625 -18.428  1.00  0.00     0.060 A 
BRANCH  98  99
ATOM     99  S   UNL     1      -0.520  -3.000 -19.992  1.00  0.00     0.124 S 
ATOM    100  O   UNL     1      -1.338  -4.151 -19.626  1.00  0.00    -0.237 OA
ATOM    101  O   UNL     1      -1.249  -1.765 -20.265  1.00  0.00    -0.237 OA
ATOM    102  O   UNL     1       0.588  -3.280 -20.899  1.00  0.00    -0.744 OA
ENDBRANCH  98  99
ENDBRANCH  66  91
ENDBRANCH  40  41
ENDBRANCH  32  35
ENDBRANCH  30  31
ENDBRANCH  29  30
ENDBRANCH  28  29
ENDBRANCH   1  28
TORSDOF 20
