REMARK SMILES CC(C)C[C@@H](NC(=O)Cn1nc(O)ccc1=O)C(=O)NCCCCCCNC(=O)c1ccc(-c2c3nc(c(-c4c(F)cc(S(=O)(=O)[O-])cc4F)c4ccc([nH]4)c(-c4c(F)cc(S(=O)(=O)[O-])cc4F)c4nc(c(-c5c(F)cc(S(=O)(=O)[O-])cc5F)c5ccc2[nH]5)C=C4)C=C3)cc1
REMARK SMILES IDX 23 1 22 2 21 3 20 4 18 5 19 6 5 8 4 9 2 10 1 11 3 12 6 13
REMARK SMILES IDX 7 14 8 16 9 17 10 18 11 19 16 20 12 21 15 22 17 23 14 24
REMARK SMILES IDX 13 25 24 27 25 28 26 29 27 30 28 31 29 33 30 34 31 35 95 36
REMARK SMILES IDX 32 37 94 38 33 39 34 40 35 41 88 42 36 43 93 44 87 45 89 46
REMARK SMILES IDX 37 47 92 48 86 49 85 50 38 52 72 53 51 54 71 55 52 56 55 57
REMARK SMILES IDX 70 58 90 59 53 60 54 61 69 63 91 64 56 65 39 66 40 67 49 68
REMARK SMILES IDX 41 69 42 70 48 71 50 72 43 73 44 74 45 75 46 76 47 77 73 78
REMARK SMILES IDX 74 79 83 80 75 81 76 82 82 83 84 84 77 85 78 86 79 87 80 88
REMARK SMILES IDX 81 89 57 90 58 91 67 92 59 93 60 94 66 95 68 96 61 97 62 98
REMARK SMILES IDX 63 99 64 100 65 101
REMARK H PARENT 20 7 6 15 13 26 27 32 89 51 55 62
REMARK Flexibility Score: inf
ROOT
ATOM      1  C   UNL     1      -4.486   0.968  -4.978  1.00  0.00     0.002 C 
ENDROOT
BRANCH   1   2
ATOM      2  C   UNL     1      -2.986   1.008  -4.675  1.00  0.00     0.021 C 
BRANCH   2   3
ATOM      3  C   UNL     1      -2.653   1.519  -3.277  1.00  0.00     0.116 C 
BRANCH   3   4
ATOM      4  N   UNL     1      -3.137   0.608  -2.248  1.00  0.00    -0.354 N 
ATOM      5  C   UNL     1      -2.656   0.377  -0.989  1.00  0.00     0.242 C 
ATOM      6  O   UNL     1      -3.146  -0.562  -0.347  1.00  0.00    -0.273 OA
ATOM      7  H   UNL     1      -3.929   0.079  -2.497  1.00  0.00     0.163 HD
BRANCH   5   8
ATOM      8  C   UNL     1      -1.371   1.074  -0.504  1.00  0.00     0.171 C 
BRANCH   8   9
ATOM      9  C   UNL     1      -0.281   0.168  -1.138  1.00  0.00     0.038 C 
BRANCH   9  10
ATOM     10  C   UNL     1       1.203   0.513  -0.985  1.00  0.00    -0.015 C 
ATOM     11  C   UNL     1       1.710   0.229   0.424  1.00  0.00     0.007 C 
ATOM     12  C   UNL     1       1.985  -0.341  -1.998  1.00  0.00     0.007 C 
ENDBRANCH   9  10
ENDBRANCH   8   9
BRANCH   8  13
ATOM     13  N   UNL     1      -1.263   2.482  -0.891  1.00  0.00    -0.343 N 
ATOM     14  C   UNL     1      -1.953   3.586  -0.478  1.00  0.00     0.242 C 
ATOM     15  H   UNL     1      -0.571   2.666  -1.567  1.00  0.00     0.164 HD
ATOM     16  O   UNL     1      -1.424   4.674  -0.741  1.00  0.00    -0.273 OA
BRANCH  14  17
ATOM     17  C   UNL     1      -3.222   3.542   0.387  1.00  0.00     0.248 C 
BRANCH  17  18
ATOM     18  N   UNL     1      -4.370   2.821  -0.153  1.00  0.00    -0.217 N 
ATOM     19  N   UNL     1      -4.730   1.654   0.493  1.00  0.00    -0.131 NA
ATOM     20  C   UNL     1      -5.111   3.375  -1.194  1.00  0.00     0.267 A 
ATOM     21  C   UNL     1      -5.728   1.019  -0.009  1.00  0.00     0.229 A 
ATOM     22  C   UNL     1      -6.267   2.574  -1.677  1.00  0.00     0.079 A 
ATOM     23  O   UNL     1      -4.858   4.439  -1.749  1.00  0.00    -0.268 OA
ATOM     24  C   UNL     1      -6.573   1.399  -1.125  1.00  0.00     0.075 A 
BRANCH  21  25
ATOM     25  O   UNL     1      -6.054  -0.184   0.473  1.00  0.00    -0.492 OA
ATOM     26  H   UNL     1      -5.580  -0.542   1.197  1.00  0.00     0.295 HD
ENDBRANCH  21  25
ENDBRANCH  17  18
ENDBRANCH  14  17
ENDBRANCH   8  13
ENDBRANCH   5   8
ENDBRANCH   3   4
ENDBRANCH   2   3
ENDBRANCH   1   2
BRANCH   1  27
ATOM     27  C   UNL     1      -5.160   2.341  -5.024  1.00  0.00     0.002 C 
BRANCH  27  28
ATOM     28  C   UNL     1      -4.735   3.243  -6.177  1.00  0.00     0.021 C 
BRANCH  28  29
ATOM     29  C   UNL     1      -4.956   2.643  -7.552  1.00  0.00     0.116 C 
BRANCH  29  30
ATOM     30  N   UNL     1      -6.349   2.322  -7.847  1.00  0.00    -0.352 N 
ATOM     31  C   UNL     1      -6.926   2.263  -9.099  1.00  0.00     0.251 C 
ATOM     32  H   UNL     1      -6.934   2.130  -7.078  1.00  0.00     0.163 HD
ATOM     33  O   UNL     1      -8.119   2.039  -9.256  1.00  0.00    -0.269 OA
BRANCH  31  34
ATOM     34  C   UNL     1      -6.034   2.530 -10.243  1.00  0.00     0.039 A 
ATOM     35  C   UNL     1      -4.889   1.746 -10.383  1.00  0.00     0.014 A 
ATOM     36  C   UNL     1      -6.203   3.706 -10.976  1.00  0.00     0.014 A 
ATOM     37  C   UNL     1      -3.821   2.249 -11.107  1.00  0.00     0.010 A 
ATOM     38  C   UNL     1      -5.162   4.150 -11.794  1.00  0.00     0.010 A 
ATOM     39  C   UNL     1      -3.941   3.457 -11.819  1.00  0.00    -0.014 A 
BRANCH  39  40
ATOM     40  C   UNL     1      -2.771   3.972 -12.576  1.00  0.00     0.031 A 
ATOM     41  C   UNL     1      -2.145   5.302 -12.239  1.00  0.00     0.074 A 
ATOM     42  C   UNL     1      -2.235   3.194 -13.537  1.00  0.00     0.049 A 
ATOM     43  N   UNL     1      -1.165   5.925 -12.844  1.00  0.00    -0.248 NA
ATOM     44  C   UNL     1      -2.687   6.030 -11.081  1.00  0.00     0.031 C 
ATOM     45  C   UNL     1      -2.737   1.873 -13.925  1.00  0.00     0.029 A 
ATOM     46  N   UNL     1      -1.139   3.378 -14.337  1.00  0.00    -0.354 N 
ATOM     47  C   UNL     1      -0.998   7.129 -12.168  1.00  0.00     0.074 A 
ATOM     48  C   UNL     1      -1.982   7.155 -11.108  1.00  0.00     0.031 C 
ATOM     49  C   UNL     1      -1.912   1.336 -14.832  1.00  0.00     0.029 A 
ATOM     50  C   UNL     1      -0.884   2.312 -15.167  1.00  0.00     0.049 A 
ATOM     51  H   UNL     1      -0.588   4.193 -14.320  1.00  0.00     0.167 HD
ATOM     52  C   UNL     1      -0.105   8.118 -12.415  1.00  0.00     0.037 A 
ATOM     53  C   UNL     1       0.051   2.148 -16.120  1.00  0.00     0.037 A 
ATOM     54  C   UNL     1       0.893   8.060 -13.455  1.00  0.00     0.049 A 
ATOM     55  C   UNL     1       1.002   3.272 -16.398  1.00  0.00     0.074 A 
ATOM     56  C   UNL     1       1.847   9.006 -13.789  1.00  0.00     0.029 A 
ATOM     57  N   UNL     1       1.075   6.990 -14.320  1.00  0.00    -0.354 N 
ATOM     58  N   UNL     1       1.103   4.430 -15.790  1.00  0.00    -0.248 NA
ATOM     59  C   UNL     1       1.944   3.081 -17.506  1.00  0.00     0.031 C 
ATOM     60  C   UNL     1       2.583   8.523 -14.877  1.00  0.00     0.029 A 
ATOM     61  C   UNL     1       2.115   7.258 -15.196  1.00  0.00     0.049 A 
ATOM     62  H   UNL     1       0.543   6.162 -14.313  1.00  0.00     0.167 HD
ATOM     63  C   UNL     1       2.117   5.113 -16.448  1.00  0.00     0.074 A 
ATOM     64  C   UNL     1       2.617   4.224 -17.480  1.00  0.00     0.031 C 
ATOM     65  C   UNL     1       2.584   6.365 -16.226  1.00  0.00     0.037 A 
BRANCH  52  66
ATOM     66  C   UNL     1      -0.169   9.362 -11.569  1.00  0.00     0.058 A 
ATOM     67  C   UNL     1       0.286   9.383 -10.242  1.00  0.00     0.135 A 
ATOM     68  C   UNL     1      -0.631  10.571 -12.119  1.00  0.00     0.135 A 
ATOM     69  F   UNL     1       0.724   8.254  -9.662  1.00  0.00    -0.206 F 
ATOM     70  C   UNL     1       0.275  10.552  -9.486  1.00  0.00     0.059 A 
ATOM     71  C   UNL     1      -0.632  11.757 -11.388  1.00  0.00     0.059 A 
ATOM     72  F   UNL     1      -1.079  10.610 -13.384  1.00  0.00    -0.206 F 
ATOM     73  C   UNL     1      -0.184  11.735 -10.069  1.00  0.00     0.060 A 
BRANCH  73  74
ATOM     74  S   UNL     1      -0.172  13.248  -9.081  1.00  0.00     0.124 S 
ATOM     75  O   UNL     1      -1.261  12.992  -8.144  1.00  0.00    -0.237 OA
ATOM     76  O   UNL     1       1.171  13.237  -8.510  1.00  0.00    -0.237 OA
ATOM     77  O   UNL     1      -0.424  14.298 -10.062  1.00  0.00    -0.744 OA
ENDBRANCH  73  74
ENDBRANCH  52  66
BRANCH  53  78
ATOM     78  C   UNL     1       0.092   0.880 -16.890  1.00  0.00     0.058 A 
ATOM     79  C   UNL     1       1.128  -0.044 -16.701  1.00  0.00     0.135 A 
ATOM     80  C   UNL     1      -0.942   0.535 -17.776  1.00  0.00     0.135 A 
ATOM     81  F   UNL     1       2.140   0.244 -15.869  1.00  0.00    -0.206 F 
ATOM     82  C   UNL     1       1.134  -1.271 -17.356  1.00  0.00     0.059 A 
ATOM     83  C   UNL     1      -0.972  -0.696 -18.421  1.00  0.00     0.059 A 
ATOM     84  F   UNL     1      -1.965   1.381 -17.977  1.00  0.00    -0.206 F 
ATOM     85  C   UNL     1       0.073  -1.592 -18.206  1.00  0.00     0.060 A 
BRANCH  85  86
ATOM     86  S   UNL     1       0.045  -3.222 -18.980  1.00  0.00     0.124 S 
ATOM     87  O   UNL     1       1.073  -3.078 -20.005  1.00  0.00    -0.237 OA
ATOM     88  O   UNL     1       0.377  -4.099 -17.861  1.00  0.00    -0.237 OA
ATOM     89  O   UNL     1      -1.325  -3.337 -19.470  1.00  0.00    -0.744 OA
ENDBRANCH  85  86
ENDBRANCH  53  78
BRANCH  65  90
ATOM     90  C   UNL     1       3.689   6.843 -17.121  1.00  0.00     0.058 A 
ATOM     91  C   UNL     1       3.438   7.230 -18.446  1.00  0.00     0.135 A 
ATOM     92  C   UNL     1       5.005   6.943 -16.642  1.00  0.00     0.135 A 
ATOM     93  F   UNL     1       2.197   7.141 -18.952  1.00  0.00    -0.206 F 
ATOM     94  C   UNL     1       4.459   7.678 -19.276  1.00  0.00     0.059 A 
ATOM     95  C   UNL     1       6.038   7.410 -17.447  1.00  0.00     0.059 A 
ATOM     96  F   UNL     1       5.293   6.591 -15.379  1.00  0.00    -0.206 F 
ATOM     97  C   UNL     1       5.756   7.764 -18.767  1.00  0.00     0.060 A 
BRANCH  97  98
ATOM     98  S   UNL     1       7.070   8.365 -19.849  1.00  0.00     0.124 S 
ATOM     99  O   UNL     1       7.269   7.221 -20.732  1.00  0.00    -0.237 OA
ATOM    100  O   UNL     1       6.456   9.540 -20.462  1.00  0.00    -0.237 OA
ATOM    101  O   UNL     1       8.166   8.647 -18.928  1.00  0.00    -0.744 OA
ENDBRANCH  97  98
ENDBRANCH  65  90
ENDBRANCH  39  40
ENDBRANCH  31  34
ENDBRANCH  29  30
ENDBRANCH  28  29
ENDBRANCH  27  28
ENDBRANCH   1  27
TORSDOF 22
