REMARK SMILES Cc1cccc(-c2ncc(C[NH+]3CCC4(CC3)NC(=O)C[C@H]4C(=O)NCCCCCCNC(=O)c3ccc(-c4c5nc(c(-c6c(F)cc(S(=O)(=O)[O-])cc6F)c6ccc([nH]6)c(-c6c(F)cc(S(=O)(=O)[O-])cc6F)c6nc(c(-c7c(F)cc(S(=O)(=O)[O-])cc7F)c7ccc4[nH]7)C=C6)C=C5)cc3)cn2)c1
REMARK SMILES IDX 28 1 27 2 26 3 25 4 23 5 24 6 22 8 12 9 13 10 17 11 14 13
REMARK SMILES IDX 16 14 15 15 18 16 19 17 21 19 20 20 11 21 10 22 7 23 8 24
REMARK SMILES IDX 102 25 9 26 101 27 6 28 1 29 2 30 3 31 103 32 4 33 5 34
REMARK SMILES IDX 29 35 30 36 31 37 32 38 33 39 34 41 35 42 36 43 100 44 37 45
REMARK SMILES IDX 99 46 38 47 39 48 40 49 93 50 41 51 98 52 92 53 94 54 42 55
REMARK SMILES IDX 97 56 91 57 90 58 43 60 77 61 56 62 76 63 57 64 60 65 75 66
REMARK SMILES IDX 95 67 58 68 59 69 74 71 96 72 61 73 44 74 45 75 54 76 46 77
REMARK SMILES IDX 47 78 53 79 55 80 48 81 49 82 50 83 51 84 52 85 78 86 79 87
REMARK SMILES IDX 88 88 80 89 81 90 87 91 89 92 82 93 83 94 84 95 85 96 86 97
REMARK SMILES IDX 62 98 63 99 72 100 64 101 65 102 71 103 73 104 66 105 67 106
REMARK SMILES IDX 68 107 69 108 70 109
REMARK H PARENT 25 7 12 12 18 18 32 40 94 59 60 70
REMARK Flexibility Score: inf
ROOT
ATOM      1  C   UNL     1      -0.654   3.064  -4.915  1.00  0.00     0.002 C 
ENDROOT
BRANCH   1   2
ATOM      2  C   UNL     1      -0.550   3.272  -3.403  1.00  0.00     0.021 C 
BRANCH   2   3
ATOM      3  C   UNL     1       0.731   3.963  -2.894  1.00  0.00     0.116 C 
BRANCH   3   4
ATOM      4  N   UNL     1       0.837   5.391  -3.202  1.00  0.00    -0.356 N 
ATOM      5  C   UNL     1       0.886   6.526  -2.442  1.00  0.00     0.226 C 
ATOM      6  O   UNL     1       0.954   7.598  -3.058  1.00  0.00    -0.275 OA
ATOM      7  H   UNL     1       0.882   5.573  -4.169  1.00  0.00     0.163 HD
BRANCH   5   8
ATOM      8  C   UNL     1       0.859   6.577  -0.895  1.00  0.00     0.114 C 
ATOM      9  N   UNL     1      -3.143   6.902   0.161  1.00  0.00    -0.331 N 
ATOM     10  C   UNL     1      -2.127   7.348   1.105  1.00  0.00     0.264 C 
ATOM     11  C   UNL     1      -2.559   6.682  -1.144  1.00  0.00     0.264 C 
ATOM     12  H   UNL     1      -3.780   7.698   0.120  1.00  0.00     0.348 HD
ATOM     13  C   UNL     1      -0.819   6.544   1.162  1.00  0.00     0.091 C 
ATOM     14  C   UNL     1      -1.477   5.622  -1.111  1.00  0.00     0.091 C 
ATOM     15  C   UNL     1      -0.314   5.886  -0.157  1.00  0.00     0.063 C 
ATOM     16  N   UNL     1       0.332   4.659   0.298  1.00  0.00    -0.349 N 
ATOM     17  C   UNL     1       1.709   4.682   0.281  1.00  0.00     0.221 C 
ATOM     18  H   UNL     1      -0.180   3.872   0.594  1.00  0.00     0.164 HD
ATOM     19  C   UNL     1       2.152   5.974  -0.339  1.00  0.00     0.116 C 
ATOM     20  O   UNL     1       2.434   3.808   0.702  1.00  0.00    -0.275 OA
BRANCH   9  21
ATOM     21  C   UNL     1      -4.168   5.920   0.577  1.00  0.00     0.302 C 
BRANCH  21  22
ATOM     22  C   UNL     1      -3.783   4.466   0.567  1.00  0.00     0.043 A 
ATOM     23  C   UNL     1      -2.541   2.052   0.340  1.00  0.00     0.159 A 
ATOM     24  N   UNL     1      -2.393   2.736   1.493  1.00  0.00    -0.236 NA
ATOM     25  N   UNL     1      -3.331   2.442  -0.678  1.00  0.00    -0.236 NA
ATOM     26  C   UNL     1      -3.067   3.899   1.597  1.00  0.00     0.124 A 
ATOM     27  C   UNL     1      -3.948   3.639  -0.535  1.00  0.00     0.124 A 
BRANCH  23  28
ATOM     28  C   UNL     1      -1.677   0.881   0.144  1.00  0.00     0.019 A 
ATOM     29  C   UNL     1       2.067   0.045  -0.017  1.00  0.00     0.044 C 
ATOM     30  C   UNL     1       0.573  -0.111  -0.014  1.00  0.00    -0.050 A 
ATOM     31  C   UNL     1      -0.002  -1.379  -0.105  1.00  0.00     0.003 A 
ATOM     32  C   UNL     1      -0.271   1.003   0.114  1.00  0.00     0.015 A 
ATOM     33  C   UNL     1      -1.390  -1.524  -0.096  1.00  0.00     0.001 A 
ATOM     34  C   UNL     1      -2.219  -0.403   0.015  1.00  0.00     0.012 A 
ENDBRANCH  23  28
ENDBRANCH  21  22
ENDBRANCH   9  21
ENDBRANCH   5   8
ENDBRANCH   3   4
ENDBRANCH   2   3
ENDBRANCH   1   2
BRANCH   1  35
ATOM     35  C   UNL     1       0.533   2.357  -5.575  1.00  0.00     0.002 C 
BRANCH  35  36
ATOM     36  C   UNL     1       1.022   1.088  -4.882  1.00  0.00     0.021 C 
BRANCH  36  37
ATOM     37  C   UNL     1       0.034  -0.058  -4.906  1.00  0.00     0.116 C 
BRANCH  37  38
ATOM     38  N   UNL     1       0.022  -0.817  -6.147  1.00  0.00    -0.352 N 
ATOM     39  C   UNL     1      -0.216  -2.188  -6.171  1.00  0.00     0.251 C 
ATOM     40  H   UNL     1       0.187  -0.346  -6.996  1.00  0.00     0.163 HD
ATOM     41  O   UNL     1       0.545  -3.007  -6.667  1.00  0.00    -0.269 OA
BRANCH  39  42
ATOM     42  C   UNL     1      -1.543  -2.590  -5.655  1.00  0.00     0.039 A 
ATOM     43  C   UNL     1      -2.480  -3.161  -6.524  1.00  0.00     0.014 A 
ATOM     44  C   UNL     1      -1.916  -2.141  -4.393  1.00  0.00     0.014 A 
ATOM     45  C   UNL     1      -3.830  -3.098  -6.197  1.00  0.00     0.010 A 
ATOM     46  C   UNL     1      -3.237  -1.919  -4.150  1.00  0.00     0.010 A 
ATOM     47  C   UNL     1      -4.187  -2.385  -5.062  1.00  0.00    -0.014 A 
BRANCH  47  48
ATOM     48  C   UNL     1      -5.530  -2.147  -4.591  1.00  0.00     0.031 A 
ATOM     49  C   UNL     1      -6.000  -3.018  -3.497  1.00  0.00     0.074 A 
ATOM     50  C   UNL     1      -6.080  -0.956  -4.907  1.00  0.00     0.049 A 
ATOM     51  N   UNL     1      -7.188  -3.000  -3.022  1.00  0.00    -0.248 NA
ATOM     52  C   UNL     1      -5.147  -4.014  -2.845  1.00  0.00     0.031 C 
ATOM     53  C   UNL     1      -7.114  -0.218  -4.195  1.00  0.00     0.029 A 
ATOM     54  N   UNL     1      -5.898  -0.233  -6.087  1.00  0.00    -0.354 N 
ATOM     55  C   UNL     1      -7.186  -3.720  -1.844  1.00  0.00     0.074 A 
ATOM     56  C   UNL     1      -5.923  -4.409  -1.831  1.00  0.00     0.031 C 
ATOM     57  C   UNL     1      -7.676   0.667  -5.038  1.00  0.00     0.029 A 
ATOM     58  C   UNL     1      -7.122   0.408  -6.359  1.00  0.00     0.049 A 
ATOM     59  H   UNL     1      -5.075  -0.182  -6.625  1.00  0.00     0.167 HD
ATOM     60  C   UNL     1      -8.220  -3.509  -0.982  1.00  0.00     0.037 A 
ATOM     61  C   UNL     1      -7.864   0.004  -7.437  1.00  0.00     0.037 A 
ATOM     62  C   UNL     1      -9.191  -2.620  -1.620  1.00  0.00     0.049 A 
ATOM     63  C   UNL     1      -9.167  -0.649  -7.028  1.00  0.00     0.074 A 
ATOM     64  C   UNL     1      -9.385  -1.251  -1.555  1.00  0.00     0.029 A 
ATOM     65  N   UNL     1      -9.867  -3.071  -2.744  1.00  0.00    -0.354 N 
ATOM     66  N   UNL     1      -9.363  -1.231  -5.875  1.00  0.00    -0.248 NA
ATOM     67  C   UNL     1     -10.373  -0.628  -7.850  1.00  0.00     0.031 C 
ATOM     68  C   UNL     1     -10.131  -0.870  -2.700  1.00  0.00     0.029 A 
ATOM     69  C   UNL     1     -10.402  -2.008  -3.442  1.00  0.00     0.049 A 
ATOM     70  H   UNL     1      -9.954  -4.016  -3.006  1.00  0.00     0.167 HD
ATOM     71  C   UNL     1     -10.671  -1.635  -5.776  1.00  0.00     0.074 A 
ATOM     72  C   UNL     1     -11.259  -1.235  -7.041  1.00  0.00     0.031 C 
ATOM     73  C   UNL     1     -11.169  -2.241  -4.655  1.00  0.00     0.037 A 
BRANCH  60  74
ATOM     74  C   UNL     1      -8.306  -3.878   0.484  1.00  0.00     0.058 A 
ATOM     75  C   UNL     1      -9.292  -3.264   1.295  1.00  0.00     0.135 A 
ATOM     76  C   UNL     1      -7.459  -4.766   1.177  1.00  0.00     0.135 A 
ATOM     77  F   UNL     1     -10.198  -2.418   0.784  1.00  0.00    -0.206 F 
ATOM     78  C   UNL     1      -9.398  -3.472   2.668  1.00  0.00     0.059 A 
ATOM     79  C   UNL     1      -7.539  -4.983   2.559  1.00  0.00     0.059 A 
ATOM     80  F   UNL     1      -6.527  -5.492   0.554  1.00  0.00    -0.206 F 
ATOM     81  C   UNL     1      -8.509  -4.326   3.298  1.00  0.00     0.060 A 
BRANCH  81  82
ATOM     82  S   UNL     1      -8.668  -4.573   5.074  1.00  0.00     0.124 S 
ATOM     83  O   UNL     1      -8.427  -3.228   5.588  1.00  0.00    -0.237 OA
ATOM     84  O   UNL     1     -10.037  -5.063   5.194  1.00  0.00    -0.237 OA
ATOM     85  O   UNL     1      -7.626  -5.550   5.377  1.00  0.00    -0.744 OA
ENDBRANCH  81  82
ENDBRANCH  60  74
BRANCH  61  86
ATOM     86  C   UNL     1      -6.990  -0.375  -8.596  1.00  0.00     0.058 A 
ATOM     87  C   UNL     1      -6.242   0.671  -9.178  1.00  0.00     0.135 A 
ATOM     88  C   UNL     1      -6.476  -1.675  -8.718  1.00  0.00     0.135 A 
ATOM     89  F   UNL     1      -6.705   1.931  -9.130  1.00  0.00    -0.206 F 
ATOM     90  C   UNL     1      -4.942   0.474  -9.637  1.00  0.00     0.059 A 
ATOM     91  C   UNL     1      -5.180  -1.897  -9.197  1.00  0.00     0.059 A 
ATOM     92  F   UNL     1      -7.150  -2.720  -8.213  1.00  0.00    -0.206 F 
ATOM     93  C   UNL     1      -4.391  -0.802  -9.556  1.00  0.00     0.060 A 
BRANCH  93  94
ATOM     94  S   UNL     1      -2.596  -0.967  -9.756  1.00  0.00     0.124 S 
ATOM     95  O   UNL     1      -2.375  -0.334 -11.052  1.00  0.00    -0.237 OA
ATOM     96  O   UNL     1      -2.088  -0.229  -8.597  1.00  0.00    -0.237 OA
ATOM     97  O   UNL     1      -2.387  -2.409  -9.720  1.00  0.00    -0.744 OA
ENDBRANCH  93  94
ENDBRANCH  61  86
BRANCH  73  98
ATOM     98  C   UNL     1     -12.462  -3.026  -4.542  1.00  0.00     0.058 A 
ATOM     99  C   UNL     1     -13.150  -3.576  -5.635  1.00  0.00     0.135 A 
ATOM    100  C   UNL     1     -12.980  -3.386  -3.267  1.00  0.00     0.135 A 
ATOM    101  F   UNL     1     -12.704  -3.436  -6.891  1.00  0.00    -0.206 F 
ATOM    102  C   UNL     1     -14.309  -4.338  -5.484  1.00  0.00     0.059 A 
ATOM    103  C   UNL     1     -14.085  -4.211  -3.093  1.00  0.00     0.059 A 
ATOM    104  F   UNL     1     -12.422  -2.960  -2.125  1.00  0.00    -0.206 F 
ATOM    105  C   UNL     1     -14.772  -4.647  -4.210  1.00  0.00     0.060 A 
BRANCH 105 106
ATOM    106  S   UNL     1     -16.263  -5.634  -4.023  1.00  0.00     0.124 S 
ATOM    107  O   UNL     1     -17.299  -4.624  -4.213  1.00  0.00    -0.237 OA
ATOM    108  O   UNL     1     -16.131  -6.614  -5.098  1.00  0.00    -0.237 OA
ATOM    109  O   UNL     1     -16.147  -6.176  -2.673  1.00  0.00    -0.744 OA
ENDBRANCH 105 106
ENDBRANCH  73  98
ENDBRANCH  47  48
ENDBRANCH  39  42
ENDBRANCH  37  38
ENDBRANCH  36  37
ENDBRANCH  35  36
ENDBRANCH   1  35
TORSDOF 19
