REMARK SMILES CC(C)N(CC(=O)NCCCCCCNC(=O)c1ccc(-c2c3nc(c(-c4c(F)cc(S(=O)(=O)[O-])cc4F)c4ccc([nH]4)c(-c4c(F)cc(S(=O)(=O)[O-])cc4F)c4nc(c(-c5c(F)cc(S(=O)(=O)[O-])cc5F)c5ccc2[nH]5)C=C4)C=C3)cc1)C(=O)NC1C(C)(C)C1(C)C
REMARK SMILES IDX 11 1 10 2 9 3 8 4 6 5 7 6 5 8 4 9 2 10 1 11 3 12 84 13 85 14
REMARK SMILES IDX 86 15 87 17 88 18 91 19 89 20 90 21 92 22 93 23 12 24 13 25
REMARK SMILES IDX 14 26 15 27 16 28 17 30 18 31 19 32 83 33 20 34 82 35 21 36
REMARK SMILES IDX 22 37 23 38 76 39 24 40 81 41 75 42 77 43 25 44 80 45 74 46
REMARK SMILES IDX 73 47 26 49 60 50 39 51 59 52 40 53 43 54 58 55 78 56 41 57
REMARK SMILES IDX 42 58 57 60 79 61 44 62 27 63 28 64 37 65 29 66 30 67 36 68
REMARK SMILES IDX 38 69 31 70 32 71 33 72 34 73 35 74 61 75 62 76 71 77 63 78
REMARK SMILES IDX 64 79 70 80 72 81 65 82 66 83 67 84 68 85 69 86 45 87 46 88
REMARK SMILES IDX 55 89 47 90 48 91 54 92 56 93 49 94 50 95 51 96 52 97 53 98
REMARK H PARENT 8 7 86 16 15 29 77 48 43 59
REMARK Flexibility Score: inf
ROOT
ATOM      1  C   UNL     1      -0.905  -5.581   3.335  1.00  0.00     0.002 C 
ENDROOT
BRANCH   1   2
ATOM      2  C   UNL     1      -0.073  -4.464   2.699  1.00  0.00     0.021 C 
BRANCH   2   3
ATOM      3  C   UNL     1       0.470  -4.736   1.305  1.00  0.00     0.116 C 
BRANCH   3   4
ATOM      4  N   UNL     1      -0.546  -5.053   0.359  1.00  0.00    -0.355 N 
ATOM      5  C   UNL     1      -1.016  -4.252  -0.613  1.00  0.00     0.239 C 
ATOM      6  O   UNL     1      -1.586  -4.810  -1.561  1.00  0.00    -0.273 OA
ATOM      7  H   UNL     1      -0.946  -5.950   0.424  1.00  0.00     0.163 HD
BRANCH   5   8
ATOM      8  C   UNL     1      -0.847  -2.719  -0.617  1.00  0.00     0.221 C 
BRANCH   8   9
ATOM      9  N   UNL     1      -0.628  -1.668   0.399  1.00  0.00    -0.313 N 
BRANCH   9  10
ATOM     10  C   UNL     1       0.795  -1.237   0.532  1.00  0.00     0.081 C 
ATOM     11  C   UNL     1       1.018   0.163  -0.062  1.00  0.00     0.031 C 
ATOM     12  C   UNL     1       1.406  -1.304   1.938  1.00  0.00     0.031 C 
ENDBRANCH   9  10
BRANCH   9  13
ATOM     13  C   UNL     1      -1.582  -0.845   0.977  1.00  0.00     0.318 C 
ATOM     14  O   UNL     1      -1.260  -0.064   1.888  1.00  0.00    -0.249 OA
ATOM     15  N   UNL     1      -2.898  -0.705   0.645  1.00  0.00    -0.334 N 
ATOM     16  H   UNL     1      -3.261   0.017   1.209  1.00  0.00     0.165 HD
BRANCH  15  17
ATOM     17  C   UNL     1      -3.996  -1.180  -0.198  1.00  0.00     0.096 C 
ATOM     18  C   UNL     1      -3.904  -1.728  -1.607  1.00  0.00    -0.007 C 
ATOM     19  C   UNL     1      -4.300  -2.650  -0.287  1.00  0.00    -0.007 C 
ATOM     20  C   UNL     1      -5.032  -1.702  -2.643  1.00  0.00     0.014 C 
ATOM     21  C   UNL     1      -2.659  -1.238  -2.353  1.00  0.00     0.014 C 
ATOM     22  C   UNL     1      -3.580  -3.470   0.773  1.00  0.00     0.014 C 
ATOM     23  C   UNL     1      -5.747  -3.162  -0.292  1.00  0.00     0.014 C 
ENDBRANCH  15  17
ENDBRANCH   9  13
ENDBRANCH   8   9
ENDBRANCH   5   8
ENDBRANCH   3   4
ENDBRANCH   2   3
ENDBRANCH   1   2
BRANCH   1  24
ATOM     24  C   UNL     1      -0.378  -7.012   3.187  1.00  0.00     0.002 C 
BRANCH  24  25
ATOM     25  C   UNL     1       1.108  -7.227   3.471  1.00  0.00     0.021 C 
BRANCH  25  26
ATOM     26  C   UNL     1       1.591  -6.654   4.790  1.00  0.00     0.116 C 
BRANCH  26  27
ATOM     27  N   UNL     1       1.142  -7.463   5.904  1.00  0.00    -0.352 N 
ATOM     28  C   UNL     1       1.904  -8.248   6.734  1.00  0.00     0.251 C 
ATOM     29  H   UNL     1       0.175  -7.448   6.088  1.00  0.00     0.163 HD
ATOM     30  O   UNL     1       1.374  -9.098   7.438  1.00  0.00    -0.269 OA
BRANCH  28  31
ATOM     31  C   UNL     1       3.373  -8.064   6.747  1.00  0.00     0.039 A 
ATOM     32  C   UNL     1       4.199  -9.187   6.715  1.00  0.00     0.014 A 
ATOM     33  C   UNL     1       3.927  -6.780   6.775  1.00  0.00     0.014 A 
ATOM     34  C   UNL     1       5.585  -9.020   6.675  1.00  0.00     0.010 A 
ATOM     35  C   UNL     1       5.301  -6.615   6.639  1.00  0.00     0.010 A 
ATOM     36  C   UNL     1       6.147  -7.733   6.613  1.00  0.00    -0.014 A 
BRANCH  36  37
ATOM     37  C   UNL     1       7.618  -7.537   6.559  1.00  0.00     0.031 A 
ATOM     38  C   UNL     1       8.319  -6.818   7.681  1.00  0.00     0.074 A 
ATOM     39  C   UNL     1       8.312  -7.961   5.485  1.00  0.00     0.049 A 
ATOM     40  N   UNL     1       9.585  -6.515   7.804  1.00  0.00    -0.248 NA
ATOM     41  C   UNL     1       7.482  -6.352   8.800  1.00  0.00     0.031 C 
ATOM     42  C   UNL     1       7.737  -8.629   4.315  1.00  0.00     0.029 A 
ATOM     43  N   UNL     1       9.652  -7.893   5.200  1.00  0.00    -0.354 N 
ATOM     44  C   UNL     1       9.693  -5.811   8.998  1.00  0.00     0.074 A 
ATOM     45  C   UNL     1       8.356  -5.680   9.534  1.00  0.00     0.031 C 
ATOM     46  C   UNL     1       8.722  -8.939   3.457  1.00  0.00     0.029 A 
ATOM     47  C   UNL     1       9.991  -8.458   3.993  1.00  0.00     0.049 A 
ATOM     48  H   UNL     1      10.310  -7.478   5.804  1.00  0.00     0.167 HD
ATOM     49  C   UNL     1      10.806  -5.337   9.606  1.00  0.00     0.037 A 
ATOM     50  C   UNL     1      11.189  -8.574   3.388  1.00  0.00     0.037 A 
ATOM     51  C   UNL     1      12.136  -5.500   9.080  1.00  0.00     0.049 A 
ATOM     52  C   UNL     1      12.413  -8.038   4.081  1.00  0.00     0.074 A 
ATOM     53  C   UNL     1      13.339  -5.123   9.650  1.00  0.00     0.029 A 
ATOM     54  N   UNL     1      12.439  -6.083   7.857  1.00  0.00    -0.354 N 
ATOM     55  N   UNL     1      12.505  -7.440   5.246  1.00  0.00    -0.248 NA
ATOM     56  C   UNL     1      13.695  -8.195   3.382  1.00  0.00     0.031 C 
ATOM     57  C   UNL     1      14.364  -5.428   8.749  1.00  0.00     0.029 A 
ATOM     58  C   UNL     1      13.806  -6.049   7.642  1.00  0.00     0.049 A 
ATOM     59  H   UNL     1      11.779  -6.465   7.235  1.00  0.00     0.167 HD
ATOM     60  C   UNL     1      13.858  -7.178   5.432  1.00  0.00     0.074 A 
ATOM     61  C   UNL     1      14.546  -7.692   4.265  1.00  0.00     0.031 C 
ATOM     62  C   UNL     1      14.476  -6.570   6.476  1.00  0.00     0.037 A 
BRANCH  49  63
ATOM     63  C   UNL     1      10.634  -4.596  10.904  1.00  0.00     0.058 A 
ATOM     64  C   UNL     1      10.227  -5.244  12.082  1.00  0.00     0.135 A 
ATOM     65  C   UNL     1      10.906  -3.220  10.979  1.00  0.00     0.135 A 
ATOM     66  F   UNL     1       9.938  -6.555  12.067  1.00  0.00    -0.206 F 
ATOM     67  C   UNL     1      10.063  -4.551  13.277  1.00  0.00     0.059 A 
ATOM     68  C   UNL     1      10.780  -2.512  12.171  1.00  0.00     0.059 A 
ATOM     69  F   UNL     1      11.298  -2.548   9.885  1.00  0.00    -0.206 F 
ATOM     70  C   UNL     1      10.342  -3.183  13.311  1.00  0.00     0.060 A 
BRANCH  70  71
ATOM     71  S   UNL     1      10.126  -2.299  14.869  1.00  0.00     0.124 S 
ATOM     72  O   UNL     1       8.671  -2.255  14.979  1.00  0.00    -0.237 OA
ATOM     73  O   UNL     1      10.807  -3.171  15.820  1.00  0.00    -0.237 OA
ATOM     74  O   UNL     1      10.776  -1.015  14.625  1.00  0.00    -0.744 OA
ENDBRANCH  70  71
ENDBRANCH  49  63
BRANCH  50  75
ATOM     75  C   UNL     1      11.293  -9.253   2.068  1.00  0.00     0.058 A 
ATOM     76  C   UNL     1      11.916 -10.505   1.950  1.00  0.00     0.135 A 
ATOM     77  C   UNL     1      10.758  -8.678   0.905  1.00  0.00     0.135 A 
ATOM     78  F   UNL     1      12.448 -11.094   3.032  1.00  0.00    -0.206 F 
ATOM     79  C   UNL     1      12.019 -11.156   0.725  1.00  0.00     0.059 A 
ATOM     80  C   UNL     1      10.825  -9.321  -0.327  1.00  0.00     0.059 A 
ATOM     81  F   UNL     1      10.137  -7.489   0.966  1.00  0.00    -0.206 F 
ATOM     82  C   UNL     1      11.466 -10.557  -0.408  1.00  0.00     0.060 A 
BRANCH  82  83
ATOM     83  S   UNL     1      11.560 -11.435  -1.984  1.00  0.00     0.124 S 
ATOM     84  O   UNL     1      12.976 -11.308  -2.307  1.00  0.00    -0.237 OA
ATOM     85  O   UNL     1      11.106 -12.772  -1.615  1.00  0.00    -0.237 OA
ATOM     86  O   UNL     1      10.646 -10.685  -2.840  1.00  0.00    -0.744 OA
ENDBRANCH  82  83
ENDBRANCH  50  75
BRANCH  62  87
ATOM     87  C   UNL     1      15.975  -6.458   6.425  1.00  0.00     0.058 A 
ATOM     88  C   UNL     1      16.621  -5.572   5.549  1.00  0.00     0.135 A 
ATOM     89  C   UNL     1      16.772  -7.208   7.305  1.00  0.00     0.135 A 
ATOM     90  F   UNL     1      15.906  -4.836   4.682  1.00  0.00    -0.206 F 
ATOM     91  C   UNL     1      18.007  -5.451   5.530  1.00  0.00     0.059 A 
ATOM     92  C   UNL     1      18.157  -7.080   7.325  1.00  0.00     0.059 A 
ATOM     93  F   UNL     1      16.204  -8.062   8.171  1.00  0.00    -0.206 F 
ATOM     94  C   UNL     1      18.766  -6.207   6.425  1.00  0.00     0.060 A 
BRANCH  94  95
ATOM     95  S   UNL     1      20.561  -6.014   6.414  1.00  0.00     0.124 S 
ATOM     96  O   UNL     1      20.923  -6.702   5.179  1.00  0.00    -0.237 OA
ATOM     97  O   UNL     1      20.718  -4.563   6.402  1.00  0.00    -0.237 OA
ATOM     98  O   UNL     1      20.982  -6.675   7.646  1.00  0.00    -0.744 OA
ENDBRANCH  94  95
ENDBRANCH  62  87
ENDBRANCH  36  37
ENDBRANCH  28  31
ENDBRANCH  26  27
ENDBRANCH  25  26
ENDBRANCH  24  25
ENDBRANCH   1  24
TORSDOF 20
