REMARK SMILES COc1cccc(C(=O)N2[C@@H](C(=O)NCCCCCCNC(=O)c3ccc(-c4c5nc(c(-c6c(F)cc(S(=O)(=O)[O-])cc6F)c6ccc([nH]6)c(-c6c(F)cc(S(=O)(=O)[O-])cc6F)c6nc(c(-c7c(F)cc(S(=O)(=O)[O-])cc7F)c7ccc4[nH]7)C=C6)C=C5)cc3)CS[C@@H]2c2ccccc2Cl)c1
REMARK SMILES IDX 17 1 16 2 15 3 14 4 12 5 13 6 11 8 10 9 92 10 90 11 91 12
REMARK SMILES IDX 8 13 9 14 7 15 3 16 4 17 100 18 5 19 6 20 2 21 1 22 93 23
REMARK SMILES IDX 94 24 98 25 95 26 97 27 99 28 96 29 18 30 19 31 20 32 21 33
REMARK SMILES IDX 22 34 23 36 24 37 25 38 89 39 26 40 88 41 27 42 28 43 29 44
REMARK SMILES IDX 82 45 30 46 87 47 81 48 83 49 31 50 86 51 80 52 79 53 32 55
REMARK SMILES IDX 66 56 45 57 65 58 46 59 49 60 64 61 84 62 47 63 48 64 63 66
REMARK SMILES IDX 85 67 50 68 33 69 34 70 43 71 35 72 36 73 42 74 44 75 37 76
REMARK SMILES IDX 38 77 39 78 40 79 41 80 67 81 68 82 77 83 69 84 70 85 76 86
REMARK SMILES IDX 78 87 71 88 72 89 73 90 74 91 75 92 51 93 52 94 61 95 53 96
REMARK SMILES IDX 54 97 60 98 62 99 55 100 56 101 57 102 58 103 59 104
REMARK H PARENT 14 7 21 35 83 54 49 65
REMARK Flexibility Score: inf
ROOT
ATOM      1  C   UNL     1       1.385   6.472   1.592  1.00  0.00     0.002 C 
ENDROOT
BRANCH   1   2
ATOM      2  C   UNL     1       2.393   5.745   0.705  1.00  0.00     0.021 C 
BRANCH   2   3
ATOM      3  C   UNL     1       3.843   5.934   1.151  1.00  0.00     0.116 C 
BRANCH   3   4
ATOM      4  N   UNL     1       4.175   4.876   2.080  1.00  0.00    -0.354 N 
ATOM      5  C   UNL     1       4.686   3.641   1.794  1.00  0.00     0.243 C 
ATOM      6  O   UNL     1       4.493   2.756   2.632  1.00  0.00    -0.273 OA
ATOM      7  H   UNL     1       4.012   5.068   3.032  1.00  0.00     0.163 HD
BRANCH   5   8
ATOM      8  C   UNL     1       5.531   3.422   0.506  1.00  0.00     0.186 C 
ATOM      9  N   UNL     1       4.845   3.081  -0.778  1.00  0.00    -0.310 N 
ATOM     10  C   UNL     1       5.491   2.025  -1.535  1.00  0.00     0.176 C 
ATOM     11  C   UNL     1       6.521   2.271   0.827  1.00  0.00     0.107 C 
ATOM     12  S   UNL     1       5.974   0.880  -0.191  1.00  0.00    -0.129 SA
BRANCH   9  13
ATOM     13  C   UNL     1       3.975   3.913  -1.461  1.00  0.00     0.255 C 
ATOM     14  O   UNL     1       4.244   5.068  -1.769  1.00  0.00    -0.269 OA
BRANCH  13  15
ATOM     15  C   UNL     1       2.581   3.416  -1.721  1.00  0.00     0.043 A 
ATOM     16  C   UNL     1       0.723   1.918  -1.270  1.00  0.00     0.119 A 
ATOM     17  C   UNL     1      -0.134   2.782  -1.958  1.00  0.00     0.046 A 
ATOM     18  C   UNL     1       2.079   2.241  -1.140  1.00  0.00     0.060 A 
ATOM     19  C   UNL     1       0.352   3.952  -2.535  1.00  0.00     0.005 A 
ATOM     20  C   UNL     1       1.707   4.260  -2.430  1.00  0.00     0.014 A 
BRANCH  16  21
ATOM     21  O   UNL     1       0.112   0.799  -0.775  1.00  0.00    -0.497 OA
ATOM     22  C   UNL     1       0.856  -0.003   0.132  1.00  0.00     0.278 C 
ENDBRANCH  16  21
ENDBRANCH  13  15
ENDBRANCH   9  13
BRANCH  10  23
ATOM     23  C   UNL     1       6.728   2.312  -2.410  1.00  0.00     0.003 A 
ATOM     24  C   UNL     1       7.200   1.181  -3.137  1.00  0.00     0.008 A 
ATOM     25  C   UNL     1       7.497   3.485  -2.546  1.00  0.00     0.047 A 
ATOM     26  C   UNL     1       8.378   1.197  -3.889  1.00  0.00     0.001 A 
ATOM     27  C   UNL     1       8.674   3.497  -3.321  1.00  0.00     0.021 A 
ATOM     28  Cl  UNL     1       7.187   5.010  -1.815  1.00  0.00    -0.084 Cl
ATOM     29  C   UNL     1       9.123   2.359  -3.977  1.00  0.00     0.002 A 
ENDBRANCH  10  23
ENDBRANCH   5   8
ENDBRANCH   3   4
ENDBRANCH   2   3
ENDBRANCH   1   2
BRANCH   1  30
ATOM     30  C   UNL     1       1.423   7.994   1.432  1.00  0.00     0.002 C 
BRANCH  30  31
ATOM     31  C   UNL     1       1.209   8.493  -0.001  1.00  0.00     0.021 C 
BRANCH  31  32
ATOM     32  C   UNL     1      -0.099   8.029  -0.634  1.00  0.00     0.116 C 
BRANCH  32  33
ATOM     33  N   UNL     1      -1.247   8.544   0.099  1.00  0.00    -0.352 N 
ATOM     34  C   UNL     1      -2.185   9.462  -0.308  1.00  0.00     0.251 C 
ATOM     35  H   UNL     1      -1.368   8.186   1.008  1.00  0.00     0.163 HD
ATOM     36  O   UNL     1      -2.909  10.014   0.509  1.00  0.00    -0.269 OA
BRANCH  34  37
ATOM     37  C   UNL     1      -2.303   9.771  -1.748  1.00  0.00     0.039 A 
ATOM     38  C   UNL     1      -2.387  11.101  -2.165  1.00  0.00     0.014 A 
ATOM     39  C   UNL     1      -2.327   8.732  -2.682  1.00  0.00     0.014 A 
ATOM     40  C   UNL     1      -2.437  11.391  -3.531  1.00  0.00     0.010 A 
ATOM     41  C   UNL     1      -2.302   9.025  -4.039  1.00  0.00     0.010 A 
ATOM     42  C   UNL     1      -2.365  10.357  -4.478  1.00  0.00    -0.014 A 
BRANCH  42  43
ATOM     43  C   UNL     1      -2.391  10.621  -5.939  1.00  0.00     0.031 A 
ATOM     44  C   UNL     1      -3.524  10.072  -6.764  1.00  0.00     0.074 A 
ATOM     45  C   UNL     1      -1.367  11.269  -6.531  1.00  0.00     0.049 A 
ATOM     46  N   UNL     1      -3.652  10.021  -8.064  1.00  0.00    -0.248 NA
ATOM     47  C   UNL     1      -4.650   9.471  -6.027  1.00  0.00     0.031 C 
ATOM     48  C   UNL     1      -0.205  11.833  -5.840  1.00  0.00     0.029 A 
ATOM     49  N   UNL     1      -1.127  11.541  -7.855  1.00  0.00    -0.354 N 
ATOM     50  C   UNL     1      -4.861   9.377  -8.299  1.00  0.00     0.074 A 
ATOM     51  C   UNL     1      -5.401   9.002  -7.012  1.00  0.00     0.031 C 
ATOM     52  C   UNL     1       0.620  12.386  -6.744  1.00  0.00     0.029 A 
ATOM     53  C   UNL     1       0.075  12.173  -8.081  1.00  0.00     0.049 A 
ATOM     54  H   UNL     1      -1.755  11.306  -8.576  1.00  0.00     0.167 HD
ATOM     55  C   UNL     1      -5.477   9.143  -9.481  1.00  0.00     0.037 A 
ATOM     56  C   UNL     1       0.678  12.516  -9.237  1.00  0.00     0.037 A 
ATOM     57  C   UNL     1      -4.944   9.541 -10.757  1.00  0.00     0.049 A 
ATOM     58  C   UNL     1      -0.011  12.203 -10.542  1.00  0.00     0.074 A 
ATOM     59  C   UNL     1      -5.498   9.365 -12.013  1.00  0.00     0.029 A 
ATOM     60  N   UNL     1      -3.741  10.208 -10.939  1.00  0.00    -0.354 N 
ATOM     61  N   UNL     1      -1.165  11.613 -10.745  1.00  0.00    -0.248 NA
ATOM     62  C   UNL     1       0.680  12.605 -11.776  1.00  0.00     0.031 C 
ATOM     63  C   UNL     1      -4.612   9.890 -12.957  1.00  0.00     0.029 A 
ATOM     64  C   UNL     1      -3.535  10.446 -12.286  1.00  0.00     0.049 A 
ATOM     65  H   UNL     1      -3.126  10.472 -10.217  1.00  0.00     0.167 HD
ATOM     66  C   UNL     1      -1.360  11.625 -12.123  1.00  0.00     0.074 A 
ATOM     67  C   UNL     1      -0.206  12.275 -12.705  1.00  0.00     0.031 C 
ATOM     68  C   UNL     1      -2.404  11.144 -12.842  1.00  0.00     0.037 A 
BRANCH  55  69
ATOM     69  C   UNL     1      -6.809   8.445  -9.457  1.00  0.00     0.058 A 
ATOM     70  C   UNL     1      -7.961   9.086  -8.975  1.00  0.00     0.135 A 
ATOM     71  C   UNL     1      -6.953   7.154  -9.991  1.00  0.00     0.135 A 
ATOM     72  F   UNL     1      -7.877  10.313  -8.436  1.00  0.00    -0.206 F 
ATOM     73  C   UNL     1      -9.206   8.470  -9.013  1.00  0.00     0.059 A 
ATOM     74  C   UNL     1      -8.194   6.529 -10.066  1.00  0.00     0.059 A 
ATOM     75  F   UNL     1      -5.883   6.493 -10.461  1.00  0.00    -0.206 F 
ATOM     76  C   UNL     1      -9.314   7.194  -9.569  1.00  0.00     0.060 A 
BRANCH  76  77
ATOM     77  S   UNL     1     -10.948   6.431  -9.651  1.00  0.00     0.124 S 
ATOM     78  O   UNL     1     -11.210   6.149  -8.243  1.00  0.00    -0.237 OA
ATOM     79  O   UNL     1     -11.755   7.490 -10.247  1.00  0.00    -0.237 OA
ATOM     80  O   UNL     1     -10.734   5.259 -10.495  1.00  0.00    -0.744 OA
ENDBRANCH  76  77
ENDBRANCH  55  69
BRANCH  56  81
ATOM     81  C   UNL     1       2.008  13.188  -9.231  1.00  0.00     0.058 A 
ATOM     82  C   UNL     1       2.153  14.506  -9.694  1.00  0.00     0.135 A 
ATOM     83  C   UNL     1       3.167  12.516  -8.812  1.00  0.00     0.135 A 
ATOM     84  F   UNL     1       1.077  15.193 -10.107  1.00  0.00    -0.206 F 
ATOM     85  C   UNL     1       3.400  15.114  -9.791  1.00  0.00     0.059 A 
ATOM     86  C   UNL     1       4.422  13.115  -8.868  1.00  0.00     0.059 A 
ATOM     87  F   UNL     1       3.085  11.262  -8.341  1.00  0.00    -0.206 F 
ATOM     88  C   UNL     1       4.531  14.405  -9.383  1.00  0.00     0.060 A 
BRANCH  88  89
ATOM     89  S   UNL     1       6.148  15.195  -9.531  1.00  0.00     0.124 S 
ATOM     90  O   UNL     1       6.358  15.162 -10.974  1.00  0.00    -0.237 OA
ATOM     91  O   UNL     1       5.902  16.512  -8.952  1.00  0.00    -0.237 OA
ATOM     92  O   UNL     1       7.020  14.326  -8.746  1.00  0.00    -0.744 OA
ENDBRANCH  88  89
ENDBRANCH  56  81
BRANCH  68  93
ATOM     93  C   UNL     1      -2.407  11.380 -14.327  1.00  0.00     0.058 A 
ATOM     94  C   UNL     1      -1.565  10.672 -15.197  1.00  0.00     0.135 A 
ATOM     95  C   UNL     1      -3.342  12.264 -14.892  1.00  0.00     0.135 A 
ATOM     96  F   UNL     1      -0.649   9.820 -14.709  1.00  0.00    -0.206 F 
ATOM     97  C   UNL     1      -1.645  10.837 -16.576  1.00  0.00     0.059 A 
ATOM     98  C   UNL     1      -3.460  12.422 -16.268  1.00  0.00     0.059 A 
ATOM     99  F   UNL     1      -4.177  12.959 -14.102  1.00  0.00    -0.206 F 
ATOM    100  C   UNL     1      -2.604  11.707 -17.102  1.00  0.00     0.060 A 
BRANCH 100 101
ATOM    101  S   UNL     1      -2.745  11.854 -18.896  1.00  0.00     0.124 S 
ATOM    102  O   UNL     1      -1.536  12.601 -19.227  1.00  0.00    -0.237 OA
ATOM    103  O   UNL     1      -2.765  10.458 -19.322  1.00  0.00    -0.237 OA
ATOM    104  O   UNL     1      -4.000  12.577 -19.081  1.00  0.00    -0.744 OA
ENDBRANCH 100 101
ENDBRANCH  68  93
ENDBRANCH  42  43
ENDBRANCH  34  37
ENDBRANCH  32  33
ENDBRANCH  31  32
ENDBRANCH  30  31
ENDBRANCH   1  30
TORSDOF 20
