REMARK SMILES Cc1ccc(-c2c[nH]c(=O)cc2C(=O)NCCCCCCNC(=O)c2ccc(-c3c4nc(c(-c5c(F)cc(S(=O)(=O)[O-])cc5F)c5ccc([nH]5)c(-c5c(F)cc(S(=O)(=O)[O-])cc5F)c5nc(c(-c6c(F)cc(S(=O)(=O)[O-])cc6F)c6ccc3[nH]6)C=C5)C=C4)cc2)cc1Cl
REMARK SMILES IDX 19 1 18 2 17 3 16 4 15 5 13 6 14 7 12 9 6 10 7 11 8 12 11 13
REMARK SMILES IDX 9 14 10 16 5 17 1 18 2 19 3 20 92 21 4 22 91 23 93 24 20 25
REMARK SMILES IDX 21 26 22 27 23 28 24 30 25 31 26 32 90 33 27 34 89 35 28 36
REMARK SMILES IDX 29 37 30 38 83 39 31 40 88 41 82 42 84 43 32 44 87 45 81 46
REMARK SMILES IDX 80 47 33 49 67 50 46 51 66 52 47 53 50 54 65 55 85 56 48 57
REMARK SMILES IDX 49 58 64 60 86 61 51 62 34 63 35 64 44 65 36 66 37 67 43 68
REMARK SMILES IDX 45 69 38 70 39 71 40 72 41 73 42 74 68 75 69 76 78 77 70 78
REMARK SMILES IDX 71 79 77 80 79 81 72 82 73 83 74 84 75 85 76 86 52 87 53 88
REMARK SMILES IDX 62 89 54 90 55 91 61 92 63 93 56 94 57 95 58 96 59 97 60 98
REMARK H PARENT 15 8 8 15 22 29 84 48 50 59
REMARK Flexibility Score: inf
ROOT
ATOM      1  C   UNL     1      -7.028  -2.736  -6.064  1.00  0.00     0.002 C 
ENDROOT
BRANCH   1   2
ATOM      2  C   UNL     1      -7.188  -2.058  -4.696  1.00  0.00     0.002 C 
BRANCH   2   3
ATOM      3  C   UNL     1      -6.844  -2.947  -3.489  1.00  0.00     0.021 C 
BRANCH   3   4
ATOM      4  C   UNL     1      -5.427  -3.518  -3.547  1.00  0.00     0.116 C 
BRANCH   4   5
ATOM      5  N   UNL     1      -4.465  -2.495  -3.197  1.00  0.00    -0.352 N 
ATOM      6  C   UNL     1      -3.723  -2.159  -2.117  1.00  0.00     0.252 C 
ATOM      7  O   UNL     1      -3.051  -1.138  -2.293  1.00  0.00    -0.269 OA
ATOM      8  H   UNL     1      -4.307  -1.877  -3.948  1.00  0.00     0.163 HD
BRANCH   6   9
ATOM      9  C   UNL     1      -3.631  -2.936  -0.820  1.00  0.00     0.054 A 
ATOM     10  C   UNL     1      -2.595  -2.568   0.184  1.00  0.00     0.011 A 
ATOM     11  C   UNL     1      -2.420  -3.356   1.265  1.00  0.00     0.095 A 
ATOM     12  N   UNL     1      -3.191  -4.464   1.469  1.00  0.00    -0.328 N 
ATOM     13  C   UNL     1      -4.459  -3.954  -0.520  1.00  0.00     0.086 A 
ATOM     14  C   UNL     1      -4.228  -4.824   0.657  1.00  0.00     0.248 A 
ATOM     15  H   UNL     1      -2.988  -5.035   2.245  1.00  0.00     0.169 HD
ATOM     16  O   UNL     1      -4.924  -5.806   0.865  1.00  0.00    -0.270 OA
BRANCH  10  17
ATOM     17  C   UNL     1      -1.767  -1.341   0.171  1.00  0.00    -0.015 A 
ATOM     18  C   UNL     1       0.580   2.290   0.036  1.00  0.00     0.046 C 
ATOM     19  C   UNL     1      -0.214   1.018   0.101  1.00  0.00    -0.032 A 
ATOM     20  C   UNL     1      -1.607   1.083   0.240  1.00  0.00     0.005 A 
ATOM     21  C   UNL     1       0.393  -0.245   0.023  1.00  0.00     0.044 A 
ATOM     22  C   UNL     1      -2.373  -0.084   0.291  1.00  0.00     0.009 A 
ATOM     23  C   UNL     1      -0.374  -1.413   0.047  1.00  0.00     0.029 A 
ATOM     24  Cl  UNL     1       2.110  -0.412  -0.102  1.00  0.00    -0.084 Cl
ENDBRANCH  10  17
ENDBRANCH   6   9
ENDBRANCH   4   5
ENDBRANCH   3   4
ENDBRANCH   2   3
ENDBRANCH   1   2
BRANCH   1  25
ATOM     25  C   UNL     1      -7.732  -4.089  -6.192  1.00  0.00     0.021 C 
BRANCH  25  26
ATOM     26  C   UNL     1      -9.242  -4.018  -6.004  1.00  0.00     0.116 C 
BRANCH  26  27
ATOM     27  N   UNL     1      -9.870  -3.230  -7.053  1.00  0.00    -0.352 N 
ATOM     28  C   UNL     1     -10.848  -3.601  -7.940  1.00  0.00     0.251 C 
ATOM     29  H   UNL     1      -9.549  -2.303  -7.138  1.00  0.00     0.163 HD
ATOM     30  O   UNL     1     -11.082  -2.906  -8.924  1.00  0.00    -0.269 OA
BRANCH  28  31
ATOM     31  C   UNL     1     -11.611  -4.844  -7.703  1.00  0.00     0.039 A 
ATOM     32  C   UNL     1     -11.870  -5.699  -8.776  1.00  0.00     0.014 A 
ATOM     33  C   UNL     1     -12.075  -5.158  -6.422  1.00  0.00     0.014 A 
ATOM     34  C   UNL     1     -12.562  -6.891  -8.555  1.00  0.00     0.010 A 
ATOM     35  C   UNL     1     -12.690  -6.383  -6.190  1.00  0.00     0.010 A 
ATOM     36  C   UNL     1     -12.955  -7.254  -7.256  1.00  0.00    -0.014 A 
BRANCH  36  37
ATOM     37  C   UNL     1     -13.669  -8.530  -6.995  1.00  0.00     0.031 A 
ATOM     38  C   UNL     1     -15.073  -8.505  -6.451  1.00  0.00     0.074 A 
ATOM     39  C   UNL     1     -13.038  -9.703  -7.197  1.00  0.00     0.049 A 
ATOM     40  N   UNL     1     -15.841  -9.505  -6.101  1.00  0.00    -0.248 NA
ATOM     41  C   UNL     1     -15.684  -7.181  -6.247  1.00  0.00     0.031 C 
ATOM     42  C   UNL     1     -11.664  -9.851  -7.681  1.00  0.00     0.029 A 
ATOM     43  N   UNL     1     -13.465 -10.993  -7.013  1.00  0.00    -0.354 N 
ATOM     44  C   UNL     1     -17.016  -8.932  -5.628  1.00  0.00     0.074 A 
ATOM     45  C   UNL     1     -16.836  -7.498  -5.676  1.00  0.00     0.031 C 
ATOM     46  C   UNL     1     -11.372 -11.158  -7.783  1.00  0.00     0.029 A 
ATOM     47  C   UNL     1     -12.519 -11.939  -7.330  1.00  0.00     0.049 A 
ATOM     48  H   UNL     1     -14.365 -11.221  -6.684  1.00  0.00     0.167 HD
ATOM     49  C   UNL     1     -18.152  -9.545  -5.218  1.00  0.00     0.037 A 
ATOM     50  C   UNL     1     -12.569 -13.284  -7.258  1.00  0.00     0.037 A 
ATOM     51  C   UNL     1     -18.327 -10.974  -5.192  1.00  0.00     0.049 A 
ATOM     52  C   UNL     1     -13.835 -13.943  -6.781  1.00  0.00     0.074 A 
ATOM     53  C   UNL     1     -19.452 -11.697  -4.837  1.00  0.00     0.029 A 
ATOM     54  N   UNL     1     -17.349 -11.899  -5.530  1.00  0.00    -0.354 N 
ATOM     55  N   UNL     1     -14.959 -13.387  -6.393  1.00  0.00    -0.248 NA
ATOM     56  C   UNL     1     -13.844 -15.411  -6.738  1.00  0.00     0.031 C 
ATOM     57  C   UNL     1     -19.139 -13.057  -4.911  1.00  0.00     0.029 A 
ATOM     58  C   UNL     1     -17.838 -13.185  -5.371  1.00  0.00     0.049 A 
ATOM     59  H   UNL     1     -16.441 -11.674  -5.837  1.00  0.00     0.167 HD
ATOM     60  C   UNL     1     -15.820 -14.438  -6.093  1.00  0.00     0.074 A 
ATOM     61  C   UNL     1     -15.089 -15.661  -6.354  1.00  0.00     0.031 C 
ATOM     62  C   UNL     1     -17.100 -14.394  -5.646  1.00  0.00     0.037 A 
BRANCH  49  63
ATOM     63  C   UNL     1     -19.292  -8.672  -4.767  1.00  0.00     0.058 A 
ATOM     64  C   UNL     1     -20.000  -7.856  -5.666  1.00  0.00     0.135 A 
ATOM     65  C   UNL     1     -19.702  -8.668  -3.424  1.00  0.00     0.135 A 
ATOM     66  F   UNL     1     -19.643  -7.807  -6.960  1.00  0.00    -0.206 F 
ATOM     67  C   UNL     1     -21.046  -7.043  -5.245  1.00  0.00     0.059 A 
ATOM     68  C   UNL     1     -20.769  -7.887  -2.986  1.00  0.00     0.059 A 
ATOM     69  F   UNL     1     -19.064  -9.427  -2.519  1.00  0.00    -0.206 F 
ATOM     70  C   UNL     1     -21.424  -7.065  -3.902  1.00  0.00     0.060 A 
BRANCH  70  71
ATOM     71  S   UNL     1     -22.784  -6.003  -3.373  1.00  0.00     0.124 S 
ATOM     72  O   UNL     1     -22.167  -4.681  -3.450  1.00  0.00    -0.237 OA
ATOM     73  O   UNL     1     -23.806  -6.284  -4.375  1.00  0.00    -0.237 OA
ATOM     74  O   UNL     1     -23.083  -6.477  -2.025  1.00  0.00    -0.744 OA
ENDBRANCH  70  71
ENDBRANCH  49  63
BRANCH  50  75
ATOM     75  C   UNL     1     -11.393 -14.095  -7.673  1.00  0.00     0.058 A 
ATOM     76  C   UNL     1     -11.434 -14.886  -8.831  1.00  0.00     0.135 A 
ATOM     77  C   UNL     1     -10.201 -14.089  -6.931  1.00  0.00     0.135 A 
ATOM     78  F   UNL     1     -12.552 -14.931  -9.573  1.00  0.00    -0.206 F 
ATOM     79  C   UNL     1     -10.347 -15.657  -9.229  1.00  0.00     0.059 A 
ATOM     80  C   UNL     1      -9.090 -14.829  -7.323  1.00  0.00     0.059 A 
ATOM     81  F   UNL     1     -10.102 -13.336  -5.824  1.00  0.00    -0.206 F 
ATOM     82  C   UNL     1      -9.176 -15.618  -8.469  1.00  0.00     0.060 A 
BRANCH  82  83
ATOM     83  S   UNL     1      -7.756 -16.587  -9.020  1.00  0.00     0.124 S 
ATOM     84  O   UNL     1      -8.200 -17.947  -8.737  1.00  0.00    -0.237 OA
ATOM     85  O   UNL     1      -7.668 -16.224 -10.431  1.00  0.00    -0.237 OA
ATOM     86  O   UNL     1      -6.667 -16.092  -8.184  1.00  0.00    -0.744 OA
ENDBRANCH  82  83
ENDBRANCH  50  75
BRANCH  62  87
ATOM     87  C   UNL     1     -17.814 -15.705  -5.454  1.00  0.00     0.058 A 
ATOM     88  C   UNL     1     -17.489 -16.581  -4.407  1.00  0.00     0.135 A 
ATOM     89  C   UNL     1     -18.877 -16.061  -6.301  1.00  0.00     0.135 A 
ATOM     90  F   UNL     1     -16.478 -16.293  -3.573  1.00  0.00    -0.206 F 
ATOM     91  C   UNL     1     -18.177 -17.776  -4.222  1.00  0.00     0.059 A 
ATOM     92  C   UNL     1     -19.598 -17.235  -6.115  1.00  0.00     0.059 A 
ATOM     93  F   UNL     1     -19.236 -15.253  -7.312  1.00  0.00    -0.206 F 
ATOM     94  C   UNL     1     -19.233 -18.093  -5.079  1.00  0.00     0.060 A 
BRANCH  94  95
ATOM     95  S   UNL     1     -20.139 -19.630  -4.805  1.00  0.00     0.124 S 
ATOM     96  O   UNL     1     -19.169 -20.626  -5.247  1.00  0.00    -0.237 OA
ATOM     97  O   UNL     1     -20.395 -19.588  -3.368  1.00  0.00    -0.237 OA
ATOM     98  O   UNL     1     -21.320 -19.485  -5.651  1.00  0.00    -0.744 OA
ENDBRANCH  94  95
ENDBRANCH  62  87
ENDBRANCH  36  37
ENDBRANCH  28  31
ENDBRANCH  26  27
ENDBRANCH  25  26
ENDBRANCH   1  25
TORSDOF 17
