REMARK SMILES Cc1ccc(O[C@H](C)C(=O)Nc2ccsc2C(=O)NCCCCCCNC(=O)c2ccc(-c3c4nc(c(-c5c(F)cc(S(=O)(=O)[O-])cc5F)c5ccc([nH]5)c(-c5c(F)cc(S(=O)(=O)[O-])cc5F)c5nc(c(-c6c(F)cc(S(=O)(=O)[O-])cc6F)c6ccc3[nH]6)C=C5)C=C4)cc2)cc1
REMARK SMILES IDX 22 1 21 2 20 3 19 4 17 5 18 6 16 8 12 9 13 10 14 11 15 12
REMARK SMILES IDX 11 13 9 14 10 15 7 17 8 18 6 19 5 20 1 21 2 22 3 23 96 24
REMARK SMILES IDX 4 25 95 26 23 27 24 28 25 29 26 30 27 31 28 33 29 34 30 35
REMARK SMILES IDX 94 36 31 37 93 38 32 39 33 40 34 41 87 42 35 43 92 44 86 45
REMARK SMILES IDX 88 46 36 47 91 48 85 49 84 50 37 52 71 53 50 54 70 55 51 56
REMARK SMILES IDX 54 57 69 58 89 59 52 60 53 61 68 63 90 64 55 65 38 66 39 67
REMARK SMILES IDX 48 68 40 69 41 70 47 71 49 72 42 73 43 74 44 75 45 76 46 77
REMARK SMILES IDX 72 78 73 79 82 80 74 81 75 82 81 83 83 84 76 85 77 86 78 87
REMARK SMILES IDX 79 88 80 89 56 90 57 91 66 92 58 93 59 94 65 95 67 96 60 97
REMARK SMILES IDX 61 98 62 99 63 100 64 101
REMARK H PARENT 19 7 11 16 26 32 88 51 54 62
REMARK Flexibility Score: inf
ROOT
ATOM      1  C   UNL     1      -3.151   6.857  -2.654  1.00  0.00     0.002 C 
ENDROOT
BRANCH   1   2
ATOM      2  C   UNL     1      -3.429   5.741  -1.641  1.00  0.00     0.021 C 
BRANCH   2   3
ATOM      3  C   UNL     1      -2.401   4.624  -1.488  1.00  0.00     0.116 C 
BRANCH   3   4
ATOM      4  N   UNL     1      -1.061   5.033  -1.144  1.00  0.00    -0.351 N 
ATOM      5  C   UNL     1      -0.000   4.332  -0.609  1.00  0.00     0.263 C 
ATOM      6  O   UNL     1       1.029   5.007  -0.480  1.00  0.00    -0.268 OA
ATOM      7  H   UNL     1      -0.869   5.981  -1.324  1.00  0.00     0.163 HD
BRANCH   5   8
ATOM      8  C   UNL     1      -0.063   2.923  -0.194  1.00  0.00     0.115 A 
ATOM      9  C   UNL     1      -0.813   1.804  -0.549  1.00  0.00     0.065 A 
ATOM     10  C   UNL     1      -0.414   0.633   0.173  1.00  0.00     0.038 A 
ATOM     11  C   UNL     1       0.560   0.877   1.106  1.00  0.00     0.068 A 
ATOM     12  S   UNL     1       1.043   2.503   1.088  1.00  0.00    -0.137 S 
BRANCH   9  13
ATOM     13  N   UNL     1      -1.753   1.766  -1.562  1.00  0.00    -0.321 N 
ATOM     14  C   UNL     1      -3.048   1.313  -1.523  1.00  0.00     0.265 C 
ATOM     15  O   UNL     1      -3.708   1.433  -2.565  1.00  0.00    -0.270 OA
ATOM     16  H   UNL     1      -1.451   2.112  -2.433  1.00  0.00     0.170 HD
BRANCH  14  17
ATOM     17  C   UNL     1      -3.703   0.698  -0.258  1.00  0.00     0.259 C 
ATOM     18  C   UNL     1      -3.670  -0.814  -0.432  1.00  0.00     0.064 C 
BRANCH  17  19
ATOM     19  O   UNL     1      -3.223   1.332   0.919  1.00  0.00    -0.481 OA
BRANCH  19  20
ATOM     20  C   UNL     1      -3.104   0.839   2.176  1.00  0.00     0.120 A 
ATOM     21  C   UNL     1      -2.100  -0.265   6.240  1.00  0.00     0.044 C 
ATOM     22  C   UNL     1      -2.507   0.139   4.856  1.00  0.00    -0.051 A 
ATOM     23  C   UNL     1      -2.901  -0.827   3.927  1.00  0.00     0.007 A 
ATOM     24  C   UNL     1      -2.441   1.470   4.443  1.00  0.00     0.007 A 
ATOM     25  C   UNL     1      -3.210  -0.477   2.604  1.00  0.00     0.047 A 
ATOM     26  C   UNL     1      -2.737   1.809   3.119  1.00  0.00     0.047 A 
ENDBRANCH  19  20
ENDBRANCH  17  19
ENDBRANCH  14  17
ENDBRANCH   9  13
ENDBRANCH   5   8
ENDBRANCH   3   4
ENDBRANCH   2   3
ENDBRANCH   1   2
BRANCH   1  27
ATOM     27  C   UNL     1      -2.663   6.495  -4.063  1.00  0.00     0.002 C 
BRANCH  27  28
ATOM     28  C   UNL     1      -3.387   5.385  -4.822  1.00  0.00     0.021 C 
BRANCH  28  29
ATOM     29  C   UNL     1      -4.877   5.608  -5.055  1.00  0.00     0.116 C 
BRANCH  29  30
ATOM     30  N   UNL     1      -5.211   5.806  -6.462  1.00  0.00    -0.352 N 
ATOM     31  C   UNL     1      -6.452   5.696  -7.069  1.00  0.00     0.251 C 
ATOM     32  H   UNL     1      -4.462   6.047  -7.053  1.00  0.00     0.163 HD
ATOM     33  O   UNL     1      -6.598   5.726  -8.278  1.00  0.00    -0.269 OA
BRANCH  31  34
ATOM     34  C   UNL     1      -7.623   5.643  -6.172  1.00  0.00     0.039 A 
ATOM     35  C   UNL     1      -8.408   6.798  -6.078  1.00  0.00     0.014 A 
ATOM     36  C   UNL     1      -7.732   4.612  -5.243  1.00  0.00     0.014 A 
ATOM     37  C   UNL     1      -9.162   7.016  -4.931  1.00  0.00     0.010 A 
ATOM     38  C   UNL     1      -8.415   4.866  -4.071  1.00  0.00     0.010 A 
ATOM     39  C   UNL     1      -9.078   6.092  -3.893  1.00  0.00    -0.014 A 
BRANCH  39  40
ATOM     40  C   UNL     1      -9.585   6.340  -2.550  1.00  0.00     0.031 A 
ATOM     41  C   UNL     1     -10.808   5.653  -2.090  1.00  0.00     0.074 A 
ATOM     42  C   UNL     1      -8.861   7.094  -1.694  1.00  0.00     0.049 A 
ATOM     43  N   UNL     1     -11.466   5.950  -1.020  1.00  0.00    -0.248 NA
ATOM     44  C   UNL     1     -11.440   4.600  -2.875  1.00  0.00     0.031 C 
ATOM     45  C   UNL     1      -8.979   7.141  -0.241  1.00  0.00     0.029 A 
ATOM     46  N   UNL     1      -8.009   8.154  -2.011  1.00  0.00    -0.354 N 
ATOM     47  C   UNL     1     -12.391   4.951  -0.808  1.00  0.00     0.074 A 
ATOM     48  C   UNL     1     -12.423   4.226  -2.053  1.00  0.00     0.031 C 
ATOM     49  C   UNL     1      -8.449   8.291   0.202  1.00  0.00     0.029 A 
ATOM     50  C   UNL     1      -8.133   9.093  -0.968  1.00  0.00     0.049 A 
ATOM     51  H   UNL     1      -7.434   8.231  -2.806  1.00  0.00     0.167 HD
ATOM     52  C   UNL     1     -12.880   4.774   0.455  1.00  0.00     0.037 A 
ATOM     53  C   UNL     1      -8.642  10.339  -1.201  1.00  0.00     0.037 A 
ATOM     54  C   UNL     1     -12.571   5.945   1.290  1.00  0.00     0.049 A 
ATOM     55  C   UNL     1      -9.909  10.641  -0.433  1.00  0.00     0.074 A 
ATOM     56  C   UNL     1     -11.642   6.184   2.290  1.00  0.00     0.029 A 
ATOM     57  N   UNL     1     -13.078   7.194   0.927  1.00  0.00    -0.354 N 
ATOM     58  N   UNL     1     -10.675   9.731   0.105  1.00  0.00    -0.248 NA
ATOM     59  C   UNL     1     -10.408  11.993  -0.203  1.00  0.00     0.031 C 
ATOM     60  C   UNL     1     -11.527   7.590   2.459  1.00  0.00     0.029 A 
ATOM     61  C   UNL     1     -12.407   8.207   1.585  1.00  0.00     0.049 A 
ATOM     62  H   UNL     1     -13.814   7.334   0.288  1.00  0.00     0.167 HD
ATOM     63  C   UNL     1     -11.746  10.331   0.719  1.00  0.00     0.074 A 
ATOM     64  C   UNL     1     -11.517  11.751   0.519  1.00  0.00     0.031 C 
ATOM     65  C   UNL     1     -12.730   9.610   1.339  1.00  0.00     0.037 A 
BRANCH  52  66
ATOM     66  C   UNL     1     -13.341   3.423   1.013  1.00  0.00     0.058 A 
ATOM     67  C   UNL     1     -13.372   3.195   2.410  1.00  0.00     0.135 A 
ATOM     68  C   UNL     1     -13.640   2.273   0.251  1.00  0.00     0.135 A 
ATOM     69  F   UNL     1     -13.204   4.195   3.286  1.00  0.00    -0.206 F 
ATOM     70  C   UNL     1     -13.563   1.928   2.983  1.00  0.00     0.059 A 
ATOM     71  C   UNL     1     -13.811   0.996   0.795  1.00  0.00     0.059 A 
ATOM     72  F   UNL     1     -13.822   2.313  -1.069  1.00  0.00    -0.206 F 
ATOM     73  C   UNL     1     -13.749   0.825   2.164  1.00  0.00     0.060 A 
BRANCH  73  74
ATOM     74  S   UNL     1     -13.921  -0.815   2.890  1.00  0.00     0.124 S 
ATOM     75  O   UNL     1     -12.647  -0.978   3.583  1.00  0.00    -0.237 OA
ATOM     76  O   UNL     1     -15.094  -0.653   3.741  1.00  0.00    -0.237 OA
ATOM     77  O   UNL     1     -14.109  -1.684   1.730  1.00  0.00    -0.744 OA
ENDBRANCH  73  74
ENDBRANCH  52  66
BRANCH  53  78
ATOM     78  C   UNL     1      -8.282  10.872  -2.545  1.00  0.00     0.058 A 
ATOM     79  C   UNL     1      -6.921  11.139  -2.793  1.00  0.00     0.135 A 
ATOM     80  C   UNL     1      -9.120  10.694  -3.655  1.00  0.00     0.135 A 
ATOM     81  F   UNL     1      -6.077  11.332  -1.765  1.00  0.00    -0.206 F 
ATOM     82  C   UNL     1      -6.380  11.062  -4.072  1.00  0.00     0.059 A 
ATOM     83  C   UNL     1      -8.599  10.625  -4.951  1.00  0.00     0.059 A 
ATOM     84  F   UNL     1     -10.425  10.440  -3.483  1.00  0.00    -0.206 F 
ATOM     85  C   UNL     1      -7.220  10.740  -5.135  1.00  0.00     0.060 A 
BRANCH  85  86
ATOM     86  S   UNL     1      -6.445  10.289  -6.707  1.00  0.00     0.124 S 
ATOM     87  O   UNL     1      -5.769  11.528  -7.077  1.00  0.00    -0.237 OA
ATOM     88  O   UNL     1      -5.571   9.190  -6.301  1.00  0.00    -0.237 OA
ATOM     89  O   UNL     1      -7.578   9.914  -7.545  1.00  0.00    -0.744 OA
ENDBRANCH  85  86
ENDBRANCH  53  78
BRANCH  65  90
ATOM     90  C   UNL     1     -14.040  10.163   1.863  1.00  0.00     0.058 A 
ATOM     91  C   UNL     1     -14.687  11.299   1.345  1.00  0.00     0.135 A 
ATOM     92  C   UNL     1     -14.768   9.458   2.856  1.00  0.00     0.135 A 
ATOM     93  F   UNL     1     -14.173  11.986   0.315  1.00  0.00    -0.206 F 
ATOM     94  C   UNL     1     -15.918  11.752   1.828  1.00  0.00     0.059 A 
ATOM     95  C   UNL     1     -16.023   9.859   3.310  1.00  0.00     0.059 A 
ATOM     96  F   UNL     1     -14.287   8.337   3.413  1.00  0.00    -0.206 F 
ATOM     97  C   UNL     1     -16.580  11.026   2.812  1.00  0.00     0.060 A 
BRANCH  97  98
ATOM     98  S   UNL     1     -18.199  11.562   3.396  1.00  0.00     0.124 S 
ATOM     99  O   UNL     1     -17.836  12.395   4.538  1.00  0.00    -0.237 OA
ATOM    100  O   UNL     1     -18.741  12.277   2.244  1.00  0.00    -0.237 OA
ATOM    101  O   UNL     1     -18.869  10.306   3.715  1.00  0.00    -0.744 OA
ENDBRANCH  97  98
ENDBRANCH  65  90
ENDBRANCH  39  40
ENDBRANCH  31  34
ENDBRANCH  29  30
ENDBRANCH  28  29
ENDBRANCH  27  28
ENDBRANCH   1  27
TORSDOF 20
