REMARK SMILES CSc1nc(O)nc(C)c1C(=O)N1C[C@@H](O)C[C@@H]1C(=O)NCCCCCCNC(=O)c1ccc(-c2c3nc(c(-c4c(F)cc(S(=O)(=O)[O-])cc4F)c4ccc([nH]4)c(-c4c(F)cc(S(=O)(=O)[O-])cc4F)c4nc(c(-c5c(F)cc(S(=O)(=O)[O-])cc5F)c5ccc2[nH]5)C=C4)C=C3)cc1
REMARK SMILES IDX 24 1 23 2 22 3 21 4 19 5 20 6 18 8 13 9 14 10 15 11 17 12
REMARK SMILES IDX 11 13 12 14 10 15 3 16 4 17 5 18 8 19 7 20 9 21 2 22 1 23
REMARK SMILES IDX 6 24 16 26 25 28 26 29 27 30 28 31 29 32 30 34 31 35 32 36
REMARK SMILES IDX 96 37 33 38 95 39 34 40 35 41 36 42 89 43 37 44 94 45 88 46
REMARK SMILES IDX 90 47 38 48 93 49 87 50 86 51 39 53 73 54 52 55 72 56 53 57
REMARK SMILES IDX 56 58 71 59 91 60 54 61 55 62 70 64 92 65 57 66 40 67 41 68
REMARK SMILES IDX 50 69 42 70 43 71 49 72 51 73 44 74 45 75 46 76 47 77 48 78
REMARK SMILES IDX 74 79 75 80 84 81 76 82 77 83 83 84 85 85 78 86 79 87 80 88
REMARK SMILES IDX 81 89 82 90 58 91 59 92 68 93 60 94 61 95 67 96 69 97 62 98
REMARK SMILES IDX 63 99 64 100 65 101 66 102
REMARK H PARENT 21 7 6 25 16 27 28 33 90 52 56 63
REMARK Flexibility Score: inf
ROOT
ATOM      1  C   UNL     1      -0.466  -0.888   3.282  1.00  0.00     0.002 C 
ENDROOT
BRANCH   1   2
ATOM      2  C   UNL     1      -0.223  -1.827   2.093  1.00  0.00     0.021 C 
BRANCH   2   3
ATOM      3  C   UNL     1       0.600  -1.302   0.911  1.00  0.00     0.116 C 
BRANCH   3   4
ATOM      4  N   UNL     1       1.919  -0.844   1.286  1.00  0.00    -0.354 N 
ATOM      5  C   UNL     1       3.029  -0.530   0.570  1.00  0.00     0.242 C 
ATOM      6  O   UNL     1       3.955  -0.051   1.239  1.00  0.00    -0.273 OA
ATOM      7  H   UNL     1       2.036  -0.739   2.258  1.00  0.00     0.163 HD
BRANCH   5   8
ATOM      8  C   UNL     1       3.188  -0.678  -0.970  1.00  0.00     0.177 C 
ATOM      9  N   UNL     1       2.612   0.396  -1.800  1.00  0.00    -0.324 N 
ATOM     10  C   UNL     1       1.945  -0.179  -2.965  1.00  0.00     0.152 C 
ATOM     11  C   UNL     1       1.526  -1.570  -2.489  1.00  0.00     0.136 C 
ATOM     12  C   UNL     1       2.688  -1.987  -1.585  1.00  0.00     0.069 C 
BRANCH   9  13
ATOM     13  C   UNL     1       3.106   1.692  -1.699  1.00  0.00     0.259 C 
ATOM     14  O   UNL     1       4.166   1.900  -1.112  1.00  0.00    -0.269 OA
BRANCH  13  15
ATOM     15  C   UNL     1       2.352   2.880  -2.206  1.00  0.00     0.093 A 
ATOM     16  C   UNL     1       0.966   3.014  -2.131  1.00  0.00     0.116 A 
ATOM     17  N   UNL     1       0.298   4.153  -2.417  1.00  0.00    -0.188 NA
ATOM     18  C   UNL     1       1.039   5.211  -2.685  1.00  0.00     0.315 A 
ATOM     19  C   UNL     1       3.015   4.076  -2.512  1.00  0.00     0.058 A 
ATOM     20  N   UNL     1       2.364   5.253  -2.733  1.00  0.00    -0.200 NA
ATOM     21  C   UNL     1       4.509   4.232  -2.487  1.00  0.00     0.068 C 
BRANCH  16  22
ATOM     22  S   UNL     1      -0.115   1.897  -1.262  1.00  0.00    -0.109 SA
ATOM     23  C   UNL     1       0.300   2.509   0.383  1.00  0.00     0.092 C 
ENDBRANCH  16  22
BRANCH  18  24
ATOM     24  O   UNL     1       0.420   6.418  -2.689  1.00  0.00    -0.479 OA
ATOM     25  H   UNL     1      -0.515   6.465  -2.656  1.00  0.00     0.297 HD
ENDBRANCH  18  24
ENDBRANCH  13  15
ENDBRANCH   9  13
BRANCH  11  26
ATOM     26  O   UNL     1       1.327  -2.502  -3.537  1.00  0.00    -0.391 OA
ATOM     27  H   UNL     1       2.147  -2.594  -4.047  1.00  0.00     0.211 HD
ENDBRANCH  11  26
ENDBRANCH   5   8
ENDBRANCH   3   4
ENDBRANCH   2   3
ENDBRANCH   1   2
BRANCH   1  28
ATOM     28  C   UNL     1      -1.036   0.497   2.989  1.00  0.00     0.002 C 
BRANCH  28  29
ATOM     29  C   UNL     1      -2.252   0.565   2.065  1.00  0.00     0.021 C 
BRANCH  29  30
ATOM     30  C   UNL     1      -3.451  -0.268   2.493  1.00  0.00     0.116 C 
BRANCH  30  31
ATOM     31  N   UNL     1      -3.979   0.128   3.786  1.00  0.00    -0.352 N 
ATOM     32  C   UNL     1      -5.288   0.312   4.154  1.00  0.00     0.251 C 
ATOM     33  H   UNL     1      -3.310   0.284   4.491  1.00  0.00     0.163 HD
ATOM     34  O   UNL     1      -5.561   0.759   5.265  1.00  0.00    -0.269 OA
BRANCH  32  35
ATOM     35  C   UNL     1      -6.365  -0.004   3.192  1.00  0.00     0.039 A 
ATOM     36  C   UNL     1      -7.359   0.950   2.957  1.00  0.00     0.014 A 
ATOM     37  C   UNL     1      -6.387  -1.231   2.521  1.00  0.00     0.014 A 
ATOM     38  C   UNL     1      -8.353   0.691   2.011  1.00  0.00     0.010 A 
ATOM     39  C   UNL     1      -7.347  -1.465   1.540  1.00  0.00     0.010 A 
ATOM     40  C   UNL     1      -8.343  -0.511   1.286  1.00  0.00    -0.014 A 
BRANCH  40  41
ATOM     41  C   UNL     1      -9.402  -0.810   0.294  1.00  0.00     0.031 A 
ATOM     42  C   UNL     1     -10.431  -1.858   0.604  1.00  0.00     0.074 A 
ATOM     43  C   UNL     1      -9.424  -0.161  -0.885  1.00  0.00     0.049 A 
ATOM     44  N   UNL     1     -11.426  -2.282  -0.130  1.00  0.00    -0.248 NA
ATOM     45  C   UNL     1     -10.314  -2.529   1.909  1.00  0.00     0.031 C 
ATOM     46  C   UNL     1      -8.472   0.870  -1.299  1.00  0.00     0.029 A 
ATOM     47  N   UNL     1     -10.283  -0.271  -1.948  1.00  0.00    -0.354 N 
ATOM     48  C   UNL     1     -12.063  -3.256   0.628  1.00  0.00     0.074 A 
ATOM     49  C   UNL     1     -11.299  -3.411   1.848  1.00  0.00     0.031 C 
ATOM     50  C   UNL     1      -8.819   1.321  -2.516  1.00  0.00     0.029 A 
ATOM     51  C   UNL     1      -9.998   0.593  -2.978  1.00  0.00     0.049 A 
ATOM     52  H   UNL     1     -11.033  -0.908  -1.971  1.00  0.00     0.167 HD
ATOM     53  C   UNL     1     -13.200  -3.938   0.350  1.00  0.00     0.037 A 
ATOM     54  C   UNL     1     -10.624   0.780  -4.156  1.00  0.00     0.037 A 
ATOM     55  C   UNL     1     -13.949  -3.789  -0.869  1.00  0.00     0.049 A 
ATOM     56  C   UNL     1     -11.843  -0.038  -4.479  1.00  0.00     0.074 A 
ATOM     57  C   UNL     1     -15.113  -4.432  -1.250  1.00  0.00     0.029 A 
ATOM     58  N   UNL     1     -13.601  -2.938  -1.909  1.00  0.00    -0.354 N 
ATOM     59  N   UNL     1     -12.447  -0.942  -3.744  1.00  0.00    -0.248 NA
ATOM     60  C   UNL     1     -12.466   0.186  -5.791  1.00  0.00     0.031 C 
ATOM     61  C   UNL     1     -15.450  -3.994  -2.537  1.00  0.00     0.029 A 
ATOM     62  C   UNL     1     -14.518  -3.051  -2.941  1.00  0.00     0.049 A 
ATOM     63  H   UNL     1     -12.818  -2.342  -1.913  1.00  0.00     0.167 HD
ATOM     64  C   UNL     1     -13.533  -1.380  -4.494  1.00  0.00     0.074 A 
ATOM     65  C   UNL     1     -13.505  -0.638  -5.739  1.00  0.00     0.031 C 
ATOM     66  C   UNL     1     -14.469  -2.309  -4.178  1.00  0.00     0.037 A 
BRANCH  53  67
ATOM     67  C   UNL     1     -13.686  -4.900   1.398  1.00  0.00     0.058 A 
ATOM     68  C   UNL     1     -14.213  -4.442   2.618  1.00  0.00     0.135 A 
ATOM     69  C   UNL     1     -13.596  -6.286   1.202  1.00  0.00     0.135 A 
ATOM     70  F   UNL     1     -14.304  -3.125   2.863  1.00  0.00    -0.206 F 
ATOM     71  C   UNL     1     -14.586  -5.324   3.626  1.00  0.00     0.059 A 
ATOM     72  C   UNL     1     -13.990  -7.188   2.188  1.00  0.00     0.059 A 
ATOM     73  F   UNL     1     -13.101  -6.778   0.056  1.00  0.00    -0.206 F 
ATOM     74  C   UNL     1     -14.460  -6.696   3.405  1.00  0.00     0.060 A 
BRANCH  74  75
ATOM     75  S   UNL     1     -14.901  -7.826   4.741  1.00  0.00     0.124 S 
ATOM     76  O   UNL     1     -13.771  -7.655   5.650  1.00  0.00    -0.237 OA
ATOM     77  O   UNL     1     -16.174  -7.284   5.205  1.00  0.00    -0.237 OA
ATOM     78  O   UNL     1     -14.980  -9.123   4.076  1.00  0.00    -0.744 OA
ENDBRANCH  74  75
ENDBRANCH  53  67
BRANCH  54  79
ATOM     79  C   UNL     1     -10.133   1.831  -5.084  1.00  0.00     0.058 A 
ATOM     80  C   UNL     1     -10.831   3.040  -5.220  1.00  0.00     0.135 A 
ATOM     81  C   UNL     1      -8.935   1.682  -5.799  1.00  0.00     0.135 A 
ATOM     82  F   UNL     1     -11.987   3.224  -4.563  1.00  0.00    -0.206 F 
ATOM     83  C   UNL     1     -10.354   4.070  -6.024  1.00  0.00     0.059 A 
ATOM     84  C   UNL     1      -8.428   2.704  -6.596  1.00  0.00     0.059 A 
ATOM     85  F   UNL     1      -8.227   0.546  -5.693  1.00  0.00    -0.206 F 
ATOM     86  C   UNL     1      -9.145   3.897  -6.699  1.00  0.00     0.060 A 
BRANCH  86  87
ATOM     87  S   UNL     1      -8.495   5.277  -7.667  1.00  0.00     0.124 S 
ATOM     88  O   UNL     1      -9.438   5.328  -8.778  1.00  0.00    -0.237 OA
ATOM     89  O   UNL     1      -8.572   6.379  -6.712  1.00  0.00    -0.237 OA
ATOM     90  O   UNL     1      -7.143   4.843  -8.006  1.00  0.00    -0.744 OA
ENDBRANCH  86  87
ENDBRANCH  54  79
BRANCH  66  91
ATOM     91  C   UNL     1     -15.550  -2.575  -5.188  1.00  0.00     0.058 A 
ATOM     92  C   UNL     1     -15.300  -3.326  -6.346  1.00  0.00     0.135 A 
ATOM     93  C   UNL     1     -16.864  -2.139  -4.957  1.00  0.00     0.135 A 
ATOM     94  F   UNL     1     -14.059  -3.760  -6.616  1.00  0.00    -0.206 F 
ATOM     95  C   UNL     1     -16.316  -3.628  -7.248  1.00  0.00     0.059 A 
ATOM     96  C   UNL     1     -17.900  -2.448  -5.834  1.00  0.00     0.059 A 
ATOM     97  F   UNL     1     -17.157  -1.424  -3.859  1.00  0.00    -0.206 F 
ATOM     98  C   UNL     1     -17.614  -3.189  -6.980  1.00  0.00     0.060 A 
BRANCH  98  99
ATOM     99  S   UNL     1     -18.931  -3.634  -8.132  1.00  0.00     0.124 S 
ATOM    100  O   UNL     1     -18.636  -2.765  -9.267  1.00  0.00    -0.237 OA
ATOM    101  O   UNL     1     -18.692  -5.058  -8.344  1.00  0.00    -0.237 OA
ATOM    102  O   UNL     1     -20.150  -3.313  -7.396  1.00  0.00    -0.744 OA
ENDBRANCH  98  99
ENDBRANCH  66  91
ENDBRANCH  40  41
ENDBRANCH  32  35
ENDBRANCH  30  31
ENDBRANCH  29  30
ENDBRANCH  28  29
ENDBRANCH   1  28
TORSDOF 21
