REMARK SMILES CC(C)n1c([C@H](O)CC(=O)NCCCCCCNC(=O)c2ccc(-c3c4nc(c(-c5c(F)cc(S(=O)(=O)[O-])cc5F)c5ccc([nH]5)c(-c5c(F)cc(S(=O)(=O)[O-])cc5F)c5nc(c(-c6c(F)cc(S(=O)(=O)[O-])cc6F)c6ccc3[nH]6)C=C5)C=C4)cc2)nc2cc(Cl)ccc21
REMARK SMILES IDX 14 1 13 2 12 3 11 4 9 5 10 6 8 8 6 9 5 10 4 11 94 12 87 13
REMARK SMILES IDX 88 14 93 15 89 16 92 17 90 18 91 19 2 20 1 21 3 22 7 23
REMARK SMILES IDX 15 25 16 26 17 27 18 28 19 29 20 31 21 32 22 33 86 34 23 35
REMARK SMILES IDX 85 36 24 37 25 38 26 39 79 40 27 41 84 42 78 43 80 44 28 45
REMARK SMILES IDX 83 46 77 47 76 48 29 50 63 51 42 52 62 53 43 54 46 55 61 56
REMARK SMILES IDX 81 57 44 58 45 59 60 61 82 62 47 63 30 64 31 65 40 66 32 67
REMARK SMILES IDX 33 68 39 69 41 70 34 71 35 72 36 73 37 74 38 75 64 76 65 77
REMARK SMILES IDX 74 78 66 79 67 80 73 81 75 82 68 83 69 84 70 85 71 86 72 87
REMARK SMILES IDX 48 88 49 89 58 90 50 91 51 92 57 93 59 94 52 95 53 96 54 97
REMARK SMILES IDX 55 98 56 99
REMARK H PARENT 11 7 7 24 18 30 80 49 46 60
REMARK Flexibility Score: inf
ROOT
ATOM      1  C   UNL     1      -1.429   3.662  -2.964  1.00  0.00     0.002 C 
ENDROOT
BRANCH   1   2
ATOM      2  C   UNL     1      -1.731   2.469  -2.059  1.00  0.00     0.021 C 
BRANCH   2   3
ATOM      3  C   UNL     1      -2.535   1.365  -2.740  1.00  0.00     0.116 C 
BRANCH   3   4
ATOM      4  N   UNL     1      -1.699   0.584  -3.632  1.00  0.00    -0.356 N 
ATOM      5  C   UNL     1      -1.333  -0.726  -3.538  1.00  0.00     0.223 C 
ATOM      6  O   UNL     1      -0.511  -1.174  -4.337  1.00  0.00    -0.275 OA
ATOM      7  H   UNL     1      -1.346   1.067  -4.415  1.00  0.00     0.163 HD
BRANCH   5   8
ATOM      8  C   UNL     1      -1.912  -1.587  -2.441  1.00  0.00     0.140 C 
BRANCH   8   9
ATOM      9  C   UNL     1      -1.042  -1.551  -1.194  1.00  0.00     0.190 C 
BRANCH   9  10
ATOM     10  C   UNL     1      -1.601  -2.373  -0.063  1.00  0.00     0.139 A 
ATOM     11  N   UNL     1      -2.525  -2.034   0.923  1.00  0.00    -0.323 N 
ATOM     12  C   UNL     1      -2.645  -3.144   1.763  1.00  0.00     0.069 A 
ATOM     13  N   UNL     1      -1.185  -3.619   0.104  1.00  0.00    -0.230 NA
ATOM     14  C   UNL     1      -1.801  -4.099   1.216  1.00  0.00     0.090 A 
ATOM     15  C   UNL     1      -3.399  -3.402   2.920  1.00  0.00     0.030 A 
ATOM     16  C   UNL     1      -1.673  -5.360   1.813  1.00  0.00     0.051 A 
ATOM     17  C   UNL     1      -3.260  -4.661   3.514  1.00  0.00     0.023 A 
ATOM     18  C   UNL     1      -2.410  -5.621   2.967  1.00  0.00     0.043 A 
ATOM     19  Cl  UNL     1      -2.265  -7.158   3.732  1.00  0.00    -0.084 Cl
BRANCH  11  20
ATOM     20  C   UNL     1      -3.330  -0.830   1.141  1.00  0.00     0.083 C 
ATOM     21  C   UNL     1      -2.592   0.501   1.256  1.00  0.00     0.031 C 
ATOM     22  C   UNL     1      -4.553  -0.752   0.229  1.00  0.00     0.031 C 
ENDBRANCH  11  20
ENDBRANCH   9  10
BRANCH   9  23
ATOM     23  O   UNL     1      -0.763  -0.253  -0.708  1.00  0.00    -0.385 OA
ATOM     24  H   UNL     1      -1.583   0.158  -0.393  1.00  0.00     0.211 HD
ENDBRANCH   9  23
ENDBRANCH   8   9
ENDBRANCH   5   8
ENDBRANCH   3   4
ENDBRANCH   2   3
ENDBRANCH   1   2
BRANCH   1  25
ATOM     25  C   UNL     1      -2.656   4.501  -3.329  1.00  0.00     0.002 C 
BRANCH  25  26
ATOM     26  C   UNL     1      -3.484   4.997  -2.136  1.00  0.00     0.021 C 
BRANCH  26  27
ATOM     27  C   UNL     1      -2.659   5.636  -1.017  1.00  0.00     0.116 C 
BRANCH  27  28
ATOM     28  N   UNL     1      -1.882   6.780  -1.440  1.00  0.00    -0.352 N 
ATOM     29  C   UNL     1      -2.155   8.108  -1.610  1.00  0.00     0.251 C 
ATOM     30  H   UNL     1      -0.949   6.551  -1.653  1.00  0.00     0.163 HD
ATOM     31  O   UNL     1      -1.199   8.828  -1.908  1.00  0.00    -0.269 OA
BRANCH  29  32
ATOM     32  C   UNL     1      -3.516   8.701  -1.540  1.00  0.00     0.039 A 
ATOM     33  C   UNL     1      -4.659   8.052  -1.071  1.00  0.00     0.014 A 
ATOM     34  C   UNL     1      -3.646   9.995  -2.073  1.00  0.00     0.014 A 
ATOM     35  C   UNL     1      -5.915   8.596  -1.287  1.00  0.00     0.010 A 
ATOM     36  C   UNL     1      -4.897  10.567  -2.247  1.00  0.00     0.010 A 
ATOM     37  C   UNL     1      -6.030   9.824  -1.932  1.00  0.00    -0.014 A 
BRANCH  37  38
ATOM     38  C   UNL     1      -7.372  10.282  -2.266  1.00  0.00     0.031 A 
ATOM     39  C   UNL     1      -8.296  10.499  -1.113  1.00  0.00     0.074 A 
ATOM     40  C   UNL     1      -7.711  10.563  -3.539  1.00  0.00     0.049 A 
ATOM     41  N   UNL     1      -9.451   9.959  -0.884  1.00  0.00    -0.248 NA
ATOM     42  C   UNL     1      -7.813  11.355  -0.017  1.00  0.00     0.031 C 
ATOM     43  C   UNL     1      -6.848  10.629  -4.724  1.00  0.00     0.029 A 
ATOM     44  N   UNL     1      -8.914  10.961  -4.024  1.00  0.00    -0.354 N 
ATOM     45  C   UNL     1      -9.923  10.533   0.298  1.00  0.00     0.074 A 
ATOM     46  C   UNL     1      -8.826  11.289   0.847  1.00  0.00     0.031 C 
ATOM     47  C   UNL     1      -7.497  11.283  -5.711  1.00  0.00     0.029 A 
ATOM     48  C   UNL     1      -8.855  11.554  -5.276  1.00  0.00     0.049 A 
ATOM     49  H   UNL     1      -9.756  10.840  -3.529  1.00  0.00     0.167 HD
ATOM     50  C   UNL     1     -11.231  10.479   0.679  1.00  0.00     0.037 A 
ATOM     51  C   UNL     1      -9.830  12.301  -5.851  1.00  0.00     0.037 A 
ATOM     52  C   UNL     1     -11.951   9.451  -0.021  1.00  0.00     0.049 A 
ATOM     53  C   UNL     1     -11.107  11.951  -5.168  1.00  0.00     0.074 A 
ATOM     54  C   UNL     1     -11.870   8.073  -0.058  1.00  0.00     0.029 A 
ATOM     55  N   UNL     1     -12.708   9.805  -1.111  1.00  0.00    -0.354 N 
ATOM     56  N   UNL     1     -11.673  10.776  -5.249  1.00  0.00    -0.248 NA
ATOM     57  C   UNL     1     -11.499  12.749  -4.014  1.00  0.00     0.031 C 
ATOM     58  C   UNL     1     -12.136   7.724  -1.414  1.00  0.00     0.029 A 
ATOM     59  C   UNL     1     -12.412   8.904  -2.106  1.00  0.00     0.049 A 
ATOM     60  H   UNL     1     -13.340  10.557  -1.169  1.00  0.00     0.167 HD
ATOM     61  C   UNL     1     -12.167  10.522  -3.976  1.00  0.00     0.074 A 
ATOM     62  C   UNL     1     -12.093  11.805  -3.279  1.00  0.00     0.031 C 
ATOM     63  C   UNL     1     -12.328   9.247  -3.509  1.00  0.00     0.037 A 
BRANCH  50  64
ATOM     64  C   UNL     1     -11.920  11.533   1.509  1.00  0.00     0.058 A 
ATOM     65  C   UNL     1     -13.178  11.275   2.090  1.00  0.00     0.135 A 
ATOM     66  C   UNL     1     -11.501  12.882   1.536  1.00  0.00     0.135 A 
ATOM     67  F   UNL     1     -13.680  10.030   2.110  1.00  0.00    -0.206 F 
ATOM     68  C   UNL     1     -13.985  12.292   2.606  1.00  0.00     0.059 A 
ATOM     69  C   UNL     1     -12.264  13.902   2.092  1.00  0.00     0.059 A 
ATOM     70  F   UNL     1     -10.371  13.283   0.937  1.00  0.00    -0.206 F 
ATOM     71  C   UNL     1     -13.524  13.606   2.587  1.00  0.00     0.060 A 
BRANCH  71  72
ATOM     72  S   UNL     1     -14.614  14.936   3.130  1.00  0.00     0.124 S 
ATOM     73  O   UNL     1     -15.651  14.900   2.105  1.00  0.00    -0.237 OA
ATOM     74  O   UNL     1     -15.011  14.479   4.458  1.00  0.00    -0.237 OA
ATOM     75  O   UNL     1     -13.748  16.111   3.110  1.00  0.00    -0.744 OA
ENDBRANCH  71  72
ENDBRANCH  50  64
BRANCH  51  76
ATOM     76  C   UNL     1      -9.630  13.556  -6.626  1.00  0.00     0.058 A 
ATOM     77  C   UNL     1     -10.671  14.127  -7.378  1.00  0.00     0.135 A 
ATOM     78  C   UNL     1      -8.486  14.362  -6.440  1.00  0.00     0.135 A 
ATOM     79  F   UNL     1     -11.809  13.445  -7.579  1.00  0.00    -0.206 F 
ATOM     80  C   UNL     1     -10.595  15.430  -7.885  1.00  0.00     0.059 A 
ATOM     81  C   UNL     1      -8.382  15.655  -6.947  1.00  0.00     0.059 A 
ATOM     82  F   UNL     1      -7.462  13.953  -5.678  1.00  0.00    -0.206 F 
ATOM     83  C   UNL     1      -9.452  16.194  -7.648  1.00  0.00     0.060 A 
BRANCH  83  84
ATOM     84  S   UNL     1      -9.412  17.928  -8.156  1.00  0.00     0.124 S 
ATOM     85  O   UNL     1      -9.435  17.818  -9.611  1.00  0.00    -0.237 OA
ATOM     86  O   UNL     1     -10.624  18.455  -7.537  1.00  0.00    -0.237 OA
ATOM     87  O   UNL     1      -8.161  18.422  -7.588  1.00  0.00    -0.744 OA
ENDBRANCH  83  84
ENDBRANCH  51  76
BRANCH  63  88
ATOM     88  C   UNL     1     -12.144   8.104  -4.479  1.00  0.00     0.058 A 
ATOM     89  C   UNL     1     -10.924   7.814  -5.118  1.00  0.00     0.135 A 
ATOM     90  C   UNL     1     -13.181   7.175  -4.645  1.00  0.00     0.135 A 
ATOM     91  F   UNL     1      -9.843   8.576  -4.914  1.00  0.00    -0.206 F 
ATOM     92  C   UNL     1     -10.758   6.688  -5.926  1.00  0.00     0.059 A 
ATOM     93  C   UNL     1     -13.029   6.026  -5.420  1.00  0.00     0.059 A 
ATOM     94  F   UNL     1     -14.348   7.349  -4.002  1.00  0.00    -0.206 F 
ATOM     95  C   UNL     1     -11.818   5.797  -6.071  1.00  0.00     0.060 A 
BRANCH  95  96
ATOM     96  S   UNL     1     -11.571   4.304  -7.056  1.00  0.00     0.124 S 
ATOM     97  O   UNL     1     -11.498   4.837  -8.411  1.00  0.00    -0.237 OA
ATOM     98  O   UNL     1     -10.325   3.769  -6.516  1.00  0.00    -0.237 OA
ATOM     99  O   UNL     1     -12.759   3.502  -6.763  1.00  0.00    -0.744 OA
ENDBRANCH  95  96
ENDBRANCH  63  88
ENDBRANCH  37  38
ENDBRANCH  29  32
ENDBRANCH  27  28
ENDBRANCH  26  27
ENDBRANCH  25  26
ENDBRANCH   1  25
TORSDOF 20
