REMARK SMILES O=C(NCCCCCCNC(=O)[C@@H]1[C@H](C(=O)Nc2ccccc2Cc2ccccc2)[C@H]2C=C[C@@H]1O2)c1ccc(-c2c3nc(c(-c4c(F)cc(S(=O)(=O)[O-])cc4F)c4ccc([nH]4)c(-c4c(F)cc(S(=O)(=O)[O-])cc4F)c4nc(c(-c5c(F)cc(S(=O)(=O)[O-])cc5F)c5ccc2[nH]5)C=C4)C=C3)cc1
REMARK SMILES IDX 7 1 6 2 5 3 4 4 3 5 1 6 2 7 36 9 37 10 101 11 38 12 100 13
REMARK SMILES IDX 39 14 40 15 41 16 94 17 42 18 99 19 93 20 95 21 43 22 98 23
REMARK SMILES IDX 92 24 91 25 44 27 78 28 57 29 77 30 58 31 61 32 76 33 96 34
REMARK SMILES IDX 59 35 60 36 75 38 97 39 62 40 45 41 46 42 55 43 47 44 48 45
REMARK SMILES IDX 54 46 56 47 49 48 50 49 51 50 52 51 53 52 79 53 80 54 89 55
REMARK SMILES IDX 81 56 82 57 88 58 90 59 83 60 84 61 85 62 86 63 87 64 63 65
REMARK SMILES IDX 64 66 73 67 65 68 66 69 72 70 74 71 67 72 68 73 69 74 70 75
REMARK SMILES IDX 71 76 8 77 9 78 10 79 11 80 12 82 13 83 14 84 34 85 31 86
REMARK SMILES IDX 33 87 35 88 32 89 15 90 16 91 17 92 18 94 19 95 23 96 20 97
REMARK SMILES IDX 22 98 21 99 24 100 25 101 26 102 30 103 27 104 29 105 28 106
REMARK H PARENT 3 8 95 26 61 37 10 81 17 93
REMARK Flexibility Score: inf
ROOT
ATOM      1  C   UNL     1       3.976   3.169  -3.838  1.00  0.00     0.002 C 
ENDROOT
BRANCH   1   2
ATOM      2  C   UNL     1       3.639   1.685  -3.694  1.00  0.00     0.002 C 
BRANCH   2   3
ATOM      3  C   UNL     1       4.445   0.900  -2.656  1.00  0.00     0.021 C 
BRANCH   3   4
ATOM      4  C   UNL     1       4.258   1.335  -1.204  1.00  0.00     0.116 C 
BRANCH   4   5
ATOM      5  N   UNL     1       2.897   1.134  -0.722  1.00  0.00    -0.352 N 
ATOM      6  O   UNL     1       1.102   0.042   0.075  1.00  0.00    -0.269 OA
ATOM      7  C   UNL     1       2.324   0.088  -0.035  1.00  0.00     0.251 C 
ATOM      8  H   UNL     1       2.281   1.875  -0.923  1.00  0.00     0.163 HD
BRANCH   7   9
ATOM      9  C   UNL     1       3.154  -0.982   0.568  1.00  0.00     0.039 A 
ATOM     10  C   UNL     1       4.330  -0.677   1.250  1.00  0.00     0.014 A 
ATOM     11  C   UNL     1       2.708  -2.310   0.523  1.00  0.00     0.014 A 
ATOM     12  C   UNL     1       5.132  -1.699   1.748  1.00  0.00     0.010 A 
ATOM     13  C   UNL     1       3.469  -3.330   1.113  1.00  0.00     0.010 A 
ATOM     14  C   UNL     1       4.702  -3.037   1.712  1.00  0.00    -0.014 A 
BRANCH  14  15
ATOM     15  C   UNL     1       5.526  -4.072   2.396  1.00  0.00     0.031 A 
ATOM     16  C   UNL     1       6.177  -5.195   1.635  1.00  0.00     0.074 A 
ATOM     17  C   UNL     1       5.735  -3.946   3.723  1.00  0.00     0.049 A 
ATOM     18  N   UNL     1       6.985  -6.127   2.078  1.00  0.00    -0.248 NA
ATOM     19  C   UNL     1       5.884  -5.296   0.197  1.00  0.00     0.031 C 
ATOM     20  C   UNL     1       5.130  -2.915   4.573  1.00  0.00     0.029 A 
ATOM     21  N   UNL     1       6.527  -4.659   4.586  1.00  0.00    -0.354 N 
ATOM     22  C   UNL     1       7.298  -6.920   0.981  1.00  0.00     0.074 A 
ATOM     23  C   UNL     1       6.562  -6.385  -0.145  1.00  0.00     0.031 C 
ATOM     24  C   UNL     1       5.615  -3.027   5.818  1.00  0.00     0.029 A 
ATOM     25  C   UNL     1       6.511  -4.175   5.874  1.00  0.00     0.049 A 
ATOM     26  H   UNL     1       7.056  -5.442   4.311  1.00  0.00     0.167 HD
ATOM     27  C   UNL     1       8.134  -7.987   0.917  1.00  0.00     0.037 A 
ATOM     28  C   UNL     1       7.133  -4.613   6.985  1.00  0.00     0.037 A 
ATOM     29  C   UNL     1       8.864  -8.512   2.046  1.00  0.00     0.049 A 
ATOM     30  C   UNL     1       8.037  -5.808   6.887  1.00  0.00     0.074 A 
ATOM     31  C   UNL     1       9.745  -9.581   2.079  1.00  0.00     0.029 A 
ATOM     32  N   UNL     1       8.802  -8.013   3.339  1.00  0.00    -0.354 N 
ATOM     33  N   UNL     1       8.344  -6.523   5.830  1.00  0.00    -0.248 NA
ATOM     34  C   UNL     1       8.680  -6.256   8.128  1.00  0.00     0.031 C 
ATOM     35  C   UNL     1      10.179  -9.754   3.397  1.00  0.00     0.029 A 
ATOM     36  C   UNL     1       9.613  -8.761   4.178  1.00  0.00     0.049 A 
ATOM     37  H   UNL     1       8.260  -7.240   3.619  1.00  0.00     0.167 HD
ATOM     38  C   UNL     1       9.223  -7.501   6.279  1.00  0.00     0.074 A 
ATOM     39  C   UNL     1       9.427  -7.261   7.693  1.00  0.00     0.031 C 
ATOM     40  C   UNL     1       9.801  -8.514   5.586  1.00  0.00     0.037 A 
BRANCH  27  41
ATOM     41  C   UNL     1       8.316  -8.666  -0.415  1.00  0.00     0.058 A 
ATOM     42  C   UNL     1       9.046  -8.065  -1.453  1.00  0.00     0.135 A 
ATOM     43  C   UNL     1       7.832  -9.968  -0.629  1.00  0.00     0.135 A 
ATOM     44  F   UNL     1       9.521  -6.817  -1.310  1.00  0.00    -0.206 F 
ATOM     45  C   UNL     1       9.281  -8.724  -2.656  1.00  0.00     0.059 A 
ATOM     46  C   UNL     1       8.076 -10.656  -1.815  1.00  0.00     0.059 A 
ATOM     47  F   UNL     1       7.128 -10.592   0.329  1.00  0.00    -0.206 F 
ATOM     48  C   UNL     1       8.797 -10.022  -2.826  1.00  0.00     0.060 A 
BRANCH  48  49
ATOM     49  S   UNL     1       9.145 -10.875  -4.379  1.00  0.00     0.124 S 
ATOM     50  O   UNL     1       8.297 -10.140  -5.312  1.00  0.00    -0.237 OA
ATOM     51  O   UNL     1      10.582 -10.667  -4.533  1.00  0.00    -0.237 OA
ATOM     52  O   UNL     1       8.739 -12.250  -4.113  1.00  0.00    -0.744 OA
ENDBRANCH  48  49
ENDBRANCH  27  41
BRANCH  28  53
ATOM     53  C   UNL     1       6.895  -3.935   8.289  1.00  0.00     0.058 A 
ATOM     54  C   UNL     1       7.918  -3.242   8.952  1.00  0.00     0.135 A 
ATOM     55  C   UNL     1       5.632  -3.977   8.901  1.00  0.00     0.135 A 
ATOM     56  F   UNL     1       9.144  -3.174   8.410  1.00  0.00    -0.206 F 
ATOM     57  C   UNL     1       7.707  -2.643  10.190  1.00  0.00     0.059 A 
ATOM     58  C   UNL     1       5.387  -3.356  10.120  1.00  0.00     0.059 A 
ATOM     59  F   UNL     1       4.612  -4.610   8.299  1.00  0.00    -0.206 F 
ATOM     60  C   UNL     1       6.438  -2.708  10.767  1.00  0.00     0.060 A 
BRANCH  60  61
ATOM     61  S   UNL     1       6.165  -1.914  12.365  1.00  0.00     0.124 S 
ATOM     62  O   UNL     1       6.835  -2.842  13.269  1.00  0.00    -0.237 OA
ATOM     63  O   UNL     1       6.815  -0.620  12.180  1.00  0.00    -0.237 OA
ATOM     64  O   UNL     1       4.711  -1.866  12.471  1.00  0.00    -0.744 OA
ENDBRANCH  60  61
ENDBRANCH  28  53
BRANCH  40  65
ATOM     65  C   UNL     1      10.723  -9.422   6.353  1.00  0.00     0.058 A 
ATOM     66  C   UNL     1      10.239 -10.323   7.315  1.00  0.00     0.135 A 
ATOM     67  C   UNL     1      12.108  -9.391   6.124  1.00  0.00     0.135 A 
ATOM     68  F   UNL     1       8.924 -10.388   7.578  1.00  0.00    -0.206 F 
ATOM     69  C   UNL     1      11.098 -11.129   8.054  1.00  0.00     0.059 A 
ATOM     70  C   UNL     1      12.983 -10.211   6.829  1.00  0.00     0.059 A 
ATOM     71  F   UNL     1      12.624  -8.556   5.208  1.00  0.00    -0.206 F 
ATOM     72  C   UNL     1      12.470 -11.062   7.806  1.00  0.00     0.060 A 
BRANCH  72  73
ATOM     73  S   UNL     1      13.575 -12.110   8.775  1.00  0.00     0.124 S 
ATOM     74  O   UNL     1      13.567 -11.431  10.066  1.00  0.00    -0.237 OA
ATOM     75  O   UNL     1      12.898 -13.402   8.734  1.00  0.00    -0.237 OA
ATOM     76  O   UNL     1      14.835 -12.046   8.040  1.00  0.00    -0.744 OA
ENDBRANCH  72  73
ENDBRANCH  40  65
ENDBRANCH  14  15
ENDBRANCH   7   9
ENDBRANCH   4   5
ENDBRANCH   3   4
ENDBRANCH   2   3
ENDBRANCH   1   2
BRANCH   1  77
ATOM     77  C   UNL     1       5.450   3.529  -4.071  1.00  0.00     0.021 C 
BRANCH  77  78
ATOM     78  C   UNL     1       6.246   2.834  -5.199  1.00  0.00     0.116 C 
BRANCH  78  79
ATOM     79  N   UNL     1       7.064   3.738  -6.044  1.00  0.00    -0.356 N 
ATOM     80  C   UNL     1       8.276   4.313  -6.197  1.00  0.00     0.227 C 
ATOM     81  H   UNL     1       6.497   4.037  -6.791  1.00  0.00     0.163 HD
ATOM     82  O   UNL     1       8.300   5.096  -7.168  1.00  0.00    -0.275 OA
BRANCH  80  83
ATOM     83  C   UNL     1       9.612   4.142  -5.472  1.00  0.00     0.127 C 
ATOM     84  C   UNL     1       9.924   3.321  -4.238  1.00  0.00     0.127 C 
ATOM     85  C   UNL     1      10.309   5.488  -5.080  1.00  0.00     0.155 C 
ATOM     86  C   UNL     1      10.878   4.194  -3.425  1.00  0.00     0.155 C 
ATOM     87  C   UNL     1      11.805   5.350  -5.151  1.00  0.00     0.004 C 
ATOM     88  O   UNL     1      10.217   5.462  -3.622  1.00  0.00    -0.365 OA
ATOM     89  C   UNL     1      12.148   4.509  -4.163  1.00  0.00     0.004 C 
BRANCH  84  90
ATOM     90  C   UNL     1       8.827   2.824  -3.371  1.00  0.00     0.231 C 
ATOM     91  O   UNL     1       8.610   1.598  -3.413  1.00  0.00    -0.274 OA
ATOM     92  N   UNL     1       8.114   3.456  -2.428  1.00  0.00    -0.325 N 
ATOM     93  H   UNL     1       7.716   2.742  -1.879  1.00  0.00     0.169 HD
BRANCH  92  94
ATOM     94  C   UNL     1       7.663   4.673  -1.849  1.00  0.00     0.044 A 
ATOM     95  C   UNL     1       7.348   4.418  -0.487  1.00  0.00     0.026 A 
ATOM     96  C   UNL     1       7.333   5.963  -2.370  1.00  0.00    -0.020 A 
ATOM     97  C   UNL     1       6.781   5.361   0.358  1.00  0.00     0.002 A 
ATOM     98  C   UNL     1       6.772   6.906  -1.473  1.00  0.00     0.006 A 
ATOM     99  C   UNL     1       6.497   6.614  -0.138  1.00  0.00     0.000 A 
BRANCH  96 100
ATOM    100  C   UNL     1       7.573   6.481  -3.775  1.00  0.00     0.073 C 
BRANCH 100 101
ATOM    101  C   UNL     1       6.616   7.395  -4.562  1.00  0.00    -0.044 A 
ATOM    102  C   UNL     1       5.895   6.910  -5.668  1.00  0.00     0.004 A 
ATOM    103  C   UNL     1       6.616   8.787  -4.380  1.00  0.00     0.004 A 
ATOM    104  C   UNL     1       5.254   7.756  -6.581  1.00  0.00     0.000 A 
ATOM    105  C   UNL     1       5.951   9.641  -5.277  1.00  0.00     0.000 A 
ATOM    106  C   UNL     1       5.288   9.128  -6.389  1.00  0.00     0.000 A 
ENDBRANCH 100 101
ENDBRANCH  96 100
ENDBRANCH  92  94
ENDBRANCH  84  90
ENDBRANCH  80  83
ENDBRANCH  78  79
ENDBRANCH  77  78
ENDBRANCH   1  77
TORSDOF 20
