REMARK SMILES C[C@H]([NH2+]CC(C)(C)C(=O)NCCCCCCNC(=O)c1ccc(-c2c3nc(c(-c4c(F)cc(S(=O)(=O)[O-])cc4F)c4ccc([nH]4)c(-c4c(F)cc(S(=O)(=O)[O-])cc4F)c4nc(c(-c5c(F)cc(S(=O)(=O)[O-])cc5F)c5ccc2[nH]5)C=C4)C=C3)cc1)c1nccs1
REMARK SMILES IDX 13 1 12 2 11 3 10 4 8 5 9 6 5 8 6 9 7 10 4 11 3 12 2 15 1 16
REMARK SMILES IDX 86 17 87 18 90 19 88 20 89 21 14 22 15 23 16 24 17 25 18 26
REMARK SMILES IDX 19 28 20 29 21 30 85 31 22 32 84 33 23 34 24 35 25 36 78 37
REMARK SMILES IDX 26 38 83 39 77 40 79 41 27 42 82 43 76 44 75 45 28 47 62 48
REMARK SMILES IDX 41 49 61 50 42 51 45 52 60 53 80 54 43 55 44 56 59 58 81 59
REMARK SMILES IDX 46 60 29 61 30 62 39 63 31 64 32 65 38 66 40 67 33 68 34 69
REMARK SMILES IDX 35 70 36 71 37 72 63 73 64 74 73 75 65 76 66 77 72 78 74 79
REMARK SMILES IDX 67 80 68 81 69 82 70 83 71 84 47 85 48 86 57 87 49 88 50 89
REMARK SMILES IDX 56 90 58 91 51 92 52 93 53 94 54 95 55 96
REMARK H PARENT 10 7 3 13 3 14 17 27 79 46 45 57
REMARK Flexibility Score: inf
ROOT
ATOM      1  C   UNL     1       4.890   3.952   4.559  1.00  0.00     0.002 C 
ENDROOT
BRANCH   1   2
ATOM      2  C   UNL     1       5.032   2.470   4.197  1.00  0.00     0.021 C 
BRANCH   2   3
ATOM      3  C   UNL     1       3.699   1.750   4.009  1.00  0.00     0.116 C 
BRANCH   3   4
ATOM      4  N   UNL     1       3.034   2.217   2.810  1.00  0.00    -0.355 N 
ATOM      5  C   UNL     1       2.772   1.614   1.620  1.00  0.00     0.231 C 
ATOM      6  O   UNL     1       2.434   2.370   0.704  1.00  0.00    -0.274 OA
ATOM      7  H   UNL     1       2.711   3.146   2.867  1.00  0.00     0.163 HD
BRANCH   5   8
ATOM      8  C   UNL     1       2.930   0.092   1.423  1.00  0.00     0.092 C 
ATOM      9  C   UNL     1       2.134  -0.708   2.473  1.00  0.00     0.027 C 
ATOM     10  C   UNL     1       4.425  -0.284   1.452  1.00  0.00     0.027 C 
BRANCH   8  11
ATOM     11  C   UNL     1       2.419  -0.298  -0.003  1.00  0.00     0.277 C 
BRANCH  11  12
ATOM     12  N   UNL     1       0.962  -0.272  -0.152  1.00  0.00    -0.337 N 
ATOM     13  H   UNL     1       0.564  -0.981   0.464  1.00  0.00     0.346 HD
ATOM     14  H   UNL     1       0.657   0.672   0.087  1.00  0.00     0.346 HD
BRANCH  12  15
ATOM     15  C   UNL     1       0.495  -0.536  -1.524  1.00  0.00     0.239 C 
ATOM     16  C   UNL     1       0.948  -1.913  -2.031  1.00  0.00     0.083 C 
BRANCH  15  17
ATOM     17  C   UNL     1      -1.022  -0.447  -1.548  1.00  0.00     0.150 A 
ATOM     18  N   UNL     1      -1.839  -1.477  -1.420  1.00  0.00    -0.243 NA
ATOM     19  S   UNL     1      -1.797   1.089  -1.686  1.00  0.00    -0.121 S 
ATOM     20  C   UNL     1      -3.147  -1.039  -1.409  1.00  0.00     0.123 A 
ATOM     21  C   UNL     1      -3.321   0.322  -1.529  1.00  0.00     0.087 A 
ENDBRANCH  15  17
ENDBRANCH  12  15
ENDBRANCH  11  12
ENDBRANCH   8  11
ENDBRANCH   5   8
ENDBRANCH   3   4
ENDBRANCH   2   3
ENDBRANCH   1   2
BRANCH   1  22
ATOM     22  C   UNL     1       4.037   4.230   5.802  1.00  0.00     0.002 C 
BRANCH  22  23
ATOM     23  C   UNL     1       4.453   3.453   7.053  1.00  0.00     0.021 C 
BRANCH  23  24
ATOM     24  C   UNL     1       5.900   3.674   7.478  1.00  0.00     0.116 C 
BRANCH  24  25
ATOM     25  N   UNL     1       6.155   5.063   7.827  1.00  0.00    -0.352 N 
ATOM     26  C   UNL     1       6.640   5.583   9.000  1.00  0.00     0.251 C 
ATOM     27  H   UNL     1       5.951   5.721   7.123  1.00  0.00     0.163 HD
ATOM     28  O   UNL     1       6.590   6.793   9.206  1.00  0.00    -0.269 OA
BRANCH  26  29
ATOM     29  C   UNL     1       7.202   4.674  10.019  1.00  0.00     0.039 A 
ATOM     30  C   UNL     1       6.808   4.821  11.351  1.00  0.00     0.014 A 
ATOM     31  C   UNL     1       8.099   3.665   9.654  1.00  0.00     0.014 A 
ATOM     32  C   UNL     1       7.260   3.910  12.306  1.00  0.00     0.010 A 
ATOM     33  C   UNL     1       8.488   2.716  10.593  1.00  0.00     0.010 A 
ATOM     34  C   UNL     1       8.069   2.825  11.928  1.00  0.00    -0.014 A 
BRANCH  34  35
ATOM     35  C   UNL     1       8.464   1.779  12.906  1.00  0.00     0.031 A 
ATOM     36  C   UNL     1       9.914   1.564  13.243  1.00  0.00     0.074 A 
ATOM     37  C   UNL     1       7.518   0.976  13.434  1.00  0.00     0.049 A 
ATOM     38  N   UNL     1      10.456   0.652  14.008  1.00  0.00    -0.248 NA
ATOM     39  C   UNL     1      10.884   2.478  12.618  1.00  0.00     0.031 C 
ATOM     40  C   UNL     1       6.083   1.060  13.149  1.00  0.00     0.029 A 
ATOM     41  N   UNL     1       7.620  -0.076  14.309  1.00  0.00    -0.354 N 
ATOM     42  C   UNL     1      11.826   0.875  13.951  1.00  0.00     0.074 A 
ATOM     43  C   UNL     1      12.037   1.974  13.034  1.00  0.00     0.031 C 
ATOM     44  C   UNL     1       5.439   0.114  13.850  1.00  0.00     0.029 A 
ATOM     45  C   UNL     1       6.415  -0.674  14.597  1.00  0.00     0.049 A 
ATOM     46  H   UNL     1       8.475  -0.375  14.694  1.00  0.00     0.167 HD
ATOM     47  C   UNL     1      12.815   0.235  14.619  1.00  0.00     0.037 A 
ATOM     48  C   UNL     1       6.128  -1.746  15.361  1.00  0.00     0.037 A 
ATOM     49  C   UNL     1      12.593  -0.849  15.541  1.00  0.00     0.049 A 
ATOM     50  C   UNL     1       7.248  -2.459  16.070  1.00  0.00     0.074 A 
ATOM     51  C   UNL     1      13.522  -1.525  16.313  1.00  0.00     0.029 A 
ATOM     52  N   UNL     1      11.358  -1.424  15.810  1.00  0.00    -0.354 N 
ATOM     53  N   UNL     1       8.532  -2.189  16.062  1.00  0.00    -0.248 NA
ATOM     54  C   UNL     1       6.883  -3.620  16.893  1.00  0.00     0.031 C 
ATOM     55  C   UNL     1      12.859  -2.545  17.003  1.00  0.00     0.029 A 
ATOM     56  C   UNL     1      11.507  -2.467  16.709  1.00  0.00     0.049 A 
ATOM     57  H   UNL     1      10.503  -1.133  15.419  1.00  0.00     0.167 HD
ATOM     58  C   UNL     1       9.124  -3.132  16.895  1.00  0.00     0.074 A 
ATOM     59  C   UNL     1       8.056  -3.969  17.403  1.00  0.00     0.031 C 
ATOM     60  C   UNL     1      10.434  -3.292  17.208  1.00  0.00     0.037 A 
BRANCH  47  61
ATOM     61  C   UNL     1      14.231   0.686  14.378  1.00  0.00     0.058 A 
ATOM     62  C   UNL     1      14.696   1.932  14.829  1.00  0.00     0.135 A 
ATOM     63  C   UNL     1      15.148  -0.156  13.728  1.00  0.00     0.135 A 
ATOM     64  F   UNL     1      13.861   2.784  15.444  1.00  0.00    -0.206 F 
ATOM     65  C   UNL     1      16.010   2.339  14.618  1.00  0.00     0.059 A 
ATOM     66  C   UNL     1      16.475   0.217  13.534  1.00  0.00     0.059 A 
ATOM     67  F   UNL     1      14.759  -1.359  13.276  1.00  0.00    -0.206 F 
ATOM     68  C   UNL     1      16.893   1.473  13.971  1.00  0.00     0.060 A 
BRANCH  68  69
ATOM     69  S   UNL     1      18.595   2.014  13.714  1.00  0.00     0.124 S 
ATOM     70  O   UNL     1      18.423   3.040  12.690  1.00  0.00    -0.237 OA
ATOM     71  O   UNL     1      18.971   2.498  15.039  1.00  0.00    -0.237 OA
ATOM     72  O   UNL     1      19.277   0.800  13.277  1.00  0.00    -0.744 OA
ENDBRANCH  68  69
ENDBRANCH  47  61
BRANCH  48  73
ATOM     73  C   UNL     1       4.720  -2.207  15.498  1.00  0.00     0.058 A 
ATOM     74  C   UNL     1       4.034  -2.083  16.715  1.00  0.00     0.135 A 
ATOM     75  C   UNL     1       4.027  -2.768  14.413  1.00  0.00     0.135 A 
ATOM     76  F   UNL     1       4.654  -1.561  17.784  1.00  0.00    -0.206 F 
ATOM     77  C   UNL     1       2.718  -2.513  16.858  1.00  0.00     0.059 A 
ATOM     78  C   UNL     1       2.703  -3.178  14.523  1.00  0.00     0.059 A 
ATOM     79  F   UNL     1       4.632  -2.894  13.221  1.00  0.00    -0.206 F 
ATOM     80  C   UNL     1       2.059  -3.056  15.754  1.00  0.00     0.060 A 
BRANCH  80  81
ATOM     81  S   UNL     1       0.337  -3.567  15.938  1.00  0.00     0.124 S 
ATOM     82  O   UNL     1       0.472  -4.762  16.763  1.00  0.00    -0.237 OA
ATOM     83  O   UNL     1      -0.258  -2.404  16.589  1.00  0.00    -0.237 OA
ATOM     84  O   UNL     1      -0.094  -3.795  14.562  1.00  0.00    -0.744 OA
ENDBRANCH  80  81
ENDBRANCH  48  73
BRANCH  60  85
ATOM     85  C   UNL     1      10.791  -4.398  18.163  1.00  0.00     0.058 A 
ATOM     86  C   UNL     1      10.739  -5.747  17.781  1.00  0.00     0.135 A 
ATOM     87  C   UNL     1      11.257  -4.101  19.455  1.00  0.00     0.135 A 
ATOM     88  F   UNL     1      10.292  -6.088  16.562  1.00  0.00    -0.206 F 
ATOM     89  C   UNL     1      11.121  -6.764  18.650  1.00  0.00     0.059 A 
ATOM     90  C   UNL     1      11.674  -5.099  20.329  1.00  0.00     0.059 A 
ATOM     91  F   UNL     1      11.335  -2.826  19.869  1.00  0.00    -0.206 F 
ATOM     92  C   UNL     1      11.595  -6.429  19.920  1.00  0.00     0.060 A 
BRANCH  92  93
ATOM     93  S   UNL     1      12.138  -7.757  21.016  1.00  0.00     0.124 S 
ATOM     94  O   UNL     1      10.868  -8.379  21.377  1.00  0.00    -0.237 OA
ATOM     95  O   UNL     1      13.005  -8.544  20.145  1.00  0.00    -0.237 OA
ATOM     96  O   UNL     1      12.820  -7.050  22.096  1.00  0.00    -0.744 OA
ENDBRANCH  92  93
ENDBRANCH  60  85
ENDBRANCH  34  35
ENDBRANCH  26  29
ENDBRANCH  24  25
ENDBRANCH  23  24
ENDBRANCH  22  23
ENDBRANCH   1  22
TORSDOF 20
