REMARK SMILES [NH3+][C@@]1(C(=O)NCCCCCCNC(=O)c2ccc(-c3c4nc(c(-c5c(F)cc(S(=O)(=O)[O-])cc5F)c5ccc([nH]5)c(-c5c(F)cc(S(=O)(=O)[O-])cc5F)c5nc(c(-c6c(F)cc(S(=O)(=O)[O-])cc6F)c6ccc3[nH]6)C=C5)C=C4)cc2)CC[N@H+](Cc2ccc(OCC(=O)N3CCCCC3)cc2)C1
REMARK SMILES IDX 7 1 6 2 5 3 3 4 4 5 2 7 81 8 101 9 82 10 83 11 1 13 84 17
REMARK SMILES IDX 85 18 86 19 100 20 87 21 99 22 88 23 89 24 90 25 91 26 92 27
REMARK SMILES IDX 93 28 94 29 98 30 95 31 97 32 96 33 8 34 9 35 10 36 11 37
REMARK SMILES IDX 12 38 13 39 14 41 15 42 16 43 80 44 17 45 79 46 18 47 19 48
REMARK SMILES IDX 20 49 73 50 21 51 78 52 72 53 74 54 22 55 77 56 71 57 70 58
REMARK SMILES IDX 23 60 57 61 36 62 56 63 37 64 40 65 55 66 75 67 38 68 39 69
REMARK SMILES IDX 54 71 76 72 41 73 24 74 25 75 34 76 26 77 27 78 33 79 35 80
REMARK SMILES IDX 28 81 29 82 30 83 31 84 32 85 58 86 59 87 68 88 60 89 61 90
REMARK SMILES IDX 67 91 69 92 62 93 63 94 64 95 65 96 66 97 42 98 43 99 52 100
REMARK SMILES IDX 44 101 45 102 51 103 53 104 46 105 47 106 48 107 49 108
REMARK SMILES IDX 50 109
REMARK H PARENT 5 6 83 12 1 14 1 15 1 16 12 40 74 59 40 70
REMARK Flexibility Score: inf
ROOT
ATOM      1  C   UNL     1       0.383   4.295  -4.102  1.00  0.00     0.021 C 
ENDROOT
BRANCH   1   2
ATOM      2  C   UNL     1       0.079   2.497  -2.889  1.00  0.00     0.116 C 
BRANCH   2   3
ATOM      3  N   UNL     1       0.928   1.248  -2.578  1.00  0.00    -0.350 N 
ATOM      4  C   UNL     1       1.037   0.562  -1.409  1.00  0.00     0.287 C 
ATOM      5  O   UNL     1       1.327  -0.641  -1.526  1.00  0.00    -0.268 OA
ATOM      6  H   UNL     1       1.464   0.900  -3.327  1.00  0.00     0.163 HD
BRANCH   4   7
ATOM      7  C   UNL     1       0.836   1.187   0.032  1.00  0.00     0.228 C 
ATOM      8  C   UNL     1      -0.614   1.479   0.416  1.00  0.00     0.146 C 
ATOM      9  C   UNL     1       1.573   2.517   0.281  1.00  0.00     0.342 C 
ATOM     10  C   UNL     1      -0.738   2.996   0.585  1.00  0.00     0.270 C 
ATOM     11  N   UNL     1       0.582   3.594   0.416  1.00  0.00    -0.325 N 
ATOM     12  H   UNL     1       0.824   4.108   1.264  1.00  0.00     0.348 HD
BRANCH   7  13
ATOM     13  N   UNL     1       1.358   0.134   0.970  1.00  0.00    -0.340 N 
ATOM     14  H   UNL     1       0.867  -0.745   0.802  1.00  0.00     0.345 HD
ATOM     15  H   UNL     1       1.203   0.430   1.934  1.00  0.00     0.345 HD
ATOM     16  H   UNL     1       2.357   0.001   0.811  1.00  0.00     0.345 HD
ENDBRANCH   7  13
BRANCH  11  17
ATOM     17  C   UNL     1       0.666   4.734  -0.506  1.00  0.00     0.299 C 
BRANCH  17  18
ATOM     18  C   UNL     1       0.488   4.358  -1.965  1.00  0.00     0.006 A 
ATOM     19  C   UNL     1       1.899   3.590  -2.767  1.00  0.00     0.013 A 
ATOM     20  C   UNL     1      -1.182   4.165  -2.666  1.00  0.00     0.013 A 
ATOM     21  C   UNL     1       1.678   2.670  -4.295  1.00  0.00     0.047 A 
ATOM     22  C   UNL     1      -1.410   3.212  -4.182  1.00  0.00     0.047 A 
ATOM     23  C   UNL     1       0.026   2.419  -4.959  1.00  0.00     0.120 A 
BRANCH  23  24
ATOM     24  O   UNL     1       0.048   1.718  -6.121  1.00  0.00    -0.484 OA
BRANCH  24  25
ATOM     25  C   UNL     1      -1.153   1.153  -6.568  1.00  0.00     0.329 C 
BRANCH  25  26
ATOM     26  C   UNL     1      -1.507  -0.184  -5.921  1.00  0.00     0.260 C 
ATOM     27  O   UNL     1      -2.663  -0.354  -5.518  1.00  0.00    -0.271 OA
ATOM     28  N   UNL     1      -0.555  -1.200  -5.881  1.00  0.00    -0.340 N 
ATOM     29  C   UNL     1      -0.986  -2.530  -5.466  1.00  0.00     0.119 C 
ATOM     30  C   UNL     1       0.865  -1.116  -6.249  1.00  0.00     0.119 C 
ATOM     31  C   UNL     1      -0.164  -3.022  -4.283  1.00  0.00     0.022 C 
ATOM     32  C   UNL     1       1.768  -1.637  -5.125  1.00  0.00     0.022 C 
ATOM     33  C   UNL     1       1.327  -3.006  -4.612  1.00  0.00     0.004 C 
ENDBRANCH  25  26
ENDBRANCH  24  25
ENDBRANCH  23  24
ENDBRANCH  17  18
ENDBRANCH  11  17
ENDBRANCH   4   7
ENDBRANCH   2   3
ENDBRANCH   1   2
BRANCH   1  34
ATOM     34  C   UNL     1       0.148   4.692  -5.788  1.00  0.00     0.002 C 
BRANCH  34  35
ATOM     35  C   UNL     1      -1.256   5.085  -6.296  1.00  0.00     0.002 C 
BRANCH  35  36
ATOM     36  C   UNL     1      -1.842   6.326  -5.623  1.00  0.00     0.021 C 
BRANCH  36  37
ATOM     37  C   UNL     1      -0.917   7.530  -5.715  1.00  0.00     0.116 C 
BRANCH  37  38
ATOM     38  N   UNL     1      -0.470   7.731  -7.092  1.00  0.00    -0.352 N 
ATOM     39  C   UNL     1      -0.739   8.783  -7.921  1.00  0.00     0.251 C 
ATOM     40  H   UNL     1       0.095   7.019  -7.469  1.00  0.00     0.163 HD
ATOM     41  O   UNL     1      -0.629   8.681  -9.137  1.00  0.00    -0.269 OA
BRANCH  39  42
ATOM     42  C   UNL     1      -1.136  10.047  -7.292  1.00  0.00     0.039 A 
ATOM     43  C   UNL     1      -2.220  10.764  -7.793  1.00  0.00     0.014 A 
ATOM     44  C   UNL     1      -0.428  10.483  -6.165  1.00  0.00     0.014 A 
ATOM     45  C   UNL     1      -2.606  11.929  -7.142  1.00  0.00     0.010 A 
ATOM     46  C   UNL     1      -0.879  11.581  -5.461  1.00  0.00     0.010 A 
ATOM     47  C   UNL     1      -1.942  12.335  -5.970  1.00  0.00    -0.014 A 
BRANCH  47  48
ATOM     48  C   UNL     1      -2.295  13.600  -5.300  1.00  0.00     0.031 A 
ATOM     49  C   UNL     1      -1.284  14.712  -5.261  1.00  0.00     0.074 A 
ATOM     50  C   UNL     1      -3.493  13.711  -4.699  1.00  0.00     0.049 A 
ATOM     51  N   UNL     1      -1.383  15.896  -4.721  1.00  0.00    -0.248 NA
ATOM     52  C   UNL     1       0.030  14.442  -5.874  1.00  0.00     0.031 C 
ATOM     53  C   UNL     1      -4.500  12.649  -4.613  1.00  0.00     0.029 A 
ATOM     54  N   UNL     1      -4.069  14.770  -4.054  1.00  0.00    -0.354 N 
ATOM     55  C   UNL     1      -0.145  16.499  -4.912  1.00  0.00     0.074 A 
ATOM     56  C   UNL     1       0.713  15.528  -5.548  1.00  0.00     0.031 C 
ATOM     57  C   UNL     1      -5.588  13.128  -3.988  1.00  0.00     0.029 A 
ATOM     58  C   UNL     1      -5.347  14.518  -3.618  1.00  0.00     0.049 A 
ATOM     59  H   UNL     1      -3.611  15.631  -3.914  1.00  0.00     0.167 HD
ATOM     60  C   UNL     1       0.226  17.766  -4.617  1.00  0.00     0.037 A 
ATOM     61  C   UNL     1      -6.226  15.334  -3.009  1.00  0.00     0.037 A 
ATOM     62  C   UNL     1      -0.666  18.729  -4.033  1.00  0.00     0.049 A 
ATOM     63  C   UNL     1      -5.819  16.761  -2.766  1.00  0.00     0.074 A 
ATOM     64  C   UNL     1      -0.435  20.062  -3.750  1.00  0.00     0.029 A 
ATOM     65  N   UNL     1      -1.974  18.457  -3.656  1.00  0.00    -0.354 N 
ATOM     66  N   UNL     1      -4.668  17.343  -3.017  1.00  0.00    -0.248 NA
ATOM     67  C   UNL     1      -6.830  17.647  -2.179  1.00  0.00     0.031 C 
ATOM     68  C   UNL     1      -1.597  20.590  -3.176  1.00  0.00     0.029 A 
ATOM     69  C   UNL     1      -2.563  19.595  -3.137  1.00  0.00     0.049 A 
ATOM     70  H   UNL     1      -2.417  17.582  -3.744  1.00  0.00     0.167 HD
ATOM     71  C   UNL     1      -4.823  18.670  -2.636  1.00  0.00     0.074 A 
ATOM     72  C   UNL     1      -6.186  18.806  -2.158  1.00  0.00     0.031 C 
ATOM     73  C   UNL     1      -3.924  19.686  -2.671  1.00  0.00     0.037 A 
BRANCH  60  74
ATOM     74  C   UNL     1       1.637  18.170  -4.945  1.00  0.00     0.058 A 
ATOM     75  C   UNL     1       2.075  18.305  -6.274  1.00  0.00     0.135 A 
ATOM     76  C   UNL     1       2.565  18.425  -3.923  1.00  0.00     0.135 A 
ATOM     77  F   UNL     1       1.238  18.050  -7.291  1.00  0.00    -0.206 F 
ATOM     78  C   UNL     1       3.390  18.644  -6.577  1.00  0.00     0.059 A 
ATOM     79  C   UNL     1       3.878  18.795  -4.204  1.00  0.00     0.059 A 
ATOM     80  F   UNL     1       2.204  18.305  -2.636  1.00  0.00    -0.206 F 
ATOM     81  C   UNL     1       4.285  18.886  -5.535  1.00  0.00     0.060 A 
BRANCH  81  82
ATOM     82  S   UNL     1       5.986  19.329  -5.944  1.00  0.00     0.124 S 
ATOM     83  O   UNL     1       6.530  18.041  -6.363  1.00  0.00    -0.237 OA
ATOM     84  O   UNL     1       5.807  20.316  -7.004  1.00  0.00    -0.237 OA
ATOM     85  O   UNL     1       6.512  19.854  -4.687  1.00  0.00    -0.744 OA
ENDBRANCH  81  82
ENDBRANCH  60  74
BRANCH  61  86
ATOM     86  C   UNL     1      -7.581  14.838  -2.659  1.00  0.00     0.058 A 
ATOM     87  C   UNL     1      -8.710  15.255  -3.380  1.00  0.00     0.135 A 
ATOM     88  C   UNL     1      -7.773  13.910  -1.624  1.00  0.00     0.135 A 
ATOM     89  F   UNL     1      -8.576  16.137  -4.382  1.00  0.00    -0.206 F 
ATOM     90  C   UNL     1      -9.984  14.788  -3.076  1.00  0.00     0.059 A 
ATOM     91  C   UNL     1      -9.035  13.410  -1.315  1.00  0.00     0.059 A 
ATOM     92  F   UNL     1      -6.723  13.458  -0.922  1.00  0.00    -0.206 F 
ATOM     93  C   UNL     1     -10.136  13.864  -2.041  1.00  0.00     0.060 A 
BRANCH  93  94
ATOM     94  S   UNL     1     -11.788  13.224  -1.685  1.00  0.00     0.124 S 
ATOM     95  O   UNL     1     -12.399  14.356  -0.999  1.00  0.00    -0.237 OA
ATOM     96  O   UNL     1     -12.300  12.933  -3.021  1.00  0.00    -0.237 OA
ATOM     97  O   UNL     1     -11.520  12.051  -0.858  1.00  0.00    -0.744 OA
ENDBRANCH  93  94
ENDBRANCH  61  86
BRANCH  73  98
ATOM     98  C   UNL     1      -4.403  21.026  -2.195  1.00  0.00     0.058 A 
ATOM     99  C   UNL     1      -4.609  21.287  -0.832  1.00  0.00     0.135 A 
ATOM    100  C   UNL     1      -4.631  22.064  -3.111  1.00  0.00     0.135 A 
ATOM    101  F   UNL     1      -4.406  20.323   0.079  1.00  0.00    -0.206 F 
ATOM    102  C   UNL     1      -5.062  22.526  -0.395  1.00  0.00     0.059 A 
ATOM    103  C   UNL     1      -5.059  23.319  -2.693  1.00  0.00     0.059 A 
ATOM    104  F   UNL     1      -4.433  21.865  -4.424  1.00  0.00    -0.206 F 
ATOM    105  C   UNL     1      -5.289  23.534  -1.335  1.00  0.00     0.060 A 
BRANCH 105 106
ATOM    106  S   UNL     1      -5.873  25.140  -0.757  1.00  0.00     0.124 S 
ATOM    107  O   UNL     1      -7.285  24.865  -0.509  1.00  0.00    -0.237 OA
ATOM    108  O   UNL     1      -5.053  25.365   0.429  1.00  0.00    -0.237 OA
ATOM    109  O   UNL     1      -5.593  26.026  -1.882  1.00  0.00    -0.744 OA
ENDBRANCH 105 106
ENDBRANCH  73  98
ENDBRANCH  47  48
ENDBRANCH  39  42
ENDBRANCH  37  38
ENDBRANCH  36  37
ENDBRANCH  35  36
ENDBRANCH  34  35
ENDBRANCH   1  34
TORSDOF 22
