REMARK SMILES Cc1ccc(C)c(OCc2ccc(C(=O)NCCCCCCNC(=O)c3ccc(-c4c5nc(c(-c6c(F)cc(S(=O)(=O)[O-])cc6F)c6ccc([nH]6)c(-c6c(F)cc(S(=O)(=O)[O-])cc6F)c6nc(c(-c7c(F)cc(S(=O)(=O)[O-])cc7F)c7ccc4[nH]7)C=C6)C=C5)cc3)cc2)c1C
REMARK SMILES IDX 19 1 18 2 17 3 16 4 14 5 15 6 13 8 10 9 11 10 93 11 12 12
REMARK SMILES IDX 92 13 9 14 8 15 7 16 1 17 2 18 3 19 94 20 4 21 95 22 5 23
REMARK SMILES IDX 6 24 20 25 21 26 22 27 23 28 24 29 25 31 26 32 27 33 91 34
REMARK SMILES IDX 28 35 90 36 29 37 30 38 31 39 84 40 32 41 89 42 83 43 85 44
REMARK SMILES IDX 33 45 88 46 82 47 81 48 34 50 68 51 47 52 67 53 48 54 51 55
REMARK SMILES IDX 66 56 86 57 49 58 50 59 65 61 87 62 52 63 35 64 36 65 45 66
REMARK SMILES IDX 37 67 38 68 44 69 46 70 39 71 40 72 41 73 42 74 43 75 69 76
REMARK SMILES IDX 70 77 79 78 71 79 72 80 78 81 80 82 73 83 74 84 75 85 76 86
REMARK SMILES IDX 77 87 53 88 54 89 63 90 55 91 56 92 62 93 64 94 57 95 58 96
REMARK SMILES IDX 59 97 60 98 61 99
REMARK H PARENT 16 7 23 30 85 49 51 60
REMARK Flexibility Score: inf
ROOT
ATOM      1  C   UNL     1       5.081   3.126   8.389  1.00  0.00     0.002 C 
ENDROOT
BRANCH   1   2
ATOM      2  C   UNL     1       4.748   3.477   6.932  1.00  0.00     0.021 C 
BRANCH   2   3
ATOM      3  C   UNL     1       5.665   2.768   5.934  1.00  0.00     0.116 C 
BRANCH   3   4
ATOM      4  N   UNL     1       5.292   1.375   5.856  1.00  0.00    -0.352 N 
ATOM      5  C   UNL     1       4.316   0.727   5.151  1.00  0.00     0.251 C 
ATOM      6  O   UNL     1       4.117  -0.453   5.448  1.00  0.00    -0.269 OA
ATOM      7  H   UNL     1       5.843   0.781   6.415  1.00  0.00     0.163 HD
BRANCH   5   8
ATOM      8  C   UNL     1       3.569   1.329   4.003  1.00  0.00     0.039 A 
ATOM      9  C   UNL     1       2.446   2.145   1.513  1.00  0.00    -0.011 A 
ATOM     10  C   UNL     1       2.423   0.811   1.923  1.00  0.00     0.008 A 
ATOM     11  C   UNL     1       2.926   3.083   2.438  1.00  0.00     0.008 A 
ATOM     12  C   UNL     1       2.983   0.407   3.135  1.00  0.00     0.014 A 
ATOM     13  C   UNL     1       3.452   2.681   3.678  1.00  0.00     0.014 A 
BRANCH   9  14
ATOM     14  C   UNL     1       2.178   2.585   0.078  1.00  0.00     0.265 C 
BRANCH  14  15
ATOM     15  O   UNL     1       0.991   2.191  -0.615  1.00  0.00    -0.488 OA
BRANCH  15  16
ATOM     16  C   UNL     1       0.628   0.876  -0.694  1.00  0.00     0.125 A 
ATOM     17  C   UNL     1      -2.624  -1.006   0.097  1.00  0.00     0.045 C 
ATOM     18  C   UNL     1      -1.204  -0.689  -0.281  1.00  0.00    -0.044 A 
ATOM     19  C   UNL     1      -0.325  -1.743  -0.554  1.00  0.00     0.004 A 
ATOM     20  C   UNL     1      -0.732   0.635  -0.373  1.00  0.00    -0.006 A 
ATOM     21  C   UNL     1       0.986  -1.493  -0.959  1.00  0.00     0.007 A 
ATOM     22  C   UNL     1      -1.628   1.818  -0.089  1.00  0.00     0.049 C 
ATOM     23  C   UNL     1       1.474  -0.182  -1.075  1.00  0.00    -0.009 A 
ATOM     24  C   UNL     1       2.892  -0.001  -1.537  1.00  0.00     0.048 C 
ENDBRANCH  15  16
ENDBRANCH  14  15
ENDBRANCH   9  14
ENDBRANCH   5   8
ENDBRANCH   3   4
ENDBRANCH   2   3
ENDBRANCH   1   2
BRANCH   1  25
ATOM     25  C   UNL     1       6.495   3.524   8.827  1.00  0.00     0.002 C 
BRANCH  25  26
ATOM     26  C   UNL     1       6.852   4.987   8.554  1.00  0.00     0.021 C 
BRANCH  26  27
ATOM     27  C   UNL     1       5.939   5.981   9.263  1.00  0.00     0.116 C 
BRANCH  27  28
ATOM     28  N   UNL     1       6.089   5.888  10.707  1.00  0.00    -0.352 N 
ATOM     29  C   UNL     1       6.489   6.858  11.586  1.00  0.00     0.251 C 
ATOM     30  H   UNL     1       5.876   5.012  11.104  1.00  0.00     0.163 HD
ATOM     31  O   UNL     1       6.848   6.553  12.724  1.00  0.00    -0.269 OA
BRANCH  29  32
ATOM     32  C   UNL     1       6.487   8.270  11.157  1.00  0.00     0.039 A 
ATOM     33  C   UNL     1       7.584   9.078  11.457  1.00  0.00     0.014 A 
ATOM     34  C   UNL     1       5.389   8.791  10.464  1.00  0.00     0.014 A 
ATOM     35  C   UNL     1       7.599  10.405  11.024  1.00  0.00     0.010 A 
ATOM     36  C   UNL     1       5.435  10.092   9.976  1.00  0.00     0.010 A 
ATOM     37  C   UNL     1       6.535  10.914  10.261  1.00  0.00    -0.014 A 
BRANCH  37  38
ATOM     38  C   UNL     1       6.547  12.311   9.761  1.00  0.00     0.031 A 
ATOM     39  C   UNL     1       5.525  13.295  10.258  1.00  0.00     0.074 A 
ATOM     40  C   UNL     1       7.436  12.669   8.814  1.00  0.00     0.049 A 
ATOM     41  N   UNL     1       5.326  14.534   9.892  1.00  0.00    -0.248 NA
ATOM     42  C   UNL     1       4.584  12.814  11.284  1.00  0.00     0.031 C 
ATOM     43  C   UNL     1       8.443  11.786   8.222  1.00  0.00     0.029 A 
ATOM     44  N   UNL     1       7.627  13.867   8.175  1.00  0.00    -0.354 N 
ATOM     45  C   UNL     1       4.233  14.976  10.629  1.00  0.00     0.074 A 
ATOM     46  C   UNL     1       3.779  13.857  11.424  1.00  0.00     0.031 C 
ATOM     47  C   UNL     1       9.159  12.478   7.321  1.00  0.00     0.029 A 
ATOM     48  C   UNL     1       8.639  13.840   7.245  1.00  0.00     0.049 A 
ATOM     49  H   UNL     1       7.091  14.671   8.364  1.00  0.00     0.167 HD
ATOM     50  C   UNL     1       3.674  16.210  10.656  1.00  0.00     0.037 A 
ATOM     51  C   UNL     1       9.092  14.803   6.419  1.00  0.00     0.037 A 
ATOM     52  C   UNL     1       4.149  17.324   9.878  1.00  0.00     0.049 A 
ATOM     53  C   UNL     1       8.457  16.165   6.468  1.00  0.00     0.074 A 
ATOM     54  C   UNL     1       3.692  18.630   9.876  1.00  0.00     0.029 A 
ATOM     55  N   UNL     1       5.190  17.263   8.962  1.00  0.00    -0.354 N 
ATOM     56  N   UNL     1       7.463  16.584   7.215  1.00  0.00    -0.248 NA
ATOM     57  C   UNL     1       9.007  17.188   5.568  1.00  0.00     0.031 C 
ATOM     58  C   UNL     1       4.429  19.349   8.929  1.00  0.00     0.029 A 
ATOM     59  C   UNL     1       5.377  18.503   8.374  1.00  0.00     0.049 A 
ATOM     60  H   UNL     1       5.718  16.457   8.760  1.00  0.00     0.167 HD
ATOM     61  C   UNL     1       7.283  17.924   6.893  1.00  0.00     0.074 A 
ATOM     62  C   UNL     1       8.280  18.249   5.892  1.00  0.00     0.031 C 
ATOM     63  C   UNL     1       6.376  18.807   7.380  1.00  0.00     0.037 A 
BRANCH  50  64
ATOM     64  C   UNL     1       2.489  16.416  11.559  1.00  0.00     0.058 A 
ATOM     65  C   UNL     1       2.620  16.423  12.957  1.00  0.00     0.135 A 
ATOM     66  C   UNL     1       1.210  16.633  11.021  1.00  0.00     0.135 A 
ATOM     67  F   UNL     1       3.817  16.206  13.525  1.00  0.00    -0.206 F 
ATOM     68  C   UNL     1       1.521  16.604  13.791  1.00  0.00     0.059 A 
ATOM     69  C   UNL     1       0.101  16.845  11.836  1.00  0.00     0.059 A 
ATOM     70  F   UNL     1       1.026  16.636   9.692  1.00  0.00    -0.206 F 
ATOM     71  C   UNL     1       0.264  16.812  13.220  1.00  0.00     0.060 A 
BRANCH  71  72
ATOM     72  S   UNL     1      -1.152  17.042  14.316  1.00  0.00     0.124 S 
ATOM     73  O   UNL     1      -1.364  15.683  14.806  1.00  0.00    -0.237 OA
ATOM     74  O   UNL     1      -0.640  17.995  15.294  1.00  0.00    -0.237 OA
ATOM     75  O   UNL     1      -2.189  17.557  13.427  1.00  0.00    -0.744 OA
ENDBRANCH  71  72
ENDBRANCH  50  64
BRANCH  51  76
ATOM     76  C   UNL     1      10.220  14.515   5.495  1.00  0.00     0.058 A 
ATOM     77  C   UNL     1      11.490  15.068   5.714  1.00  0.00     0.135 A 
ATOM     78  C   UNL     1      10.059  13.664   4.390  1.00  0.00     0.135 A 
ATOM     79  F   UNL     1      11.691  15.892   6.754  1.00  0.00    -0.206 F 
ATOM     80  C   UNL     1      12.559  14.799   4.866  1.00  0.00     0.059 A 
ATOM     81  C   UNL     1      11.119  13.360   3.541  1.00  0.00     0.059 A 
ATOM     82  F   UNL     1       8.868  13.094   4.147  1.00  0.00    -0.206 F 
ATOM     83  C   UNL     1      12.364  13.941   3.783  1.00  0.00     0.060 A 
BRANCH  83  84
ATOM     84  S   UNL     1      13.771  13.553   2.720  1.00  0.00     0.124 S 
ATOM     85  O   UNL     1      13.920  14.793   1.967  1.00  0.00    -0.237 OA
ATOM     86  O   UNL     1      14.820  13.265   3.693  1.00  0.00    -0.237 OA
ATOM     87  O   UNL     1      13.305  12.400   1.954  1.00  0.00    -0.744 OA
ENDBRANCH  83  84
ENDBRANCH  51  76
BRANCH  63  88
ATOM     88  C   UNL     1       6.435  20.215   6.857  1.00  0.00     0.058 A 
ATOM     89  C   UNL     1       6.000  20.538   5.563  1.00  0.00     0.135 A 
ATOM     90  C   UNL     1       6.887  21.260   7.679  1.00  0.00     0.135 A 
ATOM     91  F   UNL     1       5.566  19.575   4.735  1.00  0.00    -0.206 F 
ATOM     92  C   UNL     1       6.030  21.847   5.093  1.00  0.00     0.059 A 
ATOM     93  C   UNL     1       6.901  22.580   7.240  1.00  0.00     0.059 A 
ATOM     94  F   UNL     1       7.305  21.005   8.929  1.00  0.00    -0.206 F 
ATOM     95  C   UNL     1       6.482  22.861   5.940  1.00  0.00     0.060 A 
BRANCH  95  96
ATOM     96  S   UNL     1       6.485  24.561   5.331  1.00  0.00     0.124 S 
ATOM     97  O   UNL     1       7.633  24.547   4.430  1.00  0.00    -0.237 OA
ATOM     98  O   UNL     1       5.178  24.666   4.690  1.00  0.00    -0.237 OA
ATOM     99  O   UNL     1       6.648  25.356   6.544  1.00  0.00    -0.744 OA
ENDBRANCH  95  96
ENDBRANCH  63  88
ENDBRANCH  37  38
ENDBRANCH  29  32
ENDBRANCH  27  28
ENDBRANCH  26  27
ENDBRANCH  25  26
ENDBRANCH   1  25
TORSDOF 19
