REMARK SMILES C[NH2+][C@]1(C(=O)NCCCCCCNC(=O)c2ccc(-c3c4nc(c(-c5c(F)cc(S(=O)(=O)[O-])cc5F)c5ccc([nH]5)c(-c5c(F)cc(S(=O)(=O)[O-])cc5F)c5nc(c(-c6c(F)cc(S(=O)(=O)[O-])cc6F)c6ccc3[nH]6)C=C5)C=C4)cc2)CCC[C@@H]1CCn1nc(C)c(Cl)c1C
REMARK SMILES IDX 9 1 8 2 7 3 6 4 4 5 5 6 3 8 82 9 85 10 83 11 84 12 2 13 1 14
REMARK SMILES IDX 86 17 87 18 88 19 89 20 94 21 90 22 92 23 95 24 91 25 93 26
REMARK SMILES IDX 10 27 11 28 12 29 13 30 14 31 15 33 16 34 17 35 81 36 18 37
REMARK SMILES IDX 80 38 19 39 20 40 21 41 74 42 22 43 79 44 73 45 75 46 23 47
REMARK SMILES IDX 78 48 72 49 71 50 24 52 58 53 37 54 57 55 38 56 41 57 56 58
REMARK SMILES IDX 76 59 39 60 40 61 55 63 77 64 42 65 25 66 26 67 35 68 27 69
REMARK SMILES IDX 28 70 34 71 36 72 29 73 30 74 31 75 32 76 33 77 59 78 60 79
REMARK SMILES IDX 69 80 61 81 62 82 68 83 70 84 63 85 64 86 65 87 66 88 67 89
REMARK SMILES IDX 43 90 44 91 53 92 45 93 46 94 52 95 54 96 47 97 48 98 49 99
REMARK SMILES IDX 50 100 51 101
REMARK H PARENT 6 7 2 15 2 16 13 32 75 51 41 62
REMARK Flexibility Score: inf
ROOT
ATOM      1  C   UNL     1       2.747   0.531  -2.597  1.00  0.00     0.002 C 
ENDROOT
BRANCH   1   2
ATOM      2  C   UNL     1       1.243   0.493  -2.309  1.00  0.00     0.021 C 
BRANCH   2   3
ATOM      3  C   UNL     1       0.753  -0.864  -1.812  1.00  0.00     0.116 C 
BRANCH   3   4
ATOM      4  N   UNL     1       1.181  -1.096  -0.445  1.00  0.00    -0.351 N 
ATOM      5  C   UNL     1       0.521  -1.219   0.740  1.00  0.00     0.281 C 
ATOM      6  O   UNL     1       1.254  -1.313   1.734  1.00  0.00    -0.268 OA
ATOM      7  H   UNL     1       2.157  -1.184  -0.354  1.00  0.00     0.163 HD
BRANCH   5   8
ATOM      8  C   UNL     1      -1.048  -1.302   0.854  1.00  0.00     0.178 C 
ATOM      9  C   UNL     1      -1.768  -0.103   0.193  1.00  0.00     0.079 C 
ATOM     10  C   UNL     1      -1.569  -2.498  -0.001  1.00  0.00     0.062 C 
ATOM     11  C   UNL     1      -3.135  -0.632  -0.241  1.00  0.00     0.008 C 
ATOM     12  C   UNL     1      -3.027  -2.156  -0.322  1.00  0.00     0.011 C 
BRANCH   8  13
ATOM     13  N   UNL     1      -1.395  -1.210   2.287  1.00  0.00    -0.336 N 
ATOM     14  C   UNL     1      -2.172  -2.196   2.977  1.00  0.00     0.331 C 
ATOM     15  H   UNL     1      -0.507  -1.157   2.786  1.00  0.00     0.346 HD
ATOM     16  H   UNL     1      -2.035  -0.417   2.286  1.00  0.00     0.346 HD
ENDBRANCH   8  13
BRANCH  10  17
ATOM     17  C   UNL     1      -1.323  -3.917   0.538  1.00  0.00     0.034 C 
BRANCH  17  18
ATOM     18  C   UNL     1      -1.332  -5.028  -0.523  1.00  0.00     0.145 C 
BRANCH  18  19
ATOM     19  N   UNL     1      -0.236  -4.971  -1.477  1.00  0.00    -0.268 N 
ATOM     20  N   UNL     1       0.947  -5.519  -1.122  1.00  0.00    -0.176 NA
ATOM     21  C   UNL     1      -0.242  -4.483  -2.761  1.00  0.00     0.054 A 
ATOM     22  C   UNL     1       1.722  -5.373  -2.206  1.00  0.00     0.078 A 
ATOM     23  C   UNL     1       1.031  -4.708  -3.242  1.00  0.00     0.084 A 
ATOM     24  C   UNL     1      -1.402  -3.850  -3.436  1.00  0.00     0.068 C 
ATOM     25  C   UNL     1       3.107  -5.904  -2.203  1.00  0.00     0.070 C 
ATOM     26  Cl  UNL     1       1.644  -4.291  -4.768  1.00  0.00    -0.080 Cl
ENDBRANCH  18  19
ENDBRANCH  17  18
ENDBRANCH  10  17
ENDBRANCH   5   8
ENDBRANCH   3   4
ENDBRANCH   2   3
ENDBRANCH   1   2
BRANCH   1  27
ATOM     27  C   UNL     1       3.229  -0.491  -3.633  1.00  0.00     0.002 C 
BRANCH  27  28
ATOM     28  C   UNL     1       2.485  -0.455  -4.971  1.00  0.00     0.021 C 
BRANCH  28  29
ATOM     29  C   UNL     1       2.538   0.891  -5.684  1.00  0.00     0.116 C 
BRANCH  29  30
ATOM     30  N   UNL     1       3.901   1.267  -6.028  1.00  0.00    -0.352 N 
ATOM     31  C   UNL     1       4.425   1.599  -7.250  1.00  0.00     0.251 C 
ATOM     32  H   UNL     1       4.537   1.284  -5.276  1.00  0.00     0.163 HD
ATOM     33  O   UNL     1       5.645   1.671  -7.396  1.00  0.00    -0.269 OA
BRANCH  31  34
ATOM     34  C   UNL     1       3.523   1.855  -8.391  1.00  0.00     0.039 A 
ATOM     35  C   UNL     1       3.833   1.306  -9.638  1.00  0.00     0.014 A 
ATOM     36  C   UNL     1       2.377   2.640  -8.232  1.00  0.00     0.014 A 
ATOM     37  C   UNL     1       2.963   1.500 -10.712  1.00  0.00     0.010 A 
ATOM     38  C   UNL     1       1.474   2.768  -9.284  1.00  0.00     0.010 A 
ATOM     39  C   UNL     1       1.760   2.205 -10.537  1.00  0.00    -0.014 A 
BRANCH  39  40
ATOM     40  C   UNL     1       0.790   2.361 -11.651  1.00  0.00     0.031 A 
ATOM     41  C   UNL     1       0.463   3.730 -12.183  1.00  0.00     0.074 A 
ATOM     42  C   UNL     1       0.161   1.275 -12.142  1.00  0.00     0.049 A 
ATOM     43  N   UNL     1      -0.399   4.072 -13.106  1.00  0.00    -0.248 NA
ATOM     44  C   UNL     1       1.179   4.867 -11.582  1.00  0.00     0.031 C 
ATOM     45  C   UNL     1       0.360  -0.100 -11.676  1.00  0.00     0.029 A 
ATOM     46  N   UNL     1      -0.779   1.154 -13.134  1.00  0.00    -0.354 N 
ATOM     47  C   UNL     1      -0.337   5.459 -13.188  1.00  0.00     0.074 A 
ATOM     48  C   UNL     1       0.604   5.899 -12.181  1.00  0.00     0.031 C 
ATOM     49  C   UNL     1      -0.416  -0.926 -12.396  1.00  0.00     0.029 A 
ATOM     50  C   UNL     1      -1.198  -0.139 -13.345  1.00  0.00     0.049 A 
ATOM     51  H   UNL     1      -1.122   1.921 -13.647  1.00  0.00     0.167 HD
ATOM     52  C   UNL     1      -0.988   6.287 -14.040  1.00  0.00     0.037 A 
ATOM     53  C   UNL     1      -2.116  -0.634 -14.197  1.00  0.00     0.037 A 
ATOM     54  C   UNL     1      -1.910   5.838 -15.051  1.00  0.00     0.049 A 
ATOM     55  C   UNL     1      -2.835   0.307 -15.126  1.00  0.00     0.074 A 
ATOM     56  C   UNL     1      -2.578   6.591 -16.000  1.00  0.00     0.029 A 
ATOM     57  N   UNL     1      -2.297   4.519 -15.243  1.00  0.00    -0.354 N 
ATOM     58  N   UNL     1      -2.716   1.609 -15.235  1.00  0.00    -0.248 NA
ATOM     59  C   UNL     1      -3.809  -0.287 -16.052  1.00  0.00     0.031 C 
ATOM     60  C   UNL     1      -3.411   5.736 -16.730  1.00  0.00     0.029 A 
ATOM     61  C   UNL     1      -3.216   4.441 -16.277  1.00  0.00     0.049 A 
ATOM     62  H   UNL     1      -1.968   3.752 -14.720  1.00  0.00     0.167 HD
ATOM     63  C   UNL     1      -3.576   1.986 -16.261  1.00  0.00     0.074 A 
ATOM     64  C   UNL     1      -4.199   0.773 -16.748  1.00  0.00     0.031 C 
ATOM     65  C   UNL     1      -3.825   3.224 -16.756  1.00  0.00     0.037 A 
BRANCH  52  66
ATOM     66  C   UNL     1      -0.728   7.765 -13.915  1.00  0.00     0.058 A 
ATOM     67  C   UNL     1       0.511   8.330 -14.259  1.00  0.00     0.135 A 
ATOM     68  C   UNL     1      -1.743   8.634 -13.483  1.00  0.00     0.135 A 
ATOM     69  F   UNL     1       1.523   7.546 -14.665  1.00  0.00    -0.206 F 
ATOM     70  C   UNL     1       0.744   9.697 -14.150  1.00  0.00     0.059 A 
ATOM     71  C   UNL     1      -1.542  10.009 -13.396  1.00  0.00     0.059 A 
ATOM     72  F   UNL     1      -2.948   8.151 -13.141  1.00  0.00    -0.206 F 
ATOM     73  C   UNL     1      -0.289  10.529 -13.718  1.00  0.00     0.060 A 
BRANCH  73  74
ATOM     74  S   UNL     1       0.029  12.301 -13.588  1.00  0.00     0.124 S 
ATOM     75  O   UNL     1       0.910  12.353 -12.425  1.00  0.00    -0.237 OA
ATOM     76  O   UNL     1       0.657  12.599 -14.871  1.00  0.00    -0.237 OA
ATOM     77  O   UNL     1      -1.299  12.873 -13.394  1.00  0.00    -0.744 OA
ENDBRANCH  73  74
ENDBRANCH  52  66
BRANCH  53  78
ATOM     78  C   UNL     1      -2.395  -2.096 -14.223  1.00  0.00     0.058 A 
ATOM     79  C   UNL     1      -2.022  -2.885 -15.322  1.00  0.00     0.135 A 
ATOM     80  C   UNL     1      -3.029  -2.736 -13.146  1.00  0.00     0.135 A 
ATOM     81  F   UNL     1      -1.419  -2.319 -16.379  1.00  0.00    -0.206 F 
ATOM     82  C   UNL     1      -2.283  -4.250 -15.362  1.00  0.00     0.059 A 
ATOM     83  C   UNL     1      -3.275  -4.105 -13.151  1.00  0.00     0.059 A 
ATOM     84  F   UNL     1      -3.391  -2.031 -12.063  1.00  0.00    -0.206 F 
ATOM     85  C   UNL     1      -2.908  -4.853 -14.269  1.00  0.00     0.060 A 
BRANCH  85  86
ATOM     86  S   UNL     1      -3.204  -6.633 -14.313  1.00  0.00     0.124 S 
ATOM     87  O   UNL     1      -4.278  -6.729 -15.294  1.00  0.00    -0.237 OA
ATOM     88  O   UNL     1      -1.905  -7.148 -14.735  1.00  0.00    -0.237 OA
ATOM     89  O   UNL     1      -3.576  -6.945 -12.936  1.00  0.00    -0.744 OA
ENDBRANCH  85  86
ENDBRANCH  53  78
BRANCH  65  90
ATOM     90  C   UNL     1      -4.786   3.330 -17.909  1.00  0.00     0.058 A 
ATOM     91  C   UNL     1      -6.165   3.130 -17.745  1.00  0.00     0.135 A 
ATOM     92  C   UNL     1      -4.323   3.692 -19.186  1.00  0.00     0.135 A 
ATOM     93  F   UNL     1      -6.660   2.776 -16.549  1.00  0.00    -0.206 F 
ATOM     94  C   UNL     1      -7.050   3.259 -18.812  1.00  0.00     0.059 A 
ATOM     95  C   UNL     1      -5.193   3.858 -20.259  1.00  0.00     0.059 A 
ATOM     96  F   UNL     1      -3.015   3.906 -19.395  1.00  0.00    -0.206 F 
ATOM     97  C   UNL     1      -6.554   3.627 -20.064  1.00  0.00     0.060 A 
BRANCH  97  98
ATOM     98  S   UNL     1      -7.718   3.826 -21.430  1.00  0.00     0.124 S 
ATOM     99  O   UNL     1      -8.074   2.441 -21.717  1.00  0.00    -0.237 OA
ATOM    100  O   UNL     1      -8.769   4.640 -20.827  1.00  0.00    -0.237 OA
ATOM    101  O   UNL     1      -6.926   4.496 -22.457  1.00  0.00    -0.744 OA
ENDBRANCH  97  98
ENDBRANCH  65  90
ENDBRANCH  39  40
ENDBRANCH  31  34
ENDBRANCH  29  30
ENDBRANCH  28  29
ENDBRANCH  27  28
ENDBRANCH   1  27
TORSDOF 20
