REMARK SMILES COc1cccc(/C=C(/CC(=O)NCCCCCCNC(=O)c2ccc(-c3c4nc(c(-c5c(F)cc(S(=O)(=O)[O-])cc5F)c5ccc([nH]5)c(-c5c(F)cc(S(=O)(=O)[O-])cc5F)c5nc(c(-c6c(F)cc(S(=O)(=O)[O-])cc6F)c6ccc3[nH]6)C=C5)C=C4)cc2)c2nc3ccccc3o2)c1
REMARK SMILES IDX 16 1 15 2 14 3 13 4 11 5 12 6 10 8 9 9 8 10 7 11 3 12 4 13
REMARK SMILES IDX 98 14 5 15 6 16 2 17 1 18 89 19 90 20 97 21 91 22 96 23
REMARK SMILES IDX 92 24 95 25 93 26 94 27 17 28 18 29 19 30 20 31 21 32 22 34
REMARK SMILES IDX 23 35 24 36 88 37 25 38 87 39 26 40 27 41 28 42 81 43 29 44
REMARK SMILES IDX 86 45 80 46 82 47 30 48 85 49 79 50 78 51 31 53 65 54 44 55
REMARK SMILES IDX 64 56 45 57 48 58 63 59 83 60 46 61 47 62 62 64 84 65 49 66
REMARK SMILES IDX 32 67 33 68 42 69 34 70 35 71 41 72 43 73 36 74 37 75 38 76
REMARK SMILES IDX 39 77 40 78 66 79 67 80 76 81 68 82 69 83 75 84 77 85 70 86
REMARK SMILES IDX 71 87 72 88 73 89 74 90 50 91 51 92 60 93 52 94 53 95 59 96
REMARK SMILES IDX 61 97 54 98 55 99 56 100 57 101 58 102
REMARK H PARENT 13 7 20 33 82 52 48 63
REMARK Flexibility Score: inf
ROOT
ATOM      1  C   UNL     1       5.568   0.793   6.850  1.00  0.00     0.002 C 
ENDROOT
BRANCH   1   2
ATOM      2  C   UNL     1       5.055  -0.047   5.672  1.00  0.00     0.021 C 
BRANCH   2   3
ATOM      3  C   UNL     1       6.151  -0.751   4.873  1.00  0.00     0.116 C 
BRANCH   3   4
ATOM      4  N   UNL     1       6.794  -1.805   5.632  1.00  0.00    -0.356 N 
ATOM      5  C   UNL     1       6.711  -3.160   5.481  1.00  0.00     0.224 C 
ATOM      6  O   UNL     1       7.412  -3.875   6.201  1.00  0.00    -0.275 OA
ATOM      7  H   UNL     1       7.375  -1.500   6.365  1.00  0.00     0.163 HD
BRANCH   5   8
ATOM      8  C   UNL     1       5.832  -3.760   4.382  1.00  0.00     0.141 C 
BRANCH   8   9
ATOM      9  C   UNL     1       4.335  -3.546   4.612  1.00  0.00     0.025 C 
ATOM     10  C   UNL     1       3.644  -2.884   3.649  1.00  0.00     0.018 C 
BRANCH  10  11
ATOM     11  C   UNL     1       2.284  -2.305   3.488  1.00  0.00    -0.021 A 
ATOM     12  C   UNL     1       0.840  -0.831   2.151  1.00  0.00     0.119 A 
ATOM     13  C   UNL     1      -0.193  -1.013   3.063  1.00  0.00     0.046 A 
ATOM     14  C   UNL     1       2.065  -1.476   2.360  1.00  0.00     0.054 A 
ATOM     15  C   UNL     1      -0.009  -1.836   4.167  1.00  0.00     0.004 A 
ATOM     16  C   UNL     1       1.222  -2.463   4.380  1.00  0.00     0.008 A 
BRANCH  12  17
ATOM     17  O   UNL     1       0.558   0.045   1.141  1.00  0.00    -0.497 OA
ATOM     18  C   UNL     1       1.264  -0.136  -0.080  1.00  0.00     0.278 C 
ENDBRANCH  12  17
ENDBRANCH  10  11
BRANCH   9  19
ATOM     19  C   UNL     1       3.750  -4.005   5.839  1.00  0.00     0.223 A 
ATOM     20  N   UNL     1       4.324  -3.871   7.029  1.00  0.00    -0.210 NA
ATOM     21  O   UNL     1       2.587  -4.759   5.912  1.00  0.00    -0.436 OA
ATOM     22  C   UNL     1       3.510  -4.523   7.910  1.00  0.00     0.110 A 
ATOM     23  C   UNL     1       2.424  -5.040   7.236  1.00  0.00     0.155 A 
ATOM     24  C   UNL     1       3.619  -4.722   9.291  1.00  0.00     0.032 A 
ATOM     25  C   UNL     1       1.373  -5.721   7.837  1.00  0.00     0.049 A 
ATOM     26  C   UNL     1       2.585  -5.414   9.938  1.00  0.00     0.003 A 
ATOM     27  C   UNL     1       1.478  -5.892   9.225  1.00  0.00     0.004 A 
ENDBRANCH   9  19
ENDBRANCH   8   9
ENDBRANCH   5   8
ENDBRANCH   3   4
ENDBRANCH   2   3
ENDBRANCH   1   2
BRANCH   1  28
ATOM     28  C   UNL     1       6.593   1.875   6.492  1.00  0.00     0.002 C 
BRANCH  28  29
ATOM     29  C   UNL     1       6.152   2.864   5.410  1.00  0.00     0.021 C 
BRANCH  29  30
ATOM     30  C   UNL     1       4.904   3.674   5.752  1.00  0.00     0.116 C 
BRANCH  30  31
ATOM     31  N   UNL     1       5.117   4.559   6.888  1.00  0.00    -0.352 N 
ATOM     32  C   UNL     1       4.981   5.924   6.968  1.00  0.00     0.251 C 
ATOM     33  H   UNL     1       5.400   4.115   7.720  1.00  0.00     0.163 HD
ATOM     34  O   UNL     1       5.385   6.527   7.960  1.00  0.00    -0.269 OA
BRANCH  32  35
ATOM     35  C   UNL     1       4.370   6.669   5.846  1.00  0.00     0.039 A 
ATOM     36  C   UNL     1       5.008   7.815   5.364  1.00  0.00     0.014 A 
ATOM     37  C   UNL     1       3.183   6.225   5.258  1.00  0.00     0.014 A 
ATOM     38  C   UNL     1       4.503   8.465   4.235  1.00  0.00     0.010 A 
ATOM     39  C   UNL     1       2.719   6.833   4.095  1.00  0.00     0.010 A 
ATOM     40  C   UNL     1       3.383   7.949   3.562  1.00  0.00    -0.014 A 
BRANCH  40  41
ATOM     41  C   UNL     1       2.918   8.524   2.273  1.00  0.00     0.031 A 
ATOM     42  C   UNL     1       1.553   9.143   2.164  1.00  0.00     0.074 A 
ATOM     43  C   UNL     1       3.696   8.405   1.177  1.00  0.00     0.049 A 
ATOM     44  N   UNL     1       0.932   9.592   1.104  1.00  0.00    -0.248 NA
ATOM     45  C   UNL     1       0.773   9.250   3.408  1.00  0.00     0.031 C 
ATOM     46  C   UNL     1       5.026   7.792   1.148  1.00  0.00     0.029 A 
ATOM     47  N   UNL     1       3.474   8.774  -0.126  1.00  0.00    -0.354 N 
ATOM     48  C   UNL     1      -0.312  10.025   1.547  1.00  0.00     0.074 A 
ATOM     49  C   UNL     1      -0.376   9.741   2.965  1.00  0.00     0.031 C 
ATOM     50  C   UNL     1       5.506   7.839  -0.105  1.00  0.00     0.029 A 
ATOM     51  C   UNL     1       4.502   8.439  -0.978  1.00  0.00     0.049 A 
ATOM     52  H   UNL     1       2.657   9.236  -0.424  1.00  0.00     0.167 HD
ATOM     53  C   UNL     1      -1.302  10.619   0.838  1.00  0.00     0.037 A 
ATOM     54  C   UNL     1       4.615   8.576  -2.313  1.00  0.00     0.037 A 
ATOM     55  C   UNL     1      -1.226  10.905  -0.572  1.00  0.00     0.049 A 
ATOM     56  C   UNL     1       3.486   9.203  -3.085  1.00  0.00     0.074 A 
ATOM     57  C   UNL     1      -2.153  11.554  -1.368  1.00  0.00     0.029 A 
ATOM     58  N   UNL     1      -0.168  10.552  -1.398  1.00  0.00    -0.354 N 
ATOM     59  N   UNL     1       2.342   9.665  -2.640  1.00  0.00    -0.248 NA
ATOM     60  C   UNL     1       3.659   9.325  -4.539  1.00  0.00     0.031 C 
ATOM     61  C   UNL     1      -1.682  11.544  -2.685  1.00  0.00     0.029 A 
ATOM     62  C   UNL     1      -0.435  10.939  -2.701  1.00  0.00     0.049 A 
ATOM     63  H   UNL     1       0.651  10.093  -1.102  1.00  0.00     0.167 HD
ATOM     64  C   UNL     1       1.669  10.153  -3.755  1.00  0.00     0.074 A 
ATOM     65  C   UNL     1       2.539   9.941  -4.893  1.00  0.00     0.031 C 
ATOM     66  C   UNL     1       0.442  10.724  -3.827  1.00  0.00     0.037 A 
BRANCH  53  67
ATOM     67  C   UNL     1      -2.559  10.997   1.576  1.00  0.00     0.058 A 
ATOM     68  C   UNL     1      -2.576  12.039   2.518  1.00  0.00     0.135 A 
ATOM     69  C   UNL     1      -3.769  10.337   1.310  1.00  0.00     0.135 A 
ATOM     70  F   UNL     1      -1.446  12.697   2.820  1.00  0.00    -0.206 F 
ATOM     71  C   UNL     1      -3.741  12.390   3.193  1.00  0.00     0.059 A 
ATOM     72  C   UNL     1      -4.953  10.691   1.952  1.00  0.00     0.059 A 
ATOM     73  F   UNL     1      -3.812   9.335   0.417  1.00  0.00    -0.206 F 
ATOM     74  C   UNL     1      -4.925  11.709   2.904  1.00  0.00     0.060 A 
BRANCH  74  75
ATOM     75  S   UNL     1      -6.426  12.178   3.791  1.00  0.00     0.124 S 
ATOM     76  O   UNL     1      -6.151  11.653   5.125  1.00  0.00    -0.237 OA
ATOM     77  O   UNL     1      -6.418  13.632   3.668  1.00  0.00    -0.237 OA
ATOM     78  O   UNL     1      -7.484  11.495   3.054  1.00  0.00    -0.744 OA
ENDBRANCH  74  75
ENDBRANCH  53  67
BRANCH  54  79
ATOM     79  C   UNL     1       5.848   8.112  -3.004  1.00  0.00     0.058 A 
ATOM     80  C   UNL     1       6.753   9.030  -3.559  1.00  0.00     0.135 A 
ATOM     81  C   UNL     1       6.159   6.746  -3.107  1.00  0.00     0.135 A 
ATOM     82  F   UNL     1       6.497  10.345  -3.495  1.00  0.00    -0.206 F 
ATOM     83  C   UNL     1       7.914   8.612  -4.201  1.00  0.00     0.059 A 
ATOM     84  C   UNL     1       7.327   6.305  -3.720  1.00  0.00     0.059 A 
ATOM     85  F   UNL     1       5.334   5.827  -2.580  1.00  0.00    -0.206 F 
ATOM     86  C   UNL     1       8.195   7.246  -4.271  1.00  0.00     0.060 A 
BRANCH  86  87
ATOM     87  S   UNL     1       9.732   6.718  -5.059  1.00  0.00     0.124 S 
ATOM     88  O   UNL     1       9.446   6.975  -6.465  1.00  0.00    -0.237 OA
ATOM     89  O   UNL     1      10.714   7.598  -4.434  1.00  0.00    -0.237 OA
ATOM     90  O   UNL     1       9.834   5.311  -4.682  1.00  0.00    -0.744 OA
ENDBRANCH  86  87
ENDBRANCH  54  79
BRANCH  66  91
ATOM     91  C   UNL     1      -0.034  11.185  -5.177  1.00  0.00     0.058 A 
ATOM     92  C   UNL     1      -0.443  10.275  -6.164  1.00  0.00     0.135 A 
ATOM     93  C   UNL     1      -0.153  12.556  -5.460  1.00  0.00     0.135 A 
ATOM     94  F   UNL     1      -0.340   8.954  -5.949  1.00  0.00    -0.206 F 
ATOM     95  C   UNL     1      -0.945  10.707  -7.387  1.00  0.00     0.059 A 
ATOM     96  C   UNL     1      -0.678  13.011  -6.665  1.00  0.00     0.059 A 
ATOM     97  F   UNL     1       0.218  13.469  -4.548  1.00  0.00    -0.206 F 
ATOM     98  C   UNL     1      -1.067  12.078  -7.626  1.00  0.00     0.060 A 
BRANCH  98  99
ATOM     99  S   UNL     1      -1.777  12.622  -9.194  1.00  0.00     0.124 S 
ATOM    100  O   UNL     1      -0.701  12.310 -10.129  1.00  0.00    -0.237 OA
ATOM    101  O   UNL     1      -2.970  11.788  -9.300  1.00  0.00    -0.237 OA
ATOM    102  O   UNL     1      -2.030  14.043  -8.979  1.00  0.00    -0.744 OA
ENDBRANCH  98  99
ENDBRANCH  66  91
ENDBRANCH  40  41
ENDBRANCH  32  35
ENDBRANCH  30  31
ENDBRANCH  29  30
ENDBRANCH  28  29
ENDBRANCH   1  28
TORSDOF 20
