REMARK SMILES C[C@@H](NC(=O)c1cc(C(=O)NCCCCCCNC(=O)c2ccc(-c3c4nc(c(-c5c(F)cc(S(=O)(=O)[O-])cc5F)c5ccc([nH]5)c(-c5c(F)cc(S(=O)(=O)[O-])cc5F)c5nc(c(-c6c(F)cc(S(=O)(=O)[O-])cc6F)c6ccc3[nH]6)C=C5)C=C4)cc2)n(C)n1)c1ccccc1
REMARK SMILES IDX 14 1 13 2 12 3 11 4 9 5 10 6 8 8 6 9 7 10 89 11 87 12 88 13
REMARK SMILES IDX 4 14 3 15 5 17 2 18 1 19 90 20 91 21 95 22 92 23 94 24 93 25
REMARK SMILES IDX 15 26 16 27 17 28 18 29 19 30 20 32 21 33 22 34 86 35 23 36
REMARK SMILES IDX 85 37 24 38 25 39 26 40 79 41 27 42 84 43 78 44 80 45 28 46
REMARK SMILES IDX 83 47 77 48 76 49 29 51 63 52 42 53 62 54 43 55 46 56 61 57
REMARK SMILES IDX 81 58 44 59 45 60 60 62 82 63 47 64 30 65 31 66 40 67 32 68
REMARK SMILES IDX 33 69 39 70 41 71 34 72 35 73 36 74 37 75 38 76 64 77 65 78
REMARK SMILES IDX 74 79 66 80 67 81 73 82 75 83 68 84 69 85 70 86 71 87 72 88
REMARK SMILES IDX 48 89 49 90 58 91 50 92 51 93 57 94 59 95 52 96 53 97 54 98
REMARK SMILES IDX 55 99 56 100
REMARK H PARENT 11 7 3 16 18 31 80 50 46 61
REMARK Flexibility Score: inf
ROOT
ATOM      1  C   UNL     1      -8.298  -0.201   1.131  1.00  0.00     0.002 C 
ENDROOT
BRANCH   1   2
ATOM      2  C   UNL     1      -7.084   0.418   1.836  1.00  0.00     0.021 C 
BRANCH   2   3
ATOM      3  C   UNL     1      -6.654  -0.304   3.116  1.00  0.00     0.116 C 
BRANCH   3   4
ATOM      4  N   UNL     1      -5.837  -1.453   2.825  1.00  0.00    -0.351 N 
ATOM      5  C   UNL     1      -4.522  -1.777   2.979  1.00  0.00     0.269 C 
ATOM      6  O   UNL     1      -4.307  -2.979   2.766  1.00  0.00    -0.268 OA
ATOM      7  H   UNL     1      -6.355  -2.183   2.415  1.00  0.00     0.163 HD
BRANCH   5   8
ATOM      8  C   UNL     1      -3.422  -0.894   3.332  1.00  0.00     0.126 A 
ATOM      9  C   UNL     1      -1.255  -0.314   3.572  1.00  0.00     0.151 A 
ATOM     10  C   UNL     1      -2.137  -1.405   3.543  1.00  0.00     0.069 A 
ATOM     11  N   UNL     1      -1.944   0.830   3.609  1.00  0.00    -0.167 NA
ATOM     12  N   UNL     1      -3.230   0.469   3.415  1.00  0.00    -0.262 N 
ATOM     13  C   UNL     1      -4.118   1.585   3.215  1.00  0.00     0.174 C 
BRANCH   9  14
ATOM     14  C   UNL     1       0.197  -0.310   3.548  1.00  0.00     0.272 C 
ATOM     15  N   UNL     1       0.858  -0.287   2.346  1.00  0.00    -0.344 N 
ATOM     16  H   UNL     1       1.745   0.137   2.401  1.00  0.00     0.164 HD
ATOM     17  O   UNL     1       0.876  -0.253   4.581  1.00  0.00    -0.267 OA
BRANCH  15  18
ATOM     18  C   UNL     1       0.528  -0.758   0.997  1.00  0.00     0.109 C 
ATOM     19  C   UNL     1       1.399   0.001  -0.015  1.00  0.00     0.036 C 
BRANCH  18  20
ATOM     20  C   UNL     1      -0.915  -0.746   0.538  1.00  0.00    -0.026 A 
ATOM     21  C   UNL     1      -1.627   0.443   0.320  1.00  0.00     0.006 A 
ATOM     22  C   UNL     1      -1.561  -1.967   0.267  1.00  0.00     0.006 A 
ATOM     23  C   UNL     1      -2.947   0.410  -0.142  1.00  0.00     0.000 A 
ATOM     24  C   UNL     1      -2.881  -1.997  -0.189  1.00  0.00     0.000 A 
ATOM     25  C   UNL     1      -3.574  -0.808  -0.392  1.00  0.00     0.000 A 
ENDBRANCH  18  20
ENDBRANCH  15  18
ENDBRANCH   9  14
ENDBRANCH   5   8
ENDBRANCH   3   4
ENDBRANCH   2   3
ENDBRANCH   1   2
BRANCH   1  26
ATOM     26  C   UNL     1      -9.564  -0.326   1.987  1.00  0.00     0.002 C 
BRANCH  26  27
ATOM     27  C   UNL     1      -9.974   0.943   2.740  1.00  0.00     0.021 C 
BRANCH  27  28
ATOM     28  C   UNL     1     -10.345   2.118   1.841  1.00  0.00     0.116 C 
BRANCH  28  29
ATOM     29  N   UNL     1     -11.573   1.859   1.108  1.00  0.00    -0.352 N 
ATOM     30  C   UNL     1     -12.762   2.543   1.139  1.00  0.00     0.251 C 
ATOM     31  H   UNL     1     -11.549   1.083   0.503  1.00  0.00     0.163 HD
ATOM     32  O   UNL     1     -13.771   2.034   0.653  1.00  0.00    -0.269 OA
BRANCH  30  33
ATOM     33  C   UNL     1     -12.834   3.884   1.760  1.00  0.00     0.039 A 
ATOM     34  C   UNL     1     -13.921   4.196   2.580  1.00  0.00     0.014 A 
ATOM     35  C   UNL     1     -11.850   4.844   1.504  1.00  0.00     0.014 A 
ATOM     36  C   UNL     1     -13.997   5.455   3.182  1.00  0.00     0.010 A 
ATOM     37  C   UNL     1     -11.895   6.076   2.154  1.00  0.00     0.010 A 
ATOM     38  C   UNL     1     -12.973   6.397   2.992  1.00  0.00    -0.014 A 
BRANCH  38  39
ATOM     39  C   UNL     1     -13.018   7.729   3.649  1.00  0.00     0.031 A 
ATOM     40  C   UNL     1     -13.134   8.977   2.814  1.00  0.00     0.074 A 
ATOM     41  C   UNL     1     -12.895   7.818   4.988  1.00  0.00     0.049 A 
ATOM     42  N   UNL     1     -13.099  10.229   3.191  1.00  0.00    -0.248 NA
ATOM     43  C   UNL     1     -13.282   8.793   1.361  1.00  0.00     0.031 C 
ATOM     44  C   UNL     1     -12.731   6.684   5.900  1.00  0.00     0.029 A 
ATOM     45  N   UNL     1     -12.873   8.914   5.815  1.00  0.00    -0.354 N 
ATOM     46  C   UNL     1     -13.211  10.980   2.027  1.00  0.00     0.074 A 
ATOM     47  C   UNL     1     -13.262  10.044   0.925  1.00  0.00     0.031 C 
ATOM     48  C   UNL     1     -12.635   7.142   7.159  1.00  0.00     0.029 A 
ATOM     49  C   UNL     1     -12.697   8.600   7.142  1.00  0.00     0.049 A 
ATOM     50  H   UNL     1     -12.974   9.837   5.489  1.00  0.00     0.167 HD
ATOM     51  C   UNL     1     -13.290  12.325   1.890  1.00  0.00     0.037 A 
ATOM     52  C   UNL     1     -12.586   9.398   8.222  1.00  0.00     0.037 A 
ATOM     53  C   UNL     1     -13.265  13.251   2.992  1.00  0.00     0.049 A 
ATOM     54  C   UNL     1     -12.689  10.889   8.046  1.00  0.00     0.074 A 
ATOM     55  C   UNL     1     -13.372  14.630   2.961  1.00  0.00     0.029 A 
ATOM     56  N   UNL     1     -13.131  12.891   4.325  1.00  0.00    -0.354 N 
ATOM     57  N   UNL     1     -12.838  11.579   6.940  1.00  0.00    -0.248 NA
ATOM     58  C   UNL     1     -12.621  11.711   9.262  1.00  0.00     0.031 C 
ATOM     59  C   UNL     1     -13.274  15.107   4.273  1.00  0.00     0.029 A 
ATOM     60  C   UNL     1     -13.149  14.021   5.125  1.00  0.00     0.049 A 
ATOM     61  H   UNL     1     -13.037  11.968   4.654  1.00  0.00     0.167 HD
ATOM     62  C   UNL     1     -12.910  12.912   7.330  1.00  0.00     0.074 A 
ATOM     63  C   UNL     1     -12.799  12.931   8.774  1.00  0.00     0.031 C 
ATOM     64  C   UNL     1     -13.055  14.020   6.563  1.00  0.00     0.037 A 
BRANCH  51  65
ATOM     65  C   UNL     1     -13.431  12.879   0.499  1.00  0.00     0.058 A 
ATOM     66  C   UNL     1     -14.624  12.735  -0.229  1.00  0.00     0.135 A 
ATOM     67  C   UNL     1     -12.385  13.602  -0.097  1.00  0.00     0.135 A 
ATOM     68  F   UNL     1     -15.650  12.039   0.286  1.00  0.00    -0.206 F 
ATOM     69  C   UNL     1     -14.767  13.268  -1.505  1.00  0.00     0.059 A 
ATOM     70  C   UNL     1     -12.515  14.167  -1.362  1.00  0.00     0.059 A 
ATOM     71  F   UNL     1     -11.223  13.769   0.554  1.00  0.00    -0.206 F 
ATOM     72  C   UNL     1     -13.707  13.985  -2.063  1.00  0.00     0.060 A 
BRANCH  72  73
ATOM     73  S   UNL     1     -13.916  14.685  -3.714  1.00  0.00     0.124 S 
ATOM     74  O   UNL     1     -13.835  13.490  -4.549  1.00  0.00    -0.237 OA
ATOM     75  O   UNL     1     -15.233  15.307  -3.626  1.00  0.00    -0.237 OA
ATOM     76  O   UNL     1     -12.794  15.611  -3.835  1.00  0.00    -0.744 OA
ENDBRANCH  72  73
ENDBRANCH  51  65
BRANCH  52  77
ATOM     77  C   UNL     1     -12.379   8.804   9.570  1.00  0.00     0.058 A 
ATOM     78  C   UNL     1     -13.395   8.831  10.537  1.00  0.00     0.135 A 
ATOM     79  C   UNL     1     -11.162   8.196   9.916  1.00  0.00     0.135 A 
ATOM     80  F   UNL     1     -14.575   9.404  10.253  1.00  0.00    -0.206 F 
ATOM     81  C   UNL     1     -13.205   8.301  11.809  1.00  0.00     0.059 A 
ATOM     82  C   UNL     1     -10.957   7.636  11.173  1.00  0.00     0.059 A 
ATOM     83  F   UNL     1     -10.166   8.125   9.020  1.00  0.00    -0.206 F 
ATOM     84  C   UNL     1     -11.980   7.706  12.118  1.00  0.00     0.060 A 
BRANCH  84  85
ATOM     85  S   UNL     1     -11.753   6.989  13.760  1.00  0.00     0.124 S 
ATOM     86  O   UNL     1     -11.573   8.183  14.577  1.00  0.00    -0.237 OA
ATOM     87  O   UNL     1     -13.005   6.264  13.955  1.00  0.00    -0.237 OA
ATOM     88  O   UNL     1     -10.570   6.149  13.596  1.00  0.00    -0.744 OA
ENDBRANCH  84  85
ENDBRANCH  52  77
BRANCH  64  89
ATOM     89  C   UNL     1     -13.146  15.343   7.268  1.00  0.00     0.058 A 
ATOM     90  C   UNL     1     -12.021  15.952   7.845  1.00  0.00     0.135 A 
ATOM     91  C   UNL     1     -14.367  16.035   7.320  1.00  0.00     0.135 A 
ATOM     92  F   UNL     1     -10.832  15.329   7.827  1.00  0.00    -0.206 F 
ATOM     93  C   UNL     1     -12.107  17.193   8.467  1.00  0.00     0.059 A 
ATOM     94  C   UNL     1     -14.471  17.288   7.915  1.00  0.00     0.059 A 
ATOM     95  F   UNL     1     -15.471  15.501   6.774  1.00  0.00    -0.206 F 
ATOM     96  C   UNL     1     -13.337  17.854   8.496  1.00  0.00     0.060 A 
BRANCH  96  97
ATOM     97  S   UNL     1     -13.429  19.480   9.275  1.00  0.00     0.124 S 
ATOM     98  O   UNL     1     -13.388  19.130  10.691  1.00  0.00    -0.237 OA
ATOM     99  O   UNL     1     -12.240  20.146   8.752  1.00  0.00    -0.237 OA
ATOM    100  O   UNL     1     -14.700  20.014   8.796  1.00  0.00    -0.744 OA
ENDBRANCH  96  97
ENDBRANCH  64  89
ENDBRANCH  38  39
ENDBRANCH  30  33
ENDBRANCH  28  29
ENDBRANCH  27  28
ENDBRANCH  26  27
ENDBRANCH   1  26
TORSDOF 19
