REMARK SMILES Cc1ccc(-c2nc(C)c(C(=O)N3CCC(C(=O)NCCCCCCNC(=O)c4ccc(-c5c6nc(c(-c7c(F)cc(S(=O)(=O)[O-])cc7F)c7ccc([nH]7)c(-c7c(F)cc(S(=O)(=O)[O-])cc7F)c7nc(c(-c8c(F)cc(S(=O)(=O)[O-])cc8F)c8ccc5[nH]8)C=C7)C=C6)cc4)CC3)s2)o1
REMARK SMILES IDX 23 1 22 2 21 3 20 4 19 5 17 6 18 7 16 9 11 10 12 11 13 12
REMARK SMILES IDX 14 13 96 14 15 15 95 16 10 17 6 18 7 19 97 20 8 21 9 22 5 23
REMARK SMILES IDX 1 24 2 25 3 26 98 27 4 28 24 29 25 30 26 31 27 32 28 34
REMARK SMILES IDX 29 35 30 36 94 37 31 38 93 39 32 40 33 41 34 42 87 43 35 44
REMARK SMILES IDX 92 45 86 46 88 47 36 48 91 49 85 50 84 51 37 53 71 54 50 55
REMARK SMILES IDX 70 56 51 57 54 58 69 59 89 60 52 61 53 62 68 64 90 65 55 66
REMARK SMILES IDX 38 67 39 68 48 69 40 70 41 71 47 72 49 73 42 74 43 75 44 76
REMARK SMILES IDX 45 77 46 78 72 79 73 80 82 81 74 82 75 83 81 84 83 85 76 86
REMARK SMILES IDX 77 87 78 88 79 89 80 90 56 91 57 92 66 93 58 94 59 95 65 96
REMARK SMILES IDX 67 97 60 98 61 99 62 100 63 101 64 102
REMARK H PARENT 19 8 26 33 88 52 54 63
REMARK Flexibility Score: inf
ROOT
ATOM      1  C   UNL     1     -12.731   3.741   2.502  1.00  0.00     0.002 C 
ENDROOT
BRANCH   1   2
ATOM      2  C   UNL     1     -12.070   5.075   2.860  1.00  0.00     0.002 C 
BRANCH   2   3
ATOM      3  C   UNL     1     -10.562   5.134   2.602  1.00  0.00     0.021 C 
BRANCH   3   4
ATOM      4  C   UNL     1     -10.171   4.803   1.165  1.00  0.00     0.116 C 
BRANCH   4   5
ATOM      5  N   UNL     1     -10.580   5.860   0.253  1.00  0.00    -0.356 N 
ATOM      6  C   UNL     1      -9.846   6.659  -0.566  1.00  0.00     0.223 C 
ATOM      7  O   UNL     1     -10.434   7.524  -1.219  1.00  0.00    -0.275 OA
ATOM      8  H   UNL     1     -11.550   6.024   0.224  1.00  0.00     0.163 HD
BRANCH   6   9
ATOM      9  C   UNL     1      -8.342   6.486  -0.697  1.00  0.00     0.082 C 
ATOM     10  C   UNL     1      -5.358   4.083   0.814  1.00  0.00     0.265 C 
ATOM     11  O   UNL     1      -5.650   4.006   2.009  1.00  0.00    -0.268 OA
ATOM     12  N   UNL     1      -5.961   5.068   0.033  1.00  0.00    -0.338 N 
ATOM     13  C   UNL     1      -6.159   6.391   0.598  1.00  0.00     0.120 C 
ATOM     14  C   UNL     1      -6.508   4.833  -1.294  1.00  0.00     0.120 C 
ATOM     15  C   UNL     1      -7.616   6.811   0.616  1.00  0.00     0.035 C 
ATOM     16  C   UNL     1      -8.001   5.123  -1.323  1.00  0.00     0.035 C 
BRANCH  10  17
ATOM     17  C   UNL     1      -4.308   3.278   0.202  1.00  0.00     0.115 A 
ATOM     18  C   UNL     1      -2.515   1.661  -0.117  1.00  0.00     0.159 A 
ATOM     19  N   UNL     1      -2.435   2.603  -1.028  1.00  0.00    -0.237 NA
ATOM     20  S   UNL     1      -3.858   1.778   0.935  1.00  0.00    -0.105 S 
ATOM     21  C   UNL     1      -3.438   3.541  -0.851  1.00  0.00     0.062 A 
ATOM     22  C   UNL     1      -3.377   4.714  -1.759  1.00  0.00     0.068 C 
BRANCH  18  23
ATOM     23  C   UNL     1      -1.499   0.654  -0.001  1.00  0.00     0.162 A 
ATOM     24  C   UNL     1       2.020  -0.043  -0.008  1.00  0.00     0.087 C 
ATOM     25  C   UNL     1       0.551  -0.184   0.039  1.00  0.00     0.101 A 
ATOM     26  C   UNL     1      -0.302  -1.252   0.197  1.00  0.00     0.046 A 
ATOM     27  O   UNL     1      -0.162   0.964  -0.099  1.00  0.00    -0.459 OA
ATOM     28  C   UNL     1      -1.615  -0.714   0.188  1.00  0.00     0.054 A 
ENDBRANCH  18  23
ENDBRANCH  10  17
ENDBRANCH   6   9
ENDBRANCH   4   5
ENDBRANCH   3   4
ENDBRANCH   2   3
ENDBRANCH   1   2
BRANCH   1  29
ATOM     29  C   UNL     1     -12.089   2.506   3.140  1.00  0.00     0.021 C 
BRANCH  29  30
ATOM     30  C   UNL     1     -12.011   2.543   4.664  1.00  0.00     0.116 C 
BRANCH  30  31
ATOM     31  N   UNL     1     -13.325   2.671   5.271  1.00  0.00    -0.352 N 
ATOM     32  C   UNL     1     -13.921   1.902   6.235  1.00  0.00     0.251 C 
ATOM     33  H   UNL     1     -13.868   3.423   4.939  1.00  0.00     0.163 HD
ATOM     34  O   UNL     1     -15.119   2.045   6.470  1.00  0.00    -0.269 OA
BRANCH  32  35
ATOM     35  C   UNL     1     -13.134   0.894   6.977  1.00  0.00     0.039 A 
ATOM     36  C   UNL     1     -13.709  -0.356   7.220  1.00  0.00     0.014 A 
ATOM     37  C   UNL     1     -11.849   1.178   7.450  1.00  0.00     0.014 A 
ATOM     38  C   UNL     1     -12.975  -1.335   7.890  1.00  0.00     0.010 A 
ATOM     39  C   UNL     1     -11.091   0.176   8.053  1.00  0.00     0.010 A 
ATOM     40  C   UNL     1     -11.647  -1.090   8.283  1.00  0.00    -0.014 A 
BRANCH  40  41
ATOM     41  C   UNL     1     -10.836  -2.168   8.905  1.00  0.00     0.031 A 
ATOM     42  C   UNL     1     -10.346  -2.046  10.321  1.00  0.00     0.074 A 
ATOM     43  C   UNL     1     -10.517  -3.252   8.171  1.00  0.00     0.049 A 
ATOM     44  N   UNL     1      -9.650  -2.899  11.028  1.00  0.00    -0.248 NA
ATOM     45  C   UNL     1     -10.656  -0.794  11.029  1.00  0.00     0.031 C 
ATOM     46  C   UNL     1     -10.874  -3.452   6.764  1.00  0.00     0.029 A 
ATOM     47  N   UNL     1      -9.822  -4.387   8.501  1.00  0.00    -0.354 N 
ATOM     48  C   UNL     1      -9.442  -2.292  12.262  1.00  0.00     0.074 A 
ATOM     49  C   UNL     1     -10.030  -0.972  12.183  1.00  0.00     0.031 C 
ATOM     50  C   UNL     1     -10.423  -4.651   6.362  1.00  0.00     0.029 A 
ATOM     51  C   UNL     1      -9.719  -5.290   7.469  1.00  0.00     0.049 A 
ATOM     52  H   UNL     1      -9.434  -4.542   9.393  1.00  0.00     0.167 HD
ATOM     53  C   UNL     1      -8.842  -2.799  13.366  1.00  0.00     0.037 A 
ATOM     54  C   UNL     1      -9.126  -6.498   7.418  1.00  0.00     0.037 A 
ATOM     55  C   UNL     1      -8.259  -4.115  13.436  1.00  0.00     0.049 A 
ATOM     56  C   UNL     1      -8.475  -7.045   8.658  1.00  0.00     0.074 A 
ATOM     57  C   UNL     1      -7.668  -4.741  14.520  1.00  0.00     0.029 A 
ATOM     58  N   UNL     1      -8.185  -5.008  12.375  1.00  0.00    -0.354 N 
ATOM     59  N   UNL     1      -8.354  -6.487   9.840  1.00  0.00    -0.248 NA
ATOM     60  C   UNL     1      -7.893  -8.389   8.562  1.00  0.00     0.031 C 
ATOM     61  C   UNL     1      -7.197  -5.991  14.103  1.00  0.00     0.029 A 
ATOM     62  C   UNL     1      -7.540  -6.169  12.773  1.00  0.00     0.049 A 
ATOM     63  H   UNL     1      -8.540  -4.841  11.472  1.00  0.00     0.167 HD
ATOM     64  C   UNL     1      -7.692  -7.418  10.632  1.00  0.00     0.074 A 
ATOM     65  C   UNL     1      -7.466  -8.584   9.802  1.00  0.00     0.031 C 
ATOM     66  C   UNL     1      -7.303  -7.315  11.928  1.00  0.00     0.037 A 
BRANCH  53  67
ATOM     67  C   UNL     1      -8.791  -1.923  14.591  1.00  0.00     0.058 A 
ATOM     68  C   UNL     1      -9.953  -1.600  15.313  1.00  0.00     0.135 A 
ATOM     69  C   UNL     1      -7.570  -1.417  15.064  1.00  0.00     0.135 A 
ATOM     70  F   UNL     1     -11.151  -2.044  14.901  1.00  0.00    -0.206 F 
ATOM     71  C   UNL     1      -9.910  -0.778  16.434  1.00  0.00     0.059 A 
ATOM     72  C   UNL     1      -7.499  -0.618  16.202  1.00  0.00     0.059 A 
ATOM     73  F   UNL     1      -6.427  -1.695  14.417  1.00  0.00    -0.206 F 
ATOM     74  C   UNL     1      -8.678  -0.289  16.870  1.00  0.00     0.060 A 
BRANCH  74  75
ATOM     75  S   UNL     1      -8.642   0.782  18.323  1.00  0.00     0.124 S 
ATOM     76  O   UNL     1      -9.213   2.015  17.790  1.00  0.00    -0.237 OA
ATOM     77  O   UNL     1      -9.480   0.054  19.270  1.00  0.00    -0.237 OA
ATOM     78  O   UNL     1      -7.224   0.845  18.665  1.00  0.00    -0.744 OA
ENDBRANCH  74  75
ENDBRANCH  53  67
BRANCH  54  79
ATOM     79  C   UNL     1      -9.148  -7.275   6.151  1.00  0.00     0.058 A 
ATOM     80  C   UNL     1      -9.935  -8.428   6.019  1.00  0.00     0.135 A 
ATOM     81  C   UNL     1      -8.412  -6.854   5.032  1.00  0.00     0.135 A 
ATOM     82  F   UNL     1     -10.653  -8.873   7.061  1.00  0.00    -0.206 F 
ATOM     83  C   UNL     1      -9.986  -9.143   4.827  1.00  0.00     0.059 A 
ATOM     84  C   UNL     1      -8.467  -7.537   3.821  1.00  0.00     0.059 A 
ATOM     85  F   UNL     1      -7.658  -5.746   5.100  1.00  0.00    -0.206 F 
ATOM     86  C   UNL     1      -9.252  -8.685   3.731  1.00  0.00     0.060 A 
BRANCH  86  87
ATOM     87  S   UNL     1      -9.379  -9.580   2.167  1.00  0.00     0.124 S 
ATOM     88  O   UNL     1      -8.608 -10.784   2.453  1.00  0.00    -0.237 OA
ATOM     89  O   UNL     1     -10.821  -9.761   2.034  1.00  0.00    -0.237 OA
ATOM     90  O   UNL     1      -8.780  -8.659   1.205  1.00  0.00    -0.744 OA
ENDBRANCH  86  87
ENDBRANCH  54  79
BRANCH  66  91
ATOM     91  C   UNL     1      -6.596  -8.503  12.524  1.00  0.00     0.058 A 
ATOM     92  C   UNL     1      -5.295  -8.858  12.134  1.00  0.00     0.135 A 
ATOM     93  C   UNL     1      -7.224  -9.293  13.501  1.00  0.00     0.135 A 
ATOM     94  F   UNL     1      -4.649  -8.140  11.201  1.00  0.00    -0.206 F 
ATOM     95  C   UNL     1      -4.659  -9.979  12.657  1.00  0.00     0.059 A 
ATOM     96  C   UNL     1      -6.595 -10.401  14.060  1.00  0.00     0.059 A 
ATOM     97  F   UNL     1      -8.463  -8.992  13.921  1.00  0.00    -0.206 F 
ATOM     98  C   UNL     1      -5.320 -10.748  13.616  1.00  0.00     0.060 A 
BRANCH  98  99
ATOM     99  S   UNL     1      -4.489 -12.206  14.281  1.00  0.00     0.124 S 
ATOM    100  O   UNL     1      -4.601 -13.141  13.167  1.00  0.00    -0.237 OA
ATOM    101  O   UNL     1      -3.145 -11.704  14.554  1.00  0.00    -0.237 OA
ATOM    102  O   UNL     1      -5.279 -12.539  15.463  1.00  0.00    -0.744 OA
ENDBRANCH  98  99
ENDBRANCH  66  91
ENDBRANCH  40  41
ENDBRANCH  32  35
ENDBRANCH  30  31
ENDBRANCH  29  30
ENDBRANCH   1  29
TORSDOF 18
