REMARK SMILES Cc1cc(Br)cc2c1O[C@H](C(F)(F)F)C(C(=O)NCCCCCCNC(=O)c1ccc(-c3c4nc(c(-c5c(F)cc(S(=O)(=O)[O-])cc5F)c5ccc([nH]5)c(-c5c(F)cc(S(=O)(=O)[O-])cc5F)c5nc(c(-c6c(F)cc(S(=O)(=O)[O-])cc6F)c6ccc3[nH]6)C=C5)C=C4)cc1)=C2
REMARK SMILES IDX 22 1 21 2 20 3 19 4 18 5 16 6 17 7 15 9 1 10 2 11 3 12 8 13
REMARK SMILES IDX 4 14 7 15 9 16 5 17 6 18 94 19 10 20 11 21 12 22 13 23 14 24
REMARK SMILES IDX 23 25 24 26 25 27 26 28 27 30 28 31 29 32 93 33 30 34 92 35
REMARK SMILES IDX 31 36 32 37 33 38 86 39 34 40 91 41 85 42 87 43 35 44 90 45
REMARK SMILES IDX 84 46 83 47 36 49 70 50 49 51 69 52 50 53 53 54 68 55 88 56
REMARK SMILES IDX 51 57 52 58 67 60 89 61 54 62 37 63 38 64 47 65 39 66 40 67
REMARK SMILES IDX 46 68 48 69 41 70 42 71 43 72 44 73 45 74 71 75 72 76 81 77
REMARK SMILES IDX 73 78 74 79 80 80 82 81 75 82 76 83 77 84 78 85 79 86 55 87
REMARK SMILES IDX 56 88 65 89 57 90 58 91 64 92 66 93 59 94 60 95 61 96 62 97
REMARK SMILES IDX 63 98
REMARK H PARENT 18 8 25 29 87 48 53 59
REMARK Flexibility Score: inf
ROOT
ATOM      1  C   UNL     1       3.574  -8.931   3.104  1.00  0.00     0.002 C 
ENDROOT
BRANCH   1   2
ATOM      2  C   UNL     1       2.099  -8.770   2.713  1.00  0.00     0.002 C 
BRANCH   2   3
ATOM      3  C   UNL     1       1.652  -7.335   2.413  1.00  0.00     0.021 C 
BRANCH   3   4
ATOM      4  C   UNL     1       2.466  -6.649   1.321  1.00  0.00     0.116 C 
BRANCH   4   5
ATOM      5  N   UNL     1       1.966  -6.971  -0.004  1.00  0.00    -0.352 N 
ATOM      6  C   UNL     1       1.459  -6.298  -1.063  1.00  0.00     0.251 C 
ATOM      7  O   UNL     1       1.163  -7.001  -2.036  1.00  0.00    -0.270 OA
ATOM      8  H   UNL     1       2.007  -7.939  -0.179  1.00  0.00     0.163 HD
BRANCH   6   9
ATOM      9  C   UNL     1       1.242  -4.821  -1.130  1.00  0.00     0.067 C 
ATOM     10  C   UNL     1       0.750   0.225  -0.311  1.00  0.00     0.048 C 
ATOM     11  C   UNL     1       0.398  -0.706  -1.437  1.00  0.00    -0.007 A 
ATOM     12  C   UNL     1      -0.150  -0.210  -2.626  1.00  0.00     0.023 A 
ATOM     13  C   UNL     1       0.641  -2.083  -1.328  1.00  0.00     0.130 A 
ATOM     14  C   UNL     1      -0.462  -1.082  -3.669  1.00  0.00     0.019 A 
ATOM     15  C   UNL     1       0.326  -2.958  -2.370  1.00  0.00     0.019 A 
ATOM     16  O   UNL     1       1.150  -2.525  -0.142  1.00  0.00    -0.475 OA
ATOM     17  Br  UNL     1      -1.214  -0.399  -5.264  1.00  0.00    -0.051 Br
ATOM     18  C   UNL     1      -0.230  -2.452  -3.548  1.00  0.00     0.027 A 
ATOM     19  C   UNL     1       0.552  -4.388  -2.202  1.00  0.00     0.025 C 
ATOM     20  C   UNL     1       1.775  -3.835  -0.128  1.00  0.00     0.314 C 
BRANCH  20  21
ATOM     21  C   UNL     1       3.301  -3.660  -0.213  1.00  0.00     0.429 C 
ATOM     22  F   UNL     1       3.770  -3.030   0.891  1.00  0.00    -0.167 F 
ATOM     23  F   UNL     1       3.957  -4.842  -0.287  1.00  0.00    -0.167 F 
ATOM     24  F   UNL     1       3.677  -2.933  -1.289  1.00  0.00    -0.167 F 
ENDBRANCH  20  21
ENDBRANCH   6   9
ENDBRANCH   4   5
ENDBRANCH   3   4
ENDBRANCH   2   3
ENDBRANCH   1   2
BRANCH   1  25
ATOM     25  C   UNL     1       4.081  -7.969   4.182  1.00  0.00     0.021 C 
BRANCH  25  26
ATOM     26  C   UNL     1       3.300  -8.010   5.490  1.00  0.00     0.116 C 
BRANCH  26  27
ATOM     27  N   UNL     1       3.381  -9.312   6.129  1.00  0.00    -0.352 N 
ATOM     28  C   UNL     1       3.887  -9.639   7.362  1.00  0.00     0.251 C 
ATOM     29  H   UNL     1       3.022 -10.065   5.606  1.00  0.00     0.163 HD
ATOM     30  O   UNL     1       4.066 -10.816   7.661  1.00  0.00    -0.269 OA
BRANCH  28  31
ATOM     31  C   UNL     1       4.230  -8.565   8.316  1.00  0.00     0.039 A 
ATOM     32  C   UNL     1       5.461  -8.612   8.973  1.00  0.00     0.014 A 
ATOM     33  C   UNL     1       3.336  -7.517   8.562  1.00  0.00     0.014 A 
ATOM     34  C   UNL     1       5.813  -7.583   9.847  1.00  0.00     0.010 A 
ATOM     35  C   UNL     1       3.719  -6.457   9.378  1.00  0.00     0.010 A 
ATOM     36  C   UNL     1       4.954  -6.488  10.041  1.00  0.00    -0.014 A 
BRANCH  36  37
ATOM     37  C   UNL     1       5.324  -5.394  10.972  1.00  0.00     0.031 A 
ATOM     38  C   UNL     1       4.540  -5.195  12.241  1.00  0.00     0.074 A 
ATOM     39  C   UNL     1       6.356  -4.581  10.674  1.00  0.00     0.049 A 
ATOM     40  N   UNL     1       4.725  -4.318  13.193  1.00  0.00    -0.248 NA
ATOM     41  C   UNL     1       3.386  -6.082  12.461  1.00  0.00     0.031 C 
ATOM     42  C   UNL     1       7.160  -4.651   9.451  1.00  0.00     0.029 A 
ATOM     43  N   UNL     1       6.915  -3.544  11.378  1.00  0.00    -0.354 N 
ATOM     44  C   UNL     1       3.720  -4.553  14.123  1.00  0.00     0.074 A 
ATOM     45  C   UNL     1       2.884  -5.604  13.590  1.00  0.00     0.031 C 
ATOM     46  C   UNL     1       8.134  -3.727   9.512  1.00  0.00     0.029 A 
ATOM     47  C   UNL     1       8.010  -2.984  10.762  1.00  0.00     0.049 A 
ATOM     48  H   UNL     1       6.564  -3.231  12.243  1.00  0.00     0.167 HD
ATOM     49  C   UNL     1       3.535  -3.975  15.332  1.00  0.00     0.037 A 
ATOM     50  C   UNL     1       8.827  -1.992  11.168  1.00  0.00     0.037 A 
ATOM     51  C   UNL     1       4.390  -2.953  15.872  1.00  0.00     0.049 A 
ATOM     52  C   UNL     1       8.583  -1.343  12.504  1.00  0.00     0.074 A 
ATOM     53  C   UNL     1       4.323  -2.344  17.112  1.00  0.00     0.029 A 
ATOM     54  N   UNL     1       5.470  -2.393  15.205  1.00  0.00    -0.354 N 
ATOM     55  N   UNL     1       7.670  -1.628  13.401  1.00  0.00    -0.248 NA
ATOM     56  C   UNL     1       9.473  -0.236  12.882  1.00  0.00     0.031 C 
ATOM     57  C   UNL     1       5.340  -1.388  17.181  1.00  0.00     0.029 A 
ATOM     58  C   UNL     1       6.061  -1.425  15.997  1.00  0.00     0.049 A 
ATOM     59  H   UNL     1       5.770  -2.646  14.303  1.00  0.00     0.167 HD
ATOM     60  C   UNL     1       7.883  -0.746  14.454  1.00  0.00     0.074 A 
ATOM     61  C   UNL     1       9.021   0.073  14.090  1.00  0.00     0.031 C 
ATOM     62  C   UNL     1       7.196  -0.623  15.616  1.00  0.00     0.037 A 
BRANCH  49  63
ATOM     63  C   UNL     1       2.385  -4.459  16.168  1.00  0.00     0.058 A 
ATOM     64  C   UNL     1       2.415  -5.720  16.785  1.00  0.00     0.135 A 
ATOM     65  C   UNL     1       1.265  -3.644  16.395  1.00  0.00     0.135 A 
ATOM     66  F   UNL     1       3.456  -6.545  16.586  1.00  0.00    -0.206 F 
ATOM     67  C   UNL     1       1.366  -6.166  17.579  1.00  0.00     0.059 A 
ATOM     68  C   UNL     1       0.214  -4.060  17.207  1.00  0.00     0.059 A 
ATOM     69  F   UNL     1       1.185  -2.430  15.827  1.00  0.00    -0.206 F 
ATOM     70  C   UNL     1       0.269  -5.328  17.786  1.00  0.00     0.060 A 
BRANCH  70  71
ATOM     71  S   UNL     1      -1.077  -5.921  18.831  1.00  0.00     0.124 S 
ATOM     72  O   UNL     1      -1.681  -6.940  17.978  1.00  0.00    -0.237 OA
ATOM     73  O   UNL     1      -0.365  -6.418  20.004  1.00  0.00    -0.237 OA
ATOM     74  O   UNL     1      -1.888  -4.728  19.052  1.00  0.00    -0.744 OA
ENDBRANCH  70  71
ENDBRANCH  49  63
BRANCH  50  75
ATOM     75  C   UNL     1       9.976  -1.581  10.319  1.00  0.00     0.058 A 
ATOM     76  C   UNL     1      11.291  -1.890  10.694  1.00  0.00     0.135 A 
ATOM     77  C   UNL     1       9.785  -0.890   9.113  1.00  0.00     0.135 A 
ATOM     78  F   UNL     1      11.525  -2.544  11.842  1.00  0.00    -0.206 F 
ATOM     79  C   UNL     1      12.379  -1.521   9.910  1.00  0.00     0.059 A 
ATOM     80  C   UNL     1      10.855  -0.527   8.300  1.00  0.00     0.059 A 
ATOM     81  F   UNL     1       8.544  -0.583   8.702  1.00  0.00    -0.206 F 
ATOM     82  C   UNL     1      12.150  -0.842   8.712  1.00  0.00     0.060 A 
BRANCH  82  83
ATOM     83  S   UNL     1      13.568  -0.409   7.679  1.00  0.00     0.124 S 
ATOM     84  O   UNL     1      14.186   0.657   8.460  1.00  0.00    -0.237 OA
ATOM     85  O   UNL     1      14.302  -1.670   7.626  1.00  0.00    -0.237 OA
ATOM     86  O   UNL     1      12.954   0.004   6.421  1.00  0.00    -0.744 OA
ENDBRANCH  82  83
ENDBRANCH  50  75
BRANCH  62  87
ATOM     87  C   UNL     1       7.635   0.438  16.583  1.00  0.00     0.058 A 
ATOM     88  C   UNL     1       7.310   1.785  16.372  1.00  0.00     0.135 A 
ATOM     89  C   UNL     1       8.267   0.090  17.788  1.00  0.00     0.135 A 
ATOM     90  F   UNL     1       6.714   2.167  15.232  1.00  0.00    -0.206 F 
ATOM     91  C   UNL     1       7.584   2.754  17.331  1.00  0.00     0.059 A 
ATOM     92  C   UNL     1       8.531   1.040  18.770  1.00  0.00     0.059 A 
ATOM     93  F   UNL     1       8.590  -1.188  18.037  1.00  0.00    -0.206 F 
ATOM     94  C   UNL     1       8.181   2.369  18.533  1.00  0.00     0.060 A 
BRANCH  94  95
ATOM     95  S   UNL     1       8.437   3.623  19.806  1.00  0.00     0.124 S 
ATOM     96  O   UNL     1       9.520   4.413  19.229  1.00  0.00    -0.237 OA
ATOM     97  O   UNL     1       7.134   4.279  19.862  1.00  0.00    -0.237 OA
ATOM     98  O   UNL     1       8.791   2.843  20.988  1.00  0.00    -0.744 OA
ENDBRANCH  94  95
ENDBRANCH  62  87
ENDBRANCH  36  37
ENDBRANCH  28  31
ENDBRANCH  26  27
ENDBRANCH  25  26
ENDBRANCH   1  25
TORSDOF 17
