REMARK SMILES O=C(NCCCCCCNC(=O)c1ccc(-n2cc(CSc3nc4ccccc4c(=O)n3-c3ccccc3)nn2)cc1)c1ccc(-c2c3nc(c(-c4c(F)cc(S(=O)(=O)[O-])cc4F)c4ccc([nH]4)c(-c4c(F)cc(S(=O)(=O)[O-])cc4F)c4nc(c(-c5c(F)cc(S(=O)(=O)[O-])cc5F)c5ccc2[nH]5)C=C4)C=C3)cc1
REMARK SMILES IDX 7 1 6 2 5 3 4 4 3 5 1 6 2 7 43 9 44 10 108 11 45 12 107 13
REMARK SMILES IDX 46 14 47 15 48 16 101 17 49 18 106 19 100 20 102 21 50 22
REMARK SMILES IDX 105 23 99 24 98 25 51 27 85 28 64 29 84 30 65 31 68 32 83 33
REMARK SMILES IDX 103 34 66 35 67 36 82 38 104 39 69 40 52 41 53 42 62 43
REMARK SMILES IDX 54 44 55 45 61 46 63 47 56 48 57 49 58 50 59 51 60 52 86 53
REMARK SMILES IDX 87 54 96 55 88 56 89 57 95 58 97 59 90 60 91 61 92 62 93 63
REMARK SMILES IDX 94 64 70 65 71 66 80 67 72 68 73 69 79 70 81 71 74 72 75 73
REMARK SMILES IDX 76 74 77 75 78 76 8 77 9 78 10 79 11 80 12 82 13 83 14 84
REMARK SMILES IDX 42 85 15 86 41 87 16 88 17 89 18 90 40 91 19 92 39 93 20 94
REMARK SMILES IDX 21 95 22 96 23 97 32 98 24 99 30 100 25 101 29 102 31 103
REMARK SMILES IDX 26 104 28 105 27 106 33 107 34 108 38 109 35 110 37 111
REMARK SMILES IDX 36 112
REMARK H PARENT 3 8 102 26 68 37 10 81
REMARK Flexibility Score: inf
ROOT
ATOM      1  C   UNL     1       4.816   1.026   4.067  1.00  0.00     0.002 C 
ENDROOT
BRANCH   1   2
ATOM      2  C   UNL     1       4.269   1.982   3.000  1.00  0.00     0.002 C 
BRANCH   2   3
ATOM      3  C   UNL     1       4.795   1.787   1.572  1.00  0.00     0.021 C 
BRANCH   3   4
ATOM      4  C   UNL     1       4.587   0.392   0.985  1.00  0.00     0.116 C 
BRANCH   4   5
ATOM      5  N   UNL     1       3.201  -0.023   0.919  1.00  0.00    -0.352 N 
ATOM      6  O   UNL     1       1.130  -0.448   0.305  1.00  0.00    -0.269 OA
ATOM      7  C   UNL     1       2.161   0.184   0.054  1.00  0.00     0.251 C 
ATOM      8  H   UNL     1       2.946  -0.593   1.681  1.00  0.00     0.163 HD
BRANCH   7   9
ATOM      9  C   UNL     1       2.164   1.112  -1.115  1.00  0.00     0.039 A 
ATOM     10  C   UNL     1       3.284   1.735  -1.666  1.00  0.00     0.014 A 
ATOM     11  C   UNL     1       0.909   1.355  -1.713  1.00  0.00     0.014 A 
ATOM     12  C   UNL     1       3.149   2.592  -2.762  1.00  0.00     0.010 A 
ATOM     13  C   UNL     1       0.771   2.206  -2.810  1.00  0.00     0.010 A 
ATOM     14  C   UNL     1       1.894   2.835  -3.334  1.00  0.00    -0.014 A 
BRANCH  14  15
ATOM     15  C   UNL     1       1.842   3.607  -4.580  1.00  0.00     0.031 A 
ATOM     16  C   UNL     1       2.510   2.963  -5.749  1.00  0.00     0.074 A 
ATOM     17  C   UNL     1       1.134   4.737  -4.783  1.00  0.00     0.049 A 
ATOM     18  N   UNL     1       3.549   3.370  -6.405  1.00  0.00    -0.248 NA
ATOM     19  C   UNL     1       2.000   1.657  -6.190  1.00  0.00     0.031 C 
ATOM     20  C   UNL     1       0.147   5.353  -3.897  1.00  0.00     0.029 A 
ATOM     21  N   UNL     1       1.091   5.531  -5.897  1.00  0.00    -0.354 N 
ATOM     22  C   UNL     1       3.708   2.482  -7.469  1.00  0.00     0.074 A 
ATOM     23  C   UNL     1       2.823   1.377  -7.202  1.00  0.00     0.031 C 
ATOM     24  C   UNL     1      -0.537   6.298  -4.582  1.00  0.00     0.029 A 
ATOM     25  C   UNL     1       0.046   6.447  -5.907  1.00  0.00     0.049 A 
ATOM     26  H   UNL     1       1.744   5.459  -6.630  1.00  0.00     0.167 HD
ATOM     27  C   UNL     1       4.411   2.813  -8.588  1.00  0.00     0.037 A 
ATOM     28  C   UNL     1      -0.345   7.232  -6.945  1.00  0.00     0.037 A 
ATOM     29  C   UNL     1       5.259   3.956  -8.359  1.00  0.00     0.049 A 
ATOM     30  C   UNL     1       0.796   7.340  -7.889  1.00  0.00     0.074 A 
ATOM     31  C   UNL     1       6.272   4.260  -7.469  1.00  0.00     0.029 A 
ATOM     32  N   UNL     1       4.901   5.152  -8.930  1.00  0.00    -0.354 N 
ATOM     33  N   UNL     1       1.899   7.991  -7.646  1.00  0.00    -0.248 NA
ATOM     34  C   UNL     1       0.855   6.410  -9.005  1.00  0.00     0.031 C 
ATOM     35  C   UNL     1       6.122   5.651  -7.197  1.00  0.00     0.029 A 
ATOM     36  C   UNL     1       5.058   6.116  -7.970  1.00  0.00     0.049 A 
ATOM     37  H   UNL     1       4.590   5.290  -9.854  1.00  0.00     0.167 HD
ATOM     38  C   UNL     1       2.888   7.259  -8.282  1.00  0.00     0.074 A 
ATOM     39  C   UNL     1       2.175   6.373  -9.195  1.00  0.00     0.031 C 
ATOM     40  C   UNL     1       4.169   7.245  -7.812  1.00  0.00     0.037 A 
BRANCH  27  41
ATOM     41  C   UNL     1       4.088   2.331  -9.990  1.00  0.00     0.058 A 
ATOM     42  C   UNL     1       4.962   2.657 -11.051  1.00  0.00     0.135 A 
ATOM     43  C   UNL     1       2.824   1.835 -10.380  1.00  0.00     0.135 A 
ATOM     44  F   UNL     1       6.194   3.129 -10.803  1.00  0.00    -0.206 F 
ATOM     45  C   UNL     1       4.572   2.598 -12.390  1.00  0.00     0.059 A 
ATOM     46  C   UNL     1       2.437   1.714 -11.711  1.00  0.00     0.059 A 
ATOM     47  F   UNL     1       1.867   1.536  -9.494  1.00  0.00    -0.206 F 
ATOM     48  C   UNL     1       3.296   2.149 -12.707  1.00  0.00     0.060 A 
BRANCH  48  49
ATOM     49  S   UNL     1       2.736   2.207 -14.418  1.00  0.00     0.124 S 
ATOM     50  O   UNL     1       2.569   3.642 -14.616  1.00  0.00    -0.237 OA
ATOM     51  O   UNL     1       3.853   1.589 -15.125  1.00  0.00    -0.237 OA
ATOM     52  O   UNL     1       1.506   1.422 -14.393  1.00  0.00    -0.744 OA
ENDBRANCH  48  49
ENDBRANCH  27  41
BRANCH  28  53
ATOM     53  C   UNL     1      -1.709   7.696  -7.315  1.00  0.00     0.058 A 
ATOM     54  C   UNL     1      -1.899   8.704  -8.280  1.00  0.00     0.135 A 
ATOM     55  C   UNL     1      -2.855   6.962  -6.954  1.00  0.00     0.135 A 
ATOM     56  F   UNL     1      -0.861   9.445  -8.698  1.00  0.00    -0.206 F 
ATOM     57  C   UNL     1      -3.135   8.929  -8.893  1.00  0.00     0.059 A 
ATOM     58  C   UNL     1      -4.101   7.177  -7.541  1.00  0.00     0.059 A 
ATOM     59  F   UNL     1      -2.778   5.942  -6.086  1.00  0.00    -0.206 F 
ATOM     60  C   UNL     1      -4.228   8.142  -8.533  1.00  0.00     0.060 A 
BRANCH  60  61
ATOM     61  S   UNL     1      -5.775   8.292  -9.458  1.00  0.00     0.124 S 
ATOM     62  O   UNL     1      -6.268   9.590  -9.014  1.00  0.00    -0.237 OA
ATOM     63  O   UNL     1      -5.316   8.222 -10.841  1.00  0.00    -0.237 OA
ATOM     64  O   UNL     1      -6.552   7.140  -9.005  1.00  0.00    -0.744 OA
ENDBRANCH  60  61
ENDBRANCH  28  53
BRANCH  40  65
ATOM     65  C   UNL     1       4.608   8.331  -6.869  1.00  0.00     0.058 A 
ATOM     66  C   UNL     1       4.039   8.581  -5.608  1.00  0.00     0.135 A 
ATOM     67  C   UNL     1       5.753   9.068  -7.213  1.00  0.00     0.135 A 
ATOM     68  F   UNL     1       3.013   7.846  -5.152  1.00  0.00    -0.206 F 
ATOM     69  C   UNL     1       4.558   9.554  -4.752  1.00  0.00     0.059 A 
ATOM     70  C   UNL     1       6.309  10.017  -6.360  1.00  0.00     0.059 A 
ATOM     71  F   UNL     1       6.379   8.835  -8.379  1.00  0.00    -0.206 F 
ATOM     72  C   UNL     1       5.695  10.265  -5.135  1.00  0.00     0.060 A 
BRANCH  72  73
ATOM     73  S   UNL     1       6.421  11.458  -3.990  1.00  0.00     0.124 S 
ATOM     74  O   UNL     1       5.466  12.562  -4.053  1.00  0.00    -0.237 OA
ATOM     75  O   UNL     1       6.444  10.715  -2.730  1.00  0.00    -0.237 OA
ATOM     76  O   UNL     1       7.731  11.731  -4.563  1.00  0.00    -0.744 OA
ENDBRANCH  72  73
ENDBRANCH  40  65
ENDBRANCH  14  15
ENDBRANCH   7   9
ENDBRANCH   4   5
ENDBRANCH   3   4
ENDBRANCH   2   3
ENDBRANCH   1   2
BRANCH   1  77
ATOM     77  C   UNL     1       6.342   0.955   4.187  1.00  0.00     0.021 C 
BRANCH  77  78
ATOM     78  C   UNL     1       7.036   2.283   4.484  1.00  0.00     0.116 C 
BRANCH  78  79
ATOM     79  N   UNL     1       6.737   2.777   5.820  1.00  0.00    -0.352 N 
ATOM     80  C   UNL     1       7.572   2.921   6.894  1.00  0.00     0.251 C 
ATOM     81  H   UNL     1       5.802   3.045   5.973  1.00  0.00     0.163 HD
ATOM     82  O   UNL     1       7.125   3.224   8.006  1.00  0.00    -0.269 OA
BRANCH  80  83
ATOM     83  C   UNL     1       9.021   2.697   6.739  1.00  0.00     0.039 A 
ATOM     84  C   UNL     1       9.654   1.748   7.548  1.00  0.00     0.016 A 
ATOM     85  C   UNL     1       9.757   3.448   5.820  1.00  0.00     0.016 A 
ATOM     86  C   UNL     1      11.023   1.506   7.401  1.00  0.00     0.029 A 
ATOM     87  C   UNL     1      11.127   3.224   5.685  1.00  0.00     0.029 A 
ATOM     88  C   UNL     1      11.766   2.256   6.480  1.00  0.00     0.066 A 
BRANCH  88  89
ATOM     89  N   UNL     1      13.167   2.075   6.393  1.00  0.00    -0.220 N 
ATOM     90  C   UNL     1      14.077   2.927   5.824  1.00  0.00     0.141 A 
ATOM     91  N   UNL     1      13.823   0.997   6.889  1.00  0.00    -0.062 NA
ATOM     92  C   UNL     1      15.311   2.365   6.052  1.00  0.00     0.093 A 
ATOM     93  N   UNL     1      15.125   1.153   6.660  1.00  0.00    -0.134 NA
BRANCH  92  94
ATOM     94  C   UNL     1      16.627   2.822   5.558  1.00  0.00     0.138 C 
BRANCH  94  95
ATOM     95  S   UNL     1      17.753   3.778   6.578  1.00  0.00    -0.081 SA
BRANCH  95  96
ATOM     96  C   UNL     1      16.978   4.345   8.034  1.00  0.00     0.176 A 
ATOM     97  N   UNL     1      17.746   4.184   9.073  1.00  0.00    -0.223 NA
ATOM     98  N   UNL     1      15.721   4.937   8.124  1.00  0.00    -0.255 N 
ATOM     99  C   UNL     1      17.260   4.542  10.332  1.00  0.00     0.079 A 
ATOM    100  C   UNL     1      15.057   4.687   9.336  1.00  0.00     0.266 A 
ATOM    101  C   UNL     1      18.124   4.687  11.418  1.00  0.00     0.029 A 
ATOM    102  C   UNL     1      15.897   4.674  10.542  1.00  0.00     0.066 A 
ATOM    103  O   UNL     1      13.857   4.458   9.479  1.00  0.00    -0.268 OA
ATOM    104  C   UNL     1      17.615   4.909  12.704  1.00  0.00     0.002 A 
ATOM    105  C   UNL     1      15.368   4.850  11.825  1.00  0.00     0.016 A 
ATOM    106  C   UNL     1      16.235   4.961  12.911  1.00  0.00     0.001 A 
BRANCH  98 107
ATOM    107  C   UNL     1      15.035   5.729   7.112  1.00  0.00     0.051 A 
ATOM    108  C   UNL     1      13.797   6.342   7.404  1.00  0.00     0.027 A 
ATOM    109  C   UNL     1      15.534   5.984   5.827  1.00  0.00     0.027 A 
ATOM    110  C   UNL     1      13.023   6.984   6.430  1.00  0.00     0.002 A 
ATOM    111  C   UNL     1      14.746   6.581   4.830  1.00  0.00     0.002 A 
ATOM    112  C   UNL     1      13.475   7.054   5.124  1.00  0.00     0.000 A 
ENDBRANCH  98 107
ENDBRANCH  95  96
ENDBRANCH  94  95
ENDBRANCH  92  94
ENDBRANCH  88  89
ENDBRANCH  80  83
ENDBRANCH  78  79
ENDBRANCH  77  78
ENDBRANCH   1  77
TORSDOF 21
