REMARK SMILES CCN1C(=O)/C(=C/c2cc([N+](=O)[O-])ccc2O)S/C1=[NH+]\c1ccc(C(=O)NCCCCCCNC(=O)c2ccc(-c3c4nc(c(-c5c(F)cc(S(=O)(=O)[O-])cc5F)c5ccc([nH]5)c(-c5c(F)cc(S(=O)(=O)[O-])cc5F)c5nc(c(-c6c(F)cc(S(=O)(=O)[O-])cc6F)c6ccc3[nH]6)C=C5)C=C4)cc2)cc1
REMARK SMILES IDX 30 1 29 2 28 3 27 4 25 5 26 6 24 8 21 9 22 10 104 11 23 12
REMARK SMILES IDX 103 13 20 14 3 15 4 16 19 17 5 18 6 19 18 20 7 21 2 23 1 24
REMARK SMILES IDX 8 25 9 26 16 27 10 28 15 29 14 30 17 31 11 33 12 34 13 35
REMARK SMILES IDX 31 36 32 37 33 38 34 39 35 40 36 42 37 43 38 44 102 45 39 46
REMARK SMILES IDX 101 47 40 48 41 49 42 50 95 51 43 52 100 53 94 54 96 55
REMARK SMILES IDX 44 56 99 57 93 58 92 59 45 61 79 62 58 63 78 64 59 65 62 66
REMARK SMILES IDX 77 67 97 68 60 69 61 70 76 72 98 73 63 74 46 75 47 76 56 77
REMARK SMILES IDX 48 78 49 79 55 80 57 81 50 82 51 83 52 84 53 85 54 86 80 87
REMARK SMILES IDX 81 88 90 89 82 90 83 91 89 92 91 93 84 94 85 95 86 96 87 97
REMARK SMILES IDX 88 98 64 99 65 100 74 101 66 102 67 103 73 104 75 105 68 106
REMARK SMILES IDX 69 107 70 108 71 109 72 110
REMARK H PARENT 27 7 20 22 17 32 34 41 96 60 62 71
REMARK Flexibility Score: inf
ROOT
ATOM      1  C   UNL     1       4.907   9.886   0.724  1.00  0.00     0.002 C 
ENDROOT
BRANCH   1   2
ATOM      2  C   UNL     1       4.478   8.417   0.832  1.00  0.00     0.021 C 
BRANCH   2   3
ATOM      3  C   UNL     1       3.163   8.236   1.593  1.00  0.00     0.116 C 
BRANCH   3   4
ATOM      4  N   UNL     1       2.049   8.604   0.737  1.00  0.00    -0.352 N 
ATOM      5  C   UNL     1       1.120   7.851   0.067  1.00  0.00     0.251 C 
ATOM      6  O   UNL     1       0.279   8.433  -0.617  1.00  0.00    -0.269 OA
ATOM      7  H   UNL     1       1.941   9.575   0.615  1.00  0.00     0.163 HD
BRANCH   5   8
ATOM      8  C   UNL     1       1.044   6.375   0.211  1.00  0.00     0.040 A 
ATOM      9  C   UNL     1       0.708   3.634   0.716  1.00  0.00     0.125 A 
ATOM     10  C   UNL     1      -0.401   4.434   0.450  1.00  0.00     0.052 A 
ATOM     11  C   UNL     1       1.988   4.186   0.609  1.00  0.00     0.052 A 
ATOM     12  C   UNL     1      -0.235   5.799   0.205  1.00  0.00     0.018 A 
ATOM     13  C   UNL     1       2.158   5.545   0.341  1.00  0.00     0.018 A 
BRANCH   9  14
ATOM     14  N   UNL     1       0.545   2.275   0.998  1.00  0.00    -0.234 N 
ATOM     15  N   UNL     1       0.829   0.453   2.427  1.00  0.00    -0.186 N 
ATOM     16  C   UNL     1       1.175   0.076   3.711  1.00  0.00     0.348 C 
ATOM     17  C   UNL     1       0.838   1.800   2.164  1.00  0.00     0.324 C 
ATOM     18  O   UNL     1       1.232  -1.071   4.139  1.00  0.00    -0.240 OA
ATOM     19  C   UNL     1       1.443   1.278   4.548  1.00  0.00     0.110 C 
ATOM     20  S   UNL     1       1.312   2.698   3.591  1.00  0.00     0.007 SA
ATOM     21  C   UNL     1       1.701   1.190   5.862  1.00  0.00     0.036 C 
ATOM     22  H   UNL     1       0.203   1.672   0.300  1.00  0.00     0.313 HD
BRANCH  15  23
ATOM     23  C   UNL     1       0.406  -0.550   1.454  1.00  0.00     0.244 C 
ATOM     24  C   UNL     1       1.097  -0.469   0.098  1.00  0.00     0.055 C 
ENDBRANCH  15  23
BRANCH  21  25
ATOM     25  C   UNL     1       1.851   2.326   6.785  1.00  0.00     0.024 A 
ATOM     26  C   UNL     1       3.088   2.549   7.403  1.00  0.00     0.097 A 
ATOM     27  C   UNL     1       0.774   3.178   7.090  1.00  0.00     0.123 A 
ATOM     28  C   UNL     1       3.238   3.628   8.289  1.00  0.00     0.270 A 
ATOM     29  C   UNL     1       0.925   4.252   7.969  1.00  0.00     0.054 A 
ATOM     30  C   UNL     1       2.162   4.482   8.571  1.00  0.00     0.089 A 
BRANCH  27  31
ATOM     31  O   UNL     1      -0.450   2.939   6.526  1.00  0.00    -0.507 OA
ATOM     32  H   UNL     1      -0.562   2.220   5.935  1.00  0.00     0.293 HD
ENDBRANCH  27  31
BRANCH  28  33
ATOM     33  N   UNL     1       4.539   3.876   8.925  1.00  0.00     0.062 N 
ATOM     34  O   UNL     1       5.457   3.083   8.676  1.00  0.00    -0.258 OA
ATOM     35  O   UNL     1       4.634   4.872   9.654  1.00  0.00    -0.258 OA
ENDBRANCH  28  33
ENDBRANCH  21  25
ENDBRANCH   9  14
ENDBRANCH   5   8
ENDBRANCH   3   4
ENDBRANCH   2   3
ENDBRANCH   1   2
BRANCH   1  36
ATOM     36  C   UNL     1       5.201  10.562   2.068  1.00  0.00     0.002 C 
BRANCH  36  37
ATOM     37  C   UNL     1       6.254   9.852   2.924  1.00  0.00     0.021 C 
BRANCH  37  38
ATOM     38  C   UNL     1       7.626   9.756   2.265  1.00  0.00     0.116 C 
BRANCH  38  39
ATOM     39  N   UNL     1       8.203  11.073   2.045  1.00  0.00    -0.352 N 
ATOM     40  C   UNL     1       9.393  11.584   2.499  1.00  0.00     0.251 C 
ATOM     41  H   UNL     1       7.664  11.685   1.493  1.00  0.00     0.163 HD
ATOM     42  O   UNL     1       9.604  12.791   2.441  1.00  0.00    -0.269 OA
BRANCH  40  43
ATOM     43  C   UNL     1      10.411  10.674   3.064  1.00  0.00     0.039 A 
ATOM     44  C   UNL     1      11.092  11.052   4.223  1.00  0.00     0.014 A 
ATOM     45  C   UNL     1      10.700   9.454   2.443  1.00  0.00     0.014 A 
ATOM     46  C   UNL     1      12.029  10.184   4.786  1.00  0.00     0.010 A 
ATOM     47  C   UNL     1      11.575   8.558   3.049  1.00  0.00     0.010 A 
ATOM     48  C   UNL     1      12.256   8.917   4.221  1.00  0.00    -0.014 A 
BRANCH  48  49
ATOM     49  C   UNL     1      13.207   7.960   4.842  1.00  0.00     0.031 A 
ATOM     50  C   UNL     1      14.437   7.523   4.091  1.00  0.00     0.074 A 
ATOM     51  C   UNL     1      12.938   7.452   6.061  1.00  0.00     0.049 A 
ATOM     52  N   UNL     1      15.357   6.662   4.445  1.00  0.00    -0.248 NA
ATOM     53  C   UNL     1      14.650   8.112   2.759  1.00  0.00     0.031 C 
ATOM     54  C   UNL     1      11.756   7.768   6.867  1.00  0.00     0.029 A 
ATOM     55  N   UNL     1      13.636   6.561   6.837  1.00  0.00    -0.354 N 
ATOM     56  C   UNL     1      16.253   6.607   3.384  1.00  0.00     0.074 A 
ATOM     57  C   UNL     1      15.733   7.470   2.346  1.00  0.00     0.031 C 
ATOM     58  C   UNL     1      11.827   7.105   8.033  1.00  0.00     0.029 A 
ATOM     59  C   UNL     1      13.034   6.286   8.043  1.00  0.00     0.049 A 
ATOM     60  H   UNL     1      14.489   6.156   6.556  1.00  0.00     0.167 HD
ATOM     61  C   UNL     1      17.419   5.923   3.294  1.00  0.00     0.037 A 
ATOM     62  C   UNL     1      13.410   5.462   9.040  1.00  0.00     0.037 A 
ATOM     63  C   UNL     1      17.938   5.078   4.339  1.00  0.00     0.049 A 
ATOM     64  C   UNL     1      14.696   4.689   8.901  1.00  0.00     0.074 A 
ATOM     65  C   UNL     1      19.125   4.369   4.361  1.00  0.00     0.029 A 
ATOM     66  N   UNL     1      17.301   4.828   5.546  1.00  0.00    -0.354 N 
ATOM     67  N   UNL     1      15.560   4.694   7.913  1.00  0.00    -0.248 NA
ATOM     68  C   UNL     1      15.063   3.805  10.015  1.00  0.00     0.031 C 
ATOM     69  C   UNL     1      19.185   3.652   5.560  1.00  0.00     0.029 A 
ATOM     70  C   UNL     1      18.063   3.961   6.312  1.00  0.00     0.049 A 
ATOM     71  H   UNL     1      16.436   5.211   5.819  1.00  0.00     0.167 HD
ATOM     72  C   UNL     1      16.588   3.843   8.303  1.00  0.00     0.074 A 
ATOM     73  C   UNL     1      16.246   3.353   9.623  1.00  0.00     0.031 C 
ATOM     74  C   UNL     1      17.715   3.496   7.632  1.00  0.00     0.037 A 
BRANCH  61  75
ATOM     75  C   UNL     1      18.224   6.070   2.030  1.00  0.00     0.058 A 
ATOM     76  C   UNL     1      18.873   7.273   1.708  1.00  0.00     0.135 A 
ATOM     77  C   UNL     1      18.395   4.983   1.158  1.00  0.00     0.135 A 
ATOM     78  F   UNL     1      18.731   8.350   2.497  1.00  0.00    -0.206 F 
ATOM     79  C   UNL     1      19.643   7.400   0.557  1.00  0.00     0.059 A 
ATOM     80  C   UNL     1      19.186   5.078   0.016  1.00  0.00     0.059 A 
ATOM     81  F   UNL     1      17.796   3.809   1.414  1.00  0.00    -0.206 F 
ATOM     82  C   UNL     1      19.798   6.295  -0.281  1.00  0.00     0.060 A 
BRANCH  82  83
ATOM     83  S   UNL     1      20.821   6.473  -1.757  1.00  0.00     0.124 S 
ATOM     84  O   UNL     1      19.987   7.335  -2.588  1.00  0.00    -0.237 OA
ATOM     85  O   UNL     1      22.032   7.087  -1.223  1.00  0.00    -0.237 OA
ATOM     86  O   UNL     1      20.974   5.102  -2.234  1.00  0.00    -0.744 OA
ENDBRANCH  82  83
ENDBRANCH  61  75
BRANCH  62  87
ATOM     87  C   UNL     1      12.576   5.334  10.267  1.00  0.00     0.058 A 
ATOM     88  C   UNL     1      13.045   5.793  11.508  1.00  0.00     0.135 A 
ATOM     89  C   UNL     1      11.307   4.734  10.232  1.00  0.00     0.135 A 
ATOM     90  F   UNL     1      14.253   6.372  11.596  1.00  0.00    -0.206 F 
ATOM     91  C   UNL     1      12.305   5.630  12.674  1.00  0.00     0.059 A 
ATOM     92  C   UNL     1      10.533   4.589  11.380  1.00  0.00     0.059 A 
ATOM     93  F   UNL     1      10.803   4.295   9.069  1.00  0.00    -0.206 F 
ATOM     94  C   UNL     1      11.050   5.023  12.601  1.00  0.00     0.060 A 
BRANCH  94  95
ATOM     95  S   UNL     1      10.100   4.824  14.123  1.00  0.00     0.124 S 
ATOM     96  O   UNL     1      10.854   3.779  14.805  1.00  0.00    -0.237 OA
ATOM     97  O   UNL     1      10.182   6.157  14.711  1.00  0.00    -0.237 OA
ATOM     98  O   UNL     1       8.775   4.436  13.647  1.00  0.00    -0.744 OA
ENDBRANCH  94  95
ENDBRANCH  62  87
BRANCH  74  99
ATOM     99  C   UNL     1      18.685   2.582   8.330  1.00  0.00     0.058 A 
ATOM    100  C   UNL     1      18.400   1.225   8.549  1.00  0.00     0.135 A 
ATOM    101  C   UNL     1      19.938   3.063   8.745  1.00  0.00     0.135 A 
ATOM    102  F   UNL     1      17.216   0.715   8.178  1.00  0.00    -0.206 F 
ATOM    103  C   UNL     1      19.311   0.385   9.182  1.00  0.00     0.059 A 
ATOM    104  C   UNL     1      20.877   2.233   9.350  1.00  0.00     0.059 A 
ATOM    105  F   UNL     1      20.267   4.350   8.550  1.00  0.00    -0.206 F 
ATOM    106  C   UNL     1      20.548   0.898   9.576  1.00  0.00     0.060 A 
BRANCH 106 107
ATOM    107  S   UNL     1      21.731  -0.211  10.368  1.00  0.00     0.124 S 
ATOM    108  O   UNL     1      21.125  -0.399  11.683  1.00  0.00    -0.237 OA
ATOM    109  O   UNL     1      21.705  -1.375   9.487  1.00  0.00    -0.237 OA
ATOM    110  O   UNL     1      22.976   0.551  10.354  1.00  0.00    -0.744 OA
ENDBRANCH 106 107
ENDBRANCH  74  99
ENDBRANCH  48  49
ENDBRANCH  40  43
ENDBRANCH  38  39
ENDBRANCH  37  38
ENDBRANCH  36  37
ENDBRANCH   1  36
TORSDOF 21
