REMARK SMILES Cc1cc(C(=O)NCCCCCCNC(=O)c2ccc(-c3c4nc(c(-c5c(F)cc(S(=O)(=O)[O-])cc5F)c5ccc([nH]5)c(-c5c(F)cc(S(=O)(=O)[O-])cc5F)c5nc(c(-c6c(F)cc(S(=O)(=O)[O-])cc6F)c6ccc3[nH]6)C=C5)C=C4)cc2)cc(C)c1OC[C@H]1C[N@@H+](C)CCO1
REMARK SMILES IDX 10 1 9 2 8 3 7 4 5 5 6 6 4 8 1 9 2 10 3 11 86 12 84 13 83 14
REMARK SMILES IDX 85 15 87 16 88 17 89 18 90 19 95 20 91 21 94 22 92 23 93 24
REMARK SMILES IDX 11 26 12 27 13 28 14 29 15 30 16 32 17 33 18 34 82 35 19 36
REMARK SMILES IDX 81 37 20 38 21 39 22 40 75 41 23 42 80 43 74 44 76 45 24 46
REMARK SMILES IDX 79 47 73 48 72 49 25 51 59 52 38 53 58 54 39 55 42 56 57 57
REMARK SMILES IDX 77 58 40 59 41 60 56 62 78 63 43 64 26 65 27 66 36 67 28 68
REMARK SMILES IDX 29 69 35 70 37 71 30 72 31 73 32 74 33 75 34 76 60 77 61 78
REMARK SMILES IDX 70 79 62 80 63 81 69 82 71 83 64 84 65 85 66 86 67 87 68 88
REMARK SMILES IDX 44 89 45 90 54 91 46 92 47 93 53 94 55 95 48 96 49 97 50 98
REMARK SMILES IDX 51 99 52 100
REMARK H PARENT 7 7 91 25 14 31 76 50 42 61
REMARK Flexibility Score: inf
ROOT
ATOM      1  C   UNL     1      10.673  -6.847   2.798  1.00  0.00     0.002 C 
ENDROOT
BRANCH   1   2
ATOM      2  C   UNL     1       9.929  -6.371   1.550  1.00  0.00     0.021 C 
BRANCH   2   3
ATOM      3  C   UNL     1       8.617  -5.636   1.792  1.00  0.00     0.116 C 
BRANCH   3   4
ATOM      4  N   UNL     1       8.768  -4.436   2.590  1.00  0.00    -0.352 N 
ATOM      5  C   UNL     1       8.201  -3.198   2.433  1.00  0.00     0.251 C 
ATOM      6  O   UNL     1       8.520  -2.294   3.203  1.00  0.00    -0.269 OA
ATOM      7  H   UNL     1       9.369  -4.524   3.364  1.00  0.00     0.163 HD
BRANCH   5   8
ATOM      8  C   UNL     1       7.277  -2.906   1.309  1.00  0.00     0.040 A 
ATOM      9  C   UNL     1       7.119  -0.051  -1.108  1.00  0.00     0.048 C 
ATOM     10  C   UNL     1       6.685  -1.340  -0.485  1.00  0.00    -0.008 A 
ATOM     11  C   UNL     1       7.438  -1.687   0.659  1.00  0.00     0.021 A 
ATOM     12  C   UNL     1       5.688  -2.216  -0.945  1.00  0.00     0.125 A 
ATOM     13  C   UNL     1       5.556  -3.478  -0.309  1.00  0.00    -0.008 A 
ATOM     14  C   UNL     1       6.308  -3.785   0.842  1.00  0.00     0.021 A 
ATOM     15  C   UNL     1       4.736  -4.599  -0.902  1.00  0.00     0.048 C 
BRANCH  12  16
ATOM     16  O   UNL     1       4.835  -2.046  -1.998  1.00  0.00    -0.490 OA
BRANCH  16  17
ATOM     17  C   UNL     1       4.276  -0.786  -2.403  1.00  0.00     0.267 C 
BRANCH  17  18
ATOM     18  C   UNL     1       3.655   0.087  -1.295  1.00  0.00     0.210 C 
ATOM     19  C   UNL     1       4.184   1.532  -1.375  1.00  0.00     0.298 C 
ATOM     20  O   UNL     1       2.214   0.188  -1.462  1.00  0.00    -0.363 OA
ATOM     21  N   UNL     1       3.775   2.199  -0.131  1.00  0.00    -0.333 N 
ATOM     22  C   UNL     1       1.633   0.970  -0.394  1.00  0.00     0.222 C 
ATOM     23  C   UNL     1       4.496   3.436   0.101  1.00  0.00     0.332 C 
ATOM     24  C   UNL     1       2.313   2.348  -0.180  1.00  0.00     0.290 C 
ATOM     25  H   UNL     1       4.021   1.635   0.683  1.00  0.00     0.348 HD
ENDBRANCH  17  18
ENDBRANCH  16  17
ENDBRANCH  12  16
ENDBRANCH   5   8
ENDBRANCH   3   4
ENDBRANCH   2   3
ENDBRANCH   1   2
BRANCH   1  26
ATOM     26  C   UNL     1       9.844  -7.632   3.817  1.00  0.00     0.002 C 
BRANCH  26  27
ATOM     27  C   UNL     1       9.049  -8.816   3.264  1.00  0.00     0.021 C 
BRANCH  27  28
ATOM     28  C   UNL     1       9.853  -9.815   2.443  1.00  0.00     0.116 C 
BRANCH  28  29
ATOM     29  N   UNL     1      10.925 -10.427   3.210  1.00  0.00    -0.352 N 
ATOM     30  C   UNL     1      11.205 -11.757   3.387  1.00  0.00     0.251 C 
ATOM     31  H   UNL     1      11.533  -9.800   3.664  1.00  0.00     0.163 HD
ATOM     32  O   UNL     1      12.045 -12.104   4.216  1.00  0.00    -0.269 OA
BRANCH  30  33
ATOM     33  C   UNL     1      10.476 -12.771   2.597  1.00  0.00     0.039 A 
ATOM     34  C   UNL     1       9.964 -13.896   3.247  1.00  0.00     0.014 A 
ATOM     35  C   UNL     1      10.288 -12.607   1.221  1.00  0.00     0.014 A 
ATOM     36  C   UNL     1       9.214 -14.828   2.526  1.00  0.00     0.010 A 
ATOM     37  C   UNL     1       9.475 -13.495   0.522  1.00  0.00     0.010 A 
ATOM     38  C   UNL     1       8.935 -14.619   1.165  1.00  0.00    -0.014 A 
BRANCH  38  39
ATOM     39  C   UNL     1       8.083 -15.565   0.400  1.00  0.00     0.031 A 
ATOM     40  C   UNL     1       8.658 -16.325  -0.765  1.00  0.00     0.074 A 
ATOM     41  C   UNL     1       6.780 -15.696   0.719  1.00  0.00     0.049 A 
ATOM     42  N   UNL     1       8.061 -17.148  -1.589  1.00  0.00    -0.248 NA
ATOM     43  C   UNL     1      10.084 -16.112  -1.061  1.00  0.00     0.031 C 
ATOM     44  C   UNL     1       6.097 -14.978   1.797  1.00  0.00     0.029 A 
ATOM     45  N   UNL     1       5.793 -16.471   0.162  1.00  0.00    -0.354 N 
ATOM     46  C   UNL     1       9.032 -17.540  -2.503  1.00  0.00     0.074 A 
ATOM     47  C   UNL     1      10.241 -16.821  -2.169  1.00  0.00     0.031 C 
ATOM     48  C   UNL     1       4.812 -15.363   1.839  1.00  0.00     0.029 A 
ATOM     49  C   UNL     1       4.566 -16.322   0.766  1.00  0.00     0.049 A 
ATOM     50  H   UNL     1       5.949 -17.076  -0.599  1.00  0.00     0.167 HD
ATOM     51  C   UNL     1       8.931 -18.437  -3.514  1.00  0.00     0.037 A 
ATOM     52  C   UNL     1       3.376 -16.885   0.481  1.00  0.00     0.037 A 
ATOM     53  C   UNL     1       7.727 -19.163  -3.826  1.00  0.00     0.049 A 
ATOM     54  C   UNL     1       3.285 -17.869  -0.654  1.00  0.00     0.074 A 
ATOM     55  C   UNL     1       7.536 -20.132  -4.794  1.00  0.00     0.029 A 
ATOM     56  N   UNL     1       6.510 -18.995  -3.182  1.00  0.00    -0.354 N 
ATOM     57  N   UNL     1       4.230 -18.278  -1.467  1.00  0.00    -0.248 NA
ATOM     58  C   UNL     1       1.971 -18.475  -0.906  1.00  0.00     0.031 C 
ATOM     59  C   UNL     1       6.190 -20.512  -4.772  1.00  0.00     0.029 A 
ATOM     60  C   UNL     1       5.556 -19.826  -3.748  1.00  0.00     0.049 A 
ATOM     61  H   UNL     1       6.347 -18.377  -2.433  1.00  0.00     0.167 HD
ATOM     62  C   UNL     1       3.632 -19.213  -2.306  1.00  0.00     0.074 A 
ATOM     63  C   UNL     1       2.247 -19.315  -1.895  1.00  0.00     0.031 C 
ATOM     64  C   UNL     1       4.182 -19.925  -3.321  1.00  0.00     0.037 A 
BRANCH  51  65
ATOM     65  C   UNL     1      10.155 -18.684  -4.355  1.00  0.00     0.058 A 
ATOM     66  C   UNL     1      11.288 -19.335  -3.841  1.00  0.00     0.135 A 
ATOM     67  C   UNL     1      10.183 -18.298  -5.706  1.00  0.00     0.135 A 
ATOM     68  F   UNL     1      11.324 -19.714  -2.553  1.00  0.00    -0.206 F 
ATOM     69  C   UNL     1      12.415 -19.566  -4.623  1.00  0.00     0.059 A 
ATOM     70  C   UNL     1      11.287 -18.548  -6.516  1.00  0.00     0.059 A 
ATOM     71  F   UNL     1       9.128 -17.672  -6.252  1.00  0.00    -0.206 F 
ATOM     72  C   UNL     1      12.404 -19.169  -5.961  1.00  0.00     0.060 A 
BRANCH  72  73
ATOM     73  S   UNL     1      13.873 -19.481  -6.963  1.00  0.00     0.124 S 
ATOM     74  O   UNL     1      14.813 -18.512  -6.410  1.00  0.00    -0.237 OA
ATOM     75  O   UNL     1      14.159 -20.881  -6.668  1.00  0.00    -0.237 OA
ATOM     76  O   UNL     1      13.421 -19.209  -8.324  1.00  0.00    -0.744 OA
ENDBRANCH  72  73
ENDBRANCH  51  65
BRANCH  52  77
ATOM     77  C   UNL     1       2.179 -16.546   1.299  1.00  0.00     0.058 A 
ATOM     78  C   UNL     1       1.598 -17.491   2.157  1.00  0.00     0.135 A 
ATOM     79  C   UNL     1       1.601 -15.267   1.250  1.00  0.00     0.135 A 
ATOM     80  F   UNL     1       2.109 -18.729   2.236  1.00  0.00    -0.206 F 
ATOM     81  C   UNL     1       0.477 -17.188   2.925  1.00  0.00     0.059 A 
ATOM     82  C   UNL     1       0.498 -14.932   2.029  1.00  0.00     0.059 A 
ATOM     83  F   UNL     1       2.129 -14.320   0.458  1.00  0.00    -0.206 F 
ATOM     84  C   UNL     1      -0.063 -15.903   2.856  1.00  0.00     0.060 A 
BRANCH  84  85
ATOM     85  S   UNL     1      -1.488 -15.508   3.892  1.00  0.00     0.124 S 
ATOM     86  O   UNL     1      -2.549 -16.260   3.232  1.00  0.00    -0.237 OA
ATOM     87  O   UNL     1      -1.066 -16.008   5.196  1.00  0.00    -0.237 OA
ATOM     88  O   UNL     1      -1.586 -14.055   3.787  1.00  0.00    -0.744 OA
ENDBRANCH  84  85
ENDBRANCH  52  77
BRANCH  64  89
ATOM     89  C   UNL     1       3.301 -20.913  -4.035  1.00  0.00     0.058 A 
ATOM     90  C   UNL     1       2.277 -20.504  -4.903  1.00  0.00     0.135 A 
ATOM     91  C   UNL     1       3.529 -22.293  -3.896  1.00  0.00     0.135 A 
ATOM     92  F   UNL     1       2.012 -19.199  -5.068  1.00  0.00    -0.206 F 
ATOM     93  C   UNL     1       1.496 -21.428  -5.591  1.00  0.00     0.059 A 
ATOM     94  C   UNL     1       2.782 -23.233  -4.598  1.00  0.00     0.059 A 
ATOM     95  F   UNL     1       4.503 -22.739  -3.086  1.00  0.00    -0.206 F 
ATOM     96  C   UNL     1       1.760 -22.790  -5.436  1.00  0.00     0.060 A 
BRANCH  96  97
ATOM     97  S   UNL     1       0.768 -23.975  -6.369  1.00  0.00     0.124 S 
ATOM     98  O   UNL     1      -0.512 -23.900  -5.672  1.00  0.00    -0.237 OA
ATOM     99  O   UNL     1       0.791 -23.410  -7.714  1.00  0.00    -0.237 OA
ATOM    100  O   UNL     1       1.496 -25.230  -6.210  1.00  0.00    -0.744 OA
ENDBRANCH  96  97
ENDBRANCH  64  89
ENDBRANCH  38  39
ENDBRANCH  30  33
ENDBRANCH  28  29
ENDBRANCH  27  28
ENDBRANCH  26  27
ENDBRANCH   1  26
TORSDOF 19
