REMARK SMILES COCc1cc(OCC(=O)NCCCCCCNC(=O)c2ccc(-c3c4nc(c(-c5c(F)cc(S(=O)(=O)[O-])cc5F)c5ccc([nH]5)c(-c5c(F)cc(S(=O)(=O)[O-])cc5F)c5nc(c(-c6c(F)cc(S(=O)(=O)[O-])cc6F)c6ccc3[nH]6)C=C5)C=C4)cc2)nc(Nc2cccc(C)c2C)n1
REMARK SMILES IDX 14 1 13 2 12 3 11 4 9 5 10 6 8 8 7 9 6 10 4 11 5 12 98 13
REMARK SMILES IDX 88 14 87 15 3 16 2 17 1 18 89 19 90 21 91 22 96 23 92 24
REMARK SMILES IDX 94 25 97 26 93 27 95 28 15 29 16 30 17 31 18 32 19 33 20 35
REMARK SMILES IDX 21 36 22 37 86 38 23 39 85 40 24 41 25 42 26 43 79 44 27 45
REMARK SMILES IDX 84 46 78 47 80 48 28 49 83 50 77 51 76 52 29 54 63 55 42 56
REMARK SMILES IDX 62 57 43 58 46 59 61 60 81 61 44 62 45 63 60 65 82 66 47 67
REMARK SMILES IDX 30 68 31 69 40 70 32 71 33 72 39 73 41 74 34 75 35 76 36 77
REMARK SMILES IDX 37 78 38 79 64 80 65 81 74 82 66 83 67 84 73 85 75 86 68 87
REMARK SMILES IDX 69 88 70 89 71 90 72 91 48 92 49 93 58 94 50 95 51 96 57 97
REMARK SMILES IDX 59 98 52 99 53 100 54 101 55 102 56 103
REMARK H PARENT 11 7 89 20 18 34 80 53 46 64
REMARK Flexibility Score: inf
ROOT
ATOM      1  C   UNL     1      -1.848   2.968  -7.675  1.00  0.00     0.002 C 
ENDROOT
BRANCH   1   2
ATOM      2  C   UNL     1      -2.201   3.621  -6.332  1.00  0.00     0.021 C 
BRANCH   2   3
ATOM      3  C   UNL     1      -3.512   3.138  -5.713  1.00  0.00     0.116 C 
BRANCH   3   4
ATOM      4  N   UNL     1      -3.476   1.718  -5.423  1.00  0.00    -0.353 N 
ATOM      5  C   UNL     1      -3.498   1.100  -4.210  1.00  0.00     0.258 C 
ATOM      6  O   UNL     1      -3.444  -0.131  -4.167  1.00  0.00    -0.271 OA
ATOM      7  H   UNL     1      -3.429   1.122  -6.206  1.00  0.00     0.163 HD
BRANCH   5   8
ATOM      8  C   UNL     1      -3.612   1.938  -2.930  1.00  0.00     0.331 C 
BRANCH   8   9
ATOM      9  O   UNL     1      -2.624   2.928  -2.710  1.00  0.00    -0.467 OA
BRANCH   9  10
ATOM     10  C   UNL     1      -1.332   2.527  -2.533  1.00  0.00     0.218 A 
ATOM     11  C   UNL     1       0.438   1.024  -2.317  1.00  0.00     0.076 A 
ATOM     12  C   UNL     1      -0.915   1.220  -2.451  1.00  0.00     0.095 A 
ATOM     13  N   UNL     1       1.305   2.046  -2.249  1.00  0.00    -0.215 NA
ATOM     14  C   UNL     1       0.821   3.294  -2.313  1.00  0.00     0.230 A 
ATOM     15  N   UNL     1      -0.482   3.567  -2.442  1.00  0.00    -0.177 NA
BRANCH  11  16
ATOM     16  C   UNL     1       1.003  -0.363  -2.149  1.00  0.00     0.216 C 
BRANCH  16  17
ATOM     17  O   UNL     1       0.558  -0.980  -0.935  1.00  0.00    -0.378 OA
ATOM     18  C   UNL     1       1.086  -0.337   0.221  1.00  0.00     0.195 C 
ENDBRANCH  16  17
ENDBRANCH  11  16
BRANCH  14  19
ATOM     19  N   UNL     1       1.699   4.369  -2.213  1.00  0.00    -0.324 N 
ATOM     20  H   UNL     1       1.284   5.260  -2.155  1.00  0.00     0.170 HD
BRANCH  19  21
ATOM     21  C   UNL     1       3.103   4.343  -2.184  1.00  0.00     0.044 A 
ATOM     22  C   UNL     1       3.746   4.922  -1.079  1.00  0.00     0.026 A 
ATOM     23  C   UNL     1       3.880   3.675  -3.165  1.00  0.00    -0.025 A 
ATOM     24  C   UNL     1       5.125   4.811  -0.911  1.00  0.00     0.002 A 
ATOM     25  C   UNL     1       5.277   3.536  -2.974  1.00  0.00    -0.046 A 
ATOM     26  C   UNL     1       3.241   3.132  -4.421  1.00  0.00     0.047 C 
ATOM     27  C   UNL     1       5.881   4.113  -1.846  1.00  0.00     0.004 A 
ATOM     28  C   UNL     1       6.171   2.798  -3.936  1.00  0.00     0.044 C 
ENDBRANCH  19  21
ENDBRANCH  14  19
ENDBRANCH   9  10
ENDBRANCH   8   9
ENDBRANCH   5   8
ENDBRANCH   3   4
ENDBRANCH   2   3
ENDBRANCH   1   2
BRANCH   1  29
ATOM     29  C   UNL     1      -2.934   3.050  -8.754  1.00  0.00     0.002 C 
BRANCH  29  30
ATOM     30  C   UNL     1      -3.433   4.462  -9.070  1.00  0.00     0.021 C 
BRANCH  30  31
ATOM     31  C   UNL     1      -2.355   5.427  -9.550  1.00  0.00     0.116 C 
BRANCH  31  32
ATOM     32  N   UNL     1      -1.778   5.021 -10.822  1.00  0.00    -0.352 N 
ATOM     33  C   UNL     1      -1.639   5.742 -11.982  1.00  0.00     0.251 C 
ATOM     34  H   UNL     1      -1.439   4.097 -10.856  1.00  0.00     0.163 HD
ATOM     35  O   UNL     1      -1.297   5.178 -13.019  1.00  0.00    -0.269 OA
BRANCH  33  36
ATOM     36  C   UNL     1      -1.927   7.194 -11.986  1.00  0.00     0.039 A 
ATOM     37  C   UNL     1      -2.687   7.731 -13.027  1.00  0.00     0.014 A 
ATOM     38  C   UNL     1      -1.455   8.020 -10.962  1.00  0.00     0.014 A 
ATOM     39  C   UNL     1      -3.029   9.086 -13.006  1.00  0.00     0.010 A 
ATOM     40  C   UNL     1      -1.862   9.350 -10.902  1.00  0.00     0.010 A 
ATOM     41  C   UNL     1      -2.653   9.899 -11.923  1.00  0.00    -0.014 A 
BRANCH  41  42
ATOM     42  C   UNL     1      -3.087  11.318 -11.838  1.00  0.00     0.031 A 
ATOM     43  C   UNL     1      -2.067  12.425 -11.838  1.00  0.00     0.074 A 
ATOM     44  C   UNL     1      -4.396  11.606 -11.696  1.00  0.00     0.049 A 
ATOM     45  N   UNL     1      -2.248  13.715 -11.710  1.00  0.00    -0.248 NA
ATOM     46  C   UNL     1      -0.656  12.030 -11.975  1.00  0.00     0.031 C 
ATOM     47  C   UNL     1      -5.477  10.619 -11.632  1.00  0.00     0.029 A 
ATOM     48  N   UNL     1      -5.043  12.811 -11.569  1.00  0.00    -0.354 N 
ATOM     49  C   UNL     1      -0.980  14.282 -11.741  1.00  0.00     0.074 A 
ATOM     50  C   UNL     1      -0.034  13.193 -11.841  1.00  0.00     0.031 C 
ATOM     51  C   UNL     1      -6.651  11.258 -11.504  1.00  0.00     0.029 A 
ATOM     52  C   UNL     1      -6.407  12.695 -11.431  1.00  0.00     0.049 A 
ATOM     53  H   UNL     1      -4.574  13.677 -11.576  1.00  0.00     0.167 HD
ATOM     54  C   UNL     1      -0.636  15.592 -11.711  1.00  0.00     0.037 A 
ATOM     55  C   UNL     1      -7.354  13.638 -11.254  1.00  0.00     0.037 A 
ATOM     56  C   UNL     1      -1.586  16.672 -11.628  1.00  0.00     0.049 A 
ATOM     57  C   UNL     1      -6.946  15.086 -11.210  1.00  0.00     0.074 A 
ATOM     58  C   UNL     1      -1.342  18.034 -11.646  1.00  0.00     0.029 A 
ATOM     59  N   UNL     1      -2.959  16.515 -11.504  1.00  0.00    -0.354 N 
ATOM     60  N   UNL     1      -5.746  15.608 -11.308  1.00  0.00    -0.248 NA
ATOM     61  C   UNL     1      -8.019  16.075 -11.039  1.00  0.00     0.031 C 
ATOM     62  C   UNL     1      -2.561  18.699 -11.478  1.00  0.00     0.029 A 
ATOM     63  C   UNL     1      -3.572  17.754 -11.419  1.00  0.00     0.049 A 
ATOM     64  H   UNL     1      -3.428  15.649 -11.479  1.00  0.00     0.167 HD
ATOM     65  C   UNL     1      -5.924  16.986 -11.243  1.00  0.00     0.074 A 
ATOM     66  C   UNL     1      -7.348  17.216 -11.107  1.00  0.00     0.031 C 
ATOM     67  C   UNL     1      -4.993  17.971 -11.294  1.00  0.00     0.037 A 
BRANCH  54  68
ATOM     68  C   UNL     1       0.829  15.934 -11.771  1.00  0.00     0.058 A 
ATOM     69  C   UNL     1       1.591  15.725 -12.932  1.00  0.00     0.135 A 
ATOM     70  C   UNL     1       1.472  16.517 -10.666  1.00  0.00     0.135 A 
ATOM     71  F   UNL     1       1.033  15.158 -14.014  1.00  0.00    -0.206 F 
ATOM     72  C   UNL     1       2.942  16.052 -12.987  1.00  0.00     0.059 A 
ATOM     73  C   UNL     1       2.815  16.882 -10.709  1.00  0.00     0.059 A 
ATOM     74  F   UNL     1       0.794  16.741  -9.529  1.00  0.00    -0.206 F 
ATOM     75  C   UNL     1       3.545  16.632 -11.870  1.00  0.00     0.060 A 
BRANCH  75  76
ATOM     76  S   UNL     1       5.296  17.058 -11.962  1.00  0.00     0.124 S 
ATOM     77  O   UNL     1       5.918  15.738 -11.944  1.00  0.00    -0.237 OA
ATOM     78  O   UNL     1       5.376  17.777 -13.230  1.00  0.00    -0.237 OA
ATOM     79  O   UNL     1       5.514  17.870 -10.769  1.00  0.00    -0.744 OA
ENDBRANCH  75  76
ENDBRANCH  54  68
BRANCH  55  80
ATOM     80  C   UNL     1      -8.783  13.242 -11.124  1.00  0.00     0.058 A 
ATOM     81  C   UNL     1      -9.712  13.543 -12.131  1.00  0.00     0.135 A 
ATOM     82  C   UNL     1      -9.246  12.545  -9.997  1.00  0.00     0.135 A 
ATOM     83  F   UNL     1      -9.320  14.214 -13.225  1.00  0.00    -0.206 F 
ATOM     84  C   UNL     1     -11.052  13.185 -12.019  1.00  0.00     0.059 A 
ATOM     85  C   UNL     1     -10.575  12.150  -9.875  1.00  0.00     0.059 A 
ATOM     86  F   UNL     1      -8.396  12.216  -9.012  1.00  0.00    -0.206 F 
ATOM     87  C   UNL     1     -11.473  12.485 -10.888  1.00  0.00     0.060 A 
BRANCH  87  88
ATOM     88  S   UNL     1     -13.205  11.985 -10.774  1.00  0.00     0.124 S 
ATOM     89  O   UNL     1     -13.865  13.263 -10.535  1.00  0.00    -0.237 OA
ATOM     90  O   UNL     1     -13.434  11.382 -12.083  1.00  0.00    -0.237 OA
ATOM     91  O   UNL     1     -13.211  11.051  -9.652  1.00  0.00    -0.744 OA
ENDBRANCH  87  88
ENDBRANCH  55  80
BRANCH  67  92
ATOM     92  C   UNL     1      -5.480  19.394 -11.247  1.00  0.00     0.058 A 
ATOM     93  C   UNL     1      -5.996  19.964 -10.073  1.00  0.00     0.135 A 
ATOM     94  C   UNL     1      -5.373  20.215 -12.382  1.00  0.00     0.135 A 
ATOM     95  F   UNL     1      -6.127  19.222  -8.962  1.00  0.00    -0.206 F 
ATOM     96  C   UNL     1      -6.408  21.292 -10.031  1.00  0.00     0.059 A 
ATOM     97  C   UNL     1      -5.750  21.554 -12.354  1.00  0.00     0.059 A 
ATOM     98  F   UNL     1      -4.878  19.724 -13.529  1.00  0.00    -0.206 F 
ATOM     99  C   UNL     1      -6.277  22.081 -11.176  1.00  0.00     0.060 A 
BRANCH  99 100
ATOM    100  S   UNL     1      -6.778  23.813 -11.095  1.00  0.00     0.124 S 
ATOM    101  O   UNL     1      -8.232  23.697 -11.051  1.00  0.00    -0.237 OA
ATOM    102  O   UNL     1      -6.141  24.265  -9.862  1.00  0.00    -0.237 OA
ATOM    103  O   UNL     1      -6.231  24.384 -12.322  1.00  0.00    -0.744 OA
ENDBRANCH  99 100
ENDBRANCH  67  92
ENDBRANCH  41  42
ENDBRANCH  33  36
ENDBRANCH  31  32
ENDBRANCH  30  31
ENDBRANCH  29  30
ENDBRANCH   1  29
TORSDOF 22
