REMARK SMILES Cc1cc(C[N@@H+]2CC[C@@H](C(=O)NCCCCCCNC(=O)c3ccc(-c4c5nc(c(-c6c(F)cc(S(=O)(=O)[O-])cc6F)c6ccc([nH]6)c(-c6c(F)cc(S(=O)(=O)[O-])cc6F)c6nc(c(-c7c(F)cc(S(=O)(=O)[O-])cc7F)c7ccc4[nH]7)C=C6)C=C5)cc3)C2)ccc1Br
REMARK SMILES IDX 16 1 15 2 14 3 13 4 12 5 10 6 11 7 9 9 6 10 7 11 88 12 8 14
REMARK SMILES IDX 5 15 4 16 1 17 2 18 3 19 91 20 90 21 92 22 89 23 17 24 18 25
REMARK SMILES IDX 19 26 20 27 21 29 22 30 23 31 87 32 24 33 86 34 25 35 26 36
REMARK SMILES IDX 27 37 80 38 28 39 85 40 79 41 81 42 29 43 84 44 78 45 77 46
REMARK SMILES IDX 30 48 64 49 43 50 63 51 44 52 47 53 62 54 82 55 45 56 46 57
REMARK SMILES IDX 61 59 83 60 48 61 31 62 32 63 41 64 33 65 34 66 40 67 42 68
REMARK SMILES IDX 35 69 36 70 37 71 38 72 39 73 65 74 66 75 75 76 67 77 68 78
REMARK SMILES IDX 74 79 76 80 69 81 70 82 71 83 72 84 73 85 49 86 50 87 59 88
REMARK SMILES IDX 51 89 52 90 58 91 60 92 53 93 54 94 55 95 56 96 57 97
REMARK H PARENT 12 8 6 13 19 28 81 47 47 58
REMARK Flexibility Score: inf
ROOT
ATOM      1  C   UNL     1       6.438   6.483  -4.286  1.00  0.00     0.002 C 
ENDROOT
BRANCH   1   2
ATOM      2  C   UNL     1       7.078   5.198  -4.822  1.00  0.00     0.002 C 
BRANCH   2   3
ATOM      3  C   UNL     1       6.971   3.969  -3.925  1.00  0.00     0.021 C 
BRANCH   3   4
ATOM      4  C   UNL     1       5.569   3.591  -3.485  1.00  0.00     0.116 C 
BRANCH   4   5
ATOM      5  N   UNL     1       4.792   2.840  -4.440  1.00  0.00    -0.356 N 
ATOM      6  C   UNL     1       3.840   1.894  -4.183  1.00  0.00     0.229 C 
ATOM      7  O   UNL     1       3.285   1.366  -5.152  1.00  0.00    -0.275 OA
ATOM      8  H   UNL     1       4.968   3.032  -5.390  1.00  0.00     0.163 HD
BRANCH   6   9
ATOM      9  C   UNL     1       3.480   1.453  -2.758  1.00  0.00     0.139 C 
ATOM     10  N   UNL     1       4.731   1.065  -0.728  1.00  0.00    -0.330 N 
ATOM     11  C   UNL     1       4.227   2.435  -0.662  1.00  0.00     0.263 C 
ATOM     12  C   UNL     1       4.548   0.581  -2.103  1.00  0.00     0.276 C 
ATOM     13  H   UNL     1       5.730   1.067  -0.520  1.00  0.00     0.348 HD
ATOM     14  C   UNL     1       3.175   2.563  -1.758  1.00  0.00     0.081 C 
BRANCH  10  15
ATOM     15  C   UNL     1       4.261   0.170   0.338  1.00  0.00     0.299 C 
BRANCH  15  16
ATOM     16  C   UNL     1       2.762  -0.021   0.464  1.00  0.00     0.007 A 
ATOM     17  C   UNL     1       0.145  -2.682  -0.293  1.00  0.00     0.045 C 
ATOM     18  C   UNL     1       0.751  -1.362   0.088  1.00  0.00    -0.036 A 
ATOM     19  C   UNL     1       2.148  -1.206   0.038  1.00  0.00     0.014 A 
ATOM     20  C   UNL     1      -0.035  -0.272   0.492  1.00  0.00     0.020 A 
ATOM     21  C   UNL     1       0.565   0.889   0.970  1.00  0.00     0.016 A 
ATOM     22  Br  UNL     1      -1.931  -0.304   0.408  1.00  0.00    -0.051 Br
ATOM     23  C   UNL     1       1.953   0.986   1.009  1.00  0.00     0.011 A 
ENDBRANCH  15  16
ENDBRANCH  10  15
ENDBRANCH   6   9
ENDBRANCH   4   5
ENDBRANCH   3   4
ENDBRANCH   2   3
ENDBRANCH   1   2
BRANCH   1  24
ATOM     24  C   UNL     1       6.839   6.909  -2.869  1.00  0.00     0.021 C 
BRANCH  24  25
ATOM     25  C   UNL     1       8.339   7.026  -2.610  1.00  0.00     0.116 C 
BRANCH  25  26
ATOM     26  N   UNL     1       8.999   7.909  -3.557  1.00  0.00    -0.352 N 
ATOM     27  C   UNL     1       9.811   8.988  -3.330  1.00  0.00     0.251 C 
ATOM     28  H   UNL     1       8.837   7.700  -4.506  1.00  0.00     0.163 HD
ATOM     29  O   UNL     1      10.126   9.721  -4.270  1.00  0.00    -0.269 OA
BRANCH  27  30
ATOM     30  C   UNL     1      10.296   9.285  -1.967  1.00  0.00     0.039 A 
ATOM     31  C   UNL     1      10.286  10.609  -1.520  1.00  0.00     0.014 A 
ATOM     32  C   UNL     1      10.781   8.269  -1.138  1.00  0.00     0.014 A 
ATOM     33  C   UNL     1      10.710  10.906  -0.223  1.00  0.00     0.010 A 
ATOM     34  C   UNL     1      11.135   8.557   0.178  1.00  0.00     0.010 A 
ATOM     35  C   UNL     1      11.110   9.879   0.647  1.00  0.00    -0.014 A 
BRANCH  35  36
ATOM     36  C   UNL     1      11.506  10.169   2.049  1.00  0.00     0.031 A 
ATOM     37  C   UNL     1      12.912   9.897   2.510  1.00  0.00     0.074 A 
ATOM     38  C   UNL     1      10.584  10.627   2.918  1.00  0.00     0.049 A 
ATOM     39  N   UNL     1      13.431  10.032   3.703  1.00  0.00    -0.248 NA
ATOM     40  C   UNL     1      13.852   9.381   1.502  1.00  0.00     0.031 C 
ATOM     41  C   UNL     1       9.179  10.892   2.599  1.00  0.00     0.029 A 
ATOM     42  N   UNL     1      10.686  10.945   4.249  1.00  0.00    -0.354 N 
ATOM     43  C   UNL     1      14.752   9.613   3.592  1.00  0.00     0.074 A 
ATOM     44  C   UNL     1      14.936   9.160   2.231  1.00  0.00     0.031 C 
ATOM     45  C   UNL     1       8.559  11.360   3.694  1.00  0.00     0.029 A 
ATOM     46  C   UNL     1       9.508  11.389   4.803  1.00  0.00     0.049 A 
ATOM     47  H   UNL     1      11.524  10.863   4.760  1.00  0.00     0.167 HD
ATOM     48  C   UNL     1      15.728   9.628   4.532  1.00  0.00     0.037 A 
ATOM     49  C   UNL     1       9.223  11.771   6.063  1.00  0.00     0.037 A 
ATOM     50  C   UNL     1      15.537  10.093   5.882  1.00  0.00     0.049 A 
ATOM     51  C   UNL     1      10.317  11.756   7.096  1.00  0.00     0.074 A 
ATOM     52  C   UNL     1      16.470  10.188   6.899  1.00  0.00     0.029 A 
ATOM     53  N   UNL     1      14.330  10.536   6.405  1.00  0.00    -0.354 N 
ATOM     54  N   UNL     1      11.575  11.408   6.961  1.00  0.00    -0.248 NA
ATOM     55  C   UNL     1       9.956  12.190   8.452  1.00  0.00     0.031 C 
ATOM     56  C   UNL     1      15.817  10.643   8.050  1.00  0.00     0.029 A 
ATOM     57  C   UNL     1      14.489  10.885   7.736  1.00  0.00     0.049 A 
ATOM     58  H   UNL     1      13.485  10.593   5.903  1.00  0.00     0.167 HD
ATOM     59  C   UNL     1      12.162  11.611   8.205  1.00  0.00     0.074 A 
ATOM     60  C   UNL     1      11.123  12.121   9.077  1.00  0.00     0.031 C 
ATOM     61  C   UNL     1      13.445  11.397   8.590  1.00  0.00     0.037 A 
BRANCH  48  62
ATOM     62  C   UNL     1      17.090   9.128   4.127  1.00  0.00     0.058 A 
ATOM     63  C   UNL     1      17.891   9.831   3.212  1.00  0.00     0.135 A 
ATOM     64  C   UNL     1      17.608   7.941   4.670  1.00  0.00     0.135 A 
ATOM     65  F   UNL     1      17.442  10.964   2.650  1.00  0.00    -0.206 F 
ATOM     66  C   UNL     1      19.138   9.355   2.819  1.00  0.00     0.059 A 
ATOM     67  C   UNL     1      18.867   7.463   4.316  1.00  0.00     0.059 A 
ATOM     68  F   UNL     1      16.888   7.229   5.551  1.00  0.00    -0.206 F 
ATOM     69  C   UNL     1      19.616   8.168   3.375  1.00  0.00     0.060 A 
BRANCH  69  70
ATOM     70  S   UNL     1      21.230   7.557   2.844  1.00  0.00     0.124 S 
ATOM     71  O   UNL     1      20.934   7.092   1.493  1.00  0.00    -0.237 OA
ATOM     72  O   UNL     1      22.061   8.754   2.934  1.00  0.00    -0.237 OA
ATOM     73  O   UNL     1      21.535   6.511   3.815  1.00  0.00    -0.744 OA
ENDBRANCH  69  70
ENDBRANCH  48  62
BRANCH  49  74
ATOM     74  C   UNL     1       7.851  12.231   6.408  1.00  0.00     0.058 A 
ATOM     75  C   UNL     1       7.597  13.579   6.702  1.00  0.00     0.135 A 
ATOM     76  C   UNL     1       6.766  11.342   6.431  1.00  0.00     0.135 A 
ATOM     77  F   UNL     1       8.603  14.467   6.699  1.00  0.00    -0.206 F 
ATOM     78  C   UNL     1       6.320  14.028   7.022  1.00  0.00     0.059 A 
ATOM     79  C   UNL     1       5.474  11.771   6.722  1.00  0.00     0.059 A 
ATOM     80  F   UNL     1       6.951  10.045   6.141  1.00  0.00    -0.206 F 
ATOM     81  C   UNL     1       5.263  13.116   7.025  1.00  0.00     0.060 A 
BRANCH  81  82
ATOM     82  S   UNL     1       3.601  13.720   7.390  1.00  0.00     0.124 S 
ATOM     83  O   UNL     1       3.693  13.988   8.820  1.00  0.00    -0.237 OA
ATOM     84  O   UNL     1       3.505  14.891   6.524  1.00  0.00    -0.237 OA
ATOM     85  O   UNL     1       2.747  12.598   7.011  1.00  0.00    -0.744 OA
ENDBRANCH  81  82
ENDBRANCH  49  74
BRANCH  61  86
ATOM     86  C   UNL     1      13.811  11.749  10.006  1.00  0.00     0.058 A 
ATOM     87  C   UNL     1      13.373  10.982  11.097  1.00  0.00     0.135 A 
ATOM     88  C   UNL     1      14.653  12.842  10.270  1.00  0.00     0.135 A 
ATOM     89  F   UNL     1      12.560   9.931  10.901  1.00  0.00    -0.206 F 
ATOM     90  C   UNL     1      13.737  11.300  12.401  1.00  0.00     0.059 A 
ATOM     91  C   UNL     1      15.055  13.160  11.563  1.00  0.00     0.059 A 
ATOM     92  F   UNL     1      15.109  13.603   9.263  1.00  0.00    -0.206 F 
ATOM     93  C   UNL     1      14.581  12.389  12.624  1.00  0.00     0.060 A 
BRANCH  93  94
ATOM     94  S   UNL     1      15.074  12.768  14.319  1.00  0.00     0.124 S 
ATOM     95  O   UNL     1      13.842  13.327  14.866  1.00  0.00    -0.237 OA
ATOM     96  O   UNL     1      15.459  11.457  14.832  1.00  0.00    -0.237 OA
ATOM     97  O   UNL     1      16.172  13.716  14.150  1.00  0.00    -0.744 OA
ENDBRANCH  93  94
ENDBRANCH  61  86
ENDBRANCH  35  36
ENDBRANCH  27  30
ENDBRANCH  25  26
ENDBRANCH  24  25
ENDBRANCH   1  24
TORSDOF 18
