REMARK SMILES O=C(NCCCCCCNC(=O)[C@]1([NH2+]C2CC2)CC[C@@H](SCCCO)C1)c1ccc(-c2c3nc(c(-c4c(F)cc(S(=O)(=O)[O-])cc4F)c4ccc([nH]4)c(-c4c(F)cc(S(=O)(=O)[O-])cc4F)c4nc(c(-c5c(F)cc(S(=O)(=O)[O-])cc5F)c5ccc2[nH]5)C=C4)C=C3)cc1
REMARK SMILES IDX 7 1 6 2 5 3 4 4 3 5 1 6 2 7 27 9 28 10 92 11 29 12 91 13
REMARK SMILES IDX 30 14 31 15 32 16 85 17 33 18 90 19 84 20 86 21 34 22 89 23
REMARK SMILES IDX 83 24 82 25 35 27 69 28 48 29 68 30 49 31 52 32 67 33 87 34
REMARK SMILES IDX 50 35 51 36 66 38 88 39 53 40 36 41 37 42 46 43 38 44 39 45
REMARK SMILES IDX 45 46 47 47 40 48 41 49 42 50 43 51 44 52 70 53 71 54 80 55
REMARK SMILES IDX 72 56 73 57 79 58 81 59 74 60 75 61 76 62 77 63 78 64 54 65
REMARK SMILES IDX 55 66 64 67 56 68 57 69 63 70 65 71 58 72 59 73 60 74 61 75
REMARK SMILES IDX 62 76 8 77 9 78 10 79 11 80 12 82 13 83 18 84 26 85 19 86
REMARK SMILES IDX 20 87 14 88 15 91 16 92 17 93 21 94 22 95 23 96 24 97 25 98
REMARK H PARENT 3 8 86 26 52 37 10 81 14 89 14 90 25 99
REMARK Flexibility Score: inf
ROOT
ATOM      1  C   UNL     1       6.314   5.106  -1.953  1.00  0.00     0.002 C 
ENDROOT
BRANCH   1   2
ATOM      2  C   UNL     1       6.404   6.571  -1.524  1.00  0.00     0.002 C 
BRANCH   2   3
ATOM      3  C   UNL     1       5.361   7.499  -2.139  1.00  0.00     0.021 C 
BRANCH   3   4
ATOM      4  C   UNL     1       3.918   7.032  -2.006  1.00  0.00     0.116 C 
BRANCH   4   5
ATOM      5  N   UNL     1       3.450   7.002  -0.630  1.00  0.00    -0.352 N 
ATOM      6  O   UNL     1       2.166   7.606   1.131  1.00  0.00    -0.269 OA
ATOM      7  C   UNL     1       2.356   7.631  -0.082  1.00  0.00     0.251 C 
ATOM      8  H   UNL     1       3.987   6.460  -0.008  1.00  0.00     0.163 HD
BRANCH   7   9
ATOM      9  C   UNL     1       1.430   8.364  -0.970  1.00  0.00     0.039 A 
ATOM     10  C   UNL     1       0.968   7.768  -2.145  1.00  0.00     0.014 A 
ATOM     11  C   UNL     1       1.054   9.671  -0.648  1.00  0.00     0.014 A 
ATOM     12  C   UNL     1       0.269   8.530  -3.071  1.00  0.00     0.010 A 
ATOM     13  C   UNL     1       0.262  10.404  -1.538  1.00  0.00     0.010 A 
ATOM     14  C   UNL     1      -0.113   9.850  -2.771  1.00  0.00    -0.014 A 
BRANCH  14  15
ATOM     15  C   UNL     1      -0.975  10.577  -3.739  1.00  0.00     0.031 A 
ATOM     16  C   UNL     1      -0.505  11.819  -4.444  1.00  0.00     0.074 A 
ATOM     17  C   UNL     1      -2.186  10.053  -4.018  1.00  0.00     0.049 A 
ATOM     18  N   UNL     1      -1.122  12.525  -5.358  1.00  0.00    -0.248 NA
ATOM     19  C   UNL     1       0.819  12.345  -4.076  1.00  0.00     0.031 C 
ATOM     20  C   UNL     1      -2.757   8.868  -3.369  1.00  0.00     0.029 A 
ATOM     21  N   UNL     1      -3.138  10.419  -4.931  1.00  0.00    -0.354 N 
ATOM     22  C   UNL     1      -0.272  13.580  -5.670  1.00  0.00     0.074 A 
ATOM     23  C   UNL     1       0.895  13.439  -4.824  1.00  0.00     0.031 C 
ATOM     24  C   UNL     1      -3.928   8.570  -3.945  1.00  0.00     0.029 A 
ATOM     25  C   UNL     1      -4.225   9.576  -4.957  1.00  0.00     0.049 A 
ATOM     26  H   UNL     1      -3.054  11.208  -5.513  1.00  0.00     0.167 HD
ATOM     27  C   UNL     1      -0.449  14.566  -6.583  1.00  0.00     0.037 A 
ATOM     28  C   UNL     1      -5.345   9.613  -5.700  1.00  0.00     0.037 A 
ATOM     29  C   UNL     1      -1.615  14.692  -7.424  1.00  0.00     0.049 A 
ATOM     30  C   UNL     1      -5.507  10.709  -6.710  1.00  0.00     0.074 A 
ATOM     31  C   UNL     1      -1.887  15.654  -8.382  1.00  0.00     0.029 A 
ATOM     32  N   UNL     1      -2.701  13.828  -7.411  1.00  0.00    -0.354 N 
ATOM     33  N   UNL     1      -4.684  11.690  -6.996  1.00  0.00    -0.248 NA
ATOM     34  C   UNL     1      -6.745  10.706  -7.498  1.00  0.00     0.031 C 
ATOM     35  C   UNL     1      -3.150  15.389  -8.926  1.00  0.00     0.029 A 
ATOM     36  C   UNL     1      -3.647  14.238  -8.338  1.00  0.00     0.049 A 
ATOM     37  H   UNL     1      -2.787  13.038  -6.829  1.00  0.00     0.167 HD
ATOM     38  C   UNL     1      -5.308  12.425  -7.996  1.00  0.00     0.074 A 
ATOM     39  C   UNL     1      -6.557  11.751  -8.291  1.00  0.00     0.031 C 
ATOM     40  C   UNL     1      -4.891  13.561  -8.607  1.00  0.00     0.037 A 
BRANCH  27  41
ATOM     41  C   UNL     1       0.641  15.595  -6.728  1.00  0.00     0.058 A 
ATOM     42  C   UNL     1       1.861  15.289  -7.352  1.00  0.00     0.135 A 
ATOM     43  C   UNL     1       0.441  16.918  -6.301  1.00  0.00     0.135 A 
ATOM     44  F   UNL     1       2.112  14.037  -7.767  1.00  0.00    -0.206 F 
ATOM     45  C   UNL     1       2.849  16.253  -7.534  1.00  0.00     0.059 A 
ATOM     46  C   UNL     1       1.406  17.904  -6.492  1.00  0.00     0.059 A 
ATOM     47  F   UNL     1      -0.707  17.267  -5.699  1.00  0.00    -0.206 F 
ATOM     48  C   UNL     1       2.611  17.559  -7.102  1.00  0.00     0.060 A 
BRANCH  48  49
ATOM     49  S   UNL     1       3.896  18.801  -7.365  1.00  0.00     0.124 S 
ATOM     50  O   UNL     1       4.888  18.408  -6.369  1.00  0.00    -0.237 OA
ATOM     51  O   UNL     1       4.271  18.573  -8.757  1.00  0.00    -0.237 OA
ATOM     52  O   UNL     1       3.209  20.062  -7.103  1.00  0.00    -0.744 OA
ENDBRANCH  48  49
ENDBRANCH  27  41
BRANCH  28  53
ATOM     53  C   UNL     1      -6.400   8.588  -5.493  1.00  0.00     0.058 A 
ATOM     54  C   UNL     1      -6.671   7.613  -6.462  1.00  0.00     0.135 A 
ATOM     55  C   UNL     1      -7.141   8.550  -4.300  1.00  0.00     0.135 A 
ATOM     56  F   UNL     1      -5.989   7.607  -7.618  1.00  0.00    -0.206 F 
ATOM     57  C   UNL     1      -7.652   6.646  -6.267  1.00  0.00     0.059 A 
ATOM     58  C   UNL     1      -8.105   7.577  -4.069  1.00  0.00     0.059 A 
ATOM     59  F   UNL     1      -6.902   9.448  -3.331  1.00  0.00    -0.206 F 
ATOM     60  C   UNL     1      -8.364   6.637  -5.065  1.00  0.00     0.060 A 
BRANCH  60  61
ATOM     61  S   UNL     1      -9.606   5.355  -4.797  1.00  0.00     0.124 S 
ATOM     62  O   UNL     1     -10.720   5.858  -5.592  1.00  0.00    -0.237 OA
ATOM     63  O   UNL     1      -8.939   4.164  -5.312  1.00  0.00    -0.237 OA
ATOM     64  O   UNL     1      -9.800   5.378  -3.350  1.00  0.00    -0.744 OA
ENDBRANCH  60  61
ENDBRANCH  28  53
BRANCH  40  65
ATOM     65  C   UNL     1      -5.800  14.134  -9.656  1.00  0.00     0.058 A 
ATOM     66  C   UNL     1      -7.005  14.768  -9.314  1.00  0.00     0.135 A 
ATOM     67  C   UNL     1      -5.467  14.044 -11.016  1.00  0.00     0.135 A 
ATOM     68  F   UNL     1      -7.372  14.871  -8.027  1.00  0.00    -0.206 F 
ATOM     69  C   UNL     1      -7.869  15.258 -10.287  1.00  0.00     0.059 A 
ATOM     70  C   UNL     1      -6.303  14.551 -12.005  1.00  0.00     0.059 A 
ATOM     71  F   UNL     1      -4.321  13.456 -11.395  1.00  0.00    -0.206 F 
ATOM     72  C   UNL     1      -7.512  15.139 -11.631  1.00  0.00     0.060 A 
BRANCH  72  73
ATOM     73  S   UNL     1      -8.642  15.772 -12.888  1.00  0.00     0.124 S 
ATOM     74  O   UNL     1      -9.663  14.731 -12.915  1.00  0.00    -0.237 OA
ATOM     75  O   UNL     1      -9.056  17.053 -12.323  1.00  0.00    -0.237 OA
ATOM     76  O   UNL     1      -7.804  15.862 -14.081  1.00  0.00    -0.744 OA
ENDBRANCH  72  73
ENDBRANCH  40  65
ENDBRANCH  14  15
ENDBRANCH   7   9
ENDBRANCH   4   5
ENDBRANCH   3   4
ENDBRANCH   2   3
ENDBRANCH   1   2
BRANCH   1  77
ATOM     77  C   UNL     1       6.241   4.847  -3.464  1.00  0.00     0.021 C 
BRANCH  77  78
ATOM     78  C   UNL     1       7.427   5.367  -4.278  1.00  0.00     0.116 C 
BRANCH  78  79
ATOM     79  N   UNL     1       8.632   4.645  -3.929  1.00  0.00    -0.351 N 
ATOM     80  C   UNL     1       9.281   3.634  -4.565  1.00  0.00     0.281 C 
ATOM     81  H   UNL     1       9.053   4.936  -3.088  1.00  0.00     0.163 HD
ATOM     82  O   UNL     1      10.162   3.071  -3.901  1.00  0.00    -0.268 OA
BRANCH  80  83
ATOM     83  C   UNL     1       9.061   3.279  -6.068  1.00  0.00     0.176 C 
ATOM     84  C   UNL     1       9.853   2.009  -6.430  1.00  0.00     0.080 C 
ATOM     85  C   UNL     1       9.717   4.354  -6.968  1.00  0.00     0.093 C 
ATOM     86  C   UNL     1      11.278   2.465  -6.740  1.00  0.00     0.022 C 
ATOM     87  C   UNL     1      11.191   3.958  -7.061  1.00  0.00     0.053 C 
BRANCH  83  88
ATOM     88  N   UNL     1       7.628   3.168  -6.439  1.00  0.00    -0.331 N 
ATOM     89  H   UNL     1       7.575   3.177  -7.458  1.00  0.00     0.347 HD
ATOM     90  H   UNL     1       7.175   3.955  -5.974  1.00  0.00     0.347 HD
BRANCH  88  91
ATOM     91  C   UNL     1       6.901   1.982  -5.970  1.00  0.00     0.183 C 
ATOM     92  C   UNL     1       5.476   2.134  -5.515  1.00  0.00     0.071 C 
ATOM     93  C   UNL     1       5.761   1.493  -6.834  1.00  0.00     0.071 C 
ENDBRANCH  88  91
ENDBRANCH  83  88
BRANCH  87  94
ATOM     94  S   UNL     1      12.171   4.413  -8.553  1.00  0.00    -0.158 SA
BRANCH  94  95
ATOM     95  C   UNL     1      11.010   4.413  -9.969  1.00  0.00     0.072 C 
BRANCH  95  96
ATOM     96  C   UNL     1      10.864   3.092 -10.730  1.00  0.00     0.039 C 
BRANCH  96  97
ATOM     97  C   UNL     1       9.891   2.079 -10.148  1.00  0.00     0.157 C 
BRANCH  97  98
ATOM     98  O   UNL     1       8.549   2.540 -10.101  1.00  0.00    -0.396 OA
ATOM     99  H   UNL     1       8.495   3.319  -9.525  1.00  0.00     0.210 HD
ENDBRANCH  97  98
ENDBRANCH  96  97
ENDBRANCH  95  96
ENDBRANCH  94  95
ENDBRANCH  87  94
ENDBRANCH  80  83
ENDBRANCH  78  79
ENDBRANCH  77  78
ENDBRANCH   1  77
TORSDOF 23
