REMARK SMILES N#C/C(=C\c1ccc(Oc2ccccc2Cl)c([N+](=O)[O-])c1)C(=O)NCCCCCCNC(=O)c1ccc(-c2c3nc(c(-c4c(F)cc(S(=O)(=O)[O-])cc4F)c4ccc([nH]4)c(-c4c(F)cc(S(=O)(=O)[O-])cc4F)c4nc(c(-c5c(F)cc(S(=O)(=O)[O-])cc5F)c5ccc2[nH]5)C=C4)C=C3)cc1
REMARK SMILES IDX 27 1 26 2 25 3 24 4 22 5 23 6 3 8 4 9 2 10 1 11 5 12 6 13
REMARK SMILES IDX 21 14 7 15 17 16 8 17 18 18 19 19 20 20 9 21 10 22 11 23
REMARK SMILES IDX 15 24 12 25 14 26 16 27 13 28 28 29 29 30 30 31 31 32 32 33
REMARK SMILES IDX 33 35 34 36 35 37 99 38 36 39 98 40 37 41 38 42 39 43 92 44
REMARK SMILES IDX 40 45 97 46 91 47 93 48 41 49 96 50 90 51 89 52 42 54 76 55
REMARK SMILES IDX 55 56 75 57 56 58 59 59 74 60 94 61 57 62 58 63 73 65 95 66
REMARK SMILES IDX 60 67 43 68 44 69 53 70 45 71 46 72 52 73 54 74 47 75 48 76
REMARK SMILES IDX 49 77 50 78 51 79 77 80 78 81 87 82 79 83 80 84 86 85 88 86
REMARK SMILES IDX 81 87 82 88 83 89 84 90 85 91 61 92 62 93 71 94 63 95 64 96
REMARK SMILES IDX 70 97 72 98 65 99 66 100 67 101 68 102 69 103
REMARK H PARENT 24 7 31 34 93 53 59 64
REMARK Flexibility Score: inf
ROOT
ATOM      1  C   UNL     1       8.697   0.670   1.640  1.00  0.00     0.002 C 
ENDROOT
BRANCH   1   2
ATOM      2  C   UNL     1       7.637   0.760   0.534  1.00  0.00     0.021 C 
BRANCH   2   3
ATOM      3  C   UNL     1       6.892  -0.561   0.326  1.00  0.00     0.116 C 
BRANCH   3   4
ATOM      4  N   UNL     1       5.795  -0.674   1.267  1.00  0.00    -0.351 N 
ATOM      5  C   UNL     1       4.459  -0.451   1.167  1.00  0.00     0.261 C 
ATOM      6  O   UNL     1       3.785  -0.633   2.182  1.00  0.00    -0.268 OA
ATOM      7  H   UNL     1       6.076  -0.975   2.161  1.00  0.00     0.163 HD
BRANCH   5   8
ATOM      8  C   UNL     1       3.792  -0.032  -0.094  1.00  0.00     0.117 C 
ATOM      9  C   UNL     1       4.348   0.544  -1.190  1.00  0.00     0.033 C 
BRANCH   8  10
ATOM     10  C   UNL     1       2.272  -0.032  -0.094  1.00  0.00     0.105 C 
ATOM     11  N   UNL     1       1.011  -0.032  -0.094  1.00  0.00    -0.192 NA
ENDBRANCH   8  10
BRANCH   9  12
ATOM     12  C   UNL     1       3.616   0.956  -2.416  1.00  0.00    -0.017 A 
ATOM     13  C   UNL     1       3.997   0.449  -3.663  1.00  0.00     0.012 A 
ATOM     14  C   UNL     1       2.519   1.819  -2.366  1.00  0.00     0.098 A 
ATOM     15  C   UNL     1       3.292   0.804  -4.826  1.00  0.00     0.055 A 
ATOM     16  C   UNL     1       1.761   2.089  -3.521  1.00  0.00     0.312 A 
ATOM     17  C   UNL     1       2.161   1.638  -4.781  1.00  0.00     0.204 A 
BRANCH  16  18
ATOM     18  N   UNL     1       0.494   2.746  -3.270  1.00  0.00     0.066 N 
ATOM     19  O   UNL     1      -0.536   2.097  -3.499  1.00  0.00    -0.258 OA
ATOM     20  O   UNL     1       0.536   3.878  -2.768  1.00  0.00    -0.258 OA
ENDBRANCH  16  18
BRANCH  17  21
ATOM     21  O   UNL     1       1.633   1.876  -6.032  1.00  0.00    -0.449 OA
BRANCH  21  22
ATOM     22  C   UNL     1       0.636   2.798  -6.218  1.00  0.00     0.146 A 
ATOM     23  C   UNL     1      -0.591   2.286  -6.654  1.00  0.00     0.049 A 
ATOM     24  C   UNL     1       0.791   4.178  -6.041  1.00  0.00     0.083 A 
ATOM     25  C   UNL     1      -1.691   3.130  -6.796  1.00  0.00     0.004 A 
ATOM     26  C   UNL     1      -0.321   5.017  -6.160  1.00  0.00     0.024 A 
ATOM     27  Cl  UNL     1       2.314   4.886  -5.645  1.00  0.00    -0.080 Cl
ATOM     28  C   UNL     1      -1.563   4.490  -6.521  1.00  0.00     0.002 A 
ENDBRANCH  21  22
ENDBRANCH  17  21
ENDBRANCH   9  12
ENDBRANCH   5   8
ENDBRANCH   3   4
ENDBRANCH   2   3
ENDBRANCH   1   2
BRANCH   1  29
ATOM     29  C   UNL     1       9.784  -0.384   1.391  1.00  0.00     0.002 C 
BRANCH  29  30
ATOM     30  C   UNL     1      10.509  -0.243   0.050  1.00  0.00     0.021 C 
BRANCH  30  31
ATOM     31  C   UNL     1      11.287   1.060  -0.088  1.00  0.00     0.116 C 
BRANCH  31  32
ATOM     32  N   UNL     1      12.344   1.148   0.908  1.00  0.00    -0.352 N 
ATOM     33  C   UNL     1      13.699   1.246   0.720  1.00  0.00     0.251 C 
ATOM     34  H   UNL     1      12.045   1.136   1.846  1.00  0.00     0.163 HD
ATOM     35  O   UNL     1      14.470   1.024   1.645  1.00  0.00    -0.269 OA
BRANCH  33  36
ATOM     36  C   UNL     1      14.211   1.617  -0.614  1.00  0.00     0.039 A 
ATOM     37  C   UNL     1      15.281   0.905  -1.160  1.00  0.00     0.014 A 
ATOM     38  C   UNL     1      13.619   2.666  -1.323  1.00  0.00     0.014 A 
ATOM     39  C   UNL     1      15.723   1.213  -2.447  1.00  0.00     0.010 A 
ATOM     40  C   UNL     1      14.009   2.918  -2.631  1.00  0.00     0.010 A 
ATOM     41  C   UNL     1      15.069   2.200  -3.204  1.00  0.00    -0.014 A 
BRANCH  41  42
ATOM     42  C   UNL     1      15.474   2.505  -4.598  1.00  0.00     0.031 A 
ATOM     43  C   UNL     1      15.986   3.875  -4.945  1.00  0.00     0.074 A 
ATOM     44  C   UNL     1      15.291   1.581  -5.562  1.00  0.00     0.049 A 
ATOM     45  N   UNL     1      16.282   4.374  -6.117  1.00  0.00    -0.248 NA
ATOM     46  C   UNL     1      16.157   4.820  -3.829  1.00  0.00     0.031 C 
ATOM     47  C   UNL     1      14.753   0.236  -5.352  1.00  0.00     0.029 A 
ATOM     48  N   UNL     1      15.515   1.641  -6.914  1.00  0.00    -0.354 N 
ATOM     49  C   UNL     1      16.651   5.694  -5.883  1.00  0.00     0.074 A 
ATOM     50  C   UNL     1      16.491   5.933  -4.466  1.00  0.00     0.031 C 
ATOM     51  C   UNL     1      14.693  -0.403  -6.531  1.00  0.00     0.029 A 
ATOM     52  C   UNL     1      15.145   0.500  -7.585  1.00  0.00     0.049 A 
ATOM     53  H   UNL     1      15.903   2.427  -7.362  1.00  0.00     0.167 HD
ATOM     54  C   UNL     1      17.099   6.615  -6.769  1.00  0.00     0.037 A 
ATOM     55  C   UNL     1      15.146   0.219  -8.903  1.00  0.00     0.037 A 
ATOM     56  C   UNL     1      17.272   6.355  -8.174  1.00  0.00     0.049 A 
ATOM     57  C   UNL     1      15.649   1.255  -9.871  1.00  0.00     0.074 A 
ATOM     58  C   UNL     1      17.789   7.194  -9.145  1.00  0.00     0.029 A 
ATOM     59  N   UNL     1      16.922   5.173  -8.812  1.00  0.00    -0.354 N 
ATOM     60  N   UNL     1      16.071   2.473  -9.625  1.00  0.00    -0.248 NA
ATOM     61  C   UNL     1      15.683   0.882 -11.291  1.00  0.00     0.031 C 
ATOM     62  C   UNL     1      17.696   6.542 -10.379  1.00  0.00     0.029 A 
ATOM     63  C   UNL     1      17.182   5.272 -10.168  1.00  0.00     0.049 A 
ATOM     64  H   UNL     1      16.545   4.381  -8.365  1.00  0.00     0.167 HD
ATOM     65  C   UNL     1      16.445   3.002 -10.855  1.00  0.00     0.074 A 
ATOM     66  C   UNL     1      16.206   1.969 -11.842  1.00  0.00     0.031 C 
ATOM     67  C   UNL     1      16.945   4.230 -11.139  1.00  0.00     0.037 A 
BRANCH  54  68
ATOM     68  C   UNL     1      17.420   7.989  -6.245  1.00  0.00     0.058 A 
ATOM     69  C   UNL     1      18.503   8.221  -5.381  1.00  0.00     0.135 A 
ATOM     70  C   UNL     1      16.642   9.095  -6.627  1.00  0.00     0.135 A 
ATOM     71  F   UNL     1      19.273   7.200  -4.973  1.00  0.00    -0.206 F 
ATOM     72  C   UNL     1      18.776   9.489  -4.880  1.00  0.00     0.059 A 
ATOM     73  C   UNL     1      16.918  10.378  -6.165  1.00  0.00     0.059 A 
ATOM     74  F   UNL     1      15.596   8.933  -7.452  1.00  0.00    -0.206 F 
ATOM     75  C   UNL     1      17.975  10.562  -5.276  1.00  0.00     0.060 A 
BRANCH  75  76
ATOM     76  S   UNL     1      18.334  12.198  -4.604  1.00  0.00     0.124 S 
ATOM     77  O   UNL     1      17.887  12.048  -3.222  1.00  0.00    -0.237 OA
ATOM     78  O   UNL     1      19.777  12.304  -4.794  1.00  0.00    -0.237 OA
ATOM     79  O   UNL     1      17.527  13.090  -5.430  1.00  0.00    -0.744 OA
ENDBRANCH  75  76
ENDBRANCH  54  68
BRANCH  55  80
ATOM     80  C   UNL     1      14.656  -1.105  -9.372  1.00  0.00     0.058 A 
ATOM     81  C   UNL     1      15.540  -2.069  -9.879  1.00  0.00     0.135 A 
ATOM     82  C   UNL     1      13.298  -1.449  -9.279  1.00  0.00     0.135 A 
ATOM     83  F   UNL     1      16.846  -1.787  -9.993  1.00  0.00    -0.206 F 
ATOM     84  C   UNL     1      15.095  -3.324 -10.283  1.00  0.00     0.059 A 
ATOM     85  C   UNL     1      12.833  -2.705  -9.651  1.00  0.00     0.059 A 
ATOM     86  F   UNL     1      12.414  -0.569  -8.782  1.00  0.00    -0.206 F 
ATOM     87  C   UNL     1      13.740  -3.635 -10.158  1.00  0.00     0.060 A 
BRANCH  87  88
ATOM     88  S   UNL     1      13.185  -5.292 -10.616  1.00  0.00     0.124 S 
ATOM     89  O   UNL     1      13.291  -5.246 -12.070  1.00  0.00    -0.237 OA
ATOM     90  O   UNL     1      14.155  -6.139  -9.930  1.00  0.00    -0.237 OA
ATOM     91  O   UNL     1      11.827  -5.349 -10.083  1.00  0.00    -0.744 OA
ENDBRANCH  87  88
ENDBRANCH  55  80
BRANCH  67  92
ATOM     92  C   UNL     1      17.306   4.527 -12.569  1.00  0.00     0.058 A 
ATOM     93  C   UNL     1      16.326   4.751 -13.548  1.00  0.00     0.135 A 
ATOM     94  C   UNL     1      18.652   4.678 -12.940  1.00  0.00     0.135 A 
ATOM     95  F   UNL     1      15.025   4.610 -13.248  1.00  0.00    -0.206 F 
ATOM     96  C   UNL     1      16.669   5.108 -14.848  1.00  0.00     0.059 A 
ATOM     97  C   UNL     1      19.017   5.063 -14.226  1.00  0.00     0.059 A 
ATOM     98  F   UNL     1      19.628   4.482 -12.039  1.00  0.00    -0.206 F 
ATOM     99  C   UNL     1      18.017   5.272 -15.175  1.00  0.00     0.060 A 
BRANCH  99 100
ATOM    100  S   UNL     1      18.443   5.802 -16.847  1.00  0.00     0.124 S 
ATOM    101  O   UNL     1      18.148   4.601 -17.621  1.00  0.00    -0.237 OA
ATOM    102  O   UNL     1      17.539   6.929 -17.055  1.00  0.00    -0.237 OA
ATOM    103  O   UNL     1      19.857   6.151 -16.744  1.00  0.00    -0.744 OA
ENDBRANCH  99 100
ENDBRANCH  67  92
ENDBRANCH  41  42
ENDBRANCH  33  36
ENDBRANCH  31  32
ENDBRANCH  30  31
ENDBRANCH  29  30
ENDBRANCH   1  29
TORSDOF 21
