REMARK SMILES COCc1cc(-n2cnc(C(=O)NCCCCCCNC(=O)c3ccc(-c4c5nc(c(-c6c(F)cc(S(=O)(=O)[O-])cc6F)c6ccc([nH]6)c(-c6c(F)cc(S(=O)(=O)[O-])cc6F)c6nc(c(-c7c(F)cc(S(=O)(=O)[O-])cc7F)c7ccc4[nH]7)C=C6)C=C5)cc3)c2)nc(-c2cccnc2)n1
REMARK SMILES IDX 16 1 15 2 14 3 13 4 11 5 12 6 10 8 7 9 8 10 89 11 9 12 6 13
REMARK SMILES IDX 4 14 5 15 98 16 91 17 90 18 3 19 2 20 1 21 92 22 93 23 97 24
REMARK SMILES IDX 94 25 96 26 95 27 17 28 18 29 19 30 20 31 21 32 22 34 23 35
REMARK SMILES IDX 24 36 88 37 25 38 87 39 26 40 27 41 28 42 81 43 29 44 86 45
REMARK SMILES IDX 80 46 82 47 30 48 85 49 79 50 78 51 31 53 65 54 44 55 64 56
REMARK SMILES IDX 45 57 48 58 63 59 83 60 46 61 47 62 62 64 84 65 49 66 32 67
REMARK SMILES IDX 33 68 42 69 34 70 35 71 41 72 43 73 36 74 37 75 38 76 39 77
REMARK SMILES IDX 40 78 66 79 67 80 76 81 68 82 69 83 75 84 77 85 70 86 71 87
REMARK SMILES IDX 72 88 73 89 74 90 50 91 51 92 60 93 52 94 53 95 59 96 61 97
REMARK SMILES IDX 54 98 55 99 56 100 57 101 58 102
REMARK H PARENT 13 7 20 33 82 52 48 63
REMARK Flexibility Score: inf
ROOT
ATOM      1  C   UNL     1      -7.090   6.039  -4.069  1.00  0.00     0.002 C 
ENDROOT
BRANCH   1   2
ATOM      2  C   UNL     1      -5.916   5.156  -3.644  1.00  0.00     0.021 C 
BRANCH   2   3
ATOM      3  C   UNL     1      -5.106   5.651  -2.447  1.00  0.00     0.116 C 
BRANCH   3   4
ATOM      4  N   UNL     1      -5.824   5.567  -1.189  1.00  0.00    -0.351 N 
ATOM      5  C   UNL     1      -5.490   4.963   0.005  1.00  0.00     0.271 C 
ATOM      6  O   UNL     1      -6.328   4.994   0.908  1.00  0.00    -0.267 OA
ATOM      7  H   UNL     1      -6.698   6.019  -1.187  1.00  0.00     0.163 HD
BRANCH   5   8
ATOM      8  C   UNL     1      -4.201   4.280   0.161  1.00  0.00     0.146 A 
ATOM      9  N   UNL     1      -2.185   3.487  -0.197  1.00  0.00    -0.290 N 
ATOM     10  C   UNL     1      -2.845   2.698   0.708  1.00  0.00     0.206 A 
ATOM     11  C   UNL     1      -2.968   4.603  -0.379  1.00  0.00     0.128 A 
ATOM     12  N   UNL     1      -4.058   3.144   0.945  1.00  0.00    -0.231 NA
BRANCH   9  13
ATOM     13  C   UNL     1      -0.977   3.216  -0.880  1.00  0.00     0.142 A 
ATOM     14  C   UNL     1       0.564   1.706  -1.805  1.00  0.00     0.072 A 
ATOM     15  C   UNL     1      -0.597   1.907  -1.081  1.00  0.00     0.074 A 
ATOM     16  N   UNL     1       1.290   2.735  -2.299  1.00  0.00    -0.230 NA
ATOM     17  C   UNL     1       0.833   3.975  -2.054  1.00  0.00     0.163 A 
ATOM     18  N   UNL     1      -0.285   4.265  -1.369  1.00  0.00    -0.210 NA
BRANCH  14  19
ATOM     19  C   UNL     1       1.052   0.298  -2.079  1.00  0.00     0.216 C 
BRANCH  19  20
ATOM     20  O   UNL     1       0.671  -0.629  -1.054  1.00  0.00    -0.378 OA
ATOM     21  C   UNL     1       1.407  -0.470   0.151  1.00  0.00     0.195 C 
ENDBRANCH  19  20
ENDBRANCH  14  19
BRANCH  17  22
ATOM     22  C   UNL     1       1.649   5.104  -2.478  1.00  0.00     0.038 A 
ATOM     23  C   UNL     1       2.091   6.070  -1.562  1.00  0.00     0.015 A 
ATOM     24  C   UNL     1       2.017   5.291  -3.806  1.00  0.00     0.123 A 
ATOM     25  C   UNL     1       2.857   7.150  -1.991  1.00  0.00     0.021 A 
ATOM     26  N   UNL     1       2.747   6.344  -4.258  1.00  0.00    -0.264 NA
ATOM     27  C   UNL     1       3.151   7.245  -3.340  1.00  0.00     0.111 A 
ENDBRANCH  17  22
ENDBRANCH   9  13
ENDBRANCH   5   8
ENDBRANCH   3   4
ENDBRANCH   2   3
ENDBRANCH   1   2
BRANCH   1  28
ATOM     28  C   UNL     1      -6.785   7.525  -4.304  1.00  0.00     0.002 C 
BRANCH  28  29
ATOM     29  C   UNL     1      -5.596   7.863  -5.215  1.00  0.00     0.021 C 
BRANCH  29  30
ATOM     30  C   UNL     1      -5.748   7.400  -6.656  1.00  0.00     0.116 C 
BRANCH  30  31
ATOM     31  N   UNL     1      -6.845   8.073  -7.350  1.00  0.00    -0.352 N 
ATOM     32  C   UNL     1      -7.334   7.837  -8.623  1.00  0.00     0.251 C 
ATOM     33  H   UNL     1      -7.295   8.788  -6.845  1.00  0.00     0.163 HD
ATOM     34  O   UNL     1      -7.982   8.687  -9.208  1.00  0.00    -0.269 OA
BRANCH  32  35
ATOM     35  C   UNL     1      -7.050   6.535  -9.258  1.00  0.00     0.039 A 
ATOM     36  C   UNL     1      -6.725   6.441 -10.613  1.00  0.00     0.014 A 
ATOM     37  C   UNL     1      -7.085   5.399  -8.456  1.00  0.00     0.014 A 
ATOM     38  C   UNL     1      -6.350   5.202 -11.129  1.00  0.00     0.010 A 
ATOM     39  C   UNL     1      -6.556   4.223  -8.920  1.00  0.00     0.010 A 
ATOM     40  C   UNL     1      -6.245   4.098 -10.269  1.00  0.00    -0.014 A 
BRANCH  40  41
ATOM     41  C   UNL     1      -5.705   2.825 -10.741  1.00  0.00     0.031 A 
ATOM     42  C   UNL     1      -4.357   2.929 -11.363  1.00  0.00     0.074 A 
ATOM     43  C   UNL     1      -6.257   1.631 -10.427  1.00  0.00     0.049 A 
ATOM     44  N   UNL     1      -4.045   2.795 -12.609  1.00  0.00    -0.248 NA
ATOM     45  C   UNL     1      -3.240   3.398 -10.524  1.00  0.00     0.031 C 
ATOM     46  C   UNL     1      -7.392   1.378  -9.527  1.00  0.00     0.029 A 
ATOM     47  N   UNL     1      -5.851   0.371 -10.750  1.00  0.00    -0.354 N 
ATOM     48  C   UNL     1      -2.655   2.897 -12.662  1.00  0.00     0.074 A 
ATOM     49  C   UNL     1      -2.251   3.489 -11.416  1.00  0.00     0.031 C 
ATOM     50  C   UNL     1      -7.423   0.073  -9.186  1.00  0.00     0.029 A 
ATOM     51  C   UNL     1      -6.448  -0.633  -9.994  1.00  0.00     0.049 A 
ATOM     52  H   UNL     1      -5.192   0.187 -11.458  1.00  0.00     0.167 HD
ATOM     53  C   UNL     1      -1.941   2.204 -13.594  1.00  0.00     0.037 A 
ATOM     54  C   UNL     1      -6.175  -1.959 -10.027  1.00  0.00     0.037 A 
ATOM     55  C   UNL     1      -2.819   1.659 -14.598  1.00  0.00     0.049 A 
ATOM     56  C   UNL     1      -5.536  -2.239 -11.334  1.00  0.00     0.074 A 
ATOM     57  C   UNL     1      -3.576   2.151 -15.637  1.00  0.00     0.029 A 
ATOM     58  N   UNL     1      -3.291   0.406 -14.302  1.00  0.00    -0.354 N 
ATOM     59  N   UNL     1      -6.145  -2.094 -12.479  1.00  0.00    -0.248 NA
ATOM     60  C   UNL     1      -4.083  -2.334 -11.411  1.00  0.00     0.031 C 
ATOM     61  C   UNL     1      -4.669   1.245 -15.787  1.00  0.00     0.029 A 
ATOM     62  C   UNL     1      -4.521   0.205 -14.869  1.00  0.00     0.049 A 
ATOM     63  H   UNL     1      -2.812  -0.259 -13.756  1.00  0.00     0.167 HD
ATOM     64  C   UNL     1      -5.161  -1.653 -13.343  1.00  0.00     0.074 A 
ATOM     65  C   UNL     1      -3.903  -1.989 -12.689  1.00  0.00     0.031 C 
ATOM     66  C   UNL     1      -5.452  -0.777 -14.347  1.00  0.00     0.037 A 
BRANCH  53  67
ATOM     67  C   UNL     1      -0.562   1.605 -13.375  1.00  0.00     0.058 A 
ATOM     68  C   UNL     1       0.107   1.006 -14.467  1.00  0.00     0.135 A 
ATOM     69  C   UNL     1      -0.013   1.321 -12.105  1.00  0.00     0.135 A 
ATOM     70  F   UNL     1      -0.329   1.196 -15.723  1.00  0.00    -0.206 F 
ATOM     71  C   UNL     1       1.191   0.140 -14.302  1.00  0.00     0.059 A 
ATOM     72  C   UNL     1       1.099   0.504 -11.923  1.00  0.00     0.059 A 
ATOM     73  F   UNL     1      -0.582   1.735 -10.968  1.00  0.00    -0.206 F 
ATOM     74  C   UNL     1       1.670  -0.116 -13.021  1.00  0.00     0.060 A 
BRANCH  74  75
ATOM     75  S   UNL     1       3.007  -1.301 -12.788  1.00  0.00     0.124 S 
ATOM     76  O   UNL     1       2.344  -2.557 -13.120  1.00  0.00    -0.237 OA
ATOM     77  O   UNL     1       4.002  -0.828 -13.744  1.00  0.00    -0.237 OA
ATOM     78  O   UNL     1       3.365  -1.129 -11.383  1.00  0.00    -0.744 OA
ENDBRANCH  74  75
ENDBRANCH  53  67
BRANCH  54  79
ATOM     79  C   UNL     1      -6.215  -2.944  -8.919  1.00  0.00     0.058 A 
ATOM     80  C   UNL     1      -6.264  -4.326  -9.165  1.00  0.00     0.135 A 
ATOM     81  C   UNL     1      -5.918  -2.554  -7.597  1.00  0.00     0.135 A 
ATOM     82  F   UNL     1      -6.525  -4.782 -10.399  1.00  0.00    -0.206 F 
ATOM     83  C   UNL     1      -5.981  -5.270  -8.171  1.00  0.00     0.059 A 
ATOM     84  C   UNL     1      -5.637  -3.476  -6.589  1.00  0.00     0.059 A 
ATOM     85  F   UNL     1      -5.800  -1.257  -7.273  1.00  0.00    -0.206 F 
ATOM     86  C   UNL     1      -5.645  -4.833  -6.890  1.00  0.00     0.060 A 
BRANCH  86  87
ATOM     87  S   UNL     1      -5.104  -6.040  -5.655  1.00  0.00     0.124 S 
ATOM     88  O   UNL     1      -6.340  -6.767  -5.382  1.00  0.00    -0.237 OA
ATOM     89  O   UNL     1      -4.075  -6.780  -6.377  1.00  0.00    -0.237 OA
ATOM     90  O   UNL     1      -4.615  -5.207  -4.560  1.00  0.00    -0.744 OA
ENDBRANCH  86  87
ENDBRANCH  54  79
BRANCH  66  91
ATOM     91  C   UNL     1      -6.869  -0.728 -14.843  1.00  0.00     0.058 A 
ATOM     92  C   UNL     1      -7.970  -0.254 -14.111  1.00  0.00     0.135 A 
ATOM     93  C   UNL     1      -7.097  -1.101 -16.176  1.00  0.00     0.135 A 
ATOM     94  F   UNL     1      -7.824   0.199 -12.858  1.00  0.00    -0.206 F 
ATOM     95  C   UNL     1      -9.248  -0.187 -14.672  1.00  0.00     0.059 A 
ATOM     96  C   UNL     1      -8.353  -1.013 -16.765  1.00  0.00     0.059 A 
ATOM     97  F   UNL     1      -6.074  -1.518 -16.942  1.00  0.00    -0.206 F 
ATOM     98  C   UNL     1      -9.428  -0.568 -16.002  1.00  0.00     0.060 A 
BRANCH  98  99
ATOM     99  S   UNL     1     -11.065  -0.422 -16.751  1.00  0.00     0.124 S 
ATOM    100  O   UNL     1     -11.802  -1.494 -16.090  1.00  0.00    -0.237 OA
ATOM    101  O   UNL     1     -11.459   0.936 -16.389  1.00  0.00    -0.237 OA
ATOM    102  O   UNL     1     -10.808  -0.627 -18.175  1.00  0.00    -0.744 OA
ENDBRANCH  98  99
ENDBRANCH  66  91
ENDBRANCH  40  41
ENDBRANCH  32  35
ENDBRANCH  30  31
ENDBRANCH  29  30
ENDBRANCH  28  29
ENDBRANCH   1  28
TORSDOF 20
