REMARK SMILES COc1cccc(N(CC(=O)NCCCCCCNC(=O)c2ccc(-c3c4nc(c(-c5c(F)cc(S(=O)(=O)[O-])cc5F)c5ccc([nH]5)c(-c5c(F)cc(S(=O)(=O)[O-])cc5F)c5nc(c(-c6c(F)cc(S(=O)(=O)[O-])cc6F)c6ccc3[nH]6)C=C5)C=C4)cc2)S(=O)(=O)c2ccc(C)cc2)c1
REMARK SMILES IDX 15 1 14 2 13 3 12 4 10 5 11 6 9 8 8 9 7 10 3 11 4 12 98 13
REMARK SMILES IDX 5 14 6 15 2 16 1 17 88 18 89 19 90 20 91 21 92 22 97 23
REMARK SMILES IDX 93 24 96 25 94 26 95 27 16 28 17 29 18 30 19 31 20 32 21 34
REMARK SMILES IDX 22 35 23 36 87 37 24 38 86 39 25 40 26 41 27 42 80 43 28 44
REMARK SMILES IDX 85 45 79 46 81 47 29 48 84 49 78 50 77 51 30 53 64 54 43 55
REMARK SMILES IDX 63 56 44 57 47 58 62 59 82 60 45 61 46 62 61 64 83 65 48 66
REMARK SMILES IDX 31 67 32 68 41 69 33 70 34 71 40 72 42 73 35 74 36 75 37 76
REMARK SMILES IDX 38 77 39 78 65 79 66 80 75 81 67 82 68 83 74 84 76 85 69 86
REMARK SMILES IDX 70 87 71 88 72 89 73 90 49 91 50 92 59 93 51 94 52 95 58 96
REMARK SMILES IDX 60 97 53 98 54 99 55 100 56 101 57 102
REMARK H PARENT 12 7 19 33 81 52 47 63
REMARK Flexibility Score: inf
ROOT
ATOM      1  C   UNL     1       3.115  -6.280   2.672  1.00  0.00     0.002 C 
ENDROOT
BRANCH   1   2
ATOM      2  C   UNL     1       2.800  -4.817   3.004  1.00  0.00     0.021 C 
BRANCH   2   3
ATOM      3  C   UNL     1       2.864  -4.489   4.493  1.00  0.00     0.116 C 
BRANCH   3   4
ATOM      4  N   UNL     1       4.218  -4.494   5.011  1.00  0.00    -0.355 N 
ATOM      5  C   UNL     1       4.995  -3.457   5.436  1.00  0.00     0.240 C 
ATOM      6  O   UNL     1       6.043  -3.742   6.025  1.00  0.00    -0.273 OA
ATOM      7  H   UNL     1       4.641  -5.381   5.063  1.00  0.00     0.163 HD
BRANCH   5   8
ATOM      8  C   UNL     1       4.566  -2.001   5.279  1.00  0.00     0.235 C 
BRANCH   8   9
ATOM      9  N   UNL     1       4.025  -1.664   3.938  1.00  0.00    -0.257 N 
BRANCH   9  10
ATOM     10  C   UNL     1       2.679  -1.062   3.806  1.00  0.00     0.056 A 
ATOM     11  C   UNL     1       0.845  -0.222   2.400  1.00  0.00     0.120 A 
ATOM     12  C   UNL     1      -0.007  -0.199   3.499  1.00  0.00     0.046 A 
ATOM     13  C   UNL     1       2.167  -0.667   2.554  1.00  0.00     0.073 A 
ATOM     14  C   UNL     1       0.453  -0.611   4.740  1.00  0.00     0.006 A 
ATOM     15  C   UNL     1       1.778  -1.034   4.887  1.00  0.00     0.027 A 
BRANCH  11  16
ATOM     16  O   UNL     1       0.273   0.215   1.238  1.00  0.00    -0.497 OA
ATOM     17  C   UNL     1       0.989  -0.016   0.032  1.00  0.00     0.278 C 
ENDBRANCH  11  16
ENDBRANCH   9  10
BRANCH   9  18
ATOM     18  S   UNL     1       5.176  -1.276   2.713  1.00  0.00     0.264 S 
ATOM     19  O   UNL     1       4.848  -2.049   1.531  1.00  0.00    -0.201 OA
ATOM     20  O   UNL     1       5.254   0.171   2.631  1.00  0.00    -0.201 OA
BRANCH  18  21
ATOM     21  C   UNL     1       6.778  -1.833   3.251  1.00  0.00     0.088 A 
ATOM     22  C   UNL     1       7.147  -3.171   3.104  1.00  0.00     0.022 A 
ATOM     23  C   UNL     1       7.691  -0.897   3.750  1.00  0.00     0.022 A 
ATOM     24  C   UNL     1       8.408  -3.586   3.545  1.00  0.00     0.005 A 
ATOM     25  C   UNL     1       8.953  -1.314   4.171  1.00  0.00     0.005 A 
ATOM     26  C   UNL     1       9.317  -2.663   4.084  1.00  0.00    -0.051 A 
ATOM     27  C   UNL     1      10.644  -3.129   4.606  1.00  0.00     0.044 C 
ENDBRANCH  18  21
ENDBRANCH   9  18
ENDBRANCH   8   9
ENDBRANCH   5   8
ENDBRANCH   3   4
ENDBRANCH   2   3
ENDBRANCH   1   2
BRANCH   1  28
ATOM     28  C   UNL     1       2.237  -7.316   3.384  1.00  0.00     0.002 C 
BRANCH  28  29
ATOM     29  C   UNL     1       0.728  -7.127   3.206  1.00  0.00     0.021 C 
BRANCH  29  30
ATOM     30  C   UNL     1       0.242  -7.185   1.761  1.00  0.00     0.116 C 
BRANCH  30  31
ATOM     31  N   UNL     1       0.486  -8.486   1.156  1.00  0.00    -0.352 N 
ATOM     32  C   UNL     1      -0.396  -9.344   0.547  1.00  0.00     0.251 C 
ATOM     33  H   UNL     1       1.420  -8.796   1.189  1.00  0.00     0.163 HD
ATOM     34  O   UNL     1      -0.047 -10.490   0.280  1.00  0.00    -0.269 OA
BRANCH  32  35
ATOM     35  C   UNL     1      -1.769  -8.892   0.231  1.00  0.00     0.039 A 
ATOM     36  C   UNL     1      -2.842  -9.744   0.507  1.00  0.00     0.014 A 
ATOM     37  C   UNL     1      -1.997  -7.640  -0.348  1.00  0.00     0.014 A 
ATOM     38  C   UNL     1      -4.148  -9.315   0.258  1.00  0.00     0.010 A 
ATOM     39  C   UNL     1      -3.302  -7.188  -0.531  1.00  0.00     0.010 A 
ATOM     40  C   UNL     1      -4.391  -8.021  -0.233  1.00  0.00    -0.014 A 
BRANCH  40  41
ATOM     41  C   UNL     1      -5.775  -7.521  -0.434  1.00  0.00     0.031 A 
ATOM     42  C   UNL     1      -6.262  -7.173  -1.815  1.00  0.00     0.074 A 
ATOM     43  C   UNL     1      -6.572  -7.322   0.635  1.00  0.00     0.049 A 
ATOM     44  N   UNL     1      -7.409  -6.661  -2.181  1.00  0.00    -0.248 NA
ATOM     45  C   UNL     1      -5.328  -7.407  -2.928  1.00  0.00     0.031 C 
ATOM     46  C   UNL     1      -6.198  -7.577   2.028  1.00  0.00     0.029 A 
ATOM     47  N   UNL     1      -7.857  -6.847   0.720  1.00  0.00    -0.354 N 
ATOM     48  C   UNL     1      -7.330  -6.499  -3.559  1.00  0.00     0.074 A 
ATOM     49  C   UNL     1      -6.005  -6.920  -3.958  1.00  0.00     0.031 C 
ATOM     50  C   UNL     1      -7.235  -7.274   2.825  1.00  0.00     0.029 A 
ATOM     51  C   UNL     1      -8.333  -6.768   2.008  1.00  0.00     0.049 A 
ATOM     52  H   UNL     1      -8.388  -6.587  -0.067  1.00  0.00     0.167 HD
ATOM     53  C   UNL     1      -8.283  -6.061  -4.417  1.00  0.00     0.037 A 
ATOM     54  C   UNL     1      -9.517  -6.329   2.479  1.00  0.00     0.037 A 
ATOM     55  C   UNL     1      -9.609  -5.666  -4.016  1.00  0.00     0.049 A 
ATOM     56  C   UNL     1     -10.558  -5.845   1.507  1.00  0.00     0.074 A 
ATOM     57  C   UNL     1     -10.665  -5.263  -4.814  1.00  0.00     0.029 A 
ATOM     58  N   UNL     1     -10.060  -5.620  -2.704  1.00  0.00    -0.354 N 
ATOM     59  N   UNL     1     -10.489  -5.761   0.199  1.00  0.00    -0.248 NA
ATOM     60  C   UNL     1     -11.841  -5.403   2.071  1.00  0.00     0.031 C 
ATOM     61  C   UNL     1     -11.740  -4.931  -3.983  1.00  0.00     0.029 A 
ATOM     62  C   UNL     1     -11.372  -5.176  -2.670  1.00  0.00     0.049 A 
ATOM     63  H   UNL     1      -9.526  -5.866  -1.915  1.00  0.00     0.167 HD
ATOM     64  C   UNL     1     -11.727  -5.282  -0.217  1.00  0.00     0.074 A 
ATOM     65  C   UNL     1     -12.529  -5.108   0.977  1.00  0.00     0.031 C 
ATOM     66  C   UNL     1     -12.160  -5.013  -1.473  1.00  0.00     0.037 A 
BRANCH  53  67
ATOM     67  C   UNL     1      -7.930  -5.991  -5.878  1.00  0.00     0.058 A 
ATOM     68  C   UNL     1      -7.745  -7.151  -6.649  1.00  0.00     0.135 A 
ATOM     69  C   UNL     1      -7.812  -4.751  -6.527  1.00  0.00     0.135 A 
ATOM     70  F   UNL     1      -7.831  -8.363  -6.078  1.00  0.00    -0.206 F 
ATOM     71  C   UNL     1      -7.427  -7.083  -8.001  1.00  0.00     0.059 A 
ATOM     72  C   UNL     1      -7.524  -4.660  -7.886  1.00  0.00     0.059 A 
ATOM     73  F   UNL     1      -7.980  -3.610  -5.840  1.00  0.00    -0.206 F 
ATOM     74  C   UNL     1      -7.319  -5.833  -8.611  1.00  0.00     0.060 A 
BRANCH  74  75
ATOM     75  S   UNL     1      -6.913  -5.764 -10.369  1.00  0.00     0.124 S 
ATOM     76  O   UNL     1      -5.503  -6.140 -10.357  1.00  0.00    -0.237 OA
ATOM     77  O   UNL     1      -7.826  -6.750 -10.939  1.00  0.00    -0.237 OA
ATOM     78  O   UNL     1      -7.189  -4.377 -10.729  1.00  0.00    -0.744 OA
ENDBRANCH  74  75
ENDBRANCH  53  67
BRANCH  54  79
ATOM     79  C   UNL     1      -9.786  -6.344   3.942  1.00  0.00     0.058 A 
ATOM     80  C   UNL     1     -10.708  -7.244   4.497  1.00  0.00     0.135 A 
ATOM     81  C   UNL     1      -9.120  -5.470   4.815  1.00  0.00     0.135 A 
ATOM     82  F   UNL     1     -11.375  -8.095   3.702  1.00  0.00    -0.206 F 
ATOM     83  C   UNL     1     -10.974  -7.266   5.862  1.00  0.00     0.059 A 
ATOM     84  C   UNL     1      -9.349  -5.491   6.187  1.00  0.00     0.059 A 
ATOM     85  F   UNL     1      -8.214  -4.602   4.337  1.00  0.00    -0.206 F 
ATOM     86  C   UNL     1     -10.287  -6.386   6.700  1.00  0.00     0.060 A 
BRANCH  86  87
ATOM     87  S   UNL     1     -10.605  -6.455   8.477  1.00  0.00     0.124 S 
ATOM     88  O   UNL     1     -11.925  -5.841   8.563  1.00  0.00    -0.237 OA
ATOM     89  O   UNL     1     -10.548  -7.889   8.743  1.00  0.00    -0.237 OA
ATOM     90  O   UNL     1      -9.507  -5.677   9.043  1.00  0.00    -0.744 OA
ENDBRANCH  86  87
ENDBRANCH  54  79
BRANCH  66  91
ATOM     91  C   UNL     1     -13.577  -4.535  -1.630  1.00  0.00     0.058 A 
ATOM     92  C   UNL     1     -13.966  -3.241  -1.250  1.00  0.00     0.135 A 
ATOM     93  C   UNL     1     -14.546  -5.365  -2.216  1.00  0.00     0.135 A 
ATOM     94  F   UNL     1     -13.081  -2.409  -0.678  1.00  0.00    -0.206 F 
ATOM     95  C   UNL     1     -15.272  -2.795  -1.425  1.00  0.00     0.059 A 
ATOM     96  C   UNL     1     -15.851  -4.930  -2.427  1.00  0.00     0.059 A 
ATOM     97  F   UNL     1     -14.224  -6.609  -2.607  1.00  0.00    -0.206 F 
ATOM     98  C   UNL     1     -16.207  -3.646  -2.017  1.00  0.00     0.060 A 
BRANCH  98  99
ATOM     99  S   UNL     1     -17.890  -3.043  -2.270  1.00  0.00     0.124 S 
ATOM    100  O   UNL     1     -18.420  -3.073  -0.911  1.00  0.00    -0.237 OA
ATOM    101  O   UNL     1     -17.664  -1.716  -2.834  1.00  0.00    -0.237 OA
ATOM    102  O   UNL     1     -18.466  -4.018  -3.191  1.00  0.00    -0.744 OA
ENDBRANCH  98  99
ENDBRANCH  66  91
ENDBRANCH  40  41
ENDBRANCH  32  35
ENDBRANCH  30  31
ENDBRANCH  29  30
ENDBRANCH  28  29
ENDBRANCH   1  28
TORSDOF 21
