REMARK SMILES CCC(=O)Nc1cc(NC(=O)/C=C/C(=O)NCCCCCCNC(=O)c2ccc(-c3c4nc(c(-c5c(F)cc(S(=O)(=O)[O-])cc5F)c5ccc([nH]5)c(-c5c(F)cc(S(=O)(=O)[O-])cc5F)c5nc(c(-c6c(F)cc(S(=O)(=O)[O-])cc6F)c6ccc3[nH]6)C=C5)C=C4)cc2)ccc1C
REMARK SMILES IDX 19 1 18 2 17 3 16 4 14 5 15 6 13 8 12 9 10 10 9 11 11 13
REMARK SMILES IDX 8 14 6 15 7 16 94 17 93 18 95 19 92 20 5 21 3 22 4 23 2 25
REMARK SMILES IDX 1 26 20 27 21 28 22 29 23 30 24 31 25 33 26 34 27 35 91 36
REMARK SMILES IDX 28 37 90 38 29 39 30 40 31 41 84 42 32 43 89 44 83 45 85 46
REMARK SMILES IDX 33 47 88 48 82 49 81 50 34 52 68 53 47 54 67 55 48 56 51 57
REMARK SMILES IDX 66 58 86 59 49 60 50 61 65 63 87 64 52 65 35 66 36 67 45 68
REMARK SMILES IDX 37 69 38 70 44 71 46 72 39 73 40 74 41 75 42 76 43 77 69 78
REMARK SMILES IDX 70 79 79 80 71 81 72 82 78 83 80 84 73 85 74 86 75 87 76 88
REMARK SMILES IDX 77 89 53 90 54 91 63 92 55 93 56 94 62 95 64 96 57 97 58 98
REMARK SMILES IDX 59 99 60 100 61 101
REMARK H PARENT 16 7 9 12 5 24 23 32 85 51 51 62
REMARK Flexibility Score: inf
ROOT
ATOM      1  C   UNL     1       4.846   8.558   3.339  1.00  0.00     0.002 C 
ENDROOT
BRANCH   1   2
ATOM      2  C   UNL     1       5.830   7.384   3.410  1.00  0.00     0.021 C 
BRANCH   2   3
ATOM      3  C   UNL     1       5.229   6.055   3.854  1.00  0.00     0.116 C 
BRANCH   3   4
ATOM      4  N   UNL     1       4.313   5.527   2.862  1.00  0.00    -0.353 N 
ATOM      5  C   UNL     1       4.483   4.491   2.005  1.00  0.00     0.244 C 
ATOM      6  O   UNL     1       3.662   4.264   1.117  1.00  0.00    -0.270 OA
ATOM      7  H   UNL     1       3.444   5.986   2.803  1.00  0.00     0.163 HD
BRANCH   5   8
ATOM      8  C   UNL     1       5.631   3.577   2.167  1.00  0.00     0.077 C 
ATOM      9  C   UNL     1       5.721   2.862   3.300  1.00  0.00     0.077 C 
BRANCH   9  10
ATOM     10  C   UNL     1       6.566   1.657   3.364  1.00  0.00     0.248 C 
ATOM     11  N   UNL     1       6.251   0.556   2.611  1.00  0.00    -0.322 N 
ATOM     12  H   UNL     1       6.897  -0.183   2.689  1.00  0.00     0.170 HD
ATOM     13  O   UNL     1       7.547   1.647   4.103  1.00  0.00    -0.270 OA
BRANCH  11  14
ATOM     14  C   UNL     1       5.171   0.288   1.744  1.00  0.00     0.043 A 
ATOM     15  C   UNL     1       3.057   0.885   0.692  1.00  0.00     0.046 A 
ATOM     16  C   UNL     1       3.974   1.002   1.740  1.00  0.00     0.052 A 
ATOM     17  C   UNL     1       3.309  -0.009  -0.355  1.00  0.00    -0.027 A 
ATOM     18  C   UNL     1       4.426  -0.855  -0.256  1.00  0.00     0.008 A 
ATOM     19  C   UNL     1       2.540  -0.010  -1.647  1.00  0.00     0.046 C 
ATOM     20  C   UNL     1       5.349  -0.708   0.785  1.00  0.00     0.026 A 
BRANCH  15  21
ATOM     21  N   UNL     1       2.069   1.874   0.614  1.00  0.00    -0.326 N 
ATOM     22  C   UNL     1       0.718   1.752   0.774  1.00  0.00     0.224 C 
ATOM     23  O   UNL     1      -0.018   2.708   0.521  1.00  0.00    -0.275 OA
ATOM     24  H   UNL     1       2.392   2.782   0.415  1.00  0.00     0.169 HD
BRANCH  22  25
ATOM     25  C   UNL     1       0.141   0.482   1.368  1.00  0.00     0.097 C 
ATOM     26  C   UNL     1      -0.029  -0.660   0.393  1.00  0.00     0.014 C 
ENDBRANCH  22  25
ENDBRANCH  15  21
ENDBRANCH  11  14
ENDBRANCH   9  10
ENDBRANCH   5   8
ENDBRANCH   3   4
ENDBRANCH   2   3
ENDBRANCH   1   2
BRANCH   1  27
ATOM     27  C   UNL     1       4.033   8.875   4.606  1.00  0.00     0.002 C 
BRANCH  27  28
ATOM     28  C   UNL     1       4.769   8.833   5.950  1.00  0.00     0.021 C 
BRANCH  28  29
ATOM     29  C   UNL     1       6.005   9.711   6.028  1.00  0.00     0.116 C 
BRANCH  29  30
ATOM     30  N   UNL     1       5.823  10.972   6.721  1.00  0.00    -0.352 N 
ATOM     31  C   UNL     1       6.939  11.553   7.317  1.00  0.00     0.251 C 
ATOM     32  H   UNL     1       4.939  11.403   6.770  1.00  0.00     0.163 HD
ATOM     33  O   UNL     1       7.204  11.506   8.506  1.00  0.00    -0.269 OA
BRANCH  31  34
ATOM     34  C   UNL     1       7.944  12.017   6.333  1.00  0.00     0.039 A 
ATOM     35  C   UNL     1       7.881  13.300   5.794  1.00  0.00     0.014 A 
ATOM     36  C   UNL     1       8.778  11.040   5.785  1.00  0.00     0.014 A 
ATOM     37  C   UNL     1       8.584  13.573   4.617  1.00  0.00     0.010 A 
ATOM     38  C   UNL     1       9.401  11.289   4.577  1.00  0.00     0.010 A 
ATOM     39  C   UNL     1       9.285  12.547   3.973  1.00  0.00    -0.014 A 
BRANCH  39  40
ATOM     40  C   UNL     1       9.832  12.656   2.620  1.00  0.00     0.031 A 
ATOM     41  C   UNL     1      11.295  12.694   2.377  1.00  0.00     0.074 A 
ATOM     42  C   UNL     1       9.006  12.646   1.549  1.00  0.00     0.049 A 
ATOM     43  N   UNL     1      11.831  13.176   1.303  1.00  0.00    -0.248 NA
ATOM     44  C   UNL     1      12.280  12.213   3.340  1.00  0.00     0.031 C 
ATOM     45  C   UNL     1       9.380  12.435   0.152  1.00  0.00     0.029 A 
ATOM     46  N   UNL     1       7.668  13.033   1.493  1.00  0.00    -0.354 N 
ATOM     47  C   UNL     1      13.166  12.855   1.313  1.00  0.00     0.074 A 
ATOM     48  C   UNL     1      13.408  12.291   2.623  1.00  0.00     0.031 C 
ATOM     49  C   UNL     1       8.415  12.931  -0.635  1.00  0.00     0.029 A 
ATOM     50  C   UNL     1       7.447  13.594   0.218  1.00  0.00     0.049 A 
ATOM     51  H   UNL     1       7.000  12.933   2.210  1.00  0.00     0.167 HD
ATOM     52  C   UNL     1      13.917  13.000   0.184  1.00  0.00     0.037 A 
ATOM     53  C   UNL     1       7.039  14.891   0.086  1.00  0.00     0.037 A 
ATOM     54  C   UNL     1      13.151  13.540  -0.933  1.00  0.00     0.049 A 
ATOM     55  C   UNL     1       8.033  15.802  -0.608  1.00  0.00     0.074 A 
ATOM     56  C   UNL     1      12.547  12.997  -2.055  1.00  0.00     0.029 A 
ATOM     57  N   UNL     1      12.691  14.840  -0.850  1.00  0.00    -0.354 N 
ATOM     58  N   UNL     1       9.172  15.414  -1.113  1.00  0.00    -0.248 NA
ATOM     59  C   UNL     1       7.851  17.253  -0.710  1.00  0.00     0.031 C 
ATOM     60  C   UNL     1      11.719  13.993  -2.646  1.00  0.00     0.029 A 
ATOM     61  C   UNL     1      11.817  15.136  -1.877  1.00  0.00     0.049 A 
ATOM     62  H   UNL     1      12.954  15.476  -0.146  1.00  0.00     0.167 HD
ATOM     63  C   UNL     1       9.898  16.515  -1.488  1.00  0.00     0.074 A 
ATOM     64  C   UNL     1       9.016  17.641  -1.255  1.00  0.00     0.031 C 
ATOM     65  C   UNL     1      11.194  16.446  -1.902  1.00  0.00     0.037 A 
BRANCH  52  66
ATOM     66  C   UNL     1      15.312  12.444   0.060  1.00  0.00     0.058 A 
ATOM     67  C   UNL     1      15.753  11.845  -1.137  1.00  0.00     0.135 A 
ATOM     68  C   UNL     1      16.249  12.445   1.112  1.00  0.00     0.135 A 
ATOM     69  F   UNL     1      14.993  11.838  -2.240  1.00  0.00    -0.206 F 
ATOM     70  C   UNL     1      16.981  11.194  -1.247  1.00  0.00     0.059 A 
ATOM     71  C   UNL     1      17.463  11.753   1.045  1.00  0.00     0.059 A 
ATOM     72  F   UNL     1      16.014  13.129   2.243  1.00  0.00    -0.206 F 
ATOM     73  C   UNL     1      17.814  11.116  -0.139  1.00  0.00     0.060 A 
BRANCH  73  74
ATOM     74  S   UNL     1      19.319  10.131  -0.258  1.00  0.00     0.124 S 
ATOM     75  O   UNL     1      18.834   8.896  -0.870  1.00  0.00    -0.237 OA
ATOM     76  O   UNL     1      20.163  10.968  -1.103  1.00  0.00    -0.237 OA
ATOM     77  O   UNL     1      19.748  10.001   1.132  1.00  0.00    -0.744 OA
ENDBRANCH  73  74
ENDBRANCH  52  66
BRANCH  53  78
ATOM     78  C   UNL     1       6.098  15.296   1.166  1.00  0.00     0.058 A 
ATOM     79  C   UNL     1       4.844  14.653   1.211  1.00  0.00     0.135 A 
ATOM     80  C   UNL     1       6.559  15.906   2.339  1.00  0.00     0.135 A 
ATOM     81  F   UNL     1       4.347  14.074   0.105  1.00  0.00    -0.206 F 
ATOM     82  C   UNL     1       4.169  14.456   2.410  1.00  0.00     0.059 A 
ATOM     83  C   UNL     1       5.888  15.735   3.550  1.00  0.00     0.059 A 
ATOM     84  F   UNL     1       7.741  16.538   2.354  1.00  0.00    -0.206 F 
ATOM     85  C   UNL     1       4.745  14.934   3.585  1.00  0.00     0.060 A 
BRANCH  85  86
ATOM     86  S   UNL     1       4.078  14.353   5.162  1.00  0.00     0.124 S 
ATOM     87  O   UNL     1       2.656  14.639   5.020  1.00  0.00    -0.237 OA
ATOM     88  O   UNL     1       4.449  12.936   5.144  1.00  0.00    -0.237 OA
ATOM     89  O   UNL     1       4.792  15.161   6.144  1.00  0.00    -0.744 OA
ENDBRANCH  85  86
ENDBRANCH  53  78
BRANCH  65  90
ATOM     90  C   UNL     1      11.988  17.639  -2.348  1.00  0.00     0.058 A 
ATOM     91  C   UNL     1      11.503  18.533  -3.316  1.00  0.00     0.135 A 
ATOM     92  C   UNL     1      13.318  17.837  -1.922  1.00  0.00     0.135 A 
ATOM     93  F   UNL     1      10.261  18.399  -3.808  1.00  0.00    -0.206 F 
ATOM     94  C   UNL     1      12.284  19.575  -3.818  1.00  0.00     0.059 A 
ATOM     95  C   UNL     1      14.130  18.842  -2.440  1.00  0.00     0.059 A 
ATOM     96  F   UNL     1      13.863  17.068  -0.967  1.00  0.00    -0.206 F 
ATOM     97  C   UNL     1      13.599  19.718  -3.377  1.00  0.00     0.060 A 
BRANCH  97  98
ATOM     98  S   UNL     1      14.630  21.032  -4.059  1.00  0.00     0.124 S 
ATOM     99  O   UNL     1      14.156  21.130  -5.437  1.00  0.00    -0.237 OA
ATOM    100  O   UNL     1      14.282  22.153  -3.192  1.00  0.00    -0.237 OA
ATOM    101  O   UNL     1      15.984  20.511  -3.906  1.00  0.00    -0.744 OA
ENDBRANCH  97  98
ENDBRANCH  65  90
ENDBRANCH  39  40
ENDBRANCH  31  34
ENDBRANCH  29  30
ENDBRANCH  28  29
ENDBRANCH  27  28
ENDBRANCH   1  27
TORSDOF 20
