REMARK SMILES COc1ccc2c(c1)c(Cc1nc(-c3ccc(C(=O)NCCCCCCNC(=O)c4ccc(-c5c6nc(c(-c7c(F)cc(S(=O)(=O)[O-])cc7F)c7ccc([nH]7)c(-c7c(F)cc(S(=O)(=O)[O-])cc7F)c7nc(c(-c8c(F)cc(S(=O)(=O)[O-])cc8F)c8ccc5[nH]8)C=C7)C=C6)cc4)cc3)cs1)c(C)n2C(=O)c1ccc(Cl)cc1
REMARK SMILES IDX 22 1 21 2 20 3 18 4 19 5 17 7 14 8 15 9 97 10 16 11 96 12
REMARK SMILES IDX 13 13 11 14 12 15 99 16 98 17 10 18 9 19 3 20 4 21 8 22 5 23
REMARK SMILES IDX 7 24 6 25 102 26 100 27 101 28 2 29 1 30 103 31 104 32
REMARK SMILES IDX 105 33 106 34 111 35 107 36 110 37 108 38 109 39 23 40 24 41
REMARK SMILES IDX 25 42 26 43 27 44 28 45 29 47 30 48 31 49 95 50 32 51 94 52
REMARK SMILES IDX 33 53 34 54 35 55 88 56 36 57 93 58 87 59 89 60 37 61 92 62
REMARK SMILES IDX 86 63 85 64 38 66 72 67 51 68 71 69 52 70 55 71 70 72 90 73
REMARK SMILES IDX 53 74 54 75 69 77 91 78 56 79 39 80 40 81 49 82 41 83 42 84
REMARK SMILES IDX 48 85 50 86 43 87 44 88 45 89 46 90 47 91 73 92 74 93 83 94
REMARK SMILES IDX 75 95 76 96 82 97 84 98 77 99 78 100 79 101 80 102 81 103
REMARK SMILES IDX 57 104 58 105 67 106 59 107 60 108 66 109 68 110 61 111
REMARK SMILES IDX 62 112 63 113 64 114 65 115
REMARK H PARENT 20 6 27 46 89 65 55 76
REMARK Flexibility Score: inf
ROOT
ATOM      1  C   UNL     1      -5.743   6.067  -3.507  1.00  0.00     0.021 C 
ENDROOT
BRANCH   1   2
ATOM      2  C   UNL     1      -4.360   5.555  -3.115  1.00  0.00     0.116 C 
BRANCH   2   3
ATOM      3  N   UNL     1      -3.288   6.515  -3.322  1.00  0.00    -0.352 N 
ATOM      4  C   UNL     1      -2.245   6.897  -2.510  1.00  0.00     0.251 C 
ATOM      5  O   UNL     1      -1.470   7.766  -2.911  1.00  0.00    -0.269 OA
ATOM      6  H   UNL     1      -3.313   6.971  -4.194  1.00  0.00     0.163 HD
BRANCH   4   7
ATOM      7  C   UNL     1      -2.076   6.366  -1.130  1.00  0.00     0.039 A 
ATOM      8  C   UNL     1      -2.040   5.610   1.583  1.00  0.00     0.001 A 
ATOM      9  C   UNL     1      -1.572   6.870   1.195  1.00  0.00     0.011 A 
ATOM     10  C   UNL     1      -2.388   4.687   0.587  1.00  0.00     0.011 A 
ATOM     11  C   UNL     1      -1.597   7.247  -0.151  1.00  0.00     0.014 A 
ATOM     12  C   UNL     1      -2.374   5.053  -0.763  1.00  0.00     0.014 A 
BRANCH   8  13
ATOM     13  C   UNL     1      -2.162   5.235   2.984  1.00  0.00     0.081 A 
ATOM     14  C   UNL     1      -2.129   3.809   4.676  1.00  0.00     0.098 A 
ATOM     15  N   UNL     1      -2.106   3.912   3.365  1.00  0.00    -0.241 NA
ATOM     16  S   UNL     1      -2.418   5.278   5.517  1.00  0.00    -0.126 S 
ATOM     17  C   UNL     1      -2.393   6.119   4.020  1.00  0.00     0.095 A 
BRANCH  14  18
ATOM     18  C   UNL     1      -1.888   2.524   5.411  1.00  0.00     0.105 C 
BRANCH  18  19
ATOM     19  C   UNL     1      -0.428   2.145   5.389  1.00  0.00    -0.012 A 
ATOM     20  C   UNL     1       0.807   0.982   1.963  1.00  0.00     0.119 A 
ATOM     21  C   UNL     1       2.081   0.634   2.373  1.00  0.00     0.048 A 
ATOM     22  C   UNL     1      -0.094   1.492   2.896  1.00  0.00     0.057 A 
ATOM     23  C   UNL     1       2.472   0.800   3.709  1.00  0.00     0.031 A 
ATOM     24  C   UNL     1       0.283   1.688   4.245  1.00  0.00     0.008 A 
ATOM     25  C   UNL     1       1.587   1.385   4.642  1.00  0.00     0.057 A 
ATOM     26  N   UNL     1       1.732   1.770   5.992  1.00  0.00    -0.280 N 
ATOM     27  C   UNL     1       0.467   2.178   6.452  1.00  0.00     0.028 A 
ATOM     28  C   UNL     1       0.135   2.612   7.846  1.00  0.00     0.065 C 
BRANCH  20  29
ATOM     29  O   UNL     1       0.335   0.900   0.683  1.00  0.00    -0.497 OA
ATOM     30  C   UNL     1       0.912  -0.119  -0.126  1.00  0.00     0.278 C 
ENDBRANCH  20  29
BRANCH  26  31
ATOM     31  C   UNL     1       2.945   1.744   6.739  1.00  0.00     0.262 C 
ATOM     32  O   UNL     1       2.917   1.981   7.952  1.00  0.00    -0.268 OA
BRANCH  31  33
ATOM     33  C   UNL     1       4.275   1.419   6.202  1.00  0.00     0.040 A 
ATOM     34  C   UNL     1       4.893   2.244   5.254  1.00  0.00     0.015 A 
ATOM     35  C   UNL     1       4.895   0.243   6.641  1.00  0.00     0.015 A 
ATOM     36  C   UNL     1       6.100   1.837   4.679  1.00  0.00     0.021 A 
ATOM     37  C   UNL     1       6.104  -0.152   6.069  1.00  0.00     0.021 A 
ATOM     38  C   UNL     1       6.691   0.636   5.078  1.00  0.00     0.041 A 
ATOM     39  Cl  UNL     1       8.147   0.111   4.329  1.00  0.00    -0.084 Cl
ENDBRANCH  31  33
ENDBRANCH  26  31
ENDBRANCH  18  19
ENDBRANCH  14  18
ENDBRANCH   8  13
ENDBRANCH   4   7
ENDBRANCH   2   3
ENDBRANCH   1   2
BRANCH   1  40
ATOM     40  C   UNL     1      -5.981   6.333  -4.993  1.00  0.00     0.002 C 
BRANCH  40  41
ATOM     41  C   UNL     1      -5.720   5.167  -5.952  1.00  0.00     0.002 C 
BRANCH  41  42
ATOM     42  C   UNL     1      -6.422   3.835  -5.644  1.00  0.00     0.021 C 
BRANCH  42  43
ATOM     43  C   UNL     1      -7.938   3.907  -5.456  1.00  0.00     0.116 C 
BRANCH  43  44
ATOM     44  N   UNL     1      -8.634   4.537  -6.557  1.00  0.00    -0.352 N 
ATOM     45  C   UNL     1      -9.239   4.117  -7.707  1.00  0.00     0.251 C 
ATOM     46  H   UNL     1      -8.684   5.515  -6.450  1.00  0.00     0.163 HD
ATOM     47  O   UNL     1      -9.843   4.995  -8.332  1.00  0.00    -0.269 OA
BRANCH  45  48
ATOM     48  C   UNL     1      -9.210   2.734  -8.268  1.00  0.00     0.039 A 
ATOM     49  C   UNL     1      -8.585   1.627  -7.698  1.00  0.00     0.014 A 
ATOM     50  C   UNL     1      -9.847   2.566  -9.516  1.00  0.00     0.014 A 
ATOM     51  C   UNL     1      -8.560   0.404  -8.377  1.00  0.00     0.010 A 
ATOM     52  C   UNL     1      -9.828   1.347 -10.194  1.00  0.00     0.010 A 
ATOM     53  C   UNL     1      -9.154   0.265  -9.639  1.00  0.00    -0.014 A 
BRANCH  53  54
ATOM     54  C   UNL     1      -9.089  -1.045 -10.296  1.00  0.00     0.031 A 
ATOM     55  C   UNL     1      -9.653  -2.189  -9.520  1.00  0.00     0.074 A 
ATOM     56  C   UNL     1      -8.631  -1.272 -11.545  1.00  0.00     0.049 A 
ATOM     57  N   UNL     1      -9.016  -3.179  -8.984  1.00  0.00    -0.248 NA
ATOM     58  C   UNL     1     -11.093  -2.181  -9.230  1.00  0.00     0.031 C 
ATOM     59  C   UNL     1      -8.288  -0.303 -12.589  1.00  0.00     0.029 A 
ATOM     60  N   UNL     1      -8.433  -2.473 -12.166  1.00  0.00    -0.354 N 
ATOM     61  C   UNL     1      -9.983  -4.022  -8.438  1.00  0.00     0.074 A 
ATOM     62  C   UNL     1     -11.229  -3.301  -8.516  1.00  0.00     0.031 C 
ATOM     63  C   UNL     1      -8.117  -0.952 -13.765  1.00  0.00     0.029 A 
ATOM     64  C   UNL     1      -8.183  -2.384 -13.529  1.00  0.00     0.049 A 
ATOM     65  H   UNL     1      -8.466  -3.332 -11.687  1.00  0.00     0.167 HD
ATOM     66  C   UNL     1      -9.714  -5.318  -8.108  1.00  0.00     0.037 A 
ATOM     67  C   UNL     1      -8.063  -3.413 -14.405  1.00  0.00     0.037 A 
ATOM     68  C   UNL     1      -8.297  -5.565  -8.048  1.00  0.00     0.049 A 
ATOM     69  C   UNL     1      -7.680  -4.616 -13.624  1.00  0.00     0.074 A 
ATOM     70  C   UNL     1      -7.252  -5.087  -7.283  1.00  0.00     0.029 A 
ATOM     71  N   UNL     1      -7.712  -6.218  -9.105  1.00  0.00    -0.354 N 
ATOM     72  N   UNL     1      -6.532  -4.766 -13.023  1.00  0.00    -0.248 NA
ATOM     73  C   UNL     1      -8.735  -5.514 -13.184  1.00  0.00     0.031 C 
ATOM     74  C   UNL     1      -6.131  -5.054  -8.163  1.00  0.00     0.029 A 
ATOM     75  C   UNL     1      -6.553  -5.547  -9.399  1.00  0.00     0.049 A 
ATOM     76  H   UNL     1      -8.059  -7.016  -9.565  1.00  0.00     0.167 HD
ATOM     77  C   UNL     1      -6.827  -5.466 -11.865  1.00  0.00     0.074 A 
ATOM     78  C   UNL     1      -8.173  -5.991 -12.072  1.00  0.00     0.031 C 
ATOM     79  C   UNL     1      -6.060  -5.336 -10.742  1.00  0.00     0.037 A 
BRANCH  66  80
ATOM     80  C   UNL     1     -10.710  -6.456  -8.137  1.00  0.00     0.058 A 
ATOM     81  C   UNL     1     -10.345  -7.713  -7.606  1.00  0.00     0.135 A 
ATOM     82  C   UNL     1     -11.882  -6.446  -8.923  1.00  0.00     0.135 A 
ATOM     83  F   UNL     1      -9.253  -7.840  -6.835  1.00  0.00    -0.206 F 
ATOM     84  C   UNL     1     -11.035  -8.886  -7.914  1.00  0.00     0.059 A 
ATOM     85  C   UNL     1     -12.615  -7.597  -9.200  1.00  0.00     0.059 A 
ATOM     86  F   UNL     1     -12.313  -5.340  -9.541  1.00  0.00    -0.206 F 
ATOM     87  C   UNL     1     -12.156  -8.819  -8.734  1.00  0.00     0.060 A 
BRANCH  87  88
ATOM     88  S   UNL     1     -12.957 -10.347  -9.256  1.00  0.00     0.124 S 
ATOM     89  O   UNL     1     -11.937 -10.927 -10.122  1.00  0.00    -0.237 OA
ATOM     90  O   UNL     1     -13.177 -11.025  -7.983  1.00  0.00    -0.237 OA
ATOM     91  O   UNL     1     -14.165  -9.879  -9.929  1.00  0.00    -0.744 OA
ENDBRANCH  87  88
ENDBRANCH  66  80
BRANCH  67  92
ATOM     92  C   UNL     1      -8.567  -3.502 -15.801  1.00  0.00     0.058 A 
ATOM     93  C   UNL     1      -8.187  -4.561 -16.648  1.00  0.00     0.135 A 
ATOM     94  C   UNL     1      -9.664  -2.728 -16.230  1.00  0.00     0.135 A 
ATOM     95  F   UNL     1      -7.163  -5.360 -16.311  1.00  0.00    -0.206 F 
ATOM     96  C   UNL     1      -8.892  -4.873 -17.815  1.00  0.00     0.059 A 
ATOM     97  C   UNL     1     -10.376  -3.015 -17.394  1.00  0.00     0.059 A 
ATOM     98  F   UNL     1     -10.139  -1.726 -15.476  1.00  0.00    -0.206 F 
ATOM     99  C   UNL     1     -10.003  -4.109 -18.166  1.00  0.00     0.060 A 
BRANCH  99 100
ATOM    100  S   UNL     1     -11.029  -4.624 -19.564  1.00  0.00     0.124 S 
ATOM    101  O   UNL     1     -10.135  -4.397 -20.695  1.00  0.00    -0.237 OA
ATOM    102  O   UNL     1     -11.308  -6.020 -19.242  1.00  0.00    -0.237 OA
ATOM    103  O   UNL     1     -12.180  -3.728 -19.489  1.00  0.00    -0.744 OA
ENDBRANCH  99 100
ENDBRANCH  67  92
BRANCH  79 104
ATOM    104  C   UNL     1      -4.706  -4.689 -10.870  1.00  0.00     0.058 A 
ATOM    105  C   UNL     1      -4.499  -3.348 -11.237  1.00  0.00     0.135 A 
ATOM    106  C   UNL     1      -3.584  -5.417 -10.443  1.00  0.00     0.135 A 
ATOM    107  F   UNL     1      -5.530  -2.555 -11.562  1.00  0.00    -0.206 F 
ATOM    108  C   UNL     1      -3.230  -2.767 -11.208  1.00  0.00     0.059 A 
ATOM    109  C   UNL     1      -2.314  -4.849 -10.376  1.00  0.00     0.059 A 
ATOM    110  F   UNL     1      -3.725  -6.686 -10.024  1.00  0.00    -0.206 F 
ATOM    111  C   UNL     1      -2.143  -3.523 -10.767  1.00  0.00     0.060 A 
BRANCH 111 112
ATOM    112  S   UNL     1      -0.523  -2.736 -10.628  1.00  0.00     0.124 S 
ATOM    113  O   UNL     1      -0.153  -2.542 -12.026  1.00  0.00    -0.237 OA
ATOM    114  O   UNL     1      -0.827  -1.520  -9.877  1.00  0.00    -0.237 OA
ATOM    115  O   UNL     1       0.274  -3.721  -9.902  1.00  0.00    -0.744 OA
ENDBRANCH 111 112
ENDBRANCH  79 104
ENDBRANCH  53  54
ENDBRANCH  45  48
ENDBRANCH  43  44
ENDBRANCH  42  43
ENDBRANCH  41  42
ENDBRANCH  40  41
ENDBRANCH   1  40
TORSDOF 22
