REMARK SMILES COc1ccc(C(=O)Nc2cc(C(=O)NCCCCCCNC(=O)c3ccc(-c4c5nc(c(-c6c(F)cc(S(=O)(=O)[O-])cc6F)c6ccc([nH]6)c(-c6c(F)cc(S(=O)(=O)[O-])cc6F)c6nc(c(-c7c(F)cc(S(=O)(=O)[O-])cc7F)c7ccc4[nH]7)C=C6)C=C5)cc3)c(Cl)cc2Cl)cc1Cl
REMARK SMILES IDX 18 1 17 2 16 3 15 4 13 5 14 6 12 8 10 9 11 10 94 11 93 12
REMARK SMILES IDX 95 13 91 14 92 15 9 16 7 17 8 18 6 20 3 21 4 22 97 23 5 24
REMARK SMILES IDX 96 25 98 26 2 27 1 28 19 29 20 30 21 31 22 32 23 33 24 35
REMARK SMILES IDX 25 36 26 37 90 38 27 39 89 40 28 41 29 42 30 43 83 44 31 45
REMARK SMILES IDX 88 46 82 47 84 48 32 49 87 50 81 51 80 52 33 54 67 55 46 56
REMARK SMILES IDX 66 57 47 58 50 59 65 60 85 61 48 62 49 63 64 65 86 66 51 67
REMARK SMILES IDX 34 68 35 69 44 70 36 71 37 72 43 73 45 74 38 75 39 76 40 77
REMARK SMILES IDX 41 78 42 79 68 80 69 81 78 82 70 83 71 84 77 85 79 86 72 87
REMARK SMILES IDX 73 88 74 89 75 90 76 91 52 92 53 93 62 94 54 95 55 96 61 97
REMARK SMILES IDX 63 98 56 99 57 100 58 101 59 102 60 103
REMARK H PARENT 15 7 9 19 22 34 84 53 50 64
REMARK Flexibility Score: inf
ROOT
ATOM      1  C   UNL     1       7.097  -1.647  -0.798  1.00  0.00     0.002 C 
ENDROOT
BRANCH   1   2
ATOM      2  C   UNL     1       6.569  -0.353  -0.168  1.00  0.00     0.021 C 
BRANCH   2   3
ATOM      3  C   UNL     1       6.915   0.960  -0.871  1.00  0.00     0.116 C 
BRANCH   3   4
ATOM      4  N   UNL     1       6.412   1.077  -2.227  1.00  0.00    -0.352 N 
ATOM      5  C   UNL     1       6.049   2.184  -2.957  1.00  0.00     0.252 C 
ATOM      6  O   UNL     1       5.720   2.035  -4.134  1.00  0.00    -0.269 OA
ATOM      7  H   UNL     1       6.315   0.221  -2.704  1.00  0.00     0.163 HD
BRANCH   5   8
ATOM      8  C   UNL     1       5.912   3.541  -2.367  1.00  0.00     0.060 A 
ATOM      9  C   UNL     1       4.408   5.467  -2.125  1.00  0.00     0.061 A 
ATOM     10  C   UNL     1       4.694   4.200  -2.651  1.00  0.00     0.043 A 
ATOM     11  C   UNL     1       5.392   6.113  -1.363  1.00  0.00     0.066 A 
ATOM     12  C   UNL     1       6.618   5.495  -1.116  1.00  0.00     0.044 A 
ATOM     13  Cl  UNL     1       5.101   7.667  -0.660  1.00  0.00    -0.082 Cl
ATOM     14  C   UNL     1       6.894   4.227  -1.645  1.00  0.00     0.055 A 
ATOM     15  Cl  UNL     1       8.516   3.671  -1.466  1.00  0.00    -0.083 Cl
BRANCH   9  16
ATOM     16  N   UNL     1       3.175   6.123  -2.333  1.00  0.00    -0.321 N 
ATOM     17  C   UNL     1       1.896   5.656  -2.545  1.00  0.00     0.255 C 
ATOM     18  O   UNL     1       1.043   6.429  -2.981  1.00  0.00    -0.269 OA
ATOM     19  H   UNL     1       3.243   7.105  -2.326  1.00  0.00     0.170 HD
BRANCH  17  20
ATOM     20  C   UNL     1       1.477   4.281  -2.153  1.00  0.00     0.041 A 
ATOM     21  C   UNL     1       0.679   1.650  -1.512  1.00  0.00     0.137 A 
ATOM     22  C   UNL     1      -0.048   2.423  -2.430  1.00  0.00     0.049 A 
ATOM     23  C   UNL     1       1.799   2.220  -0.898  1.00  0.00     0.083 A 
ATOM     24  C   UNL     1       0.349   3.723  -2.758  1.00  0.00     0.018 A 
ATOM     25  C   UNL     1       2.137   3.551  -1.162  1.00  0.00     0.038 A 
ATOM     26  Cl  UNL     1       2.911   1.367   0.114  1.00  0.00    -0.080 Cl
BRANCH  21  27
ATOM     27  O   UNL     1       0.197   0.378  -1.379  1.00  0.00    -0.495 OA
ATOM     28  C   UNL     1       0.322  -0.235  -0.101  1.00  0.00     0.278 C 
ENDBRANCH  21  27
ENDBRANCH  17  20
ENDBRANCH   9  16
ENDBRANCH   5   8
ENDBRANCH   3   4
ENDBRANCH   2   3
ENDBRANCH   1   2
BRANCH   1  29
ATOM     29  C   UNL     1       8.581  -1.701  -1.170  1.00  0.00     0.002 C 
BRANCH  29  30
ATOM     30  C   UNL     1       9.587  -1.318  -0.083  1.00  0.00     0.021 C 
BRANCH  30  31
ATOM     31  C   UNL     1       9.475  -2.068   1.240  1.00  0.00     0.116 C 
BRANCH  31  32
ATOM     32  N   UNL     1       9.680  -3.499   1.104  1.00  0.00    -0.352 N 
ATOM     33  C   UNL     1      10.511  -4.338   1.802  1.00  0.00     0.251 C 
ATOM     34  H   UNL     1       9.140  -3.934   0.404  1.00  0.00     0.163 HD
ATOM     35  O   UNL     1      10.634  -5.509   1.430  1.00  0.00    -0.269 OA
BRANCH  33  36
ATOM     36  C   UNL     1      11.277  -3.859   2.976  1.00  0.00     0.039 A 
ATOM     37  C   UNL     1      12.597  -4.292   3.139  1.00  0.00     0.014 A 
ATOM     38  C   UNL     1      10.700  -3.025   3.938  1.00  0.00     0.014 A 
ATOM     39  C   UNL     1      13.347  -3.857   4.236  1.00  0.00     0.010 A 
ATOM     40  C   UNL     1      11.472  -2.532   4.991  1.00  0.00     0.010 A 
ATOM     41  C   UNL     1      12.799  -2.955   5.162  1.00  0.00    -0.014 A 
BRANCH  41  42
ATOM     42  C   UNL     1      13.595  -2.468   6.320  1.00  0.00     0.031 A 
ATOM     43  C   UNL     1      13.172  -2.801   7.727  1.00  0.00     0.074 A 
ATOM     44  C   UNL     1      14.671  -1.683   6.111  1.00  0.00     0.049 A 
ATOM     45  N   UNL     1      13.718  -2.445   8.862  1.00  0.00    -0.248 NA
ATOM     46  C   UNL     1      11.958  -3.618   7.880  1.00  0.00     0.031 C 
ATOM     47  C   UNL     1      15.150  -1.239   4.801  1.00  0.00     0.029 A 
ATOM     48  N   UNL     1      15.551  -1.113   6.996  1.00  0.00    -0.354 N 
ATOM     49  C   UNL     1      12.907  -2.975   9.859  1.00  0.00     0.074 A 
ATOM     50  C   UNL     1      11.802  -3.632   9.195  1.00  0.00     0.031 C 
ATOM     51  C   UNL     1      16.247  -0.483   4.966  1.00  0.00     0.029 A 
ATOM     52  C   UNL     1      16.533  -0.363   6.393  1.00  0.00     0.049 A 
ATOM     53  H   UNL     1      15.486  -1.230   7.972  1.00  0.00     0.167 HD
ATOM     54  C   UNL     1      13.077  -2.939  11.203  1.00  0.00     0.037 A 
ATOM     55  C   UNL     1      17.549   0.344   6.926  1.00  0.00     0.037 A 
ATOM     56  C   UNL     1      14.195  -2.308  11.856  1.00  0.00     0.049 A 
ATOM     57  C   UNL     1      17.740   0.344   8.418  1.00  0.00     0.074 A 
ATOM     58  C   UNL     1      14.500  -2.280  13.206  1.00  0.00     0.029 A 
ATOM     59  N   UNL     1      15.190  -1.590  11.208  1.00  0.00    -0.354 N 
ATOM     60  N   UNL     1      17.007  -0.230   9.343  1.00  0.00    -0.248 NA
ATOM     61  C   UNL     1      18.903   1.075   8.940  1.00  0.00     0.031 C 
ATOM     62  C   UNL     1      15.653  -1.505  13.379  1.00  0.00     0.029 A 
ATOM     63  C   UNL     1      16.098  -1.096  12.132  1.00  0.00     0.049 A 
ATOM     64  H   UNL     1      15.244  -1.452  10.235  1.00  0.00     0.167 HD
ATOM     65  C   UNL     1      17.633   0.049  10.553  1.00  0.00     0.074 A 
ATOM     66  C   UNL     1      18.811   0.832  10.241  1.00  0.00     0.031 C 
ATOM     67  C   UNL     1      17.267  -0.315  11.808  1.00  0.00     0.037 A 
BRANCH  54  68
ATOM     68  C   UNL     1      12.024  -3.596  12.056  1.00  0.00     0.058 A 
ATOM     69  C   UNL     1      11.849  -4.990  12.075  1.00  0.00     0.135 A 
ATOM     70  C   UNL     1      11.184  -2.823  12.874  1.00  0.00     0.135 A 
ATOM     71  F   UNL     1      12.615  -5.779  11.305  1.00  0.00    -0.206 F 
ATOM     72  C   UNL     1      10.852  -5.589  12.839  1.00  0.00     0.059 A 
ATOM     73  C   UNL     1      10.201  -3.404  13.670  1.00  0.00     0.059 A 
ATOM     74  F   UNL     1      11.308  -1.487  12.899  1.00  0.00    -0.206 F 
ATOM     75  C   UNL     1      10.028  -4.786  13.629  1.00  0.00     0.060 A 
BRANCH  75  76
ATOM     76  S   UNL     1       8.725  -5.575  14.597  1.00  0.00     0.124 S 
ATOM     77  O   UNL     1       7.758  -5.916  13.558  1.00  0.00    -0.237 OA
ATOM     78  O   UNL     1       9.425  -6.703  15.205  1.00  0.00    -0.237 OA
ATOM     79  O   UNL     1       8.307  -4.528  15.523  1.00  0.00    -0.744 OA
ENDBRANCH  75  76
ENDBRANCH  54  68
BRANCH  55  80
ATOM     80  C   UNL     1      18.480   1.081   6.031  1.00  0.00     0.058 A 
ATOM     81  C   UNL     1      19.792   0.630   5.822  1.00  0.00     0.135 A 
ATOM     82  C   UNL     1      18.063   2.225   5.332  1.00  0.00     0.135 A 
ATOM     83  F   UNL     1      20.240  -0.455   6.472  1.00  0.00    -0.206 F 
ATOM     84  C   UNL     1      20.660   1.288   4.956  1.00  0.00     0.059 A 
ATOM     85  C   UNL     1      18.904   2.886   4.443  1.00  0.00     0.059 A 
ATOM     86  F   UNL     1      16.812   2.687   5.485  1.00  0.00    -0.206 F 
ATOM     87  C   UNL     1      20.203   2.412   4.265  1.00  0.00     0.060 A 
BRANCH  87  88
ATOM     88  S   UNL     1      21.313   3.214   3.086  1.00  0.00     0.124 S 
ATOM     89  O   UNL     1      22.259   3.876   3.976  1.00  0.00    -0.237 OA
ATOM     90  O   UNL     1      21.832   2.076   2.333  1.00  0.00    -0.237 OA
ATOM     91  O   UNL     1      20.424   4.098   2.338  1.00  0.00    -0.744 OA
ENDBRANCH  87  88
ENDBRANCH  55  80
BRANCH  67  92
ATOM     92  C   UNL     1      18.166   0.104  12.939  1.00  0.00     0.058 A 
ATOM     93  C   UNL     1      18.245   1.439  13.367  1.00  0.00     0.135 A 
ATOM     94  C   UNL     1      18.926  -0.852  13.633  1.00  0.00     0.135 A 
ATOM     95  F   UNL     1      17.542   2.394  12.736  1.00  0.00    -0.206 F 
ATOM     96  C   UNL     1      19.070   1.816  14.422  1.00  0.00     0.059 A 
ATOM     97  C   UNL     1      19.735  -0.501  14.709  1.00  0.00     0.059 A 
ATOM     98  F   UNL     1      18.878  -2.144  13.273  1.00  0.00    -0.206 F 
ATOM     99  C   UNL     1      19.812   0.838  15.086  1.00  0.00     0.060 A 
BRANCH  99 100
ATOM    100  S   UNL     1      20.863   1.337  16.467  1.00  0.00     0.124 S 
ATOM    101  O   UNL     1      21.973   1.982  15.773  1.00  0.00    -0.237 OA
ATOM    102  O   UNL     1      19.986   2.225  17.224  1.00  0.00    -0.237 OA
ATOM    103  O   UNL     1      21.183   0.073  17.124  1.00  0.00    -0.744 OA
ENDBRANCH  99 100
ENDBRANCH  67  92
ENDBRANCH  41  42
ENDBRANCH  33  36
ENDBRANCH  31  32
ENDBRANCH  30  31
ENDBRANCH  29  30
ENDBRANCH   1  29
TORSDOF 19
