REMARK SMILES COc1ccc(N2C(=O)/C(=C/c3c(C(=O)NCCCCCCNC(=O)c4ccc(-c5c6nc(c(-c7c(F)cc(S(=O)(=O)[O-])cc7F)c7ccc([nH]7)c(-c7c(F)cc(S(=O)(=O)[O-])cc7F)c7nc(c(-c8c(F)cc(S(=O)(=O)[O-])cc8F)c8ccc5[nH]8)C=C7)C=C6)cc4)[nH]c4cc(OC)ccc34)SC2=S)cc1
REMARK SMILES IDX 19 1 18 2 17 3 16 4 14 5 15 6 13 8 12 9 100 10 92 11 93 12
REMARK SMILES IDX 99 13 94 15 98 16 95 17 11 18 7 19 8 20 102 21 9 22 10 23
REMARK SMILES IDX 101 24 103 25 6 26 3 27 4 28 105 29 5 30 104 31 2 32 1 33
REMARK SMILES IDX 96 34 97 35 20 36 21 37 22 38 23 39 24 40 25 42 26 43 27 44
REMARK SMILES IDX 91 45 28 46 90 47 29 48 30 49 31 50 84 51 32 52 89 53 83 54
REMARK SMILES IDX 85 55 33 56 88 57 82 58 81 59 34 61 68 62 47 63 67 64 48 65
REMARK SMILES IDX 51 66 66 67 86 68 49 69 50 70 65 72 87 73 52 74 35 75 36 76
REMARK SMILES IDX 45 77 37 78 38 79 44 80 46 81 39 82 40 83 41 84 42 85 43 86
REMARK SMILES IDX 69 87 70 88 79 89 71 90 72 91 78 92 80 93 73 94 74 95 75 96
REMARK SMILES IDX 76 97 77 98 53 99 54 100 63 101 55 102 56 103 62 104 64 105
REMARK SMILES IDX 57 106 58 107 59 108 60 109 61 110
REMARK H PARENT 16 7 92 14 23 41 85 60 51 71
REMARK Flexibility Score: inf
ROOT
ATOM      1  C   UNL     1       0.082   5.899   5.562  1.00  0.00     0.002 C 
ENDROOT
BRANCH   1   2
ATOM      2  C   UNL     1       0.222   6.706   6.860  1.00  0.00     0.021 C 
BRANCH   2   3
ATOM      3  C   UNL     1       1.502   6.448   7.641  1.00  0.00     0.116 C 
BRANCH   3   4
ATOM      4  N   UNL     1       2.692   6.925   6.965  1.00  0.00    -0.351 N 
ATOM      5  C   UNL     1       3.933   7.075   7.531  1.00  0.00     0.268 C 
ATOM      6  O   UNL     1       4.764   7.783   6.965  1.00  0.00    -0.268 OA
ATOM      7  H   UNL     1       2.602   7.162   6.013  1.00  0.00     0.163 HD
BRANCH   5   8
ATOM      8  C   UNL     1       4.154   6.509   8.838  1.00  0.00     0.112 A 
ATOM      9  C   UNL     1       3.949   5.247   9.409  1.00  0.00     0.014 A 
ATOM     10  C   UNL     1       3.877   5.493  10.844  1.00  0.00     0.008 A 
ATOM     11  N   UNL     1       4.662   7.309   9.824  1.00  0.00    -0.350 N 
ATOM     12  C   UNL     1       4.287   6.816  11.040  1.00  0.00     0.050 A 
ATOM     13  C   UNL     1       3.469   4.796  12.012  1.00  0.00     0.015 A 
ATOM     14  H   UNL     1       5.211   8.114   9.680  1.00  0.00     0.167 HD
ATOM     15  C   UNL     1       4.267   7.481  12.267  1.00  0.00     0.073 A 
ATOM     16  C   UNL     1       3.425   5.467  13.271  1.00  0.00     0.047 A 
ATOM     17  C   UNL     1       3.807   6.802  13.389  1.00  0.00     0.120 A 
BRANCH   9  18
ATOM     18  C   UNL     1       3.612   4.064   8.625  1.00  0.00     0.032 C 
ATOM     19  N   UNL     1       3.938   3.052   5.134  1.00  0.00    -0.261 N 
ATOM     20  C   UNL     1       3.458   2.785   6.425  1.00  0.00     0.270 C 
ATOM     21  C   UNL     1       4.961   3.981   5.036  1.00  0.00     0.152 C 
ATOM     22  O   UNL     1       2.572   2.006   6.744  1.00  0.00    -0.268 OA
ATOM     23  C   UNL     1       4.120   3.721   7.415  1.00  0.00     0.081 C 
ATOM     24  S   UNL     1       5.503   4.417   6.647  1.00  0.00    -0.054 SA
ATOM     25  S   UNL     1       5.663   4.647   3.672  1.00  0.00    -0.051 S 
BRANCH  19  26
ATOM     26  C   UNL     1       3.372   2.446   3.970  1.00  0.00     0.051 A 
ATOM     27  C   UNL     1       2.490   1.401   1.499  1.00  0.00     0.119 A 
ATOM     28  C   UNL     1       1.995   2.615   1.964  1.00  0.00     0.048 A 
ATOM     29  C   UNL     1       3.451   0.722   2.247  1.00  0.00     0.048 A 
ATOM     30  C   UNL     1       2.446   3.145   3.180  1.00  0.00     0.030 A 
ATOM     31  C   UNL     1       3.883   1.236   3.484  1.00  0.00     0.030 A 
BRANCH  27  32
ATOM     32  O   UNL     1       2.051   1.013   0.264  1.00  0.00    -0.497 OA
ATOM     33  C   UNL     1       1.747  -0.373   0.151  1.00  0.00     0.278 C 
ENDBRANCH  27  32
ENDBRANCH  19  26
ENDBRANCH   9  18
BRANCH  17  34
ATOM     34  O   UNL     1       3.745   7.601  14.495  1.00  0.00    -0.497 OA
ATOM     35  C   UNL     1       3.691   6.986  15.770  1.00  0.00     0.278 C 
ENDBRANCH  17  34
ENDBRANCH   5   8
ENDBRANCH   3   4
ENDBRANCH   2   3
ENDBRANCH   1   2
BRANCH   1  36
ATOM     36  C   UNL     1       0.295   4.402   5.801  1.00  0.00     0.002 C 
BRANCH  36  37
ATOM     37  C   UNL     1      -0.526   3.357   5.051  1.00  0.00     0.021 C 
BRANCH  37  38
ATOM     38  C   UNL     1      -1.717   3.809   4.233  1.00  0.00     0.116 C 
BRANCH  38  39
ATOM     39  N   UNL     1      -1.476   3.795   2.795  1.00  0.00    -0.352 N 
ATOM     40  C   UNL     1      -1.976   2.942   1.831  1.00  0.00     0.251 C 
ATOM     41  H   UNL     1      -0.869   4.495   2.464  1.00  0.00     0.163 HD
ATOM     42  O   UNL     1      -1.562   3.009   0.678  1.00  0.00    -0.269 OA
BRANCH  40  43
ATOM     43  C   UNL     1      -2.993   1.928   2.199  1.00  0.00     0.039 A 
ATOM     44  C   UNL     1      -2.907   0.626   1.695  1.00  0.00     0.014 A 
ATOM     45  C   UNL     1      -4.023   2.259   3.074  1.00  0.00     0.014 A 
ATOM     46  C   UNL     1      -3.811  -0.351   2.135  1.00  0.00     0.010 A 
ATOM     47  C   UNL     1      -4.799   1.260   3.638  1.00  0.00     0.010 A 
ATOM     48  C   UNL     1      -4.744  -0.049   3.139  1.00  0.00    -0.014 A 
BRANCH  48  49
ATOM     49  C   UNL     1      -5.779  -1.004   3.620  1.00  0.00     0.031 A 
ATOM     50  C   UNL     1      -7.228  -0.584   3.529  1.00  0.00     0.074 A 
ATOM     51  C   UNL     1      -5.444  -2.158   4.228  1.00  0.00     0.049 A 
ATOM     52  N   UNL     1      -8.281  -1.087   4.117  1.00  0.00    -0.248 NA
ATOM     53  C   UNL     1      -7.514   0.619   2.724  1.00  0.00     0.031 C 
ATOM     54  C   UNL     1      -4.084  -2.664   4.418  1.00  0.00     0.029 A 
ATOM     55  N   UNL     1      -6.235  -3.109   4.824  1.00  0.00    -0.354 N 
ATOM     56  C   UNL     1      -9.330  -0.226   3.805  1.00  0.00     0.074 A 
ATOM     57  C   UNL     1      -8.772   0.870   3.048  1.00  0.00     0.031 C 
ATOM     58  C   UNL     1      -4.137  -3.843   5.062  1.00  0.00     0.029 A 
ATOM     59  C   UNL     1      -5.529  -4.153   5.374  1.00  0.00     0.049 A 
ATOM     60  H   UNL     1      -7.218  -3.049   4.854  1.00  0.00     0.167 HD
ATOM     61  C   UNL     1     -10.647  -0.354   4.088  1.00  0.00     0.037 A 
ATOM     62  C   UNL     1      -5.961  -5.230   6.061  1.00  0.00     0.037 A 
ATOM     63  C   UNL     1     -11.204  -1.499   4.755  1.00  0.00     0.049 A 
ATOM     64  C   UNL     1      -7.440  -5.387   6.312  1.00  0.00     0.074 A 
ATOM     65  C   UNL     1     -12.530  -1.778   5.029  1.00  0.00     0.029 A 
ATOM     66  N   UNL     1     -10.460  -2.573   5.222  1.00  0.00    -0.354 N 
ATOM     67  N   UNL     1      -8.422  -4.575   5.996  1.00  0.00    -0.248 NA
ATOM     68  C   UNL     1      -7.870  -6.608   7.006  1.00  0.00     0.031 C 
ATOM     69  C   UNL     1     -12.586  -3.014   5.682  1.00  0.00     0.029 A 
ATOM     70  C   UNL     1     -11.300  -3.522   5.777  1.00  0.00     0.049 A 
ATOM     71  H   UNL     1      -9.480  -2.649   5.167  1.00  0.00     0.167 HD
ATOM     72  C   UNL     1      -9.588  -5.206   6.419  1.00  0.00     0.074 A 
ATOM     73  C   UNL     1      -9.189  -6.468   7.007  1.00  0.00     0.031 C 
ATOM     74  C   UNL     1     -10.874  -4.783   6.329  1.00  0.00     0.037 A 
BRANCH  61  75
ATOM     75  C   UNL     1     -11.569   0.751   3.644  1.00  0.00     0.058 A 
ATOM     76  C   UNL     1     -11.816   1.007   2.284  1.00  0.00     0.135 A 
ATOM     77  C   UNL     1     -12.220   1.562   4.588  1.00  0.00     0.135 A 
ATOM     78  F   UNL     1     -11.207   0.276   1.337  1.00  0.00    -0.206 F 
ATOM     79  C   UNL     1     -12.636   2.053   1.876  1.00  0.00     0.059 A 
ATOM     80  C   UNL     1     -13.075   2.591   4.202  1.00  0.00     0.059 A 
ATOM     81  F   UNL     1     -12.024   1.364   5.901  1.00  0.00    -0.206 F 
ATOM     82  C   UNL     1     -13.262   2.840   2.843  1.00  0.00     0.060 A 
BRANCH  82  83
ATOM     83  S   UNL     1     -14.327   4.190   2.295  1.00  0.00     0.124 S 
ATOM     84  O   UNL     1     -13.345   5.168   1.837  1.00  0.00    -0.237 OA
ATOM     85  O   UNL     1     -15.124   3.555   1.250  1.00  0.00    -0.237 OA
ATOM     86  O   UNL     1     -15.060   4.556   3.503  1.00  0.00    -0.744 OA
ENDBRANCH  82  83
ENDBRANCH  61  75
BRANCH  62  87
ATOM     87  C   UNL     1      -4.996  -6.265   6.521  1.00  0.00     0.058 A 
ATOM     88  C   UNL     1      -4.966  -7.533   5.919  1.00  0.00     0.135 A 
ATOM     89  C   UNL     1      -4.086  -6.017   7.561  1.00  0.00     0.135 A 
ATOM     90  F   UNL     1      -5.820  -7.822   4.925  1.00  0.00    -0.206 F 
ATOM     91  C   UNL     1      -4.087  -8.524   6.343  1.00  0.00     0.059 A 
ATOM     92  C   UNL     1      -3.179  -6.985   7.986  1.00  0.00     0.059 A 
ATOM     93  F   UNL     1      -4.060  -4.817   8.160  1.00  0.00    -0.206 F 
ATOM     94  C   UNL     1      -3.196  -8.240   7.378  1.00  0.00     0.060 A 
BRANCH  94  95
ATOM     95  S   UNL     1      -2.031  -9.523   7.892  1.00  0.00     0.124 S 
ATOM     96  O   UNL     1      -2.906 -10.446   8.605  1.00  0.00    -0.237 OA
ATOM     97  O   UNL     1      -1.511  -9.995   6.612  1.00  0.00    -0.237 OA
ATOM     98  O   UNL     1      -1.073  -8.794   8.718  1.00  0.00    -0.744 OA
ENDBRANCH  94  95
ENDBRANCH  62  87
BRANCH  74  99
ATOM     99  C   UNL     1     -11.945  -5.715   6.818  1.00  0.00     0.058 A 
ATOM    100  C   UNL     1     -12.170  -5.931   8.186  1.00  0.00     0.135 A 
ATOM    101  C   UNL     1     -12.800  -6.348   5.902  1.00  0.00     0.135 A 
ATOM    102  F   UNL     1     -11.378  -5.349   9.101  1.00  0.00    -0.206 F 
ATOM    103  C   UNL     1     -13.192  -6.763   8.629  1.00  0.00     0.059 A 
ATOM    104  C   UNL     1     -13.845  -7.163   6.323  1.00  0.00     0.059 A 
ATOM    105  F   UNL     1     -12.635  -6.162   4.582  1.00  0.00    -0.206 F 
ATOM    106  C   UNL     1     -14.026  -7.373   7.689  1.00  0.00     0.060 A 
BRANCH 106 107
ATOM    107  S   UNL     1     -15.370  -8.423   8.278  1.00  0.00     0.124 S 
ATOM    108  O   UNL     1     -14.647  -9.620   8.695  1.00  0.00    -0.237 OA
ATOM    109  O   UNL     1     -15.944  -7.621   9.354  1.00  0.00    -0.237 OA
ATOM    110  O   UNL     1     -16.220  -8.579   7.101  1.00  0.00    -0.744 OA
ENDBRANCH 106 107
ENDBRANCH  74  99
ENDBRANCH  48  49
ENDBRANCH  40  43
ENDBRANCH  38  39
ENDBRANCH  37  38
ENDBRANCH  36  37
ENDBRANCH   1  36
TORSDOF 20
