REMARK SMILES Cc1cc(Cl)ccc1Oc1cc(C)c(N)c(C(=O)NCCCCCCNC(=O)c2ccc(-c3c4nc(c(-c5c(F)cc(S(=O)(=O)[O-])cc5F)c5ccc([nH]5)c(-c5c(F)cc(S(=O)(=O)[O-])cc5F)c5nc(c(-c6c(F)cc(S(=O)(=O)[O-])cc6F)c6ccc3[nH]6)C=C5)C=C4)cc2)c1
REMARK SMILES IDX 23 1 22 2 21 3 20 4 19 5 17 6 18 7 16 9 10 10 11 11 95 12
REMARK SMILES IDX 12 13 13 14 14 15 9 16 8 17 1 18 2 19 3 20 4 21 7 22 5 23
REMARK SMILES IDX 6 24 15 25 24 28 25 29 26 30 27 31 28 33 29 34 30 35 94 36
REMARK SMILES IDX 31 37 93 38 32 39 33 40 34 41 87 42 35 43 92 44 86 45 88 46
REMARK SMILES IDX 36 47 91 48 85 49 84 50 37 52 71 53 50 54 70 55 51 56 54 57
REMARK SMILES IDX 69 58 89 59 52 60 53 61 68 63 90 64 55 65 38 66 39 67 48 68
REMARK SMILES IDX 40 69 41 70 47 71 49 72 42 73 43 74 44 75 45 76 46 77 72 78
REMARK SMILES IDX 73 79 82 80 74 81 75 82 81 83 83 84 76 85 77 86 78 87 79 88
REMARK SMILES IDX 80 89 56 90 57 91 66 92 58 93 59 94 65 95 67 96 60 97 61 98
REMARK SMILES IDX 62 99 63 100 64 101
REMARK H PARENT 19 8 15 26 15 27 26 32 88 51 54 62
REMARK Flexibility Score: inf
ROOT
ATOM      1  C   UNL     1      -6.929  -2.494   6.217  1.00  0.00     0.002 C 
ENDROOT
BRANCH   1   2
ATOM      2  C   UNL     1      -6.269  -1.146   5.898  1.00  0.00     0.002 C 
BRANCH   2   3
ATOM      3  C   UNL     1      -5.549  -1.089   4.541  1.00  0.00     0.021 C 
BRANCH   3   4
ATOM      4  C   UNL     1      -6.491  -1.325   3.358  1.00  0.00     0.116 C 
BRANCH   4   5
ATOM      5  N   UNL     1      -7.223  -0.105   3.069  1.00  0.00    -0.352 N 
ATOM      6  C   UNL     1      -7.140   0.880   2.120  1.00  0.00     0.253 C 
ATOM      7  O   UNL     1      -7.943   1.809   2.268  1.00  0.00    -0.269 OA
ATOM      8  H   UNL     1      -7.954   0.052   3.709  1.00  0.00     0.163 HD
BRANCH   6   9
ATOM      9  C   UNL     1      -6.221   0.864   0.928  1.00  0.00     0.066 A 
ATOM     10  C   UNL     1      -4.321  -0.023  -0.291  1.00  0.00     0.128 A 
ATOM     11  C   UNL     1      -4.666   0.700  -1.424  1.00  0.00     0.052 A 
ATOM     12  C   UNL     1      -5.077   0.064   0.876  1.00  0.00     0.063 A 
ATOM     13  C   UNL     1      -5.716   1.622  -1.360  1.00  0.00    -0.024 A 
ATOM     14  C   UNL     1      -5.928   2.555  -2.521  1.00  0.00     0.047 C 
ATOM     15  C   UNL     1      -6.521   1.691  -0.196  1.00  0.00     0.048 A 
BRANCH  10  16
ATOM     16  O   UNL     1      -3.285  -0.910  -0.324  1.00  0.00    -0.457 OA
BRANCH  16  17
ATOM     17  C   UNL     1      -1.980  -0.497  -0.153  1.00  0.00     0.130 A 
ATOM     18  C   UNL     1      -2.264   2.054   0.218  1.00  0.00     0.048 C 
ATOM     19  C   UNL     1      -1.462   0.791   0.081  1.00  0.00    -0.007 A 
ATOM     20  C   UNL     1      -0.060   0.939   0.169  1.00  0.00     0.027 A 
ATOM     21  C   UNL     1       0.798  -0.156   0.073  1.00  0.00     0.041 A 
ATOM     22  C   UNL     1      -1.096  -1.592  -0.232  1.00  0.00     0.049 A 
ATOM     23  Cl  UNL     1       2.497   0.080   0.186  1.00  0.00    -0.084 Cl
ATOM     24  C   UNL     1       0.283  -1.428  -0.114  1.00  0.00     0.024 A 
ENDBRANCH  16  17
ENDBRANCH  10  16
BRANCH  15  25
ATOM     25  N   UNL     1      -7.516   2.671  -0.128  1.00  0.00    -0.398 N 
ATOM     26  H   UNL     1      -7.709   3.232  -0.913  1.00  0.00     0.156 HD
ATOM     27  H   UNL     1      -8.023   2.800   0.706  1.00  0.00     0.156 HD
ENDBRANCH  15  25
ENDBRANCH   6   9
ENDBRANCH   4   5
ENDBRANCH   3   4
ENDBRANCH   2   3
ENDBRANCH   1   2
BRANCH   1  28
ATOM     28  C   UNL     1      -5.997  -3.704   6.117  1.00  0.00     0.021 C 
BRANCH  28  29
ATOM     29  C   UNL     1      -4.816  -3.660   7.081  1.00  0.00     0.116 C 
BRANCH  29  30
ATOM     30  N   UNL     1      -5.260  -3.707   8.466  1.00  0.00    -0.352 N 
ATOM     31  C   UNL     1      -4.943  -4.613   9.446  1.00  0.00     0.251 C 
ATOM     32  H   UNL     1      -5.875  -2.987   8.738  1.00  0.00     0.163 HD
ATOM     33  O   UNL     1      -5.602  -4.655  10.480  1.00  0.00    -0.269 OA
BRANCH  31  34
ATOM     34  C   UNL     1      -3.810  -5.540   9.245  1.00  0.00     0.039 A 
ATOM     35  C   UNL     1      -3.961  -6.883   9.596  1.00  0.00     0.014 A 
ATOM     36  C   UNL     1      -2.599  -5.079   8.721  1.00  0.00     0.014 A 
ATOM     37  C   UNL     1      -2.911  -7.776   9.374  1.00  0.00     0.010 A 
ATOM     38  C   UNL     1      -1.581  -5.983   8.433  1.00  0.00     0.010 A 
ATOM     39  C   UNL     1      -1.723  -7.338   8.763  1.00  0.00    -0.014 A 
BRANCH  39  40
ATOM     40  C   UNL     1      -0.623  -8.287   8.457  1.00  0.00     0.031 A 
ATOM     41  C   UNL     1       0.718  -8.131   9.119  1.00  0.00     0.074 A 
ATOM     42  C   UNL     1      -0.813  -9.243   7.527  1.00  0.00     0.049 A 
ATOM     43  N   UNL     1       1.813  -8.824   8.939  1.00  0.00    -0.248 NA
ATOM     44  C   UNL     1       0.856  -7.034  10.090  1.00  0.00     0.031 C 
ATOM     45  C   UNL     1      -2.051  -9.452   6.773  1.00  0.00     0.029 A 
ATOM     46  N   UNL     1       0.035 -10.207   7.046  1.00  0.00    -0.354 N 
ATOM     47  C   UNL     1       2.772  -8.238   9.756  1.00  0.00     0.074 A 
ATOM     48  C   UNL     1       2.144  -7.101  10.393  1.00  0.00     0.031 C 
ATOM     49  C   UNL     1      -1.887 -10.489   5.938  1.00  0.00     0.029 A 
ATOM     50  C   UNL     1      -0.524 -10.995   6.068  1.00  0.00     0.049 A 
ATOM     51  H   UNL     1       0.957 -10.325   7.371  1.00  0.00     0.167 HD
ATOM     52  C   UNL     1       4.053  -8.623   9.969  1.00  0.00     0.037 A 
ATOM     53  C   UNL     1       0.004 -12.004   5.348  1.00  0.00     0.037 A 
ATOM     54  C   UNL     1       4.661  -9.770   9.344  1.00  0.00     0.049 A 
ATOM     55  C   UNL     1       1.422 -12.427   5.611  1.00  0.00     0.074 A 
ATOM     56  C   UNL     1       5.925 -10.294   9.552  1.00  0.00     0.029 A 
ATOM     57  N   UNL     1       4.054 -10.562   8.379  1.00  0.00    -0.354 N 
ATOM     58  N   UNL     1       2.290 -11.916   6.452  1.00  0.00    -0.248 NA
ATOM     59  C   UNL     1       1.930 -13.568   4.838  1.00  0.00     0.031 C 
ATOM     60  C   UNL     1       6.102 -11.369   8.674  1.00  0.00     0.029 A 
ATOM     61  C   UNL     1       4.928 -11.552   7.959  1.00  0.00     0.049 A 
ATOM     62  H   UNL     1       3.137 -10.439   8.043  1.00  0.00     0.167 HD
ATOM     63  C   UNL     1       3.442 -12.684   6.323  1.00  0.00     0.074 A 
ATOM     64  C   UNL     1       3.153 -13.703   5.334  1.00  0.00     0.031 C 
ATOM     65  C   UNL     1       4.630 -12.557   6.967  1.00  0.00     0.037 A 
BRANCH  52  66
ATOM     66  C   UNL     1       4.884  -7.790  10.909  1.00  0.00     0.058 A 
ATOM     67  C   UNL     1       4.622  -7.743  12.289  1.00  0.00     0.135 A 
ATOM     68  C   UNL     1       5.966  -7.037  10.426  1.00  0.00     0.135 A 
ATOM     69  F   UNL     1       3.593  -8.433  12.806  1.00  0.00    -0.206 F 
ATOM     70  C   UNL     1       5.373  -6.945  13.146  1.00  0.00     0.059 A 
ATOM     71  C   UNL     1       6.751  -6.257  11.270  1.00  0.00     0.059 A 
ATOM     72  F   UNL     1       6.266  -7.046   9.117  1.00  0.00    -0.206 F 
ATOM     73  C   UNL     1       6.433  -6.202  12.626  1.00  0.00     0.060 A 
BRANCH  73  74
ATOM     74  S   UNL     1       7.386  -5.156  13.748  1.00  0.00     0.124 S 
ATOM     75  O   UNL     1       6.445  -4.069  14.001  1.00  0.00    -0.237 OA
ATOM     76  O   UNL     1       7.635  -6.052  14.874  1.00  0.00    -0.237 OA
ATOM     77  O   UNL     1       8.562  -4.798  12.963  1.00  0.00    -0.744 OA
ENDBRANCH  73  74
ENDBRANCH  52  66
BRANCH  53  78
ATOM     78  C   UNL     1      -0.833 -12.688   4.327  1.00  0.00     0.058 A 
ATOM     79  C   UNL     1      -1.316 -13.987   4.539  1.00  0.00     0.135 A 
ATOM     80  C   UNL     1      -1.211 -12.034   3.143  1.00  0.00     0.135 A 
ATOM     81  F   UNL     1      -0.977 -14.655   5.652  1.00  0.00    -0.206 F 
ATOM     82  C   UNL     1      -2.146 -14.615   3.616  1.00  0.00     0.059 A 
ATOM     83  C   UNL     1      -2.060 -12.632   2.217  1.00  0.00     0.059 A 
ATOM     84  F   UNL     1      -0.789 -10.783   2.901  1.00  0.00    -0.206 F 
ATOM     85  C   UNL     1      -2.521 -13.924   2.461  1.00  0.00     0.060 A 
BRANCH  85  86
ATOM     86  S   UNL     1      -3.667 -14.716   1.312  1.00  0.00     0.124 S 
ATOM     87  O   UNL     1      -2.818 -15.735   0.705  1.00  0.00    -0.237 OA
ATOM     88  O   UNL     1      -4.710 -15.204   2.209  1.00  0.00    -0.237 OA
ATOM     89  O   UNL     1      -4.069 -13.623   0.432  1.00  0.00    -0.744 OA
ENDBRANCH  85  86
ENDBRANCH  53  78
BRANCH  65  90
ATOM     90  C   UNL     1       5.705 -13.556   6.638  1.00  0.00     0.058 A 
ATOM     91  C   UNL     1       6.388 -13.530   5.412  1.00  0.00     0.135 A 
ATOM     92  C   UNL     1       6.095 -14.518   7.585  1.00  0.00     0.135 A 
ATOM     93  F   UNL     1       6.050 -12.636   4.469  1.00  0.00    -0.206 F 
ATOM     94  C   UNL     1       7.403 -14.437   5.126  1.00  0.00     0.059 A 
ATOM     95  C   UNL     1       7.128 -15.415   7.332  1.00  0.00     0.059 A 
ATOM     96  F   UNL     1       5.482 -14.580   8.778  1.00  0.00    -0.206 F 
ATOM     97  C   UNL     1       7.768 -15.374   6.094  1.00  0.00     0.060 A 
BRANCH  97  98
ATOM     98  S   UNL     1       9.110 -16.523   5.724  1.00  0.00     0.124 S 
ATOM     99  O   UNL     1       8.469 -17.428   4.775  1.00  0.00    -0.237 OA
ATOM    100  O   UNL     1      10.132 -15.641   5.168  1.00  0.00    -0.237 OA
ATOM    101  O   UNL     1       9.431 -17.103   7.024  1.00  0.00    -0.744 OA
ENDBRANCH  97  98
ENDBRANCH  65  90
ENDBRANCH  39  40
ENDBRANCH  31  34
ENDBRANCH  29  30
ENDBRANCH  28  29
ENDBRANCH   1  28
TORSDOF 19
