REMARK SMILES CC[C@H](C)[NH2+][C@H](CS)C(=O)NCCCCCCNC(=O)c1ccc(-c2c3nc(c(-c4c(F)cc(S(=O)(=O)[O-])cc4F)c4ccc([nH]4)c(-c4c(F)cc(S(=O)(=O)[O-])cc4F)c4nc(c(-c5c(F)cc(S(=O)(=O)[O-])cc5F)c5ccc2[nH]5)C=C4)C=C3)cc1
REMARK SMILES IDX 14 1 13 2 12 3 11 4 9 5 10 6 6 8 5 9 3 12 4 13 2 14 1 15
REMARK SMILES IDX 7 16 8 17 15 19 16 20 17 21 18 22 19 23 20 25 21 26 22 27
REMARK SMILES IDX 86 28 23 29 85 30 24 31 25 32 26 33 79 34 27 35 84 36 78 37
REMARK SMILES IDX 80 38 28 39 83 40 77 41 76 42 29 44 63 45 42 46 62 47 43 48
REMARK SMILES IDX 46 49 61 50 81 51 44 52 45 53 60 55 82 56 47 57 30 58 31 59
REMARK SMILES IDX 40 60 32 61 33 62 39 63 41 64 34 65 35 66 36 67 37 68 38 69
REMARK SMILES IDX 64 70 65 71 74 72 66 73 67 74 73 75 75 76 68 77 69 78 70 79
REMARK SMILES IDX 71 80 72 81 48 82 49 83 58 84 50 85 51 86 57 87 59 88 52 89
REMARK SMILES IDX 53 90 54 91 55 92 56 93
REMARK H PARENT 11 7 5 10 5 11 8 18 18 24 80 43 46 54
REMARK Flexibility Score: inf
ROOT
ATOM      1  C   UNL     1      -3.750  -2.623   6.666  1.00  0.00     0.002 C 
ENDROOT
BRANCH   1   2
ATOM      2  C   UNL     1      -2.868  -2.491   5.431  1.00  0.00     0.021 C 
BRANCH   2   3
ATOM      3  C   UNL     1      -1.873  -1.344   5.432  1.00  0.00     0.116 C 
BRANCH   3   4
ATOM      4  N   UNL     1      -0.789  -1.467   6.370  1.00  0.00    -0.351 N 
ATOM      5  C   UNL     1       0.489  -1.001   6.266  1.00  0.00     0.279 C 
ATOM      6  O   UNL     1       1.186  -1.067   7.288  1.00  0.00    -0.268 OA
ATOM      7  H   UNL     1      -0.999  -1.954   7.200  1.00  0.00     0.163 HD
BRANCH   5   8
ATOM      8  C   UNL     1       1.093  -0.418   4.953  1.00  0.00     0.282 C 
BRANCH   8   9
ATOM      9  N   UNL     1       0.642   0.981   4.740  1.00  0.00    -0.333 N 
ATOM     10  H   UNL     1       0.395   1.354   5.656  1.00  0.00     0.347 HD
ATOM     11  H   UNL     1       1.431   1.411   4.257  1.00  0.00     0.347 HD
BRANCH   9  12
ATOM     12  C   UNL     1      -0.488   1.257   3.852  1.00  0.00     0.179 C 
ATOM     13  C   UNL     1      -1.296   2.392   4.486  1.00  0.00     0.075 C 
BRANCH  12  14
ATOM     14  C   UNL     1      -0.055   1.478   2.387  1.00  0.00     0.061 C 
ATOM     15  C   UNL     1      -0.858   2.514   1.615  1.00  0.00     0.010 C 
ENDBRANCH  12  14
ENDBRANCH   9  12
ENDBRANCH   8   9
BRANCH   8  16
ATOM     16  C   UNL     1       1.127  -1.352   3.733  1.00  0.00     0.141 C 
BRANCH  16  17
ATOM     17  S   UNL     1       1.803  -3.014   4.069  1.00  0.00    -0.173 SA
ATOM     18  H   UNL     1       3.101  -2.905   4.461  1.00  0.00     0.102 HD
ENDBRANCH  16  17
ENDBRANCH   8  16
ENDBRANCH   5   8
ENDBRANCH   3   4
ENDBRANCH   2   3
ENDBRANCH   1   2
BRANCH   1  19
ATOM     19  C   UNL     1      -4.526  -1.373   7.089  1.00  0.00     0.002 C 
BRANCH  19  20
ATOM     20  C   UNL     1      -5.364  -0.680   6.010  1.00  0.00     0.021 C 
BRANCH  20  21
ATOM     21  C   UNL     1      -6.308  -1.572   5.208  1.00  0.00     0.116 C 
BRANCH  21  22
ATOM     22  N   UNL     1      -7.197  -2.354   6.049  1.00  0.00    -0.352 N 
ATOM     23  C   UNL     1      -8.566  -2.440   6.040  1.00  0.00     0.251 C 
ATOM     24  H   UNL     1      -6.749  -2.907   6.729  1.00  0.00     0.163 HD
ATOM     25  O   UNL     1      -9.145  -3.050   6.939  1.00  0.00    -0.269 OA
BRANCH  23  26
ATOM     26  C   UNL     1      -9.347  -1.779   4.974  1.00  0.00     0.039 A 
ATOM     27  C   UNL     1     -10.454  -1.007   5.335  1.00  0.00     0.014 A 
ATOM     28  C   UNL     1      -8.991  -1.913   3.629  1.00  0.00     0.014 A 
ATOM     29  C   UNL     1     -11.158  -0.304   4.354  1.00  0.00     0.010 A 
ATOM     30  C   UNL     1      -9.654  -1.162   2.660  1.00  0.00     0.010 A 
ATOM     31  C   UNL     1     -10.734  -0.338   3.015  1.00  0.00    -0.014 A 
BRANCH  31  32
ATOM     32  C   UNL     1     -11.370   0.525   1.985  1.00  0.00     0.031 A 
ATOM     33  C   UNL     1     -12.090  -0.088   0.816  1.00  0.00     0.074 A 
ATOM     34  C   UNL     1     -11.215   1.863   2.063  1.00  0.00     0.049 A 
ATOM     35  N   UNL     1     -12.615   0.501  -0.227  1.00  0.00    -0.248 NA
ATOM     36  C   UNL     1     -12.220  -1.555   0.804  1.00  0.00     0.031 C 
ATOM     37  C   UNL     1     -10.493   2.569   3.126  1.00  0.00     0.029 A 
ATOM     38  N   UNL     1     -11.630   2.869   1.225  1.00  0.00    -0.354 N 
ATOM     39  C   UNL     1     -13.116  -0.518  -1.028  1.00  0.00     0.074 A 
ATOM     40  C   UNL     1     -12.809  -1.767  -0.366  1.00  0.00     0.031 C 
ATOM     41  C   UNL     1     -10.518   3.888   2.877  1.00  0.00     0.029 A 
ATOM     42  C   UNL     1     -11.212   4.121   1.615  1.00  0.00     0.049 A 
ATOM     43  H   UNL     1     -12.175   2.709   0.421  1.00  0.00     0.167 HD
ATOM     44  C   UNL     1     -13.780  -0.415  -2.204  1.00  0.00     0.037 A 
ATOM     45  C   UNL     1     -11.344   5.319   1.011  1.00  0.00     0.037 A 
ATOM     46  C   UNL     1     -14.110   0.836  -2.836  1.00  0.00     0.049 A 
ATOM     47  C   UNL     1     -12.076   5.398  -0.302  1.00  0.00     0.074 A 
ATOM     48  C   UNL     1     -14.870   1.046  -3.974  1.00  0.00     0.029 A 
ATOM     49  N   UNL     1     -13.689   2.083  -2.401  1.00  0.00    -0.354 N 
ATOM     50  N   UNL     1     -12.639   4.433  -0.990  1.00  0.00    -0.248 NA
ATOM     51  C   UNL     1     -12.191   6.725  -0.926  1.00  0.00     0.031 C 
ATOM     52  C   UNL     1     -14.851   2.412  -4.266  1.00  0.00     0.029 A 
ATOM     53  C   UNL     1     -14.131   3.062  -3.276  1.00  0.00     0.049 A 
ATOM     54  H   UNL     1     -13.156   2.249  -1.590  1.00  0.00     0.167 HD
ATOM     55  C   UNL     1     -13.187   5.038  -2.116  1.00  0.00     0.074 A 
ATOM     56  C   UNL     1     -12.910   6.455  -2.006  1.00  0.00     0.031 C 
ATOM     57  C   UNL     1     -13.852   4.471  -3.151  1.00  0.00     0.037 A 
BRANCH  44  58
ATOM     58  C   UNL     1     -14.197  -1.679  -2.904  1.00  0.00     0.058 A 
ATOM     59  C   UNL     1     -15.247  -2.479  -2.428  1.00  0.00     0.135 A 
ATOM     60  C   UNL     1     -13.605  -2.037  -4.127  1.00  0.00     0.135 A 
ATOM     61  F   UNL     1     -15.840  -2.191  -1.258  1.00  0.00    -0.206 F 
ATOM     62  C   UNL     1     -15.693  -3.590  -3.137  1.00  0.00     0.059 A 
ATOM     63  C   UNL     1     -14.052  -3.128  -4.866  1.00  0.00     0.059 A 
ATOM     64  F   UNL     1     -12.594  -1.308  -4.626  1.00  0.00    -0.206 F 
ATOM     65  C   UNL     1     -15.095  -3.901  -4.360  1.00  0.00     0.060 A 
BRANCH  65  66
ATOM     66  S   UNL     1     -15.722  -5.316  -5.290  1.00  0.00     0.124 S 
ATOM     67  O   UNL     1     -15.268  -6.431  -4.466  1.00  0.00    -0.237 OA
ATOM     68  O   UNL     1     -17.161  -5.073  -5.290  1.00  0.00    -0.237 OA
ATOM     69  O   UNL     1     -15.067  -5.189  -6.588  1.00  0.00    -0.744 OA
ENDBRANCH  65  66
ENDBRANCH  44  58
BRANCH  45  70
ATOM     70  C   UNL     1     -10.742   6.538   1.619  1.00  0.00     0.058 A 
ATOM     71  C   UNL     1     -11.544   7.583   2.101  1.00  0.00     0.135 A 
ATOM     72  C   UNL     1      -9.349   6.692   1.706  1.00  0.00     0.135 A 
ATOM     73  F   UNL     1     -12.881   7.487   2.036  1.00  0.00    -0.206 F 
ATOM     74  C   UNL     1     -10.989   8.751   2.616  1.00  0.00     0.059 A 
ATOM     75  C   UNL     1      -8.771   7.836   2.246  1.00  0.00     0.059 A 
ATOM     76  F   UNL     1      -8.534   5.716   1.276  1.00  0.00    -0.206 F 
ATOM     77  C   UNL     1      -9.600   8.869   2.681  1.00  0.00     0.060 A 
BRANCH  77  78
ATOM     78  S   UNL     1      -8.888  10.384   3.357  1.00  0.00     0.124 S 
ATOM     79  O   UNL     1      -9.152  11.335   2.284  1.00  0.00    -0.237 OA
ATOM     80  O   UNL     1      -9.663  10.567   4.580  1.00  0.00    -0.237 OA
ATOM     81  O   UNL     1      -7.485  10.034   3.559  1.00  0.00    -0.744 OA
ENDBRANCH  77  78
ENDBRANCH  45  70
BRANCH  57  82
ATOM     82  C   UNL     1     -14.343   5.376  -4.247  1.00  0.00     0.058 A 
ATOM     83  C   UNL     1     -13.458   5.952  -5.172  1.00  0.00     0.135 A 
ATOM     84  C   UNL     1     -15.717   5.601  -4.426  1.00  0.00     0.135 A 
ATOM     85  F   UNL     1     -12.133   5.777  -5.040  1.00  0.00    -0.206 F 
ATOM     86  C   UNL     1     -13.918   6.725  -6.232  1.00  0.00     0.059 A 
ATOM     87  C   UNL     1     -16.202   6.346  -5.496  1.00  0.00     0.059 A 
ATOM     88  F   UNL     1     -16.607   5.067  -3.573  1.00  0.00    -0.206 F 
ATOM     89  C   UNL     1     -15.293   6.908  -6.391  1.00  0.00     0.060 A 
BRANCH  89  90
ATOM     90  S   UNL     1     -15.877   7.858  -7.811  1.00  0.00     0.124 S 
ATOM     91  O   UNL     1     -15.476   9.212  -7.446  1.00  0.00    -0.237 OA
ATOM     92  O   UNL     1     -15.137   7.253  -8.915  1.00  0.00    -0.237 OA
ATOM     93  O   UNL     1     -17.316   7.610  -7.819  1.00  0.00    -0.744 OA
ENDBRANCH  89  90
ENDBRANCH  57  82
ENDBRANCH  31  32
ENDBRANCH  23  26
ENDBRANCH  21  22
ENDBRANCH  20  21
ENDBRANCH  19  20
ENDBRANCH   1  19
TORSDOF 21
