REMARK SMILES COc1cc(Cl)c(C)cc1N1C(=O)C[C@H](Nc2cc(C(=O)NCCCCCCNC(=O)c3ccc(-c4c5nc(c(-c6c(F)cc(S(=O)(=O)[O-])cc6F)c6ccc([nH]6)c(-c6c(F)cc(S(=O)(=O)[O-])cc6F)c6nc(c(-c7c(F)cc(S(=O)(=O)[O-])cc7F)c7ccc4[nH]7)C=C6)C=C5)cc3)ccc2C)C1=O
REMARK SMILES IDX 25 1 24 2 23 3 22 4 20 5 21 6 19 8 17 9 18 10 100 11 99 12
REMARK SMILES IDX 101 13 98 14 16 15 15 17 11 18 12 19 102 20 13 21 14 22
REMARK SMILES IDX 103 23 10 24 3 25 4 26 5 27 9 28 6 29 7 30 8 31 2 32 1 33
REMARK SMILES IDX 26 34 27 35 28 36 29 37 30 38 31 40 32 41 33 42 97 43 34 44
REMARK SMILES IDX 96 45 35 46 36 47 37 48 90 49 38 50 95 51 89 52 91 53 39 54
REMARK SMILES IDX 94 55 88 56 87 57 40 59 74 60 53 61 73 62 54 63 57 64 72 65
REMARK SMILES IDX 92 66 55 67 56 68 71 70 93 71 58 72 41 73 42 74 51 75 43 76
REMARK SMILES IDX 44 77 50 78 52 79 45 80 46 81 47 82 48 83 49 84 75 85 76 86
REMARK SMILES IDX 85 87 77 88 78 89 84 90 86 91 79 92 80 93 81 94 82 95 83 96
REMARK SMILES IDX 59 97 60 98 69 99 61 100 62 101 68 102 70 103 63 104 64 105
REMARK SMILES IDX 65 106 66 107 67 108
REMARK H PARENT 22 7 16 16 29 39 91 58 57 69
REMARK Flexibility Score: inf
ROOT
ATOM      1  C   UNL     1       1.419  -5.474   4.346  1.00  0.00     0.002 C 
ENDROOT
BRANCH   1   2
ATOM      2  C   UNL     1       2.589  -5.237   3.352  1.00  0.00     0.021 C 
BRANCH   2   3
ATOM      3  C   UNL     1       3.334  -3.942   3.450  1.00  0.00     0.116 C 
BRANCH   3   4
ATOM      4  N   UNL     1       3.987  -3.781   4.729  1.00  0.00    -0.352 N 
ATOM      5  C   UNL     1       5.208  -3.262   5.058  1.00  0.00     0.251 C 
ATOM      6  O   UNL     1       5.567  -3.326   6.234  1.00  0.00    -0.269 OA
ATOM      7  H   UNL     1       3.461  -4.101   5.498  1.00  0.00     0.163 HD
BRANCH   5   8
ATOM      8  C   UNL     1       6.122  -2.647   4.053  1.00  0.00     0.041 A 
ATOM      9  C   UNL     1       6.605  -1.632   1.879  1.00  0.00     0.038 A 
ATOM     10  C   UNL     1       5.698  -2.099   2.838  1.00  0.00     0.039 A 
ATOM     11  C   UNL     1       7.973  -1.613   2.202  1.00  0.00    -0.028 A 
ATOM     12  C   UNL     1       8.398  -2.074   3.458  1.00  0.00     0.006 A 
ATOM     13  C   UNL     1       9.003  -1.031   1.273  1.00  0.00     0.046 C 
ATOM     14  C   UNL     1       7.484  -2.611   4.363  1.00  0.00     0.014 A 
BRANCH   9  15
ATOM     15  N   UNL     1       6.198  -1.379   0.570  1.00  0.00    -0.373 N 
ATOM     16  H   UNL     1       6.787  -1.644  -0.172  1.00  0.00     0.161 HD
BRANCH  15  17
ATOM     17  C   UNL     1       4.920  -0.731   0.265  1.00  0.00     0.179 C 
ATOM     18  N   UNL     1       3.498  -1.031  -1.571  1.00  0.00    -0.245 N 
ATOM     19  C   UNL     1       4.194   0.113  -1.846  1.00  0.00     0.236 C 
ATOM     20  C   UNL     1       3.926  -1.654  -0.423  1.00  0.00     0.256 C 
ATOM     21  O   UNL     1       4.053   0.876  -2.793  1.00  0.00    -0.274 OA
ATOM     22  C   UNL     1       5.167   0.376  -0.742  1.00  0.00     0.136 C 
ATOM     23  O   UNL     1       3.645  -2.772  -0.016  1.00  0.00    -0.272 OA
BRANCH  18  24
ATOM     24  C   UNL     1       2.432  -1.488  -2.373  1.00  0.00     0.094 A 
ATOM     25  C   UNL     1       1.156  -1.706  -1.832  1.00  0.00     0.144 A 
ATOM     26  C   UNL     1       0.107  -2.138  -2.647  1.00  0.00     0.069 A 
ATOM     27  C   UNL     1       0.318  -2.336  -4.014  1.00  0.00     0.047 A 
ATOM     28  C   UNL     1       2.628  -1.677  -3.749  1.00  0.00     0.035 A 
ATOM     29  Cl  UNL     1      -1.031  -2.811  -4.985  1.00  0.00    -0.084 Cl
ATOM     30  C   UNL     1       1.585  -2.125  -4.580  1.00  0.00    -0.030 A 
ATOM     31  C   UNL     1       1.862  -2.389  -6.034  1.00  0.00     0.046 C 
BRANCH  25  32
ATOM     32  O   UNL     1       0.867  -1.493  -0.509  1.00  0.00    -0.495 OA
ATOM     33  C   UNL     1       0.783  -0.108  -0.187  1.00  0.00     0.278 C 
ENDBRANCH  25  32
ENDBRANCH  18  24
ENDBRANCH  15  17
ENDBRANCH   9  15
ENDBRANCH   5   8
ENDBRANCH   3   4
ENDBRANCH   2   3
ENDBRANCH   1   2
BRANCH   1  34
ATOM     34  C   UNL     1       0.199  -4.494   4.580  1.00  0.00     0.002 C 
BRANCH  34  35
ATOM     35  C   UNL     1      -1.104  -4.189   3.626  1.00  0.00     0.021 C 
BRANCH  35  36
ATOM     36  C   UNL     1      -2.215  -5.334   3.426  1.00  0.00     0.116 C 
BRANCH  36  37
ATOM     37  N   UNL     1      -3.479  -5.344   2.417  1.00  0.00    -0.352 N 
ATOM     38  C   UNL     1      -4.186  -6.240   1.472  1.00  0.00     0.251 C 
ATOM     39  H   UNL     1      -3.926  -4.467   2.438  1.00  0.00     0.163 HD
ATOM     40  O   UNL     1      -5.365  -6.452   1.821  1.00  0.00    -0.269 OA
BRANCH  38  41
ATOM     41  C   UNL     1      -3.835  -6.960   0.061  1.00  0.00     0.039 A 
ATOM     42  C   UNL     1      -4.283  -8.291  -0.234  1.00  0.00     0.014 A 
ATOM     43  C   UNL     1      -3.000  -6.483  -0.943  1.00  0.00     0.014 A 
ATOM     44  C   UNL     1      -3.465  -9.207  -1.034  1.00  0.00     0.010 A 
ATOM     45  C   UNL     1      -2.152  -7.380  -1.679  1.00  0.00     0.010 A 
ATOM     46  C   UNL     1      -2.223  -8.773  -1.536  1.00  0.00    -0.014 A 
BRANCH  46  47
ATOM     47  C   UNL     1      -0.946  -9.630  -1.644  1.00  0.00     0.031 A 
ATOM     48  C   UNL     1      -0.462 -10.058  -2.957  1.00  0.00     0.074 A 
ATOM     49  C   UNL     1      -0.027  -9.952  -0.673  1.00  0.00     0.049 A 
ATOM     50  N   UNL     1      -0.078 -11.252  -3.275  1.00  0.00    -0.248 NA
ATOM     51  C   UNL     1      -0.302  -9.078  -4.014  1.00  0.00     0.031 C 
ATOM     52  C   UNL     1       1.279 -10.648  -0.682  1.00  0.00     0.029 A 
ATOM     53  N   UNL     1      -0.068  -9.651   0.672  1.00  0.00    -0.354 N 
ATOM     54  C   UNL     1       0.670 -11.114  -4.428  1.00  0.00     0.074 A 
ATOM     55  C   UNL     1       0.323  -9.805  -4.939  1.00  0.00     0.031 C 
ATOM     56  C   UNL     1       1.607 -11.038   0.578  1.00  0.00     0.029 A 
ATOM     57  C   UNL     1       0.525 -10.639   1.453  1.00  0.00     0.049 A 
ATOM     58  H   UNL     1      -0.471  -8.831   1.039  1.00  0.00     0.167 HD
ATOM     59  C   UNL     1       1.700 -11.972  -4.716  1.00  0.00     0.037 A 
ATOM     60  C   UNL     1      -0.275 -11.407   2.264  1.00  0.00     0.037 A 
ATOM     61  C   UNL     1       1.967 -12.872  -3.577  1.00  0.00     0.049 A 
ATOM     62  C   UNL     1      -0.403 -12.785   1.664  1.00  0.00     0.074 A 
ATOM     63  C   UNL     1       2.995 -12.910  -2.643  1.00  0.00     0.029 A 
ATOM     64  N   UNL     1       0.957 -13.683  -3.058  1.00  0.00    -0.354 N 
ATOM     65  N   UNL     1       0.007 -13.055   0.457  1.00  0.00    -0.248 NA
ATOM     66  C   UNL     1      -0.936 -13.964   2.334  1.00  0.00     0.031 C 
ATOM     67  C   UNL     1       2.543 -13.642  -1.511  1.00  0.00     0.029 A 
ATOM     68  C   UNL     1       1.254 -14.083  -1.764  1.00  0.00     0.049 A 
ATOM     69  H   UNL     1       0.142 -13.938  -3.547  1.00  0.00     0.167 HD
ATOM     70  C   UNL     1      -0.118 -14.377   0.191  1.00  0.00     0.074 A 
ATOM     71  C   UNL     1      -0.727 -14.912   1.398  1.00  0.00     0.031 C 
ATOM     72  C   UNL     1       0.321 -14.903  -0.990  1.00  0.00     0.037 A 
BRANCH  59  73
ATOM     73  C   UNL     1       2.678 -11.748  -5.874  1.00  0.00     0.058 A 
ATOM     74  C   UNL     1       3.969 -12.322  -5.891  1.00  0.00     0.135 A 
ATOM     75  C   UNL     1       2.381 -10.989  -7.029  1.00  0.00     0.135 A 
ATOM     76  F   UNL     1       4.366 -13.183  -4.945  1.00  0.00    -0.206 F 
ATOM     77  C   UNL     1       4.909 -12.074  -6.904  1.00  0.00     0.059 A 
ATOM     78  C   UNL     1       3.324 -10.658  -8.009  1.00  0.00     0.059 A 
ATOM     79  F   UNL     1       1.128 -10.611  -7.314  1.00  0.00    -0.206 F 
ATOM     80  C   UNL     1       4.588 -11.217  -7.947  1.00  0.00     0.060 A 
BRANCH  80  81
ATOM     81  S   UNL     1       5.783 -10.935  -9.270  1.00  0.00     0.124 S 
ATOM     82  O   UNL     1       6.942 -10.428  -8.543  1.00  0.00    -0.237 OA
ATOM     83  O   UNL     1       5.924 -12.271  -9.840  1.00  0.00    -0.237 OA
ATOM     84  O   UNL     1       5.118  -9.960 -10.131  1.00  0.00    -0.744 OA
ENDBRANCH  80  81
ENDBRANCH  59  73
BRANCH  60  85
ATOM     85  C   UNL     1      -1.393 -10.645   3.011  1.00  0.00     0.058 A 
ATOM     86  C   UNL     1      -0.904  -9.675   3.903  1.00  0.00     0.135 A 
ATOM     87  C   UNL     1      -2.364 -10.144   2.165  1.00  0.00     0.135 A 
ATOM     88  F   UNL     1      -0.392 -10.049   5.083  1.00  0.00    -0.206 F 
ATOM     89  C   UNL     1      -0.785  -8.333   3.525  1.00  0.00     0.059 A 
ATOM     90  C   UNL     1      -2.195  -8.818   1.757  1.00  0.00     0.059 A 
ATOM     91  F   UNL     1      -3.058 -10.974   1.369  1.00  0.00    -0.206 F 
ATOM     92  C   UNL     1      -1.280  -7.951   2.292  1.00  0.00     0.060 A 
BRANCH  92  93
ATOM     93  S   UNL     1      -0.454  -6.560   1.159  1.00  0.00     0.124 S 
ATOM     94  O   UNL     1       0.500  -6.037   2.096  1.00  0.00    -0.237 OA
ATOM     95  O   UNL     1       0.182  -7.250   0.058  1.00  0.00    -0.237 OA
ATOM     96  O   UNL     1      -1.441  -5.567   0.809  1.00  0.00    -0.744 OA
ENDBRANCH  92  93
ENDBRANCH  60  85
BRANCH  72  97
ATOM     97  C   UNL     1       0.018 -16.294  -1.464  1.00  0.00     0.058 A 
ATOM     98  C   UNL     1      -1.138 -17.003  -1.104  1.00  0.00     0.135 A 
ATOM     99  C   UNL     1       0.851 -16.915  -2.425  1.00  0.00     0.135 A 
ATOM    100  F   UNL     1      -2.074 -16.465  -0.308  1.00  0.00    -0.206 F 
ATOM    101  C   UNL     1      -1.398 -18.284  -1.582  1.00  0.00     0.059 A 
ATOM    102  C   UNL     1       0.573 -18.160  -2.969  1.00  0.00     0.059 A 
ATOM    103  F   UNL     1       1.968 -16.326  -2.879  1.00  0.00    -0.206 F 
ATOM    104  C   UNL     1      -0.532 -18.857  -2.508  1.00  0.00     0.060 A 
BRANCH 104 105
ATOM    105  S   UNL     1      -0.873 -20.509  -3.126  1.00  0.00     0.124 S 
ATOM    106  O   UNL     1      -0.310 -21.335  -2.062  1.00  0.00    -0.237 OA
ATOM    107  O   UNL     1      -2.329 -20.518  -3.229  1.00  0.00    -0.237 OA
ATOM    108  O   UNL     1      -0.161 -20.548  -4.400  1.00  0.00    -0.744 OA
ENDBRANCH 104 105
ENDBRANCH  72  97
ENDBRANCH  46  47
ENDBRANCH  38  41
ENDBRANCH  36  37
ENDBRANCH  35  36
ENDBRANCH  34  35
ENDBRANCH   1  34
TORSDOF 20
