REMARK SMILES Cc1ccc2nc(C(=O)NCCCCCCNC(=O)c3ccc(-c4c5nc(c(-c6c(F)cc(S(=O)(=O)[O-])cc6F)c6ccc([nH]6)c(-c6c(F)cc(S(=O)(=O)[O-])cc6F)c6nc(c(-c7c(F)cc(S(=O)(=O)[O-])cc7F)c7ccc4[nH]7)C=C6)C=C5)cc3)cc(N3CCOCC3)c2c1
REMARK SMILES IDX 14 1 13 2 12 3 11 4 10 5 8 6 9 7 7 9 1 10 2 11 3 12 95 13
REMARK SMILES IDX 4 14 94 15 5 16 87 17 6 18 86 19 88 20 89 21 93 22 90 23
REMARK SMILES IDX 92 24 91 25 15 26 16 27 17 28 18 29 19 31 20 32 21 33 85 34
REMARK SMILES IDX 22 35 84 36 23 37 24 38 25 39 78 40 26 41 83 42 77 43 79 44
REMARK SMILES IDX 27 45 82 46 76 47 75 48 28 50 62 51 41 52 61 53 42 54 45 55
REMARK SMILES IDX 60 56 80 57 43 58 44 59 59 61 81 62 46 63 29 64 30 65 39 66
REMARK SMILES IDX 31 67 32 68 38 69 40 70 33 71 34 72 35 73 36 74 37 75 63 76
REMARK SMILES IDX 64 77 73 78 65 79 66 80 72 81 74 82 67 83 68 84 69 85 70 86
REMARK SMILES IDX 71 87 47 88 48 89 57 90 49 91 50 92 56 93 58 94 51 95 52 96
REMARK SMILES IDX 53 97 54 98 55 99
REMARK H PARENT 10 8 17 30 79 49 45 60
REMARK Flexibility Score: inf
ROOT
ATOM      1  C   UNL     1      -8.299  -2.196  -0.068  1.00  0.00     0.002 C 
ENDROOT
BRANCH   1   2
ATOM      2  C   UNL     1      -7.420  -1.560   1.017  1.00  0.00     0.002 C 
BRANCH   2   3
ATOM      3  C   UNL     1      -5.916  -1.812   0.847  1.00  0.00     0.021 C 
BRANCH   3   4
ATOM      4  C   UNL     1      -5.359  -1.212  -0.447  1.00  0.00     0.116 C 
BRANCH   4   5
ATOM      5  N   UNL     1      -5.067   0.192  -0.248  1.00  0.00    -0.351 N 
ATOM      6  C   UNL     1      -3.917   0.885   0.051  1.00  0.00     0.269 C 
ATOM      7  O   UNL     1      -4.054   2.101   0.215  1.00  0.00    -0.268 OA
ATOM      8  H   UNL     1      -5.857   0.772  -0.348  1.00  0.00     0.163 HD
BRANCH   6   9
ATOM      9  C   UNL     1      -2.545   0.264   0.131  1.00  0.00     0.130 A 
ATOM     10  C   UNL     1       3.874  -0.488  -0.140  1.00  0.00     0.044 C 
ATOM     11  C   UNL     1       2.443  -0.047  -0.107  1.00  0.00    -0.050 A 
ATOM     12  C   UNL     1       2.091   1.299  -0.132  1.00  0.00     0.005 A 
ATOM     13  C   UNL     1       1.425  -1.002  -0.036  1.00  0.00     0.016 A 
ATOM     14  C   UNL     1       0.743   1.667  -0.104  1.00  0.00     0.029 A 
ATOM     15  C   UNL     1       0.062  -0.636   0.063  1.00  0.00     0.024 A 
ATOM     16  C   UNL     1      -0.274   0.728  -0.014  1.00  0.00     0.073 A 
ATOM     17  C   UNL     1      -0.990  -1.571   0.235  1.00  0.00     0.049 A 
ATOM     18  N   UNL     1      -1.538   1.163  -0.012  1.00  0.00    -0.242 NA
ATOM     19  C   UNL     1      -2.296  -1.083   0.326  1.00  0.00     0.060 A 
BRANCH  17  20
ATOM     20  N   UNL     1      -0.737  -2.937   0.316  1.00  0.00    -0.366 N 
ATOM     21  C   UNL     1      -0.124  -3.462   1.548  1.00  0.00     0.145 C 
ATOM     22  C   UNL     1      -1.593  -3.911  -0.382  1.00  0.00     0.145 C 
ATOM     23  C   UNL     1       0.627  -4.761   1.212  1.00  0.00     0.181 C 
ATOM     24  C   UNL     1      -0.800  -5.209  -0.619  1.00  0.00     0.181 C 
ATOM     25  O   UNL     1      -0.249  -5.725   0.606  1.00  0.00    -0.378 OA
ENDBRANCH  17  20
ENDBRANCH   6   9
ENDBRANCH   4   5
ENDBRANCH   3   4
ENDBRANCH   2   3
ENDBRANCH   1   2
BRANCH   1  26
ATOM     26  C   UNL     1      -8.095  -3.702  -0.253  1.00  0.00     0.021 C 
BRANCH  26  27
ATOM     27  C   UNL     1      -8.437  -4.527   0.983  1.00  0.00     0.116 C 
BRANCH  27  28
ATOM     28  N   UNL     1      -9.850  -4.424   1.313  1.00  0.00    -0.352 N 
ATOM     29  C   UNL     1     -10.790  -5.420   1.409  1.00  0.00     0.251 C 
ATOM     30  H   UNL     1     -10.178  -3.513   1.492  1.00  0.00     0.163 HD
ATOM     31  O   UNL     1     -11.983  -5.139   1.431  1.00  0.00    -0.269 OA
BRANCH  29  32
ATOM     32  C   UNL     1     -10.351  -6.829   1.480  1.00  0.00     0.039 A 
ATOM     33  C   UNL     1     -11.020  -7.790   0.721  1.00  0.00     0.014 A 
ATOM     34  C   UNL     1      -9.283  -7.197   2.306  1.00  0.00     0.014 A 
ATOM     35  C   UNL     1     -10.585  -9.116   0.751  1.00  0.00     0.010 A 
ATOM     36  C   UNL     1      -8.805  -8.502   2.276  1.00  0.00     0.010 A 
ATOM     37  C   UNL     1      -9.456  -9.477   1.506  1.00  0.00    -0.014 A 
BRANCH  37  38
ATOM     38  C   UNL     1      -8.944 -10.870   1.508  1.00  0.00     0.031 A 
ATOM     39  C   UNL     1      -8.940 -11.670   2.783  1.00  0.00     0.074 A 
ATOM     40  C   UNL     1      -8.424 -11.388   0.378  1.00  0.00     0.049 A 
ATOM     41  N   UNL     1      -8.474 -12.872   3.001  1.00  0.00    -0.248 NA
ATOM     42  C   UNL     1      -9.510 -11.023   3.976  1.00  0.00     0.031 C 
ATOM     43  C   UNL     1      -8.328 -10.690  -0.906  1.00  0.00     0.029 A 
ATOM     44  N   UNL     1      -7.867 -12.617   0.129  1.00  0.00    -0.354 N 
ATOM     45  C   UNL     1      -8.682 -13.120   4.353  1.00  0.00     0.074 A 
ATOM     46  C   UNL     1      -9.263 -11.922   4.917  1.00  0.00     0.031 C 
ATOM     47  C   UNL     1      -7.769 -11.509  -1.811  1.00  0.00     0.029 A 
ATOM     48  C   UNL     1      -7.430 -12.773  -1.165  1.00  0.00     0.049 A 
ATOM     49  H   UNL     1      -7.788 -13.321   0.812  1.00  0.00     0.167 HD
ATOM     50  C   UNL     1      -8.433 -14.251   5.054  1.00  0.00     0.037 A 
ATOM     51  C   UNL     1      -6.816 -13.813  -1.762  1.00  0.00     0.037 A 
ATOM     52  C   UNL     1      -7.873 -15.446   4.478  1.00  0.00     0.049 A 
ATOM     53  C   UNL     1      -6.546 -15.058  -0.962  1.00  0.00     0.074 A 
ATOM     54  C   UNL     1      -7.634 -16.665   5.087  1.00  0.00     0.029 A 
ATOM     55  N   UNL     1      -7.462 -15.573   3.158  1.00  0.00    -0.354 N 
ATOM     56  N   UNL     1      -6.809 -15.299   0.301  1.00  0.00    -0.248 NA
ATOM     57  C   UNL     1      -5.904 -16.176  -1.667  1.00  0.00     0.031 C 
ATOM     58  C   UNL     1      -7.033 -17.512   4.151  1.00  0.00     0.029 A 
ATOM     59  C   UNL     1      -6.950 -16.841   2.941  1.00  0.00     0.049 A 
ATOM     60  H   UNL     1      -7.525 -14.865   2.477  1.00  0.00     0.167 HD
ATOM     61  C   UNL     1      -6.392 -16.605   0.533  1.00  0.00     0.074 A 
ATOM     62  C   UNL     1      -5.869 -17.105  -0.722  1.00  0.00     0.031 C 
ATOM     63  C   UNL     1      -6.441 -17.326   1.681  1.00  0.00     0.037 A 
BRANCH  50  64
ATOM     64  C   UNL     1      -8.764 -14.251   6.523  1.00  0.00     0.058 A 
ATOM     65  C   UNL     1     -10.092 -14.219   6.981  1.00  0.00     0.135 A 
ATOM     66  C   UNL     1      -7.744 -14.317   7.485  1.00  0.00     0.135 A 
ATOM     67  F   UNL     1     -11.107 -14.141   6.106  1.00  0.00    -0.206 F 
ATOM     68  C   UNL     1     -10.395 -14.218   8.338  1.00  0.00     0.059 A 
ATOM     69  C   UNL     1      -8.025 -14.349   8.849  1.00  0.00     0.059 A 
ATOM     70  F   UNL     1      -6.457 -14.350   7.106  1.00  0.00    -0.206 F 
ATOM     71  C   UNL     1      -9.353 -14.283   9.265  1.00  0.00     0.060 A 
BRANCH  71  72
ATOM     72  S   UNL     1      -9.764 -14.283  11.023  1.00  0.00     0.124 S 
ATOM     73  O   UNL     1     -10.187 -12.900  11.222  1.00  0.00    -0.237 OA
ATOM     74  O   UNL     1     -10.822 -15.285  11.096  1.00  0.00    -0.237 OA
ATOM     75  O   UNL     1      -8.508 -14.653  11.666  1.00  0.00    -0.744 OA
ENDBRANCH  71  72
ENDBRANCH  50  64
BRANCH  51  76
ATOM     76  C   UNL     1      -6.438 -13.727  -3.198  1.00  0.00     0.058 A 
ATOM     77  C   UNL     1      -7.107 -14.488  -4.168  1.00  0.00     0.135 A 
ATOM     78  C   UNL     1      -5.417 -12.867  -3.633  1.00  0.00     0.135 A 
ATOM     79  F   UNL     1      -8.088 -15.327  -3.803  1.00  0.00    -0.206 F 
ATOM     80  C   UNL     1      -6.768 -14.414  -5.516  1.00  0.00     0.059 A 
ATOM     81  C   UNL     1      -5.077 -12.756  -4.977  1.00  0.00     0.059 A 
ATOM     82  F   UNL     1      -4.758 -12.103  -2.748  1.00  0.00    -0.206 F 
ATOM     83  C   UNL     1      -5.752 -13.541  -5.911  1.00  0.00     0.060 A 
BRANCH  83  84
ATOM     84  S   UNL     1      -5.355 -13.414  -7.668  1.00  0.00     0.124 S 
ATOM     85  O   UNL     1      -4.679 -14.683  -7.908  1.00  0.00    -0.237 OA
ATOM     86  O   UNL     1      -6.676 -13.268  -8.270  1.00  0.00    -0.237 OA
ATOM     87  O   UNL     1      -4.509 -12.225  -7.734  1.00  0.00    -0.744 OA
ENDBRANCH  83  84
ENDBRANCH  51  76
BRANCH  63  88
ATOM     88  C   UNL     1      -5.954 -18.749   1.629  1.00  0.00     0.058 A 
ATOM     89  C   UNL     1      -4.591 -19.061   1.520  1.00  0.00     0.135 A 
ATOM     90  C   UNL     1      -6.864 -19.812   1.751  1.00  0.00     0.135 A 
ATOM     91  F   UNL     1      -3.680 -18.083   1.394  1.00  0.00    -0.206 F 
ATOM     92  C   UNL     1      -4.147 -20.380   1.511  1.00  0.00     0.059 A 
ATOM     93  C   UNL     1      -6.440 -21.137   1.774  1.00  0.00     0.059 A 
ATOM     94  F   UNL     1      -8.179 -19.568   1.868  1.00  0.00    -0.206 F 
ATOM     95  C   UNL     1      -5.079 -21.411   1.643  1.00  0.00     0.060 A 
BRANCH  95  96
ATOM     96  S   UNL     1      -4.486 -23.116   1.671  1.00  0.00     0.124 S 
ATOM     97  O   UNL     1      -4.121 -23.322   0.273  1.00  0.00    -0.237 OA
ATOM     98  O   UNL     1      -3.373 -23.043   2.612  1.00  0.00    -0.237 OA
ATOM     99  O   UNL     1      -5.644 -23.872   2.136  1.00  0.00    -0.744 OA
ENDBRANCH  95  96
ENDBRANCH  63  88
ENDBRANCH  37  38
ENDBRANCH  29  32
ENDBRANCH  27  28
ENDBRANCH  26  27
ENDBRANCH   1  26
TORSDOF 17
