REMARK SMILES COc1ccc(-c2sc(N)nc2C(=O)NCCCCCCNC(=O)c2ccc(-c3c4nc(c(-c5c(F)cc(S(=O)(=O)[O-])cc5F)c5ccc([nH]5)c(-c5c(F)cc(S(=O)(=O)[O-])cc5F)c5nc(c(-c6c(F)cc(S(=O)(=O)[O-])cc6F)c6ccc3[nH]6)C=C5)C=C4)cc2)cc1OC
REMARK SMILES IDX 19 1 18 2 17 3 16 4 15 5 13 6 14 7 12 9 7 10 8 11 9 12 11 13
REMARK SMILES IDX 6 14 3 15 4 16 92 17 5 18 91 19 2 20 1 21 93 22 94 23 10 24
REMARK SMILES IDX 20 27 21 28 22 29 23 30 24 32 25 33 26 34 90 35 27 36 89 37
REMARK SMILES IDX 28 38 29 39 30 40 83 41 31 42 88 43 82 44 84 45 32 46 87 47
REMARK SMILES IDX 81 48 80 49 33 51 67 52 46 53 66 54 47 55 50 56 65 57 85 58
REMARK SMILES IDX 48 59 49 60 64 62 86 63 51 64 34 65 35 66 44 67 36 68 37 69
REMARK SMILES IDX 43 70 45 71 38 72 39 73 40 74 41 75 42 76 68 77 69 78 78 79
REMARK SMILES IDX 70 80 71 81 77 82 79 83 72 84 73 85 74 86 75 87 76 88 52 89
REMARK SMILES IDX 53 90 62 91 54 92 55 93 61 94 63 95 56 96 57 97 58 98 59 99
REMARK SMILES IDX 60 100
REMARK H PARENT 15 8 10 25 10 26 22 31 84 50 50 61
REMARK Flexibility Score: inf
ROOT
ATOM      1  C   UNL     1       7.537   3.704  -9.337  1.00  0.00     0.002 C 
ENDROOT
BRANCH   1   2
ATOM      2  C   UNL     1       7.629   3.986  -7.833  1.00  0.00     0.002 C 
BRANCH   2   3
ATOM      3  C   UNL     1       6.626   5.015  -7.299  1.00  0.00     0.021 C 
BRANCH   3   4
ATOM      4  C   UNL     1       5.166   4.688  -7.604  1.00  0.00     0.116 C 
BRANCH   4   5
ATOM      5  N   UNL     1       4.730   3.501  -6.893  1.00  0.00    -0.351 N 
ATOM      6  C   UNL     1       3.764   3.290  -5.938  1.00  0.00     0.271 C 
ATOM      7  O   UNL     1       3.655   2.130  -5.539  1.00  0.00    -0.267 OA
ATOM      8  H   UNL     1       5.223   2.686  -7.144  1.00  0.00     0.163 HD
BRANCH   6   9
ATOM      9  C   UNL     1       2.908   4.386  -5.445  1.00  0.00     0.149 A 
ATOM     10  C   UNL     1       1.953   4.257  -4.435  1.00  0.00     0.069 A 
ATOM     11  S   UNL     1       1.132   5.760  -4.217  1.00  0.00    -0.096 S 
ATOM     12  C   UNL     1       2.081   6.463  -5.446  1.00  0.00     0.181 A 
ATOM     13  N   UNL     1       2.958   5.668  -5.990  1.00  0.00    -0.215 NA
BRANCH  10  14
ATOM     14  C   UNL     1       1.585   3.121  -3.582  1.00  0.00    -0.002 A 
ATOM     15  C   UNL     1       0.938   0.911  -1.960  1.00  0.00     0.160 A 
ATOM     16  C   UNL     1      -0.041   1.526  -2.755  1.00  0.00     0.051 A 
ATOM     17  C   UNL     1       2.257   1.373  -1.993  1.00  0.00     0.161 A 
ATOM     18  C   UNL     1       0.278   2.625  -3.556  1.00  0.00     0.014 A 
ATOM     19  C   UNL     1       2.555   2.491  -2.788  1.00  0.00     0.060 A 
BRANCH  15  20
ATOM     20  O   UNL     1       0.557  -0.195  -1.249  1.00  0.00    -0.493 OA
ATOM     21  C   UNL     1      -0.095   0.164  -0.031  1.00  0.00     0.278 C 
ENDBRANCH  15  20
BRANCH  17  22
ATOM     22  O   UNL     1       3.361   0.886  -1.352  1.00  0.00    -0.493 OA
ATOM     23  C   UNL     1       3.259  -0.297  -0.582  1.00  0.00     0.278 C 
ENDBRANCH  17  22
ENDBRANCH  10  14
BRANCH  12  24
ATOM     24  N   UNL     1       1.932   7.734  -5.828  1.00  0.00    -0.375 N 
ATOM     25  H   UNL     1       1.257   8.303  -5.392  1.00  0.00     0.159 HD
ATOM     26  H   UNL     1       2.497   8.102  -6.545  1.00  0.00     0.159 HD
ENDBRANCH  12  24
ENDBRANCH   6   9
ENDBRANCH   4   5
ENDBRANCH   3   4
ENDBRANCH   2   3
ENDBRANCH   1   2
BRANCH   1  27
ATOM     27  C   UNL     1       7.614   4.941 -10.236  1.00  0.00     0.021 C 
BRANCH  27  28
ATOM     28  C   UNL     1       8.886   5.766 -10.073  1.00  0.00     0.116 C 
BRANCH  28  29
ATOM     29  N   UNL     1      10.075   5.014 -10.443  1.00  0.00    -0.352 N 
ATOM     30  C   UNL     1      11.051   5.324 -11.357  1.00  0.00     0.251 C 
ATOM     31  H   UNL     1      10.197   4.160  -9.969  1.00  0.00     0.163 HD
ATOM     32  O   UNL     1      11.872   4.474 -11.689  1.00  0.00    -0.269 OA
BRANCH  30  33
ATOM     33  C   UNL     1      11.099   6.677 -11.953  1.00  0.00     0.039 A 
ATOM     34  C   UNL     1      11.308   6.803 -13.328  1.00  0.00     0.014 A 
ATOM     35  C   UNL     1      10.941   7.816 -11.159  1.00  0.00     0.014 A 
ATOM     36  C   UNL     1      11.296   8.070 -13.916  1.00  0.00     0.010 A 
ATOM     37  C   UNL     1      10.855   9.071 -11.756  1.00  0.00     0.010 A 
ATOM     38  C   UNL     1      11.033   9.211 -13.141  1.00  0.00    -0.014 A 
BRANCH  38  39
ATOM     39  C   UNL     1      10.924  10.557 -13.762  1.00  0.00     0.031 A 
ATOM     40  C   UNL     1      11.896  11.644 -13.391  1.00  0.00     0.074 A 
ATOM     41  C   UNL     1       9.908  10.818 -14.608  1.00  0.00     0.049 A 
ATOM     42  N   UNL     1      11.917  12.897 -13.769  1.00  0.00    -0.248 NA
ATOM     43  C   UNL     1      12.970  11.283 -12.452  1.00  0.00     0.031 C 
ATOM     44  C   UNL     1       8.876   9.859 -15.011  1.00  0.00     0.029 A 
ATOM     45  N   UNL     1       9.566  11.969 -15.273  1.00  0.00    -0.354 N 
ATOM     46  C   UNL     1      12.994  13.475 -13.107  1.00  0.00     0.074 A 
ATOM     47  C   UNL     1      13.569  12.450 -12.263  1.00  0.00     0.031 C 
ATOM     48  C   UNL     1       8.030  10.455 -15.865  1.00  0.00     0.029 A 
ATOM     49  C   UNL     1       8.429  11.849 -16.038  1.00  0.00     0.049 A 
ATOM     50  H   UNL     1      10.086  12.803 -15.209  1.00  0.00     0.167 HD
ATOM     51  C   UNL     1      13.472  14.739 -13.209  1.00  0.00     0.037 A 
ATOM     52  C   UNL     1       7.772  12.760 -16.781  1.00  0.00     0.037 A 
ATOM     53  C   UNL     1      12.901  15.748 -14.064  1.00  0.00     0.049 A 
ATOM     54  C   UNL     1       8.310  14.162 -16.865  1.00  0.00     0.074 A 
ATOM     55  C   UNL     1      13.348  17.039 -14.287  1.00  0.00     0.029 A 
ATOM     56  N   UNL     1      11.754  15.586 -14.829  1.00  0.00    -0.354 N 
ATOM     57  N   UNL     1       9.373  14.673 -16.288  1.00  0.00    -0.248 NA
ATOM     58  C   UNL     1       7.564  15.113 -17.700  1.00  0.00     0.031 C 
ATOM     59  C   UNL     1      12.440  17.675 -15.139  1.00  0.00     0.029 A 
ATOM     60  C   UNL     1      11.460  16.764 -15.498  1.00  0.00     0.049 A 
ATOM     61  H   UNL     1      11.227  14.756 -14.888  1.00  0.00     0.167 HD
ATOM     62  C   UNL     1       9.434  15.998 -16.708  1.00  0.00     0.074 A 
ATOM     63  C   UNL     1       8.312  16.203 -17.602  1.00  0.00     0.031 C 
ATOM     64  C   UNL     1      10.336  16.957 -16.382  1.00  0.00     0.037 A 
BRANCH  51  65
ATOM     65  C   UNL     1      14.667  15.105 -12.370  1.00  0.00     0.058 A 
ATOM     66  C   UNL     1      15.941  14.567 -12.620  1.00  0.00     0.135 A 
ATOM     67  C   UNL     1      14.547  16.035 -11.324  1.00  0.00     0.135 A 
ATOM     68  F   UNL     1      16.113  13.664 -13.598  1.00  0.00    -0.206 F 
ATOM     69  C   UNL     1      17.042  14.910 -11.843  1.00  0.00     0.059 A 
ATOM     70  C   UNL     1      15.642  16.417 -10.554  1.00  0.00     0.059 A 
ATOM     71  F   UNL     1      13.355  16.583 -11.040  1.00  0.00    -0.206 F 
ATOM     72  C   UNL     1      16.883  15.836 -10.811  1.00  0.00     0.060 A 
BRANCH  72  73
ATOM     73  S   UNL     1      18.323  16.271  -9.814  1.00  0.00     0.124 S 
ATOM     74  O   UNL     1      18.523  15.048  -9.043  1.00  0.00    -0.237 OA
ATOM     75  O   UNL     1      19.333  16.550 -10.831  1.00  0.00    -0.237 OA
ATOM     76  O   UNL     1      17.872  17.429  -9.049  1.00  0.00    -0.744 OA
ENDBRANCH  72  73
ENDBRANCH  51  65
BRANCH  52  77
ATOM     77  C   UNL     1       6.535  12.368 -17.510  1.00  0.00     0.058 A 
ATOM     78  C   UNL     1       6.516  12.286 -18.910  1.00  0.00     0.135 A 
ATOM     79  C   UNL     1       5.354  12.049 -16.822  1.00  0.00     0.135 A 
ATOM     80  F   UNL     1       7.617  12.590 -19.615  1.00  0.00    -0.206 F 
ATOM     81  C   UNL     1       5.369  11.913 -19.604  1.00  0.00     0.059 A 
ATOM     82  C   UNL     1       4.203  11.645 -17.491  1.00  0.00     0.059 A 
ATOM     83  F   UNL     1       5.323  12.097 -15.481  1.00  0.00    -0.206 F 
ATOM     84  C   UNL     1       4.218  11.589 -18.883  1.00  0.00     0.060 A 
BRANCH  84  85
ATOM     85  S   UNL     1       2.752  11.051 -19.791  1.00  0.00     0.124 S 
ATOM     86  O   UNL     1       2.317  12.297 -20.412  1.00  0.00    -0.237 OA
ATOM     87  O   UNL     1       3.303  10.045 -20.692  1.00  0.00    -0.237 OA
ATOM     88  O   UNL     1       1.880  10.531 -18.741  1.00  0.00    -0.744 OA
ENDBRANCH  84  85
ENDBRANCH  52  77
BRANCH  64  89
ATOM     89  C   UNL     1      10.161  18.314 -17.008  1.00  0.00     0.058 A 
ATOM     90  C   UNL     1       9.116  19.172 -16.630  1.00  0.00     0.135 A 
ATOM     91  C   UNL     1      11.081  18.784 -17.960  1.00  0.00     0.135 A 
ATOM     92  F   UNL     1       8.204  18.772 -15.730  1.00  0.00    -0.206 F 
ATOM     93  C   UNL     1       8.975  20.437 -17.192  1.00  0.00     0.059 A 
ATOM     94  C   UNL     1      10.977  20.057 -18.511  1.00  0.00     0.059 A 
ATOM     95  F   UNL     1      12.105  18.009 -18.351  1.00  0.00    -0.206 F 
ATOM     96  C   UNL     1       9.914  20.872 -18.129  1.00  0.00     0.060 A 
BRANCH  96  97
ATOM     97  S   UNL     1       9.738  22.530 -18.822  1.00  0.00     0.124 S 
ATOM     98  O   UNL     1       8.580  22.363 -19.695  1.00  0.00    -0.237 OA
ATOM     99  O   UNL     1       9.520  23.344 -17.630  1.00  0.00    -0.237 OA
ATOM    100  O   UNL     1      11.010  22.752 -19.502  1.00  0.00    -0.744 OA
ENDBRANCH  96  97
ENDBRANCH  64  89
ENDBRANCH  38  39
ENDBRANCH  30  33
ENDBRANCH  28  29
ENDBRANCH  27  28
ENDBRANCH   1  27
TORSDOF 20
