REMARK SMILES O=C(NCCCCCCNC(=O)c1ccc(-c2ccncc2)cn1)c1ccc(-c2c3nc(c(-c4c(F)cc(S(=O)(=O)[O-])cc4F)c4ccc([nH]4)c(-c4c(F)cc(S(=O)(=O)[O-])cc4F)c4nc(c(-c5c(F)cc(S(=O)(=O)[O-])cc5F)c5ccc2[nH]5)C=C4)C=C3)cc1
REMARK SMILES IDX 5 1 4 2 3 3 1 4 2 5 25 7 26 8 90 9 27 10 89 11 28 12 29 13
REMARK SMILES IDX 30 14 83 15 31 16 88 17 82 18 84 19 32 20 87 21 81 22 80 23
REMARK SMILES IDX 33 25 67 26 46 27 66 28 47 29 50 30 65 31 85 32 48 33 49 34
REMARK SMILES IDX 64 36 86 37 51 38 34 39 35 40 44 41 36 42 37 43 43 44 45 45
REMARK SMILES IDX 38 46 39 47 40 48 41 49 42 50 68 51 69 52 78 53 70 54 71 55
REMARK SMILES IDX 77 56 79 57 72 58 73 59 74 60 75 61 76 62 52 63 53 64 62 65
REMARK SMILES IDX 54 66 55 67 61 68 63 69 56 70 57 71 58 72 59 73 60 74 6 75
REMARK SMILES IDX 7 76 8 77 9 78 10 79 11 80 12 82 13 83 14 84 24 85 15 86
REMARK SMILES IDX 23 87 16 88 17 89 18 90 22 91 19 92 21 93 20 94
REMARK H PARENT 3 6 84 24 50 35 10 81
REMARK Flexibility Score: inf
ROOT
ATOM      1  C   UNL     1       4.744  -0.638   2.347  1.00  0.00     0.021 C 
ENDROOT
BRANCH   1   2
ATOM      2  C   UNL     1       4.473  -0.767   0.851  1.00  0.00     0.116 C 
BRANCH   2   3
ATOM      3  N   UNL     1       3.053  -0.847   0.557  1.00  0.00    -0.352 N 
ATOM      4  O   UNL     1       1.052  -0.126  -0.183  1.00  0.00    -0.269 OA
ATOM      5  C   UNL     1       2.276  -0.018  -0.211  1.00  0.00     0.251 C 
ATOM      6  H   UNL     1       2.579  -1.605   0.969  1.00  0.00     0.163 HD
BRANCH   5   7
ATOM      7  C   UNL     1       2.911   1.015  -1.056  1.00  0.00     0.039 A 
ATOM      8  C   UNL     1       4.017   0.709  -1.856  1.00  0.00     0.014 A 
ATOM      9  C   UNL     1       2.373   2.304  -1.065  1.00  0.00     0.014 A 
ATOM     10  C   UNL     1       4.653   1.716  -2.576  1.00  0.00     0.010 A 
ATOM     11  C   UNL     1       2.971   3.297  -1.843  1.00  0.00     0.010 A 
ATOM     12  C   UNL     1       4.129   3.017  -2.587  1.00  0.00    -0.014 A 
BRANCH  12  13
ATOM     13  C   UNL     1       4.755   4.076  -3.416  1.00  0.00     0.031 A 
ATOM     14  C   UNL     1       5.365   5.289  -2.775  1.00  0.00     0.074 A 
ATOM     15  C   UNL     1       4.725   3.962  -4.758  1.00  0.00     0.049 A 
ATOM     16  N   UNL     1       5.853   6.364  -3.338  1.00  0.00    -0.248 NA
ATOM     17  C   UNL     1       5.423   5.300  -1.305  1.00  0.00     0.031 C 
ATOM     18  C   UNL     1       4.159   2.828  -5.492  1.00  0.00     0.029 A 
ATOM     19  N   UNL     1       5.158   4.814  -5.742  1.00  0.00    -0.354 N 
ATOM     20  C   UNL     1       6.252   7.192  -2.296  1.00  0.00     0.074 A 
ATOM     21  C   UNL     1       5.927   6.503  -1.065  1.00  0.00     0.031 C 
ATOM     22  C   UNL     1       4.276   3.056  -6.808  1.00  0.00     0.029 A 
ATOM     23  C   UNL     1       4.865   4.375  -7.011  1.00  0.00     0.049 A 
ATOM     24  H   UNL     1       5.632   5.656  -5.557  1.00  0.00     0.167 HD
ATOM     25  C   UNL     1       6.836   8.414  -2.364  1.00  0.00     0.037 A 
ATOM     26  C   UNL     1       5.011   4.981  -8.205  1.00  0.00     0.037 A 
ATOM     27  C   UNL     1       7.146   9.088  -3.599  1.00  0.00     0.049 A 
ATOM     28  C   UNL     1       5.620   6.353  -8.260  1.00  0.00     0.074 A 
ATOM     29  C   UNL     1       7.768  10.311  -3.779  1.00  0.00     0.029 A 
ATOM     30  N   UNL     1       6.841   8.606  -4.865  1.00  0.00    -0.354 N 
ATOM     31  N   UNL     1       6.027   7.109  -7.269  1.00  0.00    -0.248 NA
ATOM     32  C   UNL     1       5.794   6.953  -9.588  1.00  0.00     0.031 C 
ATOM     33  C   UNL     1       7.785  10.596  -5.148  1.00  0.00     0.029 A 
ATOM     34  C   UNL     1       7.238   9.519  -5.829  1.00  0.00     0.049 A 
ATOM     35  H   UNL     1       6.407   7.742  -5.051  1.00  0.00     0.167 HD
ATOM     36  C   UNL     1       6.535   8.263  -7.854  1.00  0.00     0.074 A 
ATOM     37  C   UNL     1       6.379   8.106  -9.286  1.00  0.00     0.031 C 
ATOM     38  C   UNL     1       7.090   9.345  -7.256  1.00  0.00     0.037 A 
BRANCH  25  39
ATOM     39  C   UNL     1       7.134   9.116  -1.064  1.00  0.00     0.058 A 
ATOM     40  C   UNL     1       8.114   8.649  -0.172  1.00  0.00     0.135 A 
ATOM     41  C   UNL     1       6.425  10.274  -0.704  1.00  0.00     0.135 A 
ATOM     42  F   UNL     1       8.818   7.543  -0.459  1.00  0.00    -0.206 F 
ATOM     43  C   UNL     1       8.340   9.272   1.052  1.00  0.00     0.059 A 
ATOM     44  C   UNL     1       6.657  10.932   0.501  1.00  0.00     0.059 A 
ATOM     45  F   UNL     1       5.482  10.772  -1.520  1.00  0.00    -0.206 F 
ATOM     46  C   UNL     1       7.598  10.406   1.384  1.00  0.00     0.060 A 
BRANCH  46  47
ATOM     47  S   UNL     1       7.864  11.168   2.999  1.00  0.00     0.124 S 
ATOM     48  O   UNL     1       7.231  10.195   3.885  1.00  0.00    -0.237 OA
ATOM     49  O   UNL     1       9.319  11.239   3.076  1.00  0.00    -0.237 OA
ATOM     50  O   UNL     1       7.180  12.452   2.888  1.00  0.00    -0.744 OA
ENDBRANCH  46  47
ENDBRANCH  25  39
BRANCH  26  51
ATOM     51  C   UNL     1       4.557   4.275  -9.430  1.00  0.00     0.058 A 
ATOM     52  C   UNL     1       5.478   3.729 -10.334  1.00  0.00     0.135 A 
ATOM     53  C   UNL     1       3.191   4.054  -9.672  1.00  0.00     0.135 A 
ATOM     54  F   UNL     1       6.793   3.919 -10.148  1.00  0.00    -0.206 F 
ATOM     55  C   UNL     1       5.064   2.979 -11.430  1.00  0.00     0.059 A 
ATOM     56  C   UNL     1       2.753   3.285 -10.745  1.00  0.00     0.059 A 
ATOM     57  F   UNL     1       2.271   4.540  -8.824  1.00  0.00    -0.206 F 
ATOM     58  C   UNL     1       3.699   2.751 -11.619  1.00  0.00     0.060 A 
BRANCH  58  59
ATOM     59  S   UNL     1       3.181   1.691 -12.986  1.00  0.00     0.124 S 
ATOM     60  O   UNL     1       3.457   2.542 -14.138  1.00  0.00    -0.237 OA
ATOM     61  O   UNL     1       4.057   0.535 -12.822  1.00  0.00    -0.237 OA
ATOM     62  O   UNL     1       1.770   1.444 -12.706  1.00  0.00    -0.744 OA
ENDBRANCH  58  59
ENDBRANCH  26  51
BRANCH  38  63
ATOM     63  C   UNL     1       7.630  10.437  -8.138  1.00  0.00     0.058 A 
ATOM     64  C   UNL     1       6.789  11.337  -8.809  1.00  0.00     0.135 A 
ATOM     65  C   UNL     1       9.017  10.645  -8.225  1.00  0.00     0.135 A 
ATOM     66  F   UNL     1       5.457  11.176  -8.770  1.00  0.00    -0.206 F 
ATOM     67  C   UNL     1       7.305  12.410  -9.531  1.00  0.00     0.059 A 
ATOM     68  C   UNL     1       9.553  11.725  -8.918  1.00  0.00     0.059 A 
ATOM     69  F   UNL     1       9.865   9.813  -7.598  1.00  0.00    -0.206 F 
ATOM     70  C   UNL     1       8.688  12.602  -9.569  1.00  0.00     0.060 A 
BRANCH  70  71
ATOM     71  S   UNL     1       9.338  14.047 -10.435  1.00  0.00     0.124 S 
ATOM     72  O   UNL     1       9.115  13.681 -11.829  1.00  0.00    -0.237 OA
ATOM     73  O   UNL     1       8.498  15.123  -9.919  1.00  0.00    -0.237 OA
ATOM     74  O   UNL     1      10.736  14.095 -10.015  1.00  0.00    -0.744 OA
ENDBRANCH  70  71
ENDBRANCH  38  63
ENDBRANCH  12  13
ENDBRANCH   5   7
ENDBRANCH   2   3
ENDBRANCH   1   2
BRANCH   1  75
ATOM     75  C   UNL     1       4.262  -1.819   3.191  1.00  0.00     0.002 C 
BRANCH  75  76
ATOM     76  C   UNL     1       4.790  -3.191   2.760  1.00  0.00     0.002 C 
BRANCH  76  77
ATOM     77  C   UNL     1       6.314  -3.307   2.663  1.00  0.00     0.021 C 
BRANCH  77  78
ATOM     78  C   UNL     1       7.067  -2.950   3.941  1.00  0.00     0.116 C 
BRANCH  78  79
ATOM     79  N   UNL     1       6.742  -3.848   5.036  1.00  0.00    -0.351 N 
ATOM     80  C   UNL     1       7.595  -4.606   5.809  1.00  0.00     0.269 C 
ATOM     81  H   UNL     1       5.785  -3.925   5.255  1.00  0.00     0.163 HD
ATOM     82  O   UNL     1       7.136  -5.406   6.620  1.00  0.00    -0.268 OA
BRANCH  80  83
ATOM     83  C   UNL     1       9.065  -4.418   5.668  1.00  0.00     0.128 A 
ATOM     84  C   UNL     1       9.618  -3.159   5.868  1.00  0.00     0.035 A 
ATOM     85  N   UNL     1       9.785  -5.510   5.316  1.00  0.00    -0.250 NA
ATOM     86  C   UNL     1      10.982  -2.997   5.646  1.00  0.00     0.013 A 
ATOM     87  C   UNL     1      11.112  -5.318   5.132  1.00  0.00     0.120 A 
ATOM     88  C   UNL     1      11.770  -4.091   5.263  1.00  0.00     0.000 A 
BRANCH  88  89
ATOM     89  C   UNL     1      13.209  -3.948   5.007  1.00  0.00    -0.014 A 
ATOM     90  C   UNL     1      14.047  -3.318   5.934  1.00  0.00     0.029 A 
ATOM     91  C   UNL     1      13.787  -4.421   3.823  1.00  0.00     0.029 A 
ATOM     92  C   UNL     1      15.398  -3.195   5.647  1.00  0.00     0.111 A 
ATOM     93  C   UNL     1      15.149  -4.249   3.624  1.00  0.00     0.111 A 
ATOM     94  N   UNL     1      15.967  -3.652   4.514  1.00  0.00    -0.265 NA
ENDBRANCH  88  89
ENDBRANCH  80  83
ENDBRANCH  78  79
ENDBRANCH  77  78
ENDBRANCH  76  77
ENDBRANCH  75  76
ENDBRANCH   1  75
TORSDOF 17
