REMARK SMILES Cc1ccc(NC(=O)[C@H]2CC(Cl)=CC[C@@H]2C(=O)NCCCCCCNC(=O)c2ccc(-c3c4nc(c(-c5c(F)cc(S(=O)(=O)[O-])cc5F)c5ccc([nH]5)c(-c5c(F)cc(S(=O)(=O)[O-])cc5F)c5nc(c(-c6c(F)cc(S(=O)(=O)[O-])cc6F)c6ccc3[nH]6)C=C5)C=C4)cc2)cc1[N+](=O)[O-]
REMARK SMILES IDX 21 1 20 2 19 3 18 4 16 5 17 6 15 8 9 9 10 10 11 11 14 12
REMARK SMILES IDX 12 13 13 14 7 15 6 16 8 18 5 19 1 20 2 21 3 22 95 23 4 24
REMARK SMILES IDX 94 25 96 26 97 27 98 28 22 29 23 30 24 31 25 32 26 33 27 35
REMARK SMILES IDX 28 36 29 37 93 38 30 39 92 40 31 41 32 42 33 43 86 44 34 45
REMARK SMILES IDX 91 46 85 47 87 48 35 49 90 50 84 51 83 52 36 54 70 55 49 56
REMARK SMILES IDX 69 57 50 58 53 59 68 60 88 61 51 62 52 63 67 65 89 66 54 67
REMARK SMILES IDX 37 68 38 69 47 70 39 71 40 72 46 73 48 74 41 75 42 76 43 77
REMARK SMILES IDX 44 78 45 79 71 80 72 81 81 82 73 83 74 84 80 85 82 86 75 87
REMARK SMILES IDX 76 88 77 89 78 90 79 91 55 92 56 93 65 94 57 95 58 96 64 97
REMARK SMILES IDX 66 98 59 99 60 100 61 101 62 102 63 103
REMARK H PARENT 18 7 6 17 25 34 87 53 53 64
REMARK Flexibility Score: inf
ROOT
ATOM      1  C   UNL     1      -1.559   2.561  -1.335  1.00  0.00     0.002 C 
ENDROOT
BRANCH   1   2
ATOM      2  C   UNL     1      -2.871   1.764  -1.270  1.00  0.00     0.021 C 
BRANCH   2   3
ATOM      3  C   UNL     1      -2.985   0.556  -2.206  1.00  0.00     0.116 C 
BRANCH   3   4
ATOM      4  N   UNL     1      -1.853  -0.350  -2.101  1.00  0.00    -0.356 N 
ATOM      5  C   UNL     1      -1.755  -1.677  -1.835  1.00  0.00     0.224 C 
ATOM      6  O   UNL     1      -0.624  -2.173  -1.881  1.00  0.00    -0.275 OA
ATOM      7  H   UNL     1      -0.984   0.086  -2.253  1.00  0.00     0.163 HD
BRANCH   5   8
ATOM      8  C   UNL     1      -2.969  -2.531  -1.466  1.00  0.00     0.095 C 
ATOM      9  C   UNL     1      -2.950  -2.810   0.056  1.00  0.00     0.097 C 
ATOM     10  C   UNL     1      -3.933  -3.930   0.451  1.00  0.00     0.062 C 
ATOM     11  C   UNL     1      -3.705  -5.164  -0.355  1.00  0.00     0.015 C 
ATOM     12  C   UNL     1      -2.882  -3.842  -2.305  1.00  0.00     0.043 C 
ATOM     13  Cl  UNL     1      -4.052  -6.669   0.410  1.00  0.00    -0.089 Cl
ATOM     14  C   UNL     1      -3.229  -5.123  -1.603  1.00  0.00    -0.010 C 
BRANCH   9  15
ATOM     15  C   UNL     1      -3.341  -1.579   0.860  1.00  0.00     0.228 C 
ATOM     16  N   UNL     1      -2.449  -0.723   1.433  1.00  0.00    -0.326 N 
ATOM     17  H   UNL     1      -2.876  -0.021   1.975  1.00  0.00     0.169 HD
ATOM     18  O   UNL     1      -4.534  -1.259   0.939  1.00  0.00    -0.274 OA
BRANCH  16  19
ATOM     19  C   UNL     1      -1.048  -0.634   1.413  1.00  0.00     0.048 A 
ATOM     20  C   UNL     1       3.115  -0.056   0.388  1.00  0.00     0.052 C 
ATOM     21  C   UNL     1       1.704  -0.204   0.877  1.00  0.00     0.027 A 
ATOM     22  C   UNL     1       1.179  -1.497   0.995  1.00  0.00     0.012 A 
ATOM     23  C   UNL     1       0.839   0.865   1.150  1.00  0.00     0.274 A 
ATOM     24  C   UNL     1      -0.174  -1.706   1.284  1.00  0.00     0.027 A 
ATOM     25  C   UNL     1      -0.515   0.656   1.458  1.00  0.00     0.112 A 
BRANCH  23  26
ATOM     26  N   UNL     1       1.274   2.251   1.026  1.00  0.00     0.063 N 
ATOM     27  O   UNL     1       0.988   3.012   1.959  1.00  0.00    -0.258 OA
ATOM     28  O   UNL     1       1.852   2.572  -0.021  1.00  0.00    -0.258 OA
ENDBRANCH  23  26
ENDBRANCH  16  19
ENDBRANCH   9  15
ENDBRANCH   5   8
ENDBRANCH   3   4
ENDBRANCH   2   3
ENDBRANCH   1   2
BRANCH   1  29
ATOM     29  C   UNL     1      -1.250   3.339  -2.621  1.00  0.00     0.002 C 
BRANCH  29  30
ATOM     30  C   UNL     1      -2.322   4.305  -3.127  1.00  0.00     0.021 C 
BRANCH  30  31
ATOM     31  C   UNL     1      -2.816   5.328  -2.119  1.00  0.00     0.116 C 
BRANCH  31  32
ATOM     32  N   UNL     1      -2.045   6.550  -1.974  1.00  0.00    -0.352 N 
ATOM     33  C   UNL     1      -2.759   7.720  -1.675  1.00  0.00     0.251 C 
ATOM     34  H   UNL     1      -1.067   6.557  -2.080  1.00  0.00     0.163 HD
ATOM     35  O   UNL     1      -3.287   8.439  -2.491  1.00  0.00    -0.269 OA
BRANCH  33  36
ATOM     36  C   UNL     1      -3.093   7.825  -0.231  1.00  0.00     0.039 A 
ATOM     37  C   UNL     1      -2.460   8.716   0.633  1.00  0.00     0.014 A 
ATOM     38  C   UNL     1      -3.983   6.865   0.256  1.00  0.00     0.014 A 
ATOM     39  C   UNL     1      -2.620   8.547   2.014  1.00  0.00     0.010 A 
ATOM     40  C   UNL     1      -4.065   6.641   1.607  1.00  0.00     0.010 A 
ATOM     41  C   UNL     1      -3.363   7.465   2.489  1.00  0.00    -0.014 A 
BRANCH  41  42
ATOM     42  C   UNL     1      -3.464   7.036   3.877  1.00  0.00     0.031 A 
ATOM     43  C   UNL     1      -4.729   7.237   4.622  1.00  0.00     0.074 A 
ATOM     44  C   UNL     1      -2.496   6.232   4.368  1.00  0.00     0.049 A 
ATOM     45  N   UNL     1      -4.870   7.005   5.882  1.00  0.00    -0.248 NA
ATOM     46  C   UNL     1      -5.940   7.783   4.011  1.00  0.00     0.031 C 
ATOM     47  C   UNL     1      -2.587   5.320   5.504  1.00  0.00     0.029 A 
ATOM     48  N   UNL     1      -1.141   6.233   4.036  1.00  0.00    -0.354 N 
ATOM     49  C   UNL     1      -6.209   7.093   6.188  1.00  0.00     0.074 A 
ATOM     50  C   UNL     1      -6.808   7.699   5.026  1.00  0.00     0.031 C 
ATOM     51  C   UNL     1      -1.349   5.035   5.936  1.00  0.00     0.029 A 
ATOM     52  C   UNL     1      -0.432   5.890   5.203  1.00  0.00     0.049 A 
ATOM     53  H   UNL     1      -0.754   6.435   3.153  1.00  0.00     0.167 HD
ATOM     54  C   UNL     1      -6.652   6.528   7.348  1.00  0.00     0.037 A 
ATOM     55  C   UNL     1       0.410   6.794   5.790  1.00  0.00     0.037 A 
ATOM     56  C   UNL     1      -5.515   6.180   8.204  1.00  0.00     0.049 A 
ATOM     57  C   UNL     1      -0.018   7.219   7.177  1.00  0.00     0.074 A 
ATOM     58  C   UNL     1      -4.887   4.988   8.515  1.00  0.00     0.029 A 
ATOM     59  N   UNL     1      -4.689   7.198   8.672  1.00  0.00    -0.354 N 
ATOM     60  N   UNL     1      -1.212   7.024   7.669  1.00  0.00    -0.248 NA
ATOM     61  C   UNL     1       0.864   7.897   8.123  1.00  0.00     0.031 C 
ATOM     62  C   UNL     1      -3.616   5.303   9.071  1.00  0.00     0.029 A 
ATOM     63  C   UNL     1      -3.498   6.681   9.143  1.00  0.00     0.049 A 
ATOM     64  H   UNL     1      -4.921   8.155   8.668  1.00  0.00     0.167 HD
ATOM     65  C   UNL     1      -1.291   7.566   8.926  1.00  0.00     0.074 A 
ATOM     66  C   UNL     1       0.047   8.070   9.177  1.00  0.00     0.031 C 
ATOM     67  C   UNL     1      -2.453   7.567   9.646  1.00  0.00     0.037 A 
BRANCH  54  68
ATOM     68  C   UNL     1      -8.080   6.104   7.666  1.00  0.00     0.058 A 
ATOM     69  C   UNL     1      -8.374   5.479   8.903  1.00  0.00     0.135 A 
ATOM     70  C   UNL     1      -9.173   6.152   6.773  1.00  0.00     0.135 A 
ATOM     71  F   UNL     1      -7.441   5.358   9.859  1.00  0.00    -0.206 F 
ATOM     72  C   UNL     1      -9.622   4.919   9.205  1.00  0.00     0.059 A 
ATOM     73  C   UNL     1     -10.439   5.637   7.069  1.00  0.00     0.059 A 
ATOM     74  F   UNL     1      -9.070   6.646   5.537  1.00  0.00    -0.206 F 
ATOM     75  C   UNL     1     -10.650   4.994   8.276  1.00  0.00     0.060 A 
BRANCH  75  76
ATOM     76  S   UNL     1     -12.241   4.226   8.636  1.00  0.00     0.124 S 
ATOM     77  O   UNL     1     -11.905   2.806   8.589  1.00  0.00    -0.237 OA
ATOM     78  O   UNL     1     -12.558   4.763   9.955  1.00  0.00    -0.237 OA
ATOM     79  O   UNL     1     -13.099   4.698   7.552  1.00  0.00    -0.744 OA
ENDBRANCH  75  76
ENDBRANCH  54  68
BRANCH  55  80
ATOM     80  C   UNL     1       1.115   7.646   4.786  1.00  0.00     0.058 A 
ATOM     81  C   UNL     1       2.037   7.001   3.938  1.00  0.00     0.135 A 
ATOM     82  C   UNL     1       0.548   8.846   4.332  1.00  0.00     0.135 A 
ATOM     83  F   UNL     1       2.640   5.871   4.343  1.00  0.00    -0.206 F 
ATOM     84  C   UNL     1       2.222   7.404   2.619  1.00  0.00     0.059 A 
ATOM     85  C   UNL     1       0.738   9.281   3.018  1.00  0.00     0.059 A 
ATOM     86  F   UNL     1      -0.325   9.516   5.100  1.00  0.00    -0.206 F 
ATOM     87  C   UNL     1       1.499   8.498   2.148  1.00  0.00     0.060 A 
BRANCH  87  88
ATOM     88  S   UNL     1       1.425   8.764   0.358  1.00  0.00     0.124 S 
ATOM     89  O   UNL     1       2.835   8.763  -0.014  1.00  0.00    -0.237 OA
ATOM     90  O   UNL     1       0.647   7.606  -0.089  1.00  0.00    -0.237 OA
ATOM     91  O   UNL     1       0.746  10.050   0.238  1.00  0.00    -0.744 OA
ENDBRANCH  87  88
ENDBRANCH  55  80
BRANCH  67  92
ATOM     92  C   UNL     1      -2.700   8.337  10.926  1.00  0.00     0.058 A 
ATOM     93  C   UNL     1      -2.053   9.539  11.264  1.00  0.00     0.135 A 
ATOM     94  C   UNL     1      -3.732   7.938  11.812  1.00  0.00     0.135 A 
ATOM     95  F   UNL     1      -1.146  10.097  10.449  1.00  0.00    -0.206 F 
ATOM     96  C   UNL     1      -2.346  10.248  12.431  1.00  0.00     0.059 A 
ATOM     97  C   UNL     1      -4.080   8.661  12.951  1.00  0.00     0.059 A 
ATOM     98  F   UNL     1      -4.451   6.827  11.593  1.00  0.00    -0.206 F 
ATOM     99  C   UNL     1      -3.359   9.800  13.272  1.00  0.00     0.060 A 
BRANCH  99 100
ATOM    100  S   UNL     1      -3.776  10.733  14.757  1.00  0.00     0.124 S 
ATOM    101  O   UNL     1      -2.929  10.085  15.754  1.00  0.00    -0.237 OA
ATOM    102  O   UNL     1      -3.398  12.098  14.402  1.00  0.00    -0.237 OA
ATOM    103  O   UNL     1      -5.210  10.506  14.900  1.00  0.00    -0.744 OA
ENDBRANCH  99 100
ENDBRANCH  67  92
ENDBRANCH  41  42
ENDBRANCH  33  36
ENDBRANCH  31  32
ENDBRANCH  30  31
ENDBRANCH  29  30
ENDBRANCH   1  29
TORSDOF 19
