REMARK SMILES O=C1C[N@@H+](Cc2ccc(C(=O)NCCCCCCNC(=O)c3ccc(-c4c5nc(c(-c6c(F)cc(S(=O)(=O)[O-])cc6F)c6ccc([nH]6)c(-c6c(F)cc(S(=O)(=O)[O-])cc6F)c6nc(c(-c7c(F)cc(S(=O)(=O)[O-])cc7F)c7ccc4[nH]7)C=C6)C=C5)cc3)cc2)CCN1
REMARK SMILES IDX 16 1 15 2 14 3 13 4 12 5 10 6 11 7 9 9 6 10 7 11 89 12 8 13
REMARK SMILES IDX 88 14 5 15 4 16 1 17 2 18 3 19 92 20 91 21 90 23 17 25 18 26
REMARK SMILES IDX 19 27 20 28 21 30 22 31 23 32 87 33 24 34 86 35 25 36 26 37
REMARK SMILES IDX 27 38 80 39 28 40 85 41 79 42 81 43 29 44 84 45 78 46 77 47
REMARK SMILES IDX 30 49 64 50 43 51 63 52 44 53 47 54 62 55 82 56 45 57 46 58
REMARK SMILES IDX 61 60 83 61 48 62 31 63 32 64 41 65 33 66 34 67 40 68 42 69
REMARK SMILES IDX 35 70 36 71 37 72 38 73 39 74 65 75 66 76 75 77 67 78 68 79
REMARK SMILES IDX 74 80 76 81 69 82 70 83 71 84 72 85 73 86 49 87 50 88 59 89
REMARK SMILES IDX 51 90 52 91 58 92 60 93 53 94 54 95 55 96 56 97 57 98
REMARK H PARENT 12 8 92 22 4 24 19 29 81 48 47 59
REMARK Flexibility Score: inf
ROOT
ATOM      1  C   UNL     1      -0.335   8.166   2.292  1.00  0.00     0.002 C 
ENDROOT
BRANCH   1   2
ATOM      2  C   UNL     1      -1.076   7.328   3.339  1.00  0.00     0.002 C 
BRANCH   2   3
ATOM      3  C   UNL     1      -1.468   5.918   2.877  1.00  0.00     0.021 C 
BRANCH   3   4
ATOM      4  C   UNL     1      -0.266   5.026   2.560  1.00  0.00     0.116 C 
BRANCH   4   5
ATOM      5  N   UNL     1       0.408   4.639   3.788  1.00  0.00    -0.352 N 
ATOM      6  C   UNL     1       0.456   3.438   4.449  1.00  0.00     0.251 C 
ATOM      7  O   UNL     1       1.121   3.342   5.478  1.00  0.00    -0.269 OA
ATOM      8  H   UNL     1       0.918   5.363   4.219  1.00  0.00     0.163 HD
BRANCH   6   9
ATOM      9  C   UNL     1      -0.204   2.236   3.891  1.00  0.00     0.039 A 
ATOM     10  C   UNL     1      -1.198  -0.012   2.547  1.00  0.00     0.006 A 
ATOM     11  C   UNL     1       0.048  -0.064   3.186  1.00  0.00     0.010 A 
ATOM     12  C   UNL     1      -1.996   1.130   2.707  1.00  0.00     0.010 A 
ATOM     13  C   UNL     1       0.544   1.055   3.853  1.00  0.00     0.014 A 
ATOM     14  C   UNL     1      -1.506   2.247   3.386  1.00  0.00     0.014 A 
BRANCH  10  15
ATOM     15  C   UNL     1      -1.658  -1.145   1.664  1.00  0.00     0.299 C 
BRANCH  15  16
ATOM     16  N   UNL     1      -1.224  -1.113   0.266  1.00  0.00    -0.322 N 
ATOM     17  O   UNL     1       2.316  -0.226   0.235  1.00  0.00    -0.269 OA
ATOM     18  C   UNL     1       1.109  -0.154  -0.002  1.00  0.00     0.275 C 
ATOM     19  C   UNL     1       0.203  -1.386   0.033  1.00  0.00     0.363 C 
ATOM     20  N   UNL     1       0.572   1.029  -0.425  1.00  0.00    -0.346 N 
ATOM     21  C   UNL     1      -0.849   1.272  -0.530  1.00  0.00     0.177 C 
ATOM     22  H   UNL     1       1.187   1.757  -0.673  1.00  0.00     0.163 HD
ATOM     23  C   UNL     1      -1.709  -0.002  -0.557  1.00  0.00     0.284 C 
ATOM     24  H   UNL     1      -1.732  -1.926  -0.083  1.00  0.00     0.348 HD
ENDBRANCH  15  16
ENDBRANCH  10  15
ENDBRANCH   6   9
ENDBRANCH   4   5
ENDBRANCH   3   4
ENDBRANCH   2   3
ENDBRANCH   1   2
BRANCH   1  25
ATOM     25  C   UNL     1      -1.076   8.341   0.964  1.00  0.00     0.021 C 
BRANCH  25  26
ATOM     26  C   UNL     1      -2.439   9.015   1.086  1.00  0.00     0.116 C 
BRANCH  26  27
ATOM     27  N   UNL     1      -2.325  10.385   1.564  1.00  0.00    -0.352 N 
ATOM     28  C   UNL     1      -2.778  11.546   0.987  1.00  0.00     0.251 C 
ATOM     29  H   UNL     1      -1.856  10.495   2.423  1.00  0.00     0.163 HD
ATOM     30  O   UNL     1      -2.400  12.631   1.414  1.00  0.00    -0.269 OA
BRANCH  28  31
ATOM     31  C   UNL     1      -3.710  11.479  -0.159  1.00  0.00     0.039 A 
ATOM     32  C   UNL     1      -3.493  12.310  -1.261  1.00  0.00     0.014 A 
ATOM     33  C   UNL     1      -4.798  10.602  -0.143  1.00  0.00     0.014 A 
ATOM     34  C   UNL     1      -4.334  12.218  -2.372  1.00  0.00     0.010 A 
ATOM     35  C   UNL     1      -5.588  10.458  -1.280  1.00  0.00     0.010 A 
ATOM     36  C   UNL     1      -5.368  11.268  -2.404  1.00  0.00    -0.014 A 
BRANCH  36  37
ATOM     37  C   UNL     1      -6.229  11.105  -3.604  1.00  0.00     0.031 A 
ATOM     38  C   UNL     1      -7.707  11.378  -3.518  1.00  0.00     0.074 A 
ATOM     39  C   UNL     1      -5.691  10.649  -4.753  1.00  0.00     0.049 A 
ATOM     40  N   UNL     1      -8.629  11.228  -4.433  1.00  0.00    -0.248 NA
ATOM     41  C   UNL     1      -8.218  11.859  -2.225  1.00  0.00     0.031 C 
ATOM     42  C   UNL     1      -4.280  10.307  -4.948  1.00  0.00     0.029 A 
ATOM     43  N   UNL     1      -6.266  10.386  -5.971  1.00  0.00    -0.354 N 
ATOM     44  C   UNL     1      -9.828  11.584  -3.826  1.00  0.00     0.074 A 
ATOM     45  C   UNL     1      -9.524  11.901  -2.448  1.00  0.00     0.031 C 
ATOM     46  C   UNL     1      -4.096   9.904  -6.216  1.00  0.00     0.029 A 
ATOM     47  C   UNL     1      -5.380   9.916  -6.911  1.00  0.00     0.049 A 
ATOM     48  H   UNL     1      -7.224  10.520  -6.154  1.00  0.00     0.167 HD
ATOM     49  C   UNL     1     -11.065  11.664  -4.373  1.00  0.00     0.037 A 
ATOM     50  C   UNL     1      -5.578   9.530  -8.187  1.00  0.00     0.037 A 
ATOM     51  C   UNL     1     -11.355  11.363  -5.752  1.00  0.00     0.049 A 
ATOM     52  C   UNL     1      -6.964   9.610  -8.769  1.00  0.00     0.074 A 
ATOM     53  C   UNL     1     -12.564  11.461  -6.417  1.00  0.00     0.029 A 
ATOM     54  N   UNL     1     -10.428  10.900  -6.675  1.00  0.00    -0.354 N 
ATOM     55  N   UNL     1      -8.076  10.007  -8.197  1.00  0.00    -0.248 NA
ATOM     56  C   UNL     1      -7.122   9.195 -10.169  1.00  0.00     0.031 C 
ATOM     57  C   UNL     1     -12.381  11.007  -7.727  1.00  0.00     0.029 A 
ATOM     58  C   UNL     1     -11.044  10.683  -7.897  1.00  0.00     0.049 A 
ATOM     59  H   UNL     1      -9.473  10.748  -6.489  1.00  0.00     0.167 HD
ATOM     60  C   UNL     1      -9.059   9.919  -9.176  1.00  0.00     0.074 A 
ATOM     61  C   UNL     1      -8.408   9.441 -10.378  1.00  0.00     0.031 C 
ATOM     62  C   UNL     1     -10.381  10.211  -9.088  1.00  0.00     0.037 A 
BRANCH  49  63
ATOM     63  C   UNL     1     -12.197  12.093  -3.479  1.00  0.00     0.058 A 
ATOM     64  C   UNL     1     -12.287  13.403  -2.977  1.00  0.00     0.135 A 
ATOM     65  C   UNL     1     -13.220  11.193  -3.138  1.00  0.00     0.135 A 
ATOM     66  F   UNL     1     -11.331  14.302  -3.258  1.00  0.00    -0.206 F 
ATOM     67  C   UNL     1     -13.329  13.793  -2.142  1.00  0.00     0.059 A 
ATOM     68  C   UNL     1     -14.289  11.571  -2.330  1.00  0.00     0.059 A 
ATOM     69  F   UNL     1     -13.186   9.929  -3.589  1.00  0.00    -0.206 F 
ATOM     70  C   UNL     1     -14.324  12.869  -1.822  1.00  0.00     0.060 A 
BRANCH  70  71
ATOM     71  S   UNL     1     -15.665  13.390  -0.731  1.00  0.00     0.124 S 
ATOM     72  O   UNL     1     -14.977  13.475   0.553  1.00  0.00    -0.237 OA
ATOM     73  O   UNL     1     -16.068  14.663  -1.320  1.00  0.00    -0.237 OA
ATOM     74  O   UNL     1     -16.640  12.310  -0.849  1.00  0.00    -0.744 OA
ENDBRANCH  70  71
ENDBRANCH  49  63
BRANCH  50  75
ATOM     75  C   UNL     1      -4.430   9.055  -9.005  1.00  0.00     0.058 A 
ATOM     76  C   UNL     1      -3.938   9.822 -10.072  1.00  0.00     0.135 A 
ATOM     77  C   UNL     1      -3.790   7.837  -8.727  1.00  0.00     0.135 A 
ATOM     78  F   UNL     1      -4.520  10.991 -10.382  1.00  0.00    -0.206 F 
ATOM     79  C   UNL     1      -2.862   9.394 -10.843  1.00  0.00     0.059 A 
ATOM     80  C   UNL     1      -2.695   7.401  -9.466  1.00  0.00     0.059 A 
ATOM     81  F   UNL     1      -4.210   7.073  -7.707  1.00  0.00    -0.206 F 
ATOM     82  C   UNL     1      -2.244   8.183 -10.529  1.00  0.00     0.060 A 
BRANCH  82  83
ATOM     83  S   UNL     1      -0.814   7.663 -11.502  1.00  0.00     0.124 S 
ATOM     84  O   UNL     1      -1.438   7.299 -12.769  1.00  0.00    -0.237 OA
ATOM     85  O   UNL     1       0.002   8.873 -11.514  1.00  0.00    -0.237 OA
ATOM     86  O   UNL     1      -0.267   6.554 -10.726  1.00  0.00    -0.744 OA
ENDBRANCH  82  83
ENDBRANCH  50  75
BRANCH  62  87
ATOM     87  C   UNL     1     -11.211  10.057 -10.334  1.00  0.00     0.058 A 
ATOM     88  C   UNL     1     -11.540   8.796 -10.854  1.00  0.00     0.135 A 
ATOM     89  C   UNL     1     -11.730  11.189 -10.984  1.00  0.00     0.135 A 
ATOM     90  F   UNL     1     -11.065   7.681 -10.276  1.00  0.00    -0.206 F 
ATOM     91  C   UNL     1     -12.336   8.662 -11.987  1.00  0.00     0.059 A 
ATOM     92  C   UNL     1     -12.553  11.078 -12.100  1.00  0.00     0.059 A 
ATOM     93  F   UNL     1     -11.454  12.419 -10.523  1.00  0.00    -0.206 F 
ATOM     94  C   UNL     1     -12.842   9.810 -12.601  1.00  0.00     0.060 A 
BRANCH  94  95
ATOM     95  S   UNL     1     -13.906   9.620 -14.046  1.00  0.00     0.124 S 
ATOM     96  O   UNL     1     -12.945   9.215 -15.067  1.00  0.00    -0.237 OA
ATOM     97  O   UNL     1     -14.842   8.588 -13.611  1.00  0.00    -0.237 OA
ATOM     98  O   UNL     1     -14.484  10.949 -14.221  1.00  0.00    -0.744 OA
ENDBRANCH  94  95
ENDBRANCH  62  87
ENDBRANCH  36  37
ENDBRANCH  28  31
ENDBRANCH  26  27
ENDBRANCH  25  26
ENDBRANCH   1  25
TORSDOF 18
