REMARK SMILES C[C@H](NC(=O)c1ccc(C(C)(C)C)cc1)C(=O)N[C@@H](C(=O)NCCCCCCNC(=O)c1ccc(-c2c3nc(c(-c4c(F)cc(S(=O)(=O)[O-])cc4F)c4ccc([nH]4)c(-c4c(F)cc(S(=O)(=O)[O-])cc4F)c4nc(c(-c5c(F)cc(S(=O)(=O)[O-])cc5F)c5ccc2[nH]5)C=C4)C=C3)cc1)[C@H](C)O
REMARK SMILES IDX 24 1 23 2 22 3 20 4 21 5 19 7 18 8 16 9 17 10 2 12 1 13 3 14
REMARK SMILES IDX 4 15 5 17 6 18 7 19 15 20 8 21 14 22 9 23 10 24 11 25 12 26
REMARK SMILES IDX 13 27 98 28 99 29 100 30 25 32 26 33 27 34 28 35 29 36 30 37
REMARK SMILES IDX 31 39 32 40 33 41 97 42 34 43 96 44 35 45 36 46 37 47 90 48
REMARK SMILES IDX 38 49 95 50 89 51 91 52 39 53 94 54 88 55 87 56 40 58 74 59
REMARK SMILES IDX 53 60 73 61 54 62 57 63 72 64 92 65 55 66 56 67 71 69 93 70
REMARK SMILES IDX 58 71 41 72 42 73 51 74 43 75 44 76 50 77 52 78 45 79 46 80
REMARK SMILES IDX 47 81 48 82 49 83 75 84 76 85 85 86 77 87 78 88 84 89 86 90
REMARK SMILES IDX 79 91 80 92 81 93 82 94 83 95 59 96 60 97 69 98 61 99 62 100
REMARK SMILES IDX 68 101 70 102 63 103 64 104 65 105 66 106 67 107
REMARK H PARENT 22 6 18 11 3 16 100 31 29 38 91 57 57 68
REMARK Flexibility Score: inf
ROOT
ATOM      1  C   UNL     1       2.992  -4.019   4.146  1.00  0.00     0.021 C 
ENDROOT
BRANCH   1   2
ATOM      2  C   UNL     1       1.538  -4.440   3.962  1.00  0.00     0.116 C 
BRANCH   2   3
ATOM      3  N   UNL     1       0.654  -3.749   4.878  1.00  0.00    -0.354 N 
ATOM      4  C   UNL     1      -0.238  -2.742   4.702  1.00  0.00     0.245 C 
ATOM      5  O   UNL     1      -0.816  -2.351   5.726  1.00  0.00    -0.273 OA
ATOM      6  H   UNL     1       0.711  -4.072   5.806  1.00  0.00     0.163 HD
BRANCH   4   7
ATOM      7  C   UNL     1      -0.689  -2.217   3.310  1.00  0.00     0.200 C 
BRANCH   7   8
ATOM      8  N   UNL     1       0.314  -2.205   2.246  1.00  0.00    -0.340 N 
ATOM      9  C   UNL     1       0.355  -2.825   1.031  1.00  0.00     0.243 C 
ATOM     10  O   UNL     1       1.268  -2.495   0.268  1.00  0.00    -0.273 OA
ATOM     11  H   UNL     1       1.102  -1.649   2.442  1.00  0.00     0.164 HD
BRANCH   9  12
ATOM     12  C   UNL     1      -0.672  -3.902   0.597  1.00  0.00     0.168 C 
ATOM     13  C   UNL     1      -2.082  -3.379   0.376  1.00  0.00     0.041 C 
BRANCH  12  14
ATOM     14  N   UNL     1      -0.647  -5.036   1.522  1.00  0.00    -0.341 N 
ATOM     15  C   UNL     1      -0.138  -6.300   1.354  1.00  0.00     0.251 C 
ATOM     16  H   UNL     1      -1.060  -4.866   2.399  1.00  0.00     0.164 HD
ATOM     17  O   UNL     1      -0.094  -7.057   2.321  1.00  0.00    -0.269 OA
BRANCH  15  18
ATOM     18  C   UNL     1       0.264  -6.778   0.018  1.00  0.00     0.039 A 
ATOM     19  C   UNL     1      -0.399  -7.890  -0.496  1.00  0.00     0.014 A 
ATOM     20  C   UNL     1       1.256  -6.149  -0.733  1.00  0.00     0.014 A 
ATOM     21  C   UNL     1      -0.148  -8.302  -1.806  1.00  0.00     0.005 A 
ATOM     22  C   UNL     1       1.491  -6.558  -2.052  1.00  0.00     0.005 A 
ATOM     23  C   UNL     1       0.761  -7.611  -2.632  1.00  0.00    -0.043 A 
BRANCH  23  24
ATOM     24  C   UNL     1       0.915  -8.017  -4.109  1.00  0.00    -0.013 C 
ATOM     25  C   UNL     1       1.550  -9.414  -4.196  1.00  0.00     0.016 C 
ATOM     26  C   UNL     1      -0.472  -8.044  -4.793  1.00  0.00     0.016 C 
ATOM     27  C   UNL     1       1.798  -7.051  -4.930  1.00  0.00     0.016 C 
ENDBRANCH  23  24
ENDBRANCH  15  18
ENDBRANCH  12  14
ENDBRANCH   9  12
ENDBRANCH   7   8
BRANCH   7  28
ATOM     28  C   UNL     1      -1.267  -0.783   3.513  1.00  0.00     0.143 C 
ATOM     29  C   UNL     1      -1.736  -0.121   2.222  1.00  0.00     0.041 C 
BRANCH  28  30
ATOM     30  O   UNL     1      -0.271   0.082   4.080  1.00  0.00    -0.391 OA
ATOM     31  H   UNL     1       0.470   0.171   3.462  1.00  0.00     0.211 HD
ENDBRANCH  28  30
ENDBRANCH   7  28
ENDBRANCH   4   7
ENDBRANCH   2   3
ENDBRANCH   1   2
BRANCH   1  32
ATOM     32  C   UNL     1       3.663  -4.591   5.399  1.00  0.00     0.002 C 
BRANCH  32  33
ATOM     33  C   UNL     1       3.623  -6.118   5.535  1.00  0.00     0.002 C 
BRANCH  33  34
ATOM     34  C   UNL     1       4.079  -6.913   4.308  1.00  0.00     0.021 C 
BRANCH  34  35
ATOM     35  C   UNL     1       5.479  -6.585   3.798  1.00  0.00     0.116 C 
BRANCH  35  36
ATOM     36  N   UNL     1       6.509  -6.853   4.788  1.00  0.00    -0.352 N 
ATOM     37  C   UNL     1       7.638  -7.627   4.683  1.00  0.00     0.251 C 
ATOM     38  H   UNL     1       6.377  -6.416   5.661  1.00  0.00     0.163 HD
ATOM     39  O   UNL     1       8.316  -7.863   5.679  1.00  0.00    -0.269 OA
BRANCH  37  40
ATOM     40  C   UNL     1       8.022  -8.196   3.374  1.00  0.00     0.039 A 
ATOM     41  C   UNL     1       8.334  -9.556   3.297  1.00  0.00     0.014 A 
ATOM     42  C   UNL     1       8.069  -7.397   2.228  1.00  0.00     0.014 A 
ATOM     43  C   UNL     1       8.619 -10.132   2.056  1.00  0.00     0.010 A 
ATOM     44  C   UNL     1       8.304  -7.982   0.985  1.00  0.00     0.010 A 
ATOM     45  C   UNL     1       8.567  -9.357   0.887  1.00  0.00    -0.014 A 
BRANCH  45  46
ATOM     46  C   UNL     1       8.743  -9.972  -0.453  1.00  0.00     0.031 A 
ATOM     47  C   UNL     1       9.934  -9.621  -1.300  1.00  0.00     0.074 A 
ATOM     48  C   UNL     1       7.786 -10.788  -0.936  1.00  0.00     0.049 A 
ATOM     49  N   UNL     1      10.198  -9.966  -2.533  1.00  0.00    -0.248 NA
ATOM     50  C   UNL     1      10.949  -8.751  -0.686  1.00  0.00     0.031 C 
ATOM     51  C   UNL     1       6.566 -11.173  -0.223  1.00  0.00     0.029 A 
ATOM     52  N   UNL     1       7.677 -11.426  -2.147  1.00  0.00    -0.354 N 
ATOM     53  C   UNL     1      11.400  -9.347  -2.850  1.00  0.00     0.074 A 
ATOM     54  C   UNL     1      11.797  -8.576  -1.690  1.00  0.00     0.031 C 
ATOM     55  C   UNL     1       5.837 -11.986  -1.004  1.00  0.00     0.029 A 
ATOM     56  C   UNL     1       6.515 -12.147  -2.288  1.00  0.00     0.049 A 
ATOM     57  H   UNL     1       8.366 -11.371  -2.848  1.00  0.00     0.167 HD
ATOM     58  C   UNL     1      12.115  -9.427  -3.998  1.00  0.00     0.037 A 
ATOM     59  C   UNL     1       6.034 -12.838  -3.339  1.00  0.00     0.037 A 
ATOM     60  C   UNL     1      11.729 -10.215  -5.139  1.00  0.00     0.049 A 
ATOM     61  C   UNL     1       6.829 -12.883  -4.614  1.00  0.00     0.074 A 
ATOM     62  C   UNL     1      12.423 -10.421  -6.318  1.00  0.00     0.029 A 
ATOM     63  N   UNL     1      10.541 -10.924  -5.246  1.00  0.00    -0.354 N 
ATOM     64  N   UNL     1       7.990 -12.334  -4.879  1.00  0.00    -0.248 NA
ATOM     65  C   UNL     1       6.245 -13.630  -5.738  1.00  0.00     0.031 C 
ATOM     66  C   UNL     1      11.639 -11.225  -7.153  1.00  0.00     0.029 A 
ATOM     67  C   UNL     1      10.471 -11.546  -6.481  1.00  0.00     0.049 A 
ATOM     68  H   UNL     1       9.850 -10.977  -4.547  1.00  0.00     0.167 HD
ATOM     69  C   UNL     1       8.282 -12.678  -6.193  1.00  0.00     0.074 A 
ATOM     70  C   UNL     1       7.182 -13.493  -6.667  1.00  0.00     0.031 C 
ATOM     71  C   UNL     1       9.365 -12.350  -6.939  1.00  0.00     0.037 A 
BRANCH  58  72
ATOM     72  C   UNL     1      13.393  -8.641  -4.075  1.00  0.00     0.058 A 
ATOM     73  C   UNL     1      14.543  -9.042  -3.377  1.00  0.00     0.135 A 
ATOM     74  C   UNL     1      13.479  -7.495  -4.881  1.00  0.00     0.135 A 
ATOM     75  F   UNL     1      14.508 -10.124  -2.583  1.00  0.00    -0.206 F 
ATOM     76  C   UNL     1      15.727  -8.317  -3.452  1.00  0.00     0.059 A 
ATOM     77  C   UNL     1      14.661  -6.766  -4.988  1.00  0.00     0.059 A 
ATOM     78  F   UNL     1      12.409  -7.069  -5.569  1.00  0.00    -0.206 F 
ATOM     79  C   UNL     1      15.775  -7.178  -4.257  1.00  0.00     0.060 A 
BRANCH  79  80
ATOM     80  S   UNL     1      17.319  -6.245  -4.345  1.00  0.00     0.124 S 
ATOM     81  O   UNL     1      17.301  -5.535  -3.070  1.00  0.00    -0.237 OA
ATOM     82  O   UNL     1      18.319  -7.301  -4.468  1.00  0.00    -0.237 OA
ATOM     83  O   UNL     1      17.145  -5.412  -5.530  1.00  0.00    -0.744 OA
ENDBRANCH  79  80
ENDBRANCH  58  72
BRANCH  59  84
ATOM     84  C   UNL     1       4.717 -13.518  -3.238  1.00  0.00     0.058 A 
ATOM     85  C   UNL     1       4.619 -14.914  -3.164  1.00  0.00     0.135 A 
ATOM     86  C   UNL     1       3.528 -12.776  -3.195  1.00  0.00     0.135 A 
ATOM     87  F   UNL     1       5.728 -15.667  -3.208  1.00  0.00    -0.206 F 
ATOM     88  C   UNL     1       3.385 -15.550  -3.059  1.00  0.00     0.059 A 
ATOM     89  C   UNL     1       2.285 -13.386  -3.073  1.00  0.00     0.059 A 
ATOM     90  F   UNL     1       3.579 -11.438  -3.241  1.00  0.00    -0.206 F 
ATOM     91  C   UNL     1       2.223 -14.777  -3.014  1.00  0.00     0.060 A 
BRANCH  91  92
ATOM     92  S   UNL     1       0.630 -15.606  -2.828  1.00  0.00     0.124 S 
ATOM     93  O   UNL     1       0.425 -16.149  -4.166  1.00  0.00    -0.237 OA
ATOM     94  O   UNL     1       0.911 -16.581  -1.779  1.00  0.00    -0.237 OA
ATOM     95  O   UNL     1      -0.268 -14.522  -2.442  1.00  0.00    -0.744 OA
ENDBRANCH  91  92
ENDBRANCH  59  84
BRANCH  71  96
ATOM     96  C   UNL     1       9.421 -12.878  -8.343  1.00  0.00     0.058 A 
ATOM     97  C   UNL     1       8.662 -12.299  -9.371  1.00  0.00     0.135 A 
ATOM     98  C   UNL     1      10.285 -13.934  -8.675  1.00  0.00     0.135 A 
ATOM     99  F   UNL     1       7.814 -11.295  -9.101  1.00  0.00    -0.206 F 
ATOM    100  C   UNL     1       8.752 -12.754 -10.683  1.00  0.00     0.059 A 
ATOM    101  C   UNL     1      10.405 -14.392  -9.983  1.00  0.00     0.059 A 
ATOM    102  F   UNL     1      11.035 -14.517  -7.727  1.00  0.00    -0.206 F 
ATOM    103  C   UNL     1       9.629 -13.800 -10.979  1.00  0.00     0.060 A 
BRANCH 103 104
ATOM    104  S   UNL     1       9.776 -14.349 -12.693  1.00  0.00     0.124 S 
ATOM    105  O   UNL     1       8.559 -15.138 -12.854  1.00  0.00    -0.237 OA
ATOM    106  O   UNL     1       9.815 -13.087 -13.426  1.00  0.00    -0.237 OA
ATOM    107  O   UNL     1      11.023 -15.108 -12.700  1.00  0.00    -0.744 OA
ENDBRANCH 103 104
ENDBRANCH  71  96
ENDBRANCH  45  46
ENDBRANCH  37  40
ENDBRANCH  35  36
ENDBRANCH  34  35
ENDBRANCH  33  34
ENDBRANCH  32  33
ENDBRANCH   1  32
TORSDOF 23
