REMARK SMILES O=C(COc1ccc(NC(=O)c2ccc(Br)cc2)cc1-c1nc2ccccc2o1)NCCCCCCNC(=O)c1ccc(-c2c3nc(c(-c4c(F)cc(S(=O)(=O)[O-])cc4F)c4ccc([nH]4)c(-c4c(F)cc(S(=O)(=O)[O-])cc4F)c4nc(c(-c5c(F)cc(S(=O)(=O)[O-])cc5F)c5ccc2[nH]5)C=C4)C=C3)cc1
REMARK SMILES IDX 33 1 32 2 31 3 30 4 1 5 2 6 3 8 4 9 5 10 6 11 20 12 7 13
REMARK SMILES IDX 19 14 8 15 21 16 22 17 29 18 23 19 28 20 24 21 27 22 25 23
REMARK SMILES IDX 26 24 9 25 10 26 11 28 12 29 13 30 18 31 14 32 17 33 15 34
REMARK SMILES IDX 16 35 34 36 35 37 36 38 37 39 38 40 39 42 40 43 41 44 105 45
REMARK SMILES IDX 42 46 104 47 43 48 44 49 45 50 98 51 46 52 103 53 97 54
REMARK SMILES IDX 99 55 47 56 102 57 96 58 95 59 48 61 82 62 61 63 81 64 62 65
REMARK SMILES IDX 65 66 80 67 100 68 63 69 64 70 79 72 101 73 66 74 49 75
REMARK SMILES IDX 50 76 59 77 51 78 52 79 58 80 60 81 53 82 54 83 55 84 56 85
REMARK SMILES IDX 57 86 83 87 84 88 93 89 85 90 86 91 92 92 94 93 87 94 88 95
REMARK SMILES IDX 89 96 90 97 91 98 67 99 68 100 77 101 69 102 70 103 76 104
REMARK SMILES IDX 78 105 71 106 72 107 73 108 74 109 75 110
REMARK H PARENT 30 7 9 27 37 41 99 60 65 71
REMARK Flexibility Score: inf
ROOT
ATOM      1  C   UNL     1       5.269   0.248   4.126  1.00  0.00     0.002 C 
ENDROOT
BRANCH   1   2
ATOM      2  C   UNL     1       3.916  -0.172   3.560  1.00  0.00     0.021 C 
BRANCH   2   3
ATOM      3  C   UNL     1       3.671   0.394   2.180  1.00  0.00     0.116 C 
BRANCH   3   4
ATOM      4  N   UNL     1       4.596  -0.095   1.184  1.00  0.00    -0.353 N 
ATOM      5  O   UNL     1       3.816  -2.175   0.553  1.00  0.00    -0.271 OA
ATOM      6  C   UNL     1       4.144  -1.032   0.258  1.00  0.00     0.257 C 
ATOM      7  H   UNL     1       5.526   0.227   1.160  1.00  0.00     0.163 HD
BRANCH   6   8
ATOM      8  C   UNL     1       4.079  -0.453  -1.159  1.00  0.00     0.329 C 
BRANCH   8   9
ATOM      9  O   UNL     1       4.015   0.960  -0.932  1.00  0.00    -0.483 OA
BRANCH   9  10
ATOM     10  C   UNL     1       3.211   1.718  -1.726  1.00  0.00     0.132 A 
ATOM     11  C   UNL     1       3.957   2.579  -2.519  1.00  0.00     0.049 A 
ATOM     12  C   UNL     1       1.826   1.915  -1.520  1.00  0.00     0.081 A 
ATOM     13  C   UNL     1       3.350   3.665  -3.117  1.00  0.00     0.030 A 
ATOM     14  C   UNL     1       1.225   3.023  -2.159  1.00  0.00     0.043 A 
ATOM     15  C   UNL     1       1.980   3.883  -2.983  1.00  0.00     0.042 A 
BRANCH  12  16
ATOM     16  C   UNL     1       1.062   1.005  -0.656  1.00  0.00     0.231 A 
ATOM     17  N   UNL     1       1.320  -0.266  -0.421  1.00  0.00    -0.209 NA
ATOM     18  O   UNL     1       0.013   1.507   0.086  1.00  0.00    -0.436 OA
ATOM     19  C   UNL     1       0.526  -0.591   0.640  1.00  0.00     0.110 A 
ATOM     20  C   UNL     1      -0.304   0.475   0.943  1.00  0.00     0.155 A 
ATOM     21  C   UNL     1       0.519  -1.736   1.447  1.00  0.00     0.032 A 
ATOM     22  C   UNL     1      -1.223   0.459   1.989  1.00  0.00     0.049 A 
ATOM     23  C   UNL     1      -0.347  -1.763   2.545  1.00  0.00     0.003 A 
ATOM     24  C   UNL     1      -1.215  -0.693   2.797  1.00  0.00     0.004 A 
ENDBRANCH  12  16
BRANCH  15  25
ATOM     25  N   UNL     1       1.349   4.983  -3.604  1.00  0.00    -0.322 N 
ATOM     26  C   UNL     1       1.787   5.790  -4.643  1.00  0.00     0.255 C 
ATOM     27  H   UNL     1       0.461   5.212  -3.245  1.00  0.00     0.170 HD
ATOM     28  O   UNL     1       1.275   6.889  -4.843  1.00  0.00    -0.269 OA
BRANCH  26  29
ATOM     29  C   UNL     1       2.836   5.319  -5.584  1.00  0.00     0.040 A 
ATOM     30  C   UNL     1       3.933   6.145  -5.860  1.00  0.00     0.015 A 
ATOM     31  C   UNL     1       2.761   4.039  -6.154  1.00  0.00     0.015 A 
ATOM     32  C   UNL     1       4.987   5.663  -6.643  1.00  0.00     0.016 A 
ATOM     33  C   UNL     1       3.818   3.558  -6.929  1.00  0.00     0.016 A 
ATOM     34  C   UNL     1       4.930   4.367  -7.160  1.00  0.00     0.018 A 
ATOM     35  Br  UNL     1       6.382   3.692  -8.167  1.00  0.00    -0.051 Br
ENDBRANCH  26  29
ENDBRANCH  15  25
ENDBRANCH   9  10
ENDBRANCH   8   9
ENDBRANCH   6   8
ENDBRANCH   3   4
ENDBRANCH   2   3
ENDBRANCH   1   2
BRANCH   1  36
ATOM     36  C   UNL     1       5.418   1.756   4.366  1.00  0.00     0.002 C 
BRANCH  36  37
ATOM     37  C   UNL     1       4.437   2.353   5.379  1.00  0.00     0.021 C 
BRANCH  37  38
ATOM     38  C   UNL     1       4.364   1.603   6.706  1.00  0.00     0.116 C 
BRANCH  38  39
ATOM     39  N   UNL     1       5.687   1.361   7.264  1.00  0.00    -0.352 N 
ATOM     40  C   UNL     1       6.181   1.654   8.502  1.00  0.00     0.251 C 
ATOM     41  H   UNL     1       6.322   0.919   6.655  1.00  0.00     0.163 HD
ATOM     42  O   UNL     1       7.391   1.564   8.720  1.00  0.00    -0.269 OA
BRANCH  40  43
ATOM     43  C   UNL     1       5.263   2.082   9.569  1.00  0.00     0.039 A 
ATOM     44  C   UNL     1       5.620   3.168  10.369  1.00  0.00     0.014 A 
ATOM     45  C   UNL     1       4.062   1.399   9.786  1.00  0.00     0.014 A 
ATOM     46  C   UNL     1       4.750   3.596  11.369  1.00  0.00     0.010 A 
ATOM     47  C   UNL     1       3.165   1.870  10.737  1.00  0.00     0.010 A 
ATOM     48  C   UNL     1       3.509   2.962  11.546  1.00  0.00    -0.014 A 
BRANCH  48  49
ATOM     49  C   UNL     1       2.565   3.421  12.591  1.00  0.00     0.031 A 
ATOM     50  C   UNL     1       2.245   2.529  13.757  1.00  0.00     0.074 A 
ATOM     51  C   UNL     1       1.966   4.619  12.457  1.00  0.00     0.049 A 
ATOM     52  N   UNL     1       1.437   2.743  14.762  1.00  0.00    -0.248 NA
ATOM     53  C   UNL     1       2.897   1.209  13.781  1.00  0.00     0.031 C 
ATOM     54  C   UNL     1       2.166   5.544  11.339  1.00  0.00     0.029 A 
ATOM     55  N   UNL     1       1.070   5.265  13.267  1.00  0.00    -0.354 N 
ATOM     56  C   UNL     1       1.467   1.583  15.526  1.00  0.00     0.074 A 
ATOM     57  C   UNL     1       2.334   0.648  14.841  1.00  0.00     0.031 C 
ATOM     58  C   UNL     1       1.443   6.654  11.554  1.00  0.00     0.029 A 
ATOM     59  C   UNL     1       0.707   6.507  12.805  1.00  0.00     0.049 A 
ATOM     60  H   UNL     1       0.719   4.876  14.101  1.00  0.00     0.167 HD
ATOM     61  C   UNL     1       0.846   1.329  16.702  1.00  0.00     0.037 A 
ATOM     62  C   UNL     1      -0.120   7.425  13.339  1.00  0.00     0.037 A 
ATOM     63  C   UNL     1       0.012   2.281  17.388  1.00  0.00     0.049 A 
ATOM     64  C   UNL     1      -0.786   7.128  14.654  1.00  0.00     0.074 A 
ATOM     65  C   UNL     1      -0.602   2.158  18.621  1.00  0.00     0.029 A 
ATOM     66  N   UNL     1      -0.330   3.532  16.893  1.00  0.00    -0.354 N 
ATOM     67  N   UNL     1      -0.688   6.055  15.404  1.00  0.00    -0.248 NA
ATOM     68  C   UNL     1      -1.670   8.166  15.197  1.00  0.00     0.031 C 
ATOM     69  C   UNL     1      -1.349   3.319  18.854  1.00  0.00     0.029 A 
ATOM     70  C   UNL     1      -1.165   4.183  17.785  1.00  0.00     0.049 A 
ATOM     71  H   UNL     1      -0.023   3.902  16.034  1.00  0.00     0.167 HD
ATOM     72  C   UNL     1      -1.476   6.301  16.522  1.00  0.00     0.074 A 
ATOM     73  C   UNL     1      -2.036   7.627  16.352  1.00  0.00     0.031 C 
ATOM     74  C   UNL     1      -1.713   5.503  17.594  1.00  0.00     0.037 A 
BRANCH  61  75
ATOM     75  C   UNL     1       1.044  -0.033  17.310  1.00  0.00     0.058 A 
ATOM     76  C   UNL     1       2.281  -0.433  17.843  1.00  0.00     0.135 A 
ATOM     77  C   UNL     1      -0.015  -0.952  17.358  1.00  0.00     0.135 A 
ATOM     78  F   UNL     1       3.333   0.400  17.809  1.00  0.00    -0.206 F 
ATOM     79  C   UNL     1       2.472  -1.711  18.360  1.00  0.00     0.059 A 
ATOM     80  C   UNL     1       0.145  -2.225  17.898  1.00  0.00     0.059 A 
ATOM     81  F   UNL     1      -1.220  -0.623  16.864  1.00  0.00    -0.206 F 
ATOM     82  C   UNL     1       1.399  -2.603  18.377  1.00  0.00     0.060 A 
BRANCH  82  83
ATOM     83  S   UNL     1       1.665  -4.265  19.029  1.00  0.00     0.124 S 
ATOM     84  O   UNL     1       2.402  -4.890  17.935  1.00  0.00    -0.237 OA
ATOM     85  O   UNL     1       2.432  -4.007  20.243  1.00  0.00    -0.237 OA
ATOM     86  O   UNL     1       0.311  -4.767  19.241  1.00  0.00    -0.744 OA
ENDBRANCH  82  83
ENDBRANCH  61  75
BRANCH  62  87
ATOM     87  C   UNL     1      -0.316   8.730  12.656  1.00  0.00     0.058 A 
ATOM     88  C   UNL     1       0.246   9.902  13.181  1.00  0.00     0.135 A 
ATOM     89  C   UNL     1      -1.035   8.829  11.455  1.00  0.00     0.135 A 
ATOM     90  F   UNL     1       0.940   9.857  14.329  1.00  0.00    -0.206 F 
ATOM     91  C   UNL     1       0.096  11.131  12.547  1.00  0.00     0.059 A 
ATOM     92  C   UNL     1      -1.181  10.043  10.790  1.00  0.00     0.059 A 
ATOM     93  F   UNL     1      -1.577   7.733  10.902  1.00  0.00    -0.206 F 
ATOM     94  C   UNL     1      -0.618  11.190  11.349  1.00  0.00     0.060 A 
BRANCH  94  95
ATOM     95  S   UNL     1      -0.755  12.780  10.503  1.00  0.00     0.124 S 
ATOM     96  O   UNL     1      -1.718  13.479  11.346  1.00  0.00    -0.237 OA
ATOM     97  O   UNL     1       0.617  13.274  10.553  1.00  0.00    -0.237 OA
ATOM     98  O   UNL     1      -1.231  12.410   9.173  1.00  0.00    -0.744 OA
ENDBRANCH  94  95
ENDBRANCH  62  87
BRANCH  74  99
ATOM     99  C   UNL     1      -2.596   6.059  18.675  1.00  0.00     0.058 A 
ATOM    100  C   UNL     1      -3.982   6.189  18.500  1.00  0.00     0.135 A 
ATOM    101  C   UNL     1      -2.052   6.436  19.913  1.00  0.00     0.135 A 
ATOM    102  F   UNL     1      -4.551   5.849  17.332  1.00  0.00    -0.206 F 
ATOM    103  C   UNL     1      -4.795   6.703  19.504  1.00  0.00     0.059 A 
ATOM    104  C   UNL     1      -2.849   6.927  20.941  1.00  0.00     0.059 A 
ATOM    105  F   UNL     1      -0.733   6.320  20.136  1.00  0.00    -0.206 F 
ATOM    106  C   UNL     1      -4.219   7.072  20.721  1.00  0.00     0.060 A 
BRANCH 106 107
ATOM    107  S   UNL     1      -5.285   7.721  22.025  1.00  0.00     0.124 S 
ATOM    108  O   UNL     1      -5.532   9.079  21.551  1.00  0.00    -0.237 OA
ATOM    109  O   UNL     1      -6.428   6.815  21.977  1.00  0.00    -0.237 OA
ATOM    110  O   UNL     1      -4.458   7.614  23.223  1.00  0.00    -0.744 OA
ENDBRANCH 106 107
ENDBRANCH  74  99
ENDBRANCH  48  49
ENDBRANCH  40  43
ENDBRANCH  38  39
ENDBRANCH  37  38
ENDBRANCH  36  37
ENDBRANCH   1  36
TORSDOF 21
