REMARK SMILES C[C@H]1CC=C(C2=NN=C(C(=O)NCCCCCCNC(=O)c3ccc(-c4c5nc(c(-c6c(F)cc(S(=O)(=O)[O-])cc6F)c6ccc([nH]6)c(-c6c(F)cc(S(=O)(=O)[O-])cc6F)c6nc(c(-c7c(F)cc(S(=O)(=O)[O-])cc7F)c7ccc4[nH]7)C=C6)C=C5)cc3)C2)O1
REMARK SMILES IDX 16 1 15 2 14 3 13 4 12 5 10 6 11 7 9 9 6 10 7 11 88 12 8 13
REMARK SMILES IDX 5 14 1 15 2 16 3 17 89 18 4 19 17 20 18 21 19 22 20 23 21 25
REMARK SMILES IDX 22 26 23 27 87 28 24 29 86 30 25 31 26 32 27 33 80 34 28 35
REMARK SMILES IDX 85 36 79 37 81 38 29 39 84 40 78 41 77 42 30 44 64 45 43 46
REMARK SMILES IDX 63 47 44 48 47 49 62 50 82 51 45 52 46 53 61 55 83 56 48 57
REMARK SMILES IDX 31 58 32 59 41 60 33 61 34 62 40 63 42 64 35 65 36 66 37 67
REMARK SMILES IDX 38 68 39 69 65 70 66 71 75 72 67 73 68 74 74 75 76 76 69 77
REMARK SMILES IDX 70 78 71 79 72 80 73 81 49 82 50 83 59 84 51 85 52 86 58 87
REMARK SMILES IDX 60 88 53 89 54 90 55 91 56 92 57 93
REMARK H PARENT 12 8 19 24 81 43 47 54
REMARK Flexibility Score: inf
ROOT
ATOM      1  C   UNL     1       5.825 -11.839   0.426  1.00  0.00     0.002 C 
ENDROOT
BRANCH   1   2
ATOM      2  C   UNL     1       5.294 -11.237  -0.885  1.00  0.00     0.002 C 
BRANCH   2   3
ATOM      3  C   UNL     1       3.976 -10.461  -0.795  1.00  0.00     0.021 C 
BRANCH   3   4
ATOM      4  C   UNL     1       3.935  -9.363   0.266  1.00  0.00     0.116 C 
BRANCH   4   5
ATOM      5  N   UNL     1       4.935  -8.341   0.020  1.00  0.00    -0.351 N 
ATOM      6  C   UNL     1       4.801  -6.979   0.004  1.00  0.00     0.267 C 
ATOM      7  O   UNL     1       5.759  -6.255  -0.254  1.00  0.00    -0.268 OA
ATOM      8  H   UNL     1       5.843  -8.676  -0.162  1.00  0.00     0.163 HD
BRANCH   6   9
ATOM      9  C   UNL     1       3.493  -6.316   0.316  1.00  0.00     0.134 C 
ATOM     10  C   UNL     1       1.894  -4.773   0.472  1.00  0.00     0.111 C 
ATOM     11  N   UNL     1       1.514  -5.819   1.141  1.00  0.00    -0.151 NA
ATOM     12  C   UNL     1       3.242  -4.931  -0.149  1.00  0.00     0.126 C 
ATOM     13  N   UNL     1       2.544  -6.803   1.057  1.00  0.00    -0.149 NA
BRANCH  10  14
ATOM     14  C   UNL     1       1.168  -3.501   0.346  1.00  0.00     0.139 C 
ATOM     15  C   UNL     1       0.006  -0.887  -1.548  1.00  0.00     0.053 C 
ATOM     16  C   UNL     1       0.740  -1.416  -0.326  1.00  0.00     0.174 C 
ATOM     17  C   UNL     1      -0.204  -1.744   0.838  1.00  0.00     0.076 C 
ATOM     18  O   UNL     1       1.463  -2.616  -0.681  1.00  0.00    -0.489 OA
ATOM     19  C   UNL     1       0.271  -3.084   1.235  1.00  0.00     0.025 C 
ENDBRANCH  10  14
ENDBRANCH   6   9
ENDBRANCH   4   5
ENDBRANCH   3   4
ENDBRANCH   2   3
ENDBRANCH   1   2
BRANCH   1  20
ATOM     20  C   UNL     1       4.856 -12.715   1.233  1.00  0.00     0.021 C 
BRANCH  20  21
ATOM     21  C   UNL     1       4.383 -13.958   0.500  1.00  0.00     0.116 C 
BRANCH  21  22
ATOM     22  N   UNL     1       5.456 -14.934   0.262  1.00  0.00    -0.352 N 
ATOM     23  C   UNL     1       5.371 -16.145  -0.405  1.00  0.00     0.251 C 
ATOM     24  H   UNL     1       6.342 -14.698   0.620  1.00  0.00     0.163 HD
ATOM     25  O   UNL     1       6.204 -17.031  -0.222  1.00  0.00    -0.269 OA
BRANCH  23  26
ATOM     26  C   UNL     1       4.266 -16.336  -1.357  1.00  0.00     0.039 A 
ATOM     27  C   UNL     1       3.565 -17.537  -1.502  1.00  0.00     0.014 A 
ATOM     28  C   UNL     1       3.903 -15.212  -2.085  1.00  0.00     0.014 A 
ATOM     29  C   UNL     1       2.456 -17.559  -2.347  1.00  0.00     0.010 A 
ATOM     30  C   UNL     1       2.675 -15.165  -2.668  1.00  0.00     0.010 A 
ATOM     31  C   UNL     1       2.019 -16.357  -2.921  1.00  0.00    -0.014 A 
BRANCH  31  32
ATOM     32  C   UNL     1       0.852 -16.261  -3.780  1.00  0.00     0.031 A 
ATOM     33  C   UNL     1      -0.420 -16.695  -3.152  1.00  0.00     0.074 A 
ATOM     34  C   UNL     1       0.893 -15.564  -4.939  1.00  0.00     0.049 A 
ATOM     35  N   UNL     1      -1.124 -17.739  -3.434  1.00  0.00    -0.248 NA
ATOM     36  C   UNL     1      -0.886 -15.970  -1.958  1.00  0.00     0.031 C 
ATOM     37  C   UNL     1       2.004 -14.788  -5.517  1.00  0.00     0.029 A 
ATOM     38  N   UNL     1      -0.118 -15.305  -5.806  1.00  0.00    -0.354 N 
ATOM     39  C   UNL     1      -2.252 -17.665  -2.622  1.00  0.00     0.074 A 
ATOM     40  C   UNL     1      -1.942 -16.703  -1.598  1.00  0.00     0.031 C 
ATOM     41  C   UNL     1       1.536 -13.968  -6.483  1.00  0.00     0.029 A 
ATOM     42  C   UNL     1       0.144 -14.289  -6.720  1.00  0.00     0.049 A 
ATOM     43  H   UNL     1      -0.970 -15.797  -5.789  1.00  0.00     0.167 HD
ATOM     44  C   UNL     1      -3.440 -18.209  -3.011  1.00  0.00     0.037 A 
ATOM     45  C   UNL     1      -0.749 -13.736  -7.579  1.00  0.00     0.037 A 
ATOM     46  C   UNL     1      -3.259 -19.105  -4.129  1.00  0.00     0.049 A 
ATOM     47  C   UNL     1      -1.853 -14.728  -7.726  1.00  0.00     0.074 A 
ATOM     48  C   UNL     1      -2.507 -20.246  -4.338  1.00  0.00     0.029 A 
ATOM     49  N   UNL     1      -3.577 -18.639  -5.385  1.00  0.00    -0.354 N 
ATOM     50  N   UNL     1      -1.686 -15.915  -8.254  1.00  0.00    -0.248 NA
ATOM     51  C   UNL     1      -2.987 -14.606  -6.822  1.00  0.00     0.031 C 
ATOM     52  C   UNL     1      -1.986 -20.103  -5.659  1.00  0.00     0.029 A 
ATOM     53  C   UNL     1      -2.516 -18.933  -6.207  1.00  0.00     0.049 A 
ATOM     54  H   UNL     1      -4.409 -18.181  -5.645  1.00  0.00     0.167 HD
ATOM     55  C   UNL     1      -2.422 -16.778  -7.450  1.00  0.00     0.074 A 
ATOM     56  C   UNL     1      -3.248 -15.901  -6.618  1.00  0.00     0.031 C 
ATOM     57  C   UNL     1      -2.089 -18.098  -7.312  1.00  0.00     0.037 A 
BRANCH  44  58
ATOM     58  C   UNL     1      -4.797 -17.665  -2.628  1.00  0.00     0.058 A 
ATOM     59  C   UNL     1      -5.950 -18.417  -2.935  1.00  0.00     0.135 A 
ATOM     60  C   UNL     1      -5.032 -16.332  -2.223  1.00  0.00     0.135 A 
ATOM     61  F   UNL     1      -5.847 -19.695  -3.334  1.00  0.00    -0.206 F 
ATOM     62  C   UNL     1      -7.231 -17.863  -2.915  1.00  0.00     0.059 A 
ATOM     63  C   UNL     1      -6.303 -15.777  -2.141  1.00  0.00     0.059 A 
ATOM     64  F   UNL     1      -4.038 -15.469  -1.983  1.00  0.00    -0.206 F 
ATOM     65  C   UNL     1      -7.393 -16.535  -2.532  1.00  0.00     0.060 A 
BRANCH  65  66
ATOM     66  S   UNL     1      -9.027 -15.784  -2.616  1.00  0.00     0.124 S 
ATOM     67  O   UNL     1      -9.251 -15.738  -4.057  1.00  0.00    -0.237 OA
ATOM     68  O   UNL     1      -9.838 -16.741  -1.872  1.00  0.00    -0.237 OA
ATOM     69  O   UNL     1      -8.837 -14.492  -1.965  1.00  0.00    -0.744 OA
ENDBRANCH  65  66
ENDBRANCH  44  58
BRANCH  45  70
ATOM     70  C   UNL     1      -0.876 -12.290  -7.918  1.00  0.00     0.058 A 
ATOM     71  C   UNL     1      -1.676 -11.846  -8.985  1.00  0.00     0.135 A 
ATOM     72  C   UNL     1      -0.412 -11.287  -7.039  1.00  0.00     0.135 A 
ATOM     73  F   UNL     1      -2.185 -12.730  -9.857  1.00  0.00    -0.206 F 
ATOM     74  C   UNL     1      -2.022 -10.496  -9.152  1.00  0.00     0.059 A 
ATOM     75  C   UNL     1      -0.735  -9.939  -7.189  1.00  0.00     0.059 A 
ATOM     76  F   UNL     1       0.304 -11.599  -5.948  1.00  0.00    -0.206 F 
ATOM     77  C   UNL     1      -1.558  -9.550  -8.237  1.00  0.00     0.060 A 
BRANCH  77  78
ATOM     78  S   UNL     1      -2.116  -7.832  -8.356  1.00  0.00     0.124 S 
ATOM     79  O   UNL     1      -1.469  -7.388  -9.586  1.00  0.00    -0.237 OA
ATOM     80  O   UNL     1      -3.566  -7.981  -8.416  1.00  0.00    -0.237 OA
ATOM     81  O   UNL     1      -1.605  -7.223  -7.130  1.00  0.00    -0.744 OA
ENDBRANCH  77  78
ENDBRANCH  45  70
BRANCH  57  82
ATOM     82  C   UNL     1      -1.024 -18.681  -8.216  1.00  0.00     0.058 A 
ATOM     83  C   UNL     1       0.330 -18.300  -8.193  1.00  0.00     0.135 A 
ATOM     84  C   UNL     1      -1.348 -19.808  -8.986  1.00  0.00     0.135 A 
ATOM     85  F   UNL     1       0.751 -17.301  -7.410  1.00  0.00    -0.206 F 
ATOM     86  C   UNL     1       1.310 -18.987  -8.917  1.00  0.00     0.059 A 
ATOM     87  C   UNL     1      -0.385 -20.526  -9.694  1.00  0.00     0.059 A 
ATOM     88  F   UNL     1      -2.610 -20.268  -9.004  1.00  0.00    -0.206 F 
ATOM     89  C   UNL     1       0.943 -20.105  -9.662  1.00  0.00     0.060 A 
BRANCH  89  90
ATOM     90  S   UNL     1       2.222 -21.048 -10.522  1.00  0.00     0.124 S 
ATOM     91  O   UNL     1       2.607 -20.136 -11.594  1.00  0.00    -0.237 OA
ATOM     92  O   UNL     1       3.221 -21.255  -9.477  1.00  0.00    -0.237 OA
ATOM     93  O   UNL     1       1.524 -22.257 -10.953  1.00  0.00    -0.744 OA
ENDBRANCH  89  90
ENDBRANCH  57  82
ENDBRANCH  31  32
ENDBRANCH  23  26
ENDBRANCH  21  22
ENDBRANCH  20  21
ENDBRANCH   1  20
TORSDOF 17
