REMARK SMILES COC(=O)[C@@H]1CCN(C(=O)NC(=O)COCC(=O)NCCCCCCNC(=O)c2ccc(-c3c4nc(c(-c5c(F)cc(S(=O)(=O)[O-])cc5F)c5ccc([nH]5)c(-c5c(F)cc(S(=O)(=O)[O-])cc5F)c5nc(c(-c6c(F)cc(S(=O)(=O)[O-])cc6F)c6ccc3[nH]6)C=C5)C=C4)cc2)C1
REMARK SMILES IDX 21 1 20 2 19 3 17 4 18 5 16 7 15 8 14 9 12 10 9 11 10 12
REMARK SMILES IDX 11 13 13 15 8 16 5 17 6 18 95 19 7 20 3 21 4 22 2 23 1 24
REMARK SMILES IDX 22 25 23 26 24 27 25 28 26 29 27 30 28 32 29 33 30 34 94 35
REMARK SMILES IDX 31 36 93 37 32 38 33 39 34 40 87 41 35 42 92 43 86 44 88 45
REMARK SMILES IDX 36 46 91 47 85 48 84 49 37 51 71 52 50 53 70 54 51 55 54 56
REMARK SMILES IDX 69 57 89 58 52 59 53 60 68 62 90 63 55 64 38 65 39 66 48 67
REMARK SMILES IDX 40 68 41 69 47 70 49 71 42 72 43 73 44 74 45 75 46 76 72 77
REMARK SMILES IDX 73 78 82 79 74 80 75 81 81 82 83 83 76 84 77 85 78 86 79 87
REMARK SMILES IDX 80 88 56 89 57 90 66 91 58 92 59 93 65 94 67 95 60 96 61 97
REMARK SMILES IDX 62 98 63 99 64 100
REMARK H PARENT 19 6 11 14 26 31 88 50 54 61
REMARK Flexibility Score: inf
ROOT
ATOM      1  C   UNL     1      -2.116  -0.537   0.366  1.00  0.00     0.021 C 
ENDROOT
BRANCH   1   2
ATOM      2  C   UNL     1      -1.556  -0.009  -0.956  1.00  0.00     0.116 C 
BRANCH   2   3
ATOM      3  N   UNL     1      -2.603   0.285  -1.916  1.00  0.00    -0.354 N 
ATOM      4  C   UNL     1      -2.895   1.475  -2.519  1.00  0.00     0.246 C 
ATOM      5  O   UNL     1      -3.819   1.526  -3.332  1.00  0.00    -0.272 OA
ATOM      6  H   UNL     1      -3.179  -0.473  -2.166  1.00  0.00     0.163 HD
BRANCH   4   7
ATOM      7  C   UNL     1      -2.060   2.711  -2.174  1.00  0.00     0.260 C 
BRANCH   7   8
ATOM      8  O   UNL     1      -2.056   3.028  -0.793  1.00  0.00    -0.362 OA
BRANCH   8   9
ATOM      9  C   UNL     1      -3.266   3.597  -0.336  1.00  0.00     0.261 C 
BRANCH   9  10
ATOM     10  C   UNL     1      -3.152   5.085  -0.069  1.00  0.00     0.254 C 
ATOM     11  C   UNL     1      -0.797   5.289   0.981  1.00  0.00     0.324 C 
ATOM     12  O   UNL     1       0.078   6.136   0.768  1.00  0.00    -0.248 OA
ATOM     13  N   UNL     1      -2.072   5.627   0.601  1.00  0.00    -0.276 N 
ATOM     14  H   UNL     1      -2.282   6.541   0.899  1.00  0.00     0.174 HD
ATOM     15  O   UNL     1      -4.034   5.858  -0.463  1.00  0.00    -0.272 OA
BRANCH  11  16
ATOM     16  N   UNL     1      -0.515   4.136   1.647  1.00  0.00    -0.324 N 
ATOM     17  C   UNL     1       0.830   2.638   2.936  1.00  0.00     0.120 C 
ATOM     18  C   UNL     1      -0.638   2.475   3.321  1.00  0.00     0.039 C 
ATOM     19  C   UNL     1       0.852   3.922   2.120  1.00  0.00     0.136 C 
ATOM     20  C   UNL     1      -1.388   3.096   2.151  1.00  0.00     0.122 C 
BRANCH  17  21
ATOM     21  C   UNL     1       1.353   1.406   2.231  1.00  0.00     0.310 C 
ATOM     22  O   UNL     1       1.721   0.408   2.841  1.00  0.00    -0.252 OA
BRANCH  21  23
ATOM     23  O   UNL     1       1.301   1.496   0.878  1.00  0.00    -0.469 OA
ATOM     24  C   UNL     1       1.807   0.345   0.196  1.00  0.00     0.282 C 
ENDBRANCH  21  23
ENDBRANCH  17  21
ENDBRANCH  11  16
ENDBRANCH   9  10
ENDBRANCH   8   9
ENDBRANCH   7   8
ENDBRANCH   4   7
ENDBRANCH   2   3
ENDBRANCH   1   2
BRANCH   1  25
ATOM     25  C   UNL     1      -2.925  -1.834   0.244  1.00  0.00     0.002 C 
BRANCH  25  26
ATOM     26  C   UNL     1      -2.202  -2.994  -0.447  1.00  0.00     0.002 C 
BRANCH  26  27
ATOM     27  C   UNL     1      -0.907  -3.449   0.230  1.00  0.00     0.021 C 
BRANCH  27  28
ATOM     28  C   UNL     1      -1.072  -3.945   1.663  1.00  0.00     0.116 C 
BRANCH  28  29
ATOM     29  N   UNL     1      -1.954  -5.099   1.749  1.00  0.00    -0.352 N 
ATOM     30  C   UNL     1      -1.731  -6.335   2.306  1.00  0.00     0.251 C 
ATOM     31  H   UNL     1      -2.844  -4.975   1.347  1.00  0.00     0.163 HD
ATOM     32  O   UNL     1      -2.530  -7.244   2.108  1.00  0.00    -0.269 OA
BRANCH  30  33
ATOM     33  C   UNL     1      -0.522  -6.573   3.125  1.00  0.00     0.039 A 
ATOM     34  C   UNL     1       0.191  -7.761   2.947  1.00  0.00     0.014 A 
ATOM     35  C   UNL     1      -0.098  -5.637   4.072  1.00  0.00     0.014 A 
ATOM     36  C   UNL     1       1.363  -7.982   3.676  1.00  0.00     0.010 A 
ATOM     37  C   UNL     1       1.110  -5.824   4.741  1.00  0.00     0.010 A 
ATOM     38  C   UNL     1       1.852  -6.999   4.552  1.00  0.00    -0.014 A 
BRANCH  38  39
ATOM     39  C   UNL     1       3.140  -7.182   5.272  1.00  0.00     0.031 A 
ATOM     40  C   UNL     1       3.167  -7.242   6.776  1.00  0.00     0.074 A 
ATOM     41  C   UNL     1       4.291  -7.232   4.573  1.00  0.00     0.049 A 
ATOM     42  N   UNL     1       4.195  -7.337   7.580  1.00  0.00    -0.248 NA
ATOM     43  C   UNL     1       1.871  -7.161   7.469  1.00  0.00     0.031 C 
ATOM     44  C   UNL     1       4.400  -7.138   3.115  1.00  0.00     0.029 A 
ATOM     45  N   UNL     1       5.592  -7.365   4.993  1.00  0.00    -0.354 N 
ATOM     46  C   UNL     1       3.674  -7.316   8.869  1.00  0.00     0.074 A 
ATOM     47  C   UNL     1       2.243  -7.144   8.741  1.00  0.00     0.031 C 
ATOM     48  C   UNL     1       5.691  -7.239   2.762  1.00  0.00     0.029 A 
ATOM     49  C   UNL     1       6.507  -7.361   3.966  1.00  0.00     0.049 A 
ATOM     50  H   UNL     1       5.845  -7.456   5.940  1.00  0.00     0.167 HD
ATOM     51  C   UNL     1       4.325  -7.451  10.049  1.00  0.00     0.037 A 
ATOM     52  C   UNL     1       7.852  -7.435   3.990  1.00  0.00     0.037 A 
ATOM     53  C   UNL     1       5.749  -7.638  10.167  1.00  0.00     0.049 A 
ATOM     54  C   UNL     1       8.555  -7.570   5.315  1.00  0.00     0.074 A 
ATOM     55  C   UNL     1       6.497  -7.839  11.313  1.00  0.00     0.029 A 
ATOM     56  N   UNL     1       6.640  -7.640   9.103  1.00  0.00    -0.354 N 
ATOM     57  N   UNL     1       8.039  -7.616   6.521  1.00  0.00    -0.248 NA
ATOM     58  C   UNL     1      10.020  -7.669   5.284  1.00  0.00     0.031 C 
ATOM     59  C   UNL     1       7.846  -7.908  10.949  1.00  0.00     0.029 A 
ATOM     60  C   UNL     1       7.934  -7.813   9.570  1.00  0.00     0.049 A 
ATOM     61  H   UNL     1       6.391  -7.534   8.157  1.00  0.00     0.167 HD
ATOM     62  C   UNL     1       9.114  -7.780   7.388  1.00  0.00     0.074 A 
ATOM     63  C   UNL     1      10.306  -7.838   6.567  1.00  0.00     0.031 C 
ATOM     64  C   UNL     1       9.113  -7.876   8.741  1.00  0.00     0.037 A 
BRANCH  51  65
ATOM     65  C   UNL     1       3.505  -7.401  11.311  1.00  0.00     0.058 A 
ATOM     66  C   UNL     1       2.608  -8.427  11.651  1.00  0.00     0.135 A 
ATOM     67  C   UNL     1       3.648  -6.335  12.214  1.00  0.00     0.135 A 
ATOM     68  F   UNL     1       2.420  -9.464  10.819  1.00  0.00    -0.206 F 
ATOM     69  C   UNL     1       1.860  -8.383  12.823  1.00  0.00     0.059 A 
ATOM     70  C   UNL     1       2.933  -6.285  13.408  1.00  0.00     0.059 A 
ATOM     71  F   UNL     1       4.491  -5.326  11.943  1.00  0.00    -0.206 F 
ATOM     72  C   UNL     1       2.030  -7.307  13.696  1.00  0.00     0.060 A 
BRANCH  72  73
ATOM     73  S   UNL     1       1.056  -7.270  15.215  1.00  0.00     0.124 S 
ATOM     74  O   UNL     1      -0.279  -6.981  14.697  1.00  0.00    -0.237 OA
ATOM     75  O   UNL     1       1.252  -8.615  15.745  1.00  0.00    -0.237 OA
ATOM     76  O   UNL     1       1.672  -6.197  15.990  1.00  0.00    -0.744 OA
ENDBRANCH  72  73
ENDBRANCH  51  65
BRANCH  52  77
ATOM     77  C   UNL     1       8.623  -7.400   2.717  1.00  0.00     0.058 A 
ATOM     78  C   UNL     1       9.302  -8.536   2.251  1.00  0.00     0.135 A 
ATOM     79  C   UNL     1       8.687  -6.236   1.936  1.00  0.00     0.135 A 
ATOM     80  F   UNL     1       9.277  -9.672   2.965  1.00  0.00    -0.206 F 
ATOM     81  C   UNL     1      10.032  -8.515   1.067  1.00  0.00     0.059 A 
ATOM     82  C   UNL     1       9.386  -6.199   0.733  1.00  0.00     0.059 A 
ATOM     83  F   UNL     1       8.041  -5.126   2.327  1.00  0.00    -0.206 F 
ATOM     84  C   UNL     1      10.065  -7.341   0.313  1.00  0.00     0.060 A 
BRANCH  84  85
ATOM     85  S   UNL     1      10.976  -7.339  -1.247  1.00  0.00     0.124 S 
ATOM     86  O   UNL     1      12.357  -7.370  -0.780  1.00  0.00    -0.237 OA
ATOM     87  O   UNL     1      10.489  -8.557  -1.886  1.00  0.00    -0.237 OA
ATOM     88  O   UNL     1      10.551  -6.095  -1.881  1.00  0.00    -0.744 OA
ENDBRANCH  84  85
ENDBRANCH  52  77
BRANCH  64  89
ATOM     89  C   UNL     1      10.437  -8.093   9.423  1.00  0.00     0.058 A 
ATOM     90  C   UNL     1      11.406  -7.081   9.503  1.00  0.00     0.135 A 
ATOM     91  C   UNL     1      10.718  -9.319  10.051  1.00  0.00     0.135 A 
ATOM     92  F   UNL     1      11.192  -5.893   8.916  1.00  0.00    -0.206 F 
ATOM     93  C   UNL     1      12.616  -7.284  10.159  1.00  0.00     0.059 A 
ATOM     94  C   UNL     1      11.908  -9.532  10.739  1.00  0.00     0.059 A 
ATOM     95  F   UNL     1       9.822 -10.318  10.014  1.00  0.00    -0.206 F 
ATOM     96  C   UNL     1      12.857  -8.512  10.777  1.00  0.00     0.060 A 
BRANCH  96  97
ATOM     97  S   UNL     1      14.417  -8.749  11.652  1.00  0.00     0.124 S 
ATOM     98  O   UNL     1      15.363  -8.853  10.545  1.00  0.00    -0.237 OA
ATOM     99  O   UNL     1      14.512  -7.534  12.455  1.00  0.00    -0.237 OA
ATOM    100  O   UNL     1      14.200  -9.979  12.409  1.00  0.00    -0.744 OA
ENDBRANCH  96  97
ENDBRANCH  64  89
ENDBRANCH  38  39
ENDBRANCH  30  33
ENDBRANCH  28  29
ENDBRANCH  27  28
ENDBRANCH  26  27
ENDBRANCH  25  26
ENDBRANCH   1  25
TORSDOF 22
