REMARK SMILES O=C(NCCCCCCNC(=O)c1ccccc1/C=N\NC(=S)NCc1ccccc1)c1ccc(-c2c3nc(c(-c4c(F)cc(S(=O)(=O)[O-])cc4F)c4ccc([nH]4)c(-c4c(F)cc(S(=O)(=O)[O-])cc4F)c4nc(c(-c5c(F)cc(S(=O)(=O)[O-])cc5F)c5ccc2[nH]5)C=C4)C=C3)cc1
REMARK SMILES IDX 8 1 7 2 6 3 5 4 4 5 3 6 1 7 2 8 32 10 33 11 97 12 34 13
REMARK SMILES IDX 96 14 35 15 36 16 37 17 90 18 38 19 95 20 89 21 91 22 39 23
REMARK SMILES IDX 94 24 88 25 87 26 40 28 74 29 53 30 73 31 54 32 57 33 72 34
REMARK SMILES IDX 92 35 55 36 56 37 71 39 93 40 58 41 41 42 42 43 51 44 43 45
REMARK SMILES IDX 44 46 50 47 52 48 45 49 46 50 47 51 48 52 49 53 75 54 76 55
REMARK SMILES IDX 85 56 77 57 78 58 84 59 86 60 79 61 80 62 81 63 82 64 83 65
REMARK SMILES IDX 59 66 60 67 69 68 61 69 62 70 68 71 70 72 63 73 64 74 65 75
REMARK SMILES IDX 66 76 67 77 9 78 10 79 11 80 12 82 13 83 14 84 18 85 15 86
REMARK SMILES IDX 17 87 16 88 19 89 20 90 21 91 22 93 23 94 24 95 25 97 26 98
REMARK SMILES IDX 27 99 31 100 28 101 30 102 29 103
REMARK H PARENT 3 9 91 27 57 38 10 81 21 92 24 96
REMARK Flexibility Score: inf
ROOT
ATOM      1  C   UNL     1       5.938   3.894  -3.079  1.00  0.00     0.021 C 
ENDROOT
BRANCH   1   2
ATOM      2  C   UNL     1       4.432   3.789  -2.828  1.00  0.00     0.002 C 
BRANCH   2   3
ATOM      3  C   UNL     1       3.794   2.432  -3.154  1.00  0.00     0.002 C 
BRANCH   3   4
ATOM      4  C   UNL     1       4.468   1.213  -2.517  1.00  0.00     0.021 C 
BRANCH   4   5
ATOM      5  C   UNL     1       4.379   1.169  -0.998  1.00  0.00     0.116 C 
BRANCH   5   6
ATOM      6  N   UNL     1       3.001   1.054  -0.540  1.00  0.00    -0.352 N 
ATOM      7  O   UNL     1       1.158   0.005   0.219  1.00  0.00    -0.269 OA
ATOM      8  C   UNL     1       2.382   0.028   0.132  1.00  0.00     0.251 C 
ATOM      9  H   UNL     1       2.427   1.828  -0.743  1.00  0.00     0.163 HD
BRANCH   8  10
ATOM     10  C   UNL     1       3.194  -1.044   0.748  1.00  0.00     0.039 A 
ATOM     11  C   UNL     1       4.376  -0.729   1.418  1.00  0.00     0.014 A 
ATOM     12  C   UNL     1       2.759  -2.372   0.683  1.00  0.00     0.014 A 
ATOM     13  C   UNL     1       5.194  -1.744   1.890  1.00  0.00     0.010 A 
ATOM     14  C   UNL     1       3.534  -3.387   1.256  1.00  0.00     0.010 A 
ATOM     15  C   UNL     1       4.769  -3.083   1.847  1.00  0.00    -0.014 A 
BRANCH  15  16
ATOM     16  C   UNL     1       5.604  -4.107   2.525  1.00  0.00     0.031 A 
ATOM     17  C   UNL     1       6.262  -5.222   1.762  1.00  0.00     0.074 A 
ATOM     18  C   UNL     1       5.815  -3.969   3.850  1.00  0.00     0.049 A 
ATOM     19  N   UNL     1       7.078  -6.146   2.205  1.00  0.00    -0.248 NA
ATOM     20  C   UNL     1       5.968  -5.324   0.324  1.00  0.00     0.031 C 
ATOM     21  C   UNL     1       5.201  -2.937   4.694  1.00  0.00     0.029 A 
ATOM     22  N   UNL     1       6.620  -4.663   4.715  1.00  0.00    -0.354 N 
ATOM     23  C   UNL     1       7.392  -6.939   1.108  1.00  0.00     0.074 A 
ATOM     24  C   UNL     1       6.653  -6.408  -0.018  1.00  0.00     0.031 C 
ATOM     25  C   UNL     1       5.698  -3.027   5.935  1.00  0.00     0.029 A 
ATOM     26  C   UNL     1       6.606  -4.164   5.996  1.00  0.00     0.049 A 
ATOM     27  H   UNL     1       7.155  -5.444   4.445  1.00  0.00     0.167 HD
ATOM     28  C   UNL     1       8.230  -8.003   1.048  1.00  0.00     0.037 A 
ATOM     29  C   UNL     1       7.239  -4.584   7.107  1.00  0.00     0.037 A 
ATOM     30  C   UNL     1       8.962  -8.519   2.180  1.00  0.00     0.049 A 
ATOM     31  C   UNL     1       8.150  -5.773   7.010  1.00  0.00     0.074 A 
ATOM     32  C   UNL     1       9.843  -9.587   2.220  1.00  0.00     0.029 A 
ATOM     33  N   UNL     1       8.902  -8.007   3.468  1.00  0.00    -0.354 N 
ATOM     34  N   UNL     1       8.451  -6.494   5.957  1.00  0.00    -0.248 NA
ATOM     35  C   UNL     1       8.805  -6.207   8.249  1.00  0.00     0.031 C 
ATOM     36  C   UNL     1      10.283  -9.745   3.539  1.00  0.00     0.029 A 
ATOM     37  C   UNL     1       9.717  -8.745   4.313  1.00  0.00     0.049 A 
ATOM     38  H   UNL     1       8.360  -7.232   3.743  1.00  0.00     0.167 HD
ATOM     39  C   UNL     1       9.335  -7.467   6.406  1.00  0.00     0.074 A 
ATOM     40  C   UNL     1       9.549  -7.215   7.817  1.00  0.00     0.031 C 
ATOM     41  C   UNL     1       9.909  -8.484   5.717  1.00  0.00     0.037 A 
BRANCH  28  42
ATOM     42  C   UNL     1       8.408  -8.690  -0.279  1.00  0.00     0.058 A 
ATOM     43  C   UNL     1       9.139  -8.098  -1.321  1.00  0.00     0.135 A 
ATOM     44  C   UNL     1       7.914  -9.989  -0.485  1.00  0.00     0.135 A 
ATOM     45  F   UNL     1       9.621  -6.852  -1.185  1.00  0.00    -0.206 F 
ATOM     46  C   UNL     1       9.367  -8.764  -2.522  1.00  0.00     0.059 A 
ATOM     47  C   UNL     1       8.150 -10.684  -1.669  1.00  0.00     0.059 A 
ATOM     48  F   UNL     1       7.207 -10.603   0.476  1.00  0.00    -0.206 F 
ATOM     49  C   UNL     1       8.874 -10.060  -2.684  1.00  0.00     0.060 A 
BRANCH  49  50
ATOM     50  S   UNL     1       9.212 -10.922  -4.235  1.00  0.00     0.124 S 
ATOM     51  O   UNL     1       8.356 -10.192  -5.166  1.00  0.00    -0.237 OA
ATOM     52  O   UNL     1      10.647 -10.715  -4.399  1.00  0.00    -0.237 OA
ATOM     53  O   UNL     1       8.806 -12.296  -3.957  1.00  0.00    -0.744 OA
ENDBRANCH  49  50
ENDBRANCH  28  42
BRANCH  29  54
ATOM     54  C   UNL     1       7.004  -3.894   8.403  1.00  0.00     0.058 A 
ATOM     55  C   UNL     1       8.023  -3.176   9.045  1.00  0.00     0.135 A 
ATOM     56  C   UNL     1       5.746  -3.941   9.024  1.00  0.00     0.135 A 
ATOM     57  F   UNL     1       9.243  -3.100   8.491  1.00  0.00    -0.206 F 
ATOM     58  C   UNL     1       7.812  -2.554  10.271  1.00  0.00     0.059 A 
ATOM     59  C   UNL     1       5.501  -3.298  10.232  1.00  0.00     0.059 A 
ATOM     60  F   UNL     1       4.730  -4.596   8.440  1.00  0.00    -0.206 F 
ATOM     61  C   UNL     1       6.547  -2.623  10.857  1.00  0.00     0.060 A 
BRANCH  61  62
ATOM     62  S   UNL     1       6.273  -1.797  12.438  1.00  0.00     0.124 S 
ATOM     63  O   UNL     1       6.941  -2.706  13.362  1.00  0.00    -0.237 OA
ATOM     64  O   UNL     1       6.922  -0.506  12.228  1.00  0.00    -0.237 OA
ATOM     65  O   UNL     1       4.817  -1.747  12.542  1.00  0.00    -0.744 OA
ENDBRANCH  61  62
ENDBRANCH  29  54
BRANCH  41  66
ATOM     66  C   UNL     1      10.834  -9.384   6.488  1.00  0.00     0.058 A 
ATOM     67  C   UNL     1      10.349 -10.285   7.450  1.00  0.00     0.135 A 
ATOM     68  C   UNL     1      12.219  -9.344   6.265  1.00  0.00     0.135 A 
ATOM     69  F   UNL     1       9.034 -10.357   7.707  1.00  0.00    -0.206 F 
ATOM     70  C   UNL     1      11.210 -11.084   8.195  1.00  0.00     0.059 A 
ATOM     71  C   UNL     1      13.096 -10.156   6.977  1.00  0.00     0.059 A 
ATOM     72  F   UNL     1      12.733  -8.507   5.349  1.00  0.00    -0.206 F 
ATOM     73  C   UNL     1      12.583 -11.008   7.955  1.00  0.00     0.060 A 
BRANCH  73  74
ATOM     74  S   UNL     1      13.691 -12.044   8.932  1.00  0.00     0.124 S 
ATOM     75  O   UNL     1      13.684 -11.350  10.216  1.00  0.00    -0.237 OA
ATOM     76  O   UNL     1      13.014 -13.337   8.906  1.00  0.00    -0.237 OA
ATOM     77  O   UNL     1      14.948 -11.987   8.193  1.00  0.00    -0.744 OA
ENDBRANCH  73  74
ENDBRANCH  41  66
ENDBRANCH  15  16
ENDBRANCH   8  10
ENDBRANCH   5   6
ENDBRANCH   4   5
ENDBRANCH   3   4
ENDBRANCH   2   3
ENDBRANCH   1   2
BRANCH   1  78
ATOM     78  C   UNL     1       6.407   3.358  -4.432  1.00  0.00     0.116 C 
BRANCH  78  79
ATOM     79  N   UNL     1       6.450   4.328  -5.518  1.00  0.00    -0.352 N 
ATOM     80  C   UNL     1       7.468   4.744  -6.354  1.00  0.00     0.251 C 
ATOM     81  H   UNL     1       5.588   4.772  -5.688  1.00  0.00     0.163 HD
ATOM     82  O   UNL     1       7.220   5.524  -7.269  1.00  0.00    -0.269 OA
BRANCH  80  83
ATOM     83  C   UNL     1       8.886   4.462  -6.036  1.00  0.00     0.048 A 
ATOM     84  C   UNL     1       9.873   5.963  -5.753  1.00  0.00     0.014 A 
ATOM     85  C   UNL     1       9.382   2.915  -5.251  1.00  0.00     0.007 A 
ATOM     86  C   UNL     1      11.348   5.904  -4.699  1.00  0.00     0.001 A 
ATOM     87  C   UNL     1      10.875   2.841  -4.190  1.00  0.00     0.010 A 
ATOM     88  C   UNL     1      11.860   4.337  -3.947  1.00  0.00     0.001 A 
BRANCH  85  89
ATOM     89  C   UNL     1       9.080   1.709  -5.960  1.00  0.00     0.142 C 
ATOM     90  N   UNL     1      10.004   1.202  -6.693  1.00  0.00    -0.181 NA
BRANCH  90  91
ATOM     91  N   UNL     1      11.157   1.935  -6.859  1.00  0.00    -0.254 N 
ATOM     92  H   UNL     1      11.915   1.404  -7.195  1.00  0.00     0.193 HD
BRANCH  91  93
ATOM     93  C   UNL     1      11.460   3.248  -6.653  1.00  0.00     0.187 C 
ATOM     94  S   UNL     1      12.712   3.857  -7.614  1.00  0.00    -0.039 S 
BRANCH  93  95
ATOM     95  N   UNL     1      10.890   4.160  -5.729  1.00  0.00    -0.357 N 
ATOM     96  H   UNL     1      11.214   5.037  -6.040  1.00  0.00     0.163 HD
BRANCH  95  97
ATOM     97  C   UNL     1       9.732   4.628  -4.064  1.00  0.00     0.151 C 
BRANCH  97  98
ATOM     98  C   UNL     1       9.953   5.353  -2.581  1.00  0.00    -0.029 A 
ATOM     99  C   UNL     1       9.598   6.710  -2.415  1.00  0.00     0.005 A 
ATOM    100  C   UNL     1       9.982   4.520  -1.442  1.00  0.00     0.005 A 
ATOM    101  C   UNL     1       9.251   7.202  -1.157  1.00  0.00     0.000 A 
ATOM    102  C   UNL     1       9.617   5.018  -0.192  1.00  0.00     0.000 A 
ATOM    103  C   UNL     1       9.237   6.351  -0.053  1.00  0.00     0.000 A 
ENDBRANCH  97  98
ENDBRANCH  95  97
ENDBRANCH  93  95
ENDBRANCH  91  93
ENDBRANCH  90  91
ENDBRANCH  85  89
ENDBRANCH  80  83
ENDBRANCH  78  79
ENDBRANCH   1  78
TORSDOF 22
