REMARK SMILES C[C@@](O)(c1ccc(Cl)cc1Cl)[C@@H](F)C(=O)NCCCCCCNC(=O)c1ccc(-c2c3nc(c(-c4c(F)cc(S(=O)(=O)[O-])cc4F)c4ccc([nH]4)c(-c4c(F)cc(S(=O)(=O)[O-])cc4F)c4nc(c(-c5c(F)cc(S(=O)(=O)[O-])cc5F)c5ccc2[nH]5)C=C4)C=C3)cc1
REMARK SMILES IDX 20 1 19 2 18 3 17 4 16 5 14 6 15 7 12 9 13 10 2 11 1 12 3 13
REMARK SMILES IDX 4 15 5 16 10 17 6 18 9 19 11 20 7 21 8 22 21 23 22 24 23 25
REMARK SMILES IDX 24 26 25 28 26 29 27 30 91 31 28 32 90 33 29 34 30 35 31 36
REMARK SMILES IDX 84 37 32 38 89 39 83 40 85 41 33 42 88 43 82 44 81 45 34 47
REMARK SMILES IDX 68 48 47 49 67 50 48 51 51 52 66 53 86 54 49 55 50 56 65 58
REMARK SMILES IDX 87 59 52 60 35 61 36 62 45 63 37 64 38 65 44 66 46 67 39 68
REMARK SMILES IDX 40 69 41 70 42 71 43 72 69 73 70 74 79 75 71 76 72 77 78 78
REMARK SMILES IDX 80 79 73 80 74 81 75 82 76 83 77 84 53 85 54 86 63 87 55 88
REMARK SMILES IDX 56 89 62 90 64 91 57 92 58 93 59 94 60 95 61 96
REMARK H PARENT 16 8 3 14 23 27 85 46 51 57
REMARK Flexibility Score: inf
ROOT
ATOM      1  C   UNL     1       5.388   2.965  -0.072  1.00  0.00     0.002 C 
ENDROOT
BRANCH   1   2
ATOM      2  C   UNL     1       4.990   1.558   0.380  1.00  0.00     0.002 C 
BRANCH   2   3
ATOM      3  C   UNL     1       3.498   1.242   0.257  1.00  0.00     0.021 C 
BRANCH   3   4
ATOM      4  C   UNL     1       2.993   1.145  -1.184  1.00  0.00     0.116 C 
BRANCH   4   5
ATOM      5  N   UNL     1       3.290  -0.168  -1.730  1.00  0.00    -0.353 N 
ATOM      6  C   UNL     1       2.441  -1.184  -2.057  1.00  0.00     0.257 C 
ATOM      7  O   UNL     1       2.937  -2.301  -2.245  1.00  0.00    -0.272 OA
ATOM      8  H   UNL     1       4.244  -0.351  -1.888  1.00  0.00     0.163 HD
BRANCH   6   9
ATOM      9  C   UNL     1       0.924  -0.993  -2.116  1.00  0.00     0.291 C 
ATOM     10  F   UNL     1       0.586   0.273  -2.469  1.00  0.00    -0.233 F 
BRANCH   9  11
ATOM     11  C   UNL     1       0.215  -1.469  -0.812  1.00  0.00     0.128 C 
ATOM     12  C   UNL     1       0.714  -0.821   0.484  1.00  0.00     0.051 C 
BRANCH  11  13
ATOM     13  O   UNL     1       0.521  -2.882  -0.632  1.00  0.00    -0.382 OA
ATOM     14  H   UNL     1       0.091  -3.205   0.175  1.00  0.00     0.212 HD
ENDBRANCH  11  13
BRANCH  11  15
ATOM     15  C   UNL     1      -1.325  -1.349  -0.908  1.00  0.00     0.005 A 
ATOM     16  C   UNL     1      -2.096  -2.536  -0.953  1.00  0.00     0.010 A 
ATOM     17  C   UNL     1      -2.045  -0.131  -0.909  1.00  0.00     0.048 A 
ATOM     18  C   UNL     1      -3.493  -2.518  -0.977  1.00  0.00     0.021 A 
ATOM     19  C   UNL     1      -3.449  -0.116  -0.953  1.00  0.00     0.041 A 
ATOM     20  Cl  UNL     1      -1.313   1.433  -0.815  1.00  0.00    -0.084 Cl
ATOM     21  C   UNL     1      -4.164  -1.306  -0.978  1.00  0.00     0.042 A 
ATOM     22  Cl  UNL     1      -5.883  -1.278  -0.996  1.00  0.00    -0.084 Cl
ENDBRANCH  11  15
ENDBRANCH   9  11
ENDBRANCH   6   9
ENDBRANCH   4   5
ENDBRANCH   3   4
ENDBRANCH   2   3
ENDBRANCH   1   2
BRANCH   1  23
ATOM     23  C   UNL     1       4.603   4.109   0.578  1.00  0.00     0.021 C 
BRANCH  23  24
ATOM     24  C   UNL     1       4.571   4.092   2.105  1.00  0.00     0.116 C 
BRANCH  24  25
ATOM     25  N   UNL     1       5.904   4.163   2.681  1.00  0.00    -0.352 N 
ATOM     26  C   UNL     1       6.431   5.086   3.544  1.00  0.00     0.251 C 
ATOM     27  H   UNL     1       6.516   3.441   2.412  1.00  0.00     0.163 HD
ATOM     28  O   UNL     1       7.645   5.092   3.763  1.00  0.00    -0.269 OA
BRANCH  26  29
ATOM     29  C   UNL     1       5.558   6.082   4.198  1.00  0.00     0.039 A 
ATOM     30  C   UNL     1       5.970   7.416   4.238  1.00  0.00     0.014 A 
ATOM     31  C   UNL     1       4.347   5.703   4.786  1.00  0.00     0.014 A 
ATOM     32  C   UNL     1       5.143   8.378   4.821  1.00  0.00     0.010 A 
ATOM     33  C   UNL     1       3.495   6.674   5.310  1.00  0.00     0.010 A 
ATOM     34  C   UNL     1       3.886   8.020   5.335  1.00  0.00    -0.014 A 
BRANCH  34  35
ATOM     35  C   UNL     1       2.970   9.053   5.882  1.00  0.00     0.031 A 
ATOM     36  C   UNL     1       2.612   9.066   7.342  1.00  0.00     0.074 A 
ATOM     37  C   UNL     1       2.425   9.958   5.045  1.00  0.00     0.049 A 
ATOM     38  N   UNL     1       1.839   9.897   7.995  1.00  0.00    -0.248 NA
ATOM     39  C   UNL     1       3.175   7.991   8.174  1.00  0.00     0.031 C 
ATOM     40  C   UNL     1       2.647  10.012   3.599  1.00  0.00     0.029 A 
ATOM     41  N   UNL     1       1.574  11.007   5.289  1.00  0.00    -0.354 N 
ATOM     42  C   UNL     1       1.813   9.441   9.308  1.00  0.00     0.074 A 
ATOM     43  C   UNL     1       2.608   8.232   9.348  1.00  0.00     0.031 C 
ATOM     44  C   UNL     1       1.980  11.059   3.090  1.00  0.00     0.029 A 
ATOM     45  C   UNL     1       1.261  11.735   4.165  1.00  0.00     0.049 A 
ATOM     46  H   UNL     1       1.221  11.217   6.183  1.00  0.00     0.167 HD
ATOM     47  C   UNL     1       1.201   9.991  10.384  1.00  0.00     0.037 A 
ATOM     48  C   UNL     1       0.489  12.828   4.019  1.00  0.00     0.037 A 
ATOM     49  C   UNL     1       0.430  11.207  10.341  1.00  0.00     0.049 A 
ATOM     50  C   UNL     1      -0.166  13.430   5.230  1.00  0.00     0.074 A 
ATOM     51  C   UNL     1      -0.163  11.889  11.389  1.00  0.00     0.029 A 
ATOM     52  N   UNL     1       0.137  11.918   9.186  1.00  0.00    -0.354 N 
ATOM     53  N   UNL     1      -0.112  13.034   6.480  1.00  0.00    -0.248 NA
ATOM     54  C   UNL     1      -0.982  14.632   5.013  1.00  0.00     0.031 C 
ATOM     55  C   UNL     1      -0.850  12.990  10.862  1.00  0.00     0.029 A 
ATOM     56  C   UNL     1      -0.650  13.017   9.491  1.00  0.00     0.049 A 
ATOM     57  H   UNL     1       0.444  11.678   8.282  1.00  0.00     0.167 HD
ATOM     58  C   UNL     1      -0.872  13.947   7.201  1.00  0.00     0.074 A 
ATOM     59  C   UNL     1      -1.360  14.926   6.249  1.00  0.00     0.031 C 
ATOM     60  C   UNL     1      -1.141  13.974   8.530  1.00  0.00     0.037 A 
BRANCH  47  61
ATOM     61  C   UNL     1       1.340   9.274  11.701  1.00  0.00     0.058 A 
ATOM     62  C   UNL     1       2.562   9.232  12.393  1.00  0.00     0.135 A 
ATOM     63  C   UNL     1       0.237   8.631  12.284  1.00  0.00     0.135 A 
ATOM     64  F   UNL     1       3.652   9.820  11.876  1.00  0.00    -0.206 F 
ATOM     65  C   UNL     1       2.695   8.543  13.594  1.00  0.00     0.059 A 
ATOM     66  C   UNL     1       0.340   7.958  13.498  1.00  0.00     0.059 A 
ATOM     67  F   UNL     1      -0.956   8.641  11.668  1.00  0.00    -0.206 F 
ATOM     68  C   UNL     1       1.579   7.903  14.136  1.00  0.00     0.060 A 
BRANCH  68  69
ATOM     69  S   UNL     1       1.770   6.994  15.684  1.00  0.00     0.124 S 
ATOM     70  O   UNL     1       2.468   5.795  15.232  1.00  0.00    -0.237 OA
ATOM     71  O   UNL     1       2.558   7.917  16.495  1.00  0.00    -0.237 OA
ATOM     72  O   UNL     1       0.396   6.790  16.130  1.00  0.00    -0.744 OA
ENDBRANCH  68  69
ENDBRANCH  47  61
BRANCH  48  73
ATOM     73  C   UNL     1       0.337  13.448   2.677  1.00  0.00     0.058 A 
ATOM     74  C   UNL     1       0.971  14.661   2.373  1.00  0.00     0.135 A 
ATOM     75  C   UNL     1      -0.409  12.826   1.665  1.00  0.00     0.135 A 
ATOM     76  F   UNL     1       1.690  15.296   3.311  1.00  0.00    -0.206 F 
ATOM     77  C   UNL     1       0.868  15.241   1.113  1.00  0.00     0.059 A 
ATOM     78  C   UNL     1      -0.509  13.375   0.390  1.00  0.00     0.059 A 
ATOM     79  F   UNL     1      -1.021  11.655   1.903  1.00  0.00    -0.206 F 
ATOM     80  C   UNL     1       0.129  14.586   0.125  1.00  0.00     0.060 A 
BRANCH  80  81
ATOM     81  S   UNL     1       0.063  15.309  -1.528  1.00  0.00     0.124 S 
ATOM     82  O   UNL     1      -0.850  16.428  -1.323  1.00  0.00    -0.237 OA
ATOM     83  O   UNL     1       1.460  15.659  -1.767  1.00  0.00    -0.237 OA
ATOM     84  O   UNL     1      -0.450  14.217  -2.350  1.00  0.00    -0.744 OA
ENDBRANCH  80  81
ENDBRANCH  48  73
BRANCH  60  85
ATOM     85  C   UNL     1      -1.996  15.105   9.031  1.00  0.00     0.058 A 
ATOM     86  C   UNL     1      -3.374  15.156   8.768  1.00  0.00     0.135 A 
ATOM     87  C   UNL     1      -1.435  16.140   9.797  1.00  0.00     0.135 A 
ATOM     88  F   UNL     1      -3.958  14.195   8.035  1.00  0.00    -0.206 F 
ATOM     89  C   UNL     1      -4.161  16.210   9.219  1.00  0.00     0.059 A 
ATOM     90  C   UNL     1      -2.208  17.191  10.280  1.00  0.00     0.059 A 
ATOM     91  F   UNL     1      -0.124  16.134  10.086  1.00  0.00    -0.206 F 
ATOM     92  C   UNL     1      -3.567  17.226   9.971  1.00  0.00     0.060 A 
BRANCH  92  93
ATOM     93  S   UNL     1      -4.599  18.587  10.557  1.00  0.00     0.124 S 
ATOM     94  O   UNL     1      -4.763  19.376   9.341  1.00  0.00    -0.237 OA
ATOM     95  O   UNL     1      -5.794  17.895  11.030  1.00  0.00    -0.237 OA
ATOM     96  O   UNL     1      -3.785  19.203  11.601  1.00  0.00    -0.744 OA
ENDBRANCH  92  93
ENDBRANCH  60  85
ENDBRANCH  34  35
ENDBRANCH  26  29
ENDBRANCH  24  25
ENDBRANCH  23  24
ENDBRANCH   1  23
TORSDOF 19
