REMARK SMILES COc1ccc(Br)cc1S(=O)(=O)N(C)CC(=O)NCCCCCCNC(=O)c1ccc(-c2c3nc(c(-c4c(F)cc(S(=O)(=O)[O-])cc4F)c4ccc([nH]4)c(-c4c(F)cc(S(=O)(=O)[O-])cc4F)c4nc(c(-c5c(F)cc(S(=O)(=O)[O-])cc5F)c5ccc2[nH]5)C=C4)C=C3)cc1
REMARK SMILES IDX 21 1 20 2 19 3 18 4 16 5 17 6 15 8 13 9 14 10 10 11 11 12
REMARK SMILES IDX 12 13 9 14 3 15 4 16 5 17 8 18 6 19 7 20 2 21 1 22 22 23
REMARK SMILES IDX 23 24 24 25 25 26 26 27 27 29 28 30 29 31 93 32 30 33 92 34
REMARK SMILES IDX 31 35 32 36 33 37 86 38 34 39 91 40 85 41 87 42 35 43 90 44
REMARK SMILES IDX 84 45 83 46 36 48 70 49 49 50 69 51 50 52 53 53 68 54 88 55
REMARK SMILES IDX 51 56 52 57 67 59 89 60 54 61 37 62 38 63 47 64 39 65 40 66
REMARK SMILES IDX 46 67 48 68 41 69 42 70 43 71 44 72 45 73 71 74 72 75 81 76
REMARK SMILES IDX 73 77 74 78 80 79 82 80 75 81 76 82 77 83 78 84 79 85 55 86
REMARK SMILES IDX 56 87 65 88 57 89 58 90 64 91 66 92 59 93 60 94 61 95 62 96
REMARK SMILES IDX 63 97
REMARK H PARENT 18 7 25 28 87 47 53 58
REMARK Flexibility Score: inf
ROOT
ATOM      1  C   UNL     1      -3.461   3.269  -1.586  1.00  0.00     0.002 C 
ENDROOT
BRANCH   1   2
ATOM      2  C   UNL     1      -2.985   2.029  -0.825  1.00  0.00     0.021 C 
BRANCH   2   3
ATOM      3  C   UNL     1      -4.095   1.286  -0.073  1.00  0.00     0.116 C 
BRANCH   3   4
ATOM      4  N   UNL     1      -4.644   0.196  -0.857  1.00  0.00    -0.355 N 
ATOM      5  C   UNL     1      -4.354  -1.140  -0.870  1.00  0.00     0.235 C 
ATOM      6  O   UNL     1      -5.031  -1.851  -1.619  1.00  0.00    -0.274 OA
ATOM      7  H   UNL     1      -5.347   0.465  -1.491  1.00  0.00     0.163 HD
BRANCH   5   8
ATOM      8  C   UNL     1      -3.280  -1.747   0.037  1.00  0.00     0.202 C 
BRANCH   8   9
ATOM      9  N   UNL     1      -1.843  -1.666  -0.399  1.00  0.00    -0.191 NA
ATOM     10  C   UNL     1      -1.154  -0.511   0.179  1.00  0.00     0.125 C 
BRANCH   9  11
ATOM     11  S   UNL     1      -1.625  -2.034  -2.041  1.00  0.00     0.247 S 
ATOM     12  O   UNL     1      -2.145  -0.899  -2.783  1.00  0.00    -0.207 OA
ATOM     13  O   UNL     1      -2.177  -3.358  -2.239  1.00  0.00    -0.207 OA
BRANCH  11  14
ATOM     14  C   UNL     1       0.076  -2.157  -2.562  1.00  0.00     0.125 A 
ATOM     15  C   UNL     1       1.233  -1.967  -1.804  1.00  0.00     0.138 A 
ATOM     16  C   UNL     1       2.483  -2.019  -2.454  1.00  0.00     0.049 A 
ATOM     17  C   UNL     1       2.585  -2.233  -3.830  1.00  0.00     0.019 A 
ATOM     18  C   UNL     1       0.193  -2.403  -3.951  1.00  0.00     0.041 A 
ATOM     19  C   UNL     1       1.435  -2.434  -4.574  1.00  0.00     0.019 A 
ATOM     20  Br  UNL     1       1.556  -2.745  -6.433  1.00  0.00    -0.051 Br
BRANCH  15  21
ATOM     21  O   UNL     1       1.178  -1.804  -0.451  1.00  0.00    -0.495 OA
ATOM     22  C   UNL     1       2.120  -0.867   0.085  1.00  0.00     0.278 C 
ENDBRANCH  15  21
ENDBRANCH  11  14
ENDBRANCH   9  11
ENDBRANCH   8   9
ENDBRANCH   5   8
ENDBRANCH   3   4
ENDBRANCH   2   3
ENDBRANCH   1   2
BRANCH   1  23
ATOM     23  C   UNL     1      -3.786   4.478  -0.700  1.00  0.00     0.002 C 
BRANCH  23  24
ATOM     24  C   UNL     1      -2.634   5.007   0.166  1.00  0.00     0.021 C 
BRANCH  24  25
ATOM     25  C   UNL     1      -1.365   5.402  -0.589  1.00  0.00     0.116 C 
BRANCH  25  26
ATOM     26  N   UNL     1      -1.597   6.497  -1.516  1.00  0.00    -0.352 N 
ATOM     27  C   UNL     1      -1.046   7.755  -1.552  1.00  0.00     0.251 C 
ATOM     28  H   UNL     1      -2.251   6.309  -2.228  1.00  0.00     0.163 HD
ATOM     29  O   UNL     1      -1.533   8.608  -2.289  1.00  0.00    -0.269 OA
BRANCH  27  30
ATOM     30  C   UNL     1       0.121   8.095  -0.706  1.00  0.00     0.039 A 
ATOM     31  C   UNL     1       0.131   9.321  -0.034  1.00  0.00     0.014 A 
ATOM     32  C   UNL     1       1.226   7.243  -0.619  1.00  0.00     0.014 A 
ATOM     33  C   UNL     1       1.223   9.671   0.766  1.00  0.00     0.010 A 
ATOM     34  C   UNL     1       2.295   7.571   0.217  1.00  0.00     0.010 A 
ATOM     35  C   UNL     1       2.305   8.789   0.915  1.00  0.00    -0.014 A 
BRANCH  35  36
ATOM     36  C   UNL     1       3.456   9.127   1.792  1.00  0.00     0.031 A 
ATOM     37  C   UNL     1       4.814   9.383   1.197  1.00  0.00     0.074 A 
ATOM     38  C   UNL     1       3.294   9.144   3.130  1.00  0.00     0.049 A 
ATOM     39  N   UNL     1       5.952   9.610   1.802  1.00  0.00    -0.248 NA
ATOM     40  C   UNL     1       4.909   9.355  -0.271  1.00  0.00     0.031 C 
ATOM     41  C   UNL     1       2.038   8.873   3.833  1.00  0.00     0.029 A 
ATOM     42  N   UNL     1       4.193   9.388   4.138  1.00  0.00    -0.354 N 
ATOM     43  C   UNL     1       6.901   9.733   0.794  1.00  0.00     0.074 A 
ATOM     44  C   UNL     1       6.211   9.521  -0.461  1.00  0.00     0.031 C 
ATOM     45  C   UNL     1       2.244   8.976   5.156  1.00  0.00     0.029 A 
ATOM     46  C   UNL     1       3.649   9.294   5.397  1.00  0.00     0.049 A 
ATOM     47  H   UNL     1       5.138   9.609   3.974  1.00  0.00     0.167 HD
ATOM     48  C   UNL     1       8.222  10.012   0.903  1.00  0.00     0.037 A 
ATOM     49  C   UNL     1       4.218   9.442   6.609  1.00  0.00     0.037 A 
ATOM     50  C   UNL     1       8.900  10.259   2.149  1.00  0.00     0.049 A 
ATOM     51  C   UNL     1       5.678   9.786   6.703  1.00  0.00     0.074 A 
ATOM     52  C   UNL     1      10.226  10.601   2.356  1.00  0.00     0.029 A 
ATOM     53  N   UNL     1       8.304  10.197   3.399  1.00  0.00    -0.354 N 
ATOM     54  N   UNL     1       6.551   9.938   5.736  1.00  0.00    -0.248 NA
ATOM     55  C   UNL     1       6.230   9.985   8.050  1.00  0.00     0.031 C 
ATOM     56  C   UNL     1      10.436  10.725   3.734  1.00  0.00     0.029 A 
ATOM     57  C   UNL     1       9.235  10.488   4.383  1.00  0.00     0.049 A 
ATOM     58  H   UNL     1       7.359   9.979   3.564  1.00  0.00     0.167 HD
ATOM     59  C   UNL     1       7.750  10.272   6.356  1.00  0.00     0.074 A 
ATOM     60  C   UNL     1       7.488  10.307   7.781  1.00  0.00     0.031 C 
ATOM     61  C   UNL     1       8.957  10.527   5.796  1.00  0.00     0.037 A 
BRANCH  48  62
ATOM     62  C   UNL     1       9.023  10.069  -0.367  1.00  0.00     0.058 A 
ATOM     63  C   UNL     1       8.905  11.146  -1.261  1.00  0.00     0.135 A 
ATOM     64  C   UNL     1       9.933   9.049  -0.685  1.00  0.00     0.135 A 
ATOM     65  F   UNL     1       8.038  12.140  -1.010  1.00  0.00    -0.206 F 
ATOM     66  C   UNL     1       9.639  11.194  -2.441  1.00  0.00     0.059 A 
ATOM     67  C   UNL     1      10.694   9.087  -1.850  1.00  0.00     0.059 A 
ATOM     68  F   UNL     1      10.083   7.997   0.135  1.00  0.00    -0.206 F 
ATOM     69  C   UNL     1      10.526  10.156  -2.730  1.00  0.00     0.060 A 
BRANCH  69  70
ATOM     70  S   UNL     1      11.467  10.221  -4.270  1.00  0.00     0.124 S 
ATOM     71  O   UNL     1      10.462   9.796  -5.240  1.00  0.00    -0.237 OA
ATOM     72  O   UNL     1      11.861  11.625  -4.341  1.00  0.00    -0.237 OA
ATOM     73  O   UNL     1      12.557   9.279  -4.040  1.00  0.00    -0.744 OA
ENDBRANCH  69  70
ENDBRANCH  48  62
BRANCH  49  74
ATOM     74  C   UNL     1       3.393   9.292   7.834  1.00  0.00     0.058 A 
ATOM     75  C   UNL     1       3.006  10.415   8.581  1.00  0.00     0.135 A 
ATOM     76  C   UNL     1       2.957   8.032   8.268  1.00  0.00     0.135 A 
ATOM     77  F   UNL     1       3.404  11.639   8.205  1.00  0.00    -0.206 F 
ATOM     78  C   UNL     1       2.222  10.293   9.723  1.00  0.00     0.059 A 
ATOM     79  C   UNL     1       2.158   7.886   9.398  1.00  0.00     0.059 A 
ATOM     80  F   UNL     1       3.289   6.930   7.577  1.00  0.00    -0.206 F 
ATOM     81  C   UNL     1       1.802   9.023  10.123  1.00  0.00     0.060 A 
BRANCH  81  82
ATOM     82  S   UNL     1       0.733   8.876  11.571  1.00  0.00     0.124 S 
ATOM     83  O   UNL     1       1.694   9.009  12.659  1.00  0.00    -0.237 OA
ATOM     84  O   UNL     1      -0.189   9.993  11.392  1.00  0.00    -0.237 OA
ATOM     85  O   UNL     1       0.137   7.553  11.410  1.00  0.00    -0.744 OA
ENDBRANCH  81  82
ENDBRANCH  49  74
BRANCH  61  86
ATOM     86  C   UNL     1      10.081  10.893   6.721  1.00  0.00     0.058 A 
ATOM     87  C   UNL     1      10.744   9.923   7.487  1.00  0.00     0.135 A 
ATOM     88  C   UNL     1      10.527  12.221   6.809  1.00  0.00     0.135 A 
ATOM     89  F   UNL     1      10.350   8.640   7.443  1.00  0.00    -0.206 F 
ATOM     90  C   UNL     1      11.803  10.260   8.325  1.00  0.00     0.059 A 
ATOM     91  C   UNL     1      11.595  12.578   7.625  1.00  0.00     0.059 A 
ATOM     92  F   UNL     1       9.928  13.183   6.089  1.00  0.00    -0.206 F 
ATOM     93  C   UNL     1      12.220  11.591   8.388  1.00  0.00     0.060 A 
BRANCH  93  94
ATOM     94  S   UNL     1      13.615  12.017   9.453  1.00  0.00     0.124 S 
ATOM     95  O   UNL     1      12.980  12.055  10.766  1.00  0.00    -0.237 OA
ATOM     96  O   UNL     1      14.536  10.908   9.226  1.00  0.00    -0.237 OA
ATOM     97  O   UNL     1      14.057  13.306   8.930  1.00  0.00    -0.744 OA
ENDBRANCH  93  94
ENDBRANCH  61  86
ENDBRANCH  35  36
ENDBRANCH  27  30
ENDBRANCH  25  26
ENDBRANCH  24  25
ENDBRANCH  23  24
ENDBRANCH   1  23
TORSDOF 20
