REMARK SMILES Cc1ccc(NC(=O)N2CCCC[C@@H]2C(=O)NCCCCCCNC(=O)c2ccc(-c3c4nc(c(-c5c(F)cc(S(=O)(=O)[O-])cc5F)c5ccc([nH]5)c(-c5c(F)cc(S(=O)(=O)[O-])cc5F)c5nc(c(-c6c(F)cc(S(=O)(=O)[O-])cc6F)c6ccc3[nH]6)C=C5)C=C4)cc2)cc1
REMARK SMILES IDX 21 1 20 2 19 3 18 4 17 5 15 6 16 7 14 9 9 10 10 11 11 12
REMARK SMILES IDX 13 13 12 14 7 15 6 16 8 18 5 19 1 20 2 21 3 22 94 23 4 24
REMARK SMILES IDX 93 25 22 26 23 27 24 28 25 29 26 31 27 32 28 33 92 34 29 35
REMARK SMILES IDX 91 36 30 37 31 38 32 39 85 40 33 41 90 42 84 43 86 44 34 45
REMARK SMILES IDX 89 46 83 47 82 48 35 50 69 51 48 52 68 53 49 54 52 55 67 56
REMARK SMILES IDX 87 57 50 58 51 59 66 61 88 62 53 63 36 64 37 65 46 66 38 67
REMARK SMILES IDX 39 68 45 69 47 70 40 71 41 72 42 73 43 74 44 75 70 76 71 77
REMARK SMILES IDX 80 78 72 79 73 80 79 81 81 82 74 83 75 84 76 85 77 86 78 87
REMARK SMILES IDX 54 88 55 89 64 90 56 91 57 92 63 93 65 94 58 95 59 96 60 97
REMARK SMILES IDX 61 98 62 99
REMARK H PARENT 17 8 6 17 24 30 86 49 52 60
REMARK Flexibility Score: inf
ROOT
ATOM      1  C   UNL     1      -6.521  -0.492   4.672  1.00  0.00     0.002 C 
ENDROOT
BRANCH   1   2
ATOM      2  C   UNL     1      -5.424  -1.481   5.095  1.00  0.00     0.002 C 
BRANCH   2   3
ATOM      3  C   UNL     1      -5.040  -2.546   4.059  1.00  0.00     0.021 C 
BRANCH   3   4
ATOM      4  C   UNL     1      -4.632  -1.993   2.692  1.00  0.00     0.116 C 
BRANCH   4   5
ATOM      5  N   UNL     1      -3.343  -1.336   2.773  1.00  0.00    -0.354 N 
ATOM      6  C   UNL     1      -2.163  -1.659   2.175  1.00  0.00     0.242 C 
ATOM      7  O   UNL     1      -1.138  -1.139   2.632  1.00  0.00    -0.273 OA
ATOM      8  H   UNL     1      -3.317  -0.536   3.347  1.00  0.00     0.163 HD
BRANCH   6   9
ATOM      9  C   UNL     1      -2.071  -2.747   1.075  1.00  0.00     0.176 C 
ATOM     10  N   UNL     1      -3.089  -2.652  -0.011  1.00  0.00    -0.313 N 
ATOM     11  C   UNL     1      -3.360  -3.849  -0.803  1.00  0.00     0.122 C 
ATOM     12  C   UNL     1      -3.410  -5.141  -0.007  1.00  0.00     0.022 C 
ATOM     13  C   UNL     1      -2.076  -4.108   1.806  1.00  0.00     0.035 C 
ATOM     14  C   UNL     1      -2.166  -5.286   0.850  1.00  0.00     0.004 C 
BRANCH  10  15
ATOM     15  C   UNL     1      -3.547  -1.472  -0.577  1.00  0.00     0.322 C 
ATOM     16  N   UNL     1      -2.850  -0.316  -0.423  1.00  0.00    -0.308 N 
ATOM     17  H   UNL     1      -3.397   0.477  -0.217  1.00  0.00     0.171 HD
ATOM     18  O   UNL     1      -4.634  -1.416  -1.159  1.00  0.00    -0.248 OA
BRANCH  16  19
ATOM     19  C   UNL     1      -1.470  -0.079  -0.513  1.00  0.00     0.042 A 
ATOM     20  C   UNL     1       2.769   0.479  -0.119  1.00  0.00     0.044 C 
ATOM     21  C   UNL     1       1.298   0.354  -0.378  1.00  0.00    -0.051 A 
ATOM     22  C   UNL     1       0.791  -0.783  -1.014  1.00  0.00     0.005 A 
ATOM     23  C   UNL     1       0.405   1.315   0.110  1.00  0.00     0.005 A 
ATOM     24  C   UNL     1      -0.587  -0.982  -1.107  1.00  0.00     0.026 A 
ATOM     25  C   UNL     1      -0.974   1.110   0.024  1.00  0.00     0.026 A 
ENDBRANCH  16  19
ENDBRANCH  10  15
ENDBRANCH   6   9
ENDBRANCH   4   5
ENDBRANCH   3   4
ENDBRANCH   2   3
ENDBRANCH   1   2
BRANCH   1  26
ATOM     26  C   UNL     1      -7.776  -1.105   4.049  1.00  0.00     0.021 C 
BRANCH  26  27
ATOM     27  C   UNL     1      -8.540  -2.020   4.998  1.00  0.00     0.116 C 
BRANCH  27  28
ATOM     28  N   UNL     1      -9.887  -1.552   5.285  1.00  0.00    -0.352 N 
ATOM     29  C   UNL     1     -10.889  -2.232   5.962  1.00  0.00     0.251 C 
ATOM     30  H   UNL     1     -10.114  -0.650   4.961  1.00  0.00     0.163 HD
ATOM     31  O   UNL     1     -12.048  -1.879   5.965  1.00  0.00    -0.269 OA
BRANCH  29  32
ATOM     32  C   UNL     1     -10.439  -3.353   6.813  1.00  0.00     0.039 A 
ATOM     33  C   UNL     1     -10.411  -3.124   8.194  1.00  0.00     0.014 A 
ATOM     34  C   UNL     1      -9.784  -4.439   6.240  1.00  0.00     0.014 A 
ATOM     35  C   UNL     1      -9.573  -3.893   8.993  1.00  0.00     0.010 A 
ATOM     36  C   UNL     1      -8.892  -5.147   7.020  1.00  0.00     0.010 A 
ATOM     37  C   UNL     1      -8.754  -4.841   8.383  1.00  0.00    -0.014 A 
BRANCH  37  38
ATOM     38  C   UNL     1      -7.676  -5.531   9.079  1.00  0.00     0.031 A 
ATOM     39  C   UNL     1      -7.865  -6.933   9.505  1.00  0.00     0.074 A 
ATOM     40  C   UNL     1      -6.490  -4.912   9.252  1.00  0.00     0.049 A 
ATOM     41  N   UNL     1      -7.163  -7.536  10.403  1.00  0.00    -0.248 NA
ATOM     42  C   UNL     1      -8.938  -7.760   8.968  1.00  0.00     0.031 C 
ATOM     43  C   UNL     1      -5.220  -5.522   9.629  1.00  0.00     0.029 A 
ATOM     44  N   UNL     1      -6.249  -3.539   9.314  1.00  0.00    -0.354 N 
ATOM     45  C   UNL     1      -7.487  -8.877  10.365  1.00  0.00     0.074 A 
ATOM     46  C   UNL     1      -8.654  -8.942   9.518  1.00  0.00     0.031 C 
ATOM     47  C   UNL     1      -4.406  -4.569  10.112  1.00  0.00     0.029 A 
ATOM     48  C   UNL     1      -5.184  -3.346  10.213  1.00  0.00     0.049 A 
ATOM     49  H   UNL     1      -6.733  -2.837   8.821  1.00  0.00     0.167 HD
ATOM     50  C   UNL     1      -6.637  -9.781  10.939  1.00  0.00     0.037 A 
ATOM     51  C   UNL     1      -5.371  -2.646  11.372  1.00  0.00     0.037 A 
ATOM     52  C   UNL     1      -5.582  -9.088  11.686  1.00  0.00     0.049 A 
ATOM     53  C   UNL     1      -5.170  -3.475  12.622  1.00  0.00     0.074 A 
ATOM     54  C   UNL     1      -4.275  -8.757  11.368  1.00  0.00     0.029 A 
ATOM     55  N   UNL     1      -5.910  -8.345  12.818  1.00  0.00    -0.354 N 
ATOM     56  N   UNL     1      -5.169  -4.780  12.644  1.00  0.00    -0.248 NA
ATOM     57  C   UNL     1      -4.962  -2.898  13.948  1.00  0.00     0.031 C 
ATOM     58  C   UNL     1      -3.850  -7.738  12.257  1.00  0.00     0.029 A 
ATOM     59  C   UNL     1      -4.885  -7.471  13.137  1.00  0.00     0.049 A 
ATOM     60  H   UNL     1      -6.752  -8.429  13.321  1.00  0.00     0.167 HD
ATOM     61  C   UNL     1      -5.000  -5.220  13.932  1.00  0.00     0.074 A 
ATOM     62  C   UNL     1      -4.849  -4.002  14.707  1.00  0.00     0.031 C 
ATOM     63  C   UNL     1      -5.004  -6.547  14.258  1.00  0.00     0.037 A 
BRANCH  50  64
ATOM     64  C   UNL     1      -6.565 -11.253  10.543  1.00  0.00     0.058 A 
ATOM     65  C   UNL     1      -5.354 -11.973  10.671  1.00  0.00     0.135 A 
ATOM     66  C   UNL     1      -7.606 -11.993   9.947  1.00  0.00     0.135 A 
ATOM     67  F   UNL     1      -4.301 -11.464  11.326  1.00  0.00    -0.206 F 
ATOM     68  C   UNL     1      -5.156 -13.248  10.128  1.00  0.00     0.059 A 
ATOM     69  C   UNL     1      -7.422 -13.245   9.350  1.00  0.00     0.059 A 
ATOM     70  F   UNL     1      -8.873 -11.568   9.970  1.00  0.00    -0.206 F 
ATOM     71  C   UNL     1      -6.185 -13.861   9.429  1.00  0.00     0.060 A 
BRANCH  71  72
ATOM     72  S   UNL     1      -5.895 -15.464   8.658  1.00  0.00     0.124 S 
ATOM     73  O   UNL     1      -4.765 -15.181   7.778  1.00  0.00    -0.237 OA
ATOM     74  O   UNL     1      -5.607 -16.310   9.811  1.00  0.00    -0.237 OA
ATOM     75  O   UNL     1      -7.155 -15.746   7.975  1.00  0.00    -0.744 OA
ENDBRANCH  71  72
ENDBRANCH  50  64
BRANCH  51  76
ATOM     76  C   UNL     1      -6.334  -1.518  11.224  1.00  0.00     0.058 A 
ATOM     77  C   UNL     1      -5.958  -0.442  10.396  1.00  0.00     0.135 A 
ATOM     78  C   UNL     1      -7.699  -1.677  11.498  1.00  0.00     0.135 A 
ATOM     79  F   UNL     1      -4.662  -0.234  10.114  1.00  0.00    -0.206 F 
ATOM     80  C   UNL     1      -6.901   0.342   9.739  1.00  0.00     0.059 A 
ATOM     81  C   UNL     1      -8.663  -0.894  10.856  1.00  0.00     0.059 A 
ATOM     82  F   UNL     1      -8.120  -2.681  12.281  1.00  0.00    -0.206 F 
ATOM     83  C   UNL     1      -8.253   0.066   9.928  1.00  0.00     0.060 A 
BRANCH  83  84
ATOM     84  S   UNL     1      -9.442   0.862   8.821  1.00  0.00     0.124 S 
ATOM     85  O   UNL     1      -9.281   2.269   9.167  1.00  0.00    -0.237 OA
ATOM     86  O   UNL     1      -8.938   0.474   7.504  1.00  0.00    -0.237 OA
ATOM     87  O   UNL     1     -10.713   0.258   9.204  1.00  0.00    -0.744 OA
ENDBRANCH  83  84
ENDBRANCH  51  76
BRANCH  63  88
ATOM     88  C   UNL     1      -5.015  -7.098  15.664  1.00  0.00     0.058 A 
ATOM     89  C   UNL     1      -5.646  -6.466  16.748  1.00  0.00     0.135 A 
ATOM     90  C   UNL     1      -4.482  -8.382  15.931  1.00  0.00     0.135 A 
ATOM     91  F   UNL     1      -6.288  -5.298  16.595  1.00  0.00    -0.206 F 
ATOM     92  C   UNL     1      -5.680  -7.028  18.026  1.00  0.00     0.059 A 
ATOM     93  C   UNL     1      -4.553  -8.985  17.184  1.00  0.00     0.059 A 
ATOM     94  F   UNL     1      -3.879  -9.101  14.973  1.00  0.00    -0.206 F 
ATOM     95  C   UNL     1      -5.127  -8.287  18.236  1.00  0.00     0.060 A 
BRANCH  95  96
ATOM     96  S   UNL     1      -5.206  -9.041  19.871  1.00  0.00     0.124 S 
ATOM     97  O   UNL     1      -3.960  -8.572  20.468  1.00  0.00    -0.237 OA
ATOM     98  O   UNL     1      -6.428  -8.472  20.434  1.00  0.00    -0.237 OA
ATOM     99  O   UNL     1      -5.269 -10.469  19.576  1.00  0.00    -0.744 OA
ENDBRANCH  95  96
ENDBRANCH  63  88
ENDBRANCH  37  38
ENDBRANCH  29  32
ENDBRANCH  27  28
ENDBRANCH  26  27
ENDBRANCH   1  26
TORSDOF 18
