REMARK SMILES COc1ccc2c(c1)c(CC(=O)NCCCCCCNC(=O)c1ccc(-c3c4nc(c(-c5c(F)cc(S(=O)(=O)[O-])cc5F)c5ccc([nH]5)c(-c5c(F)cc(S(=O)(=O)[O-])cc5F)c5nc(c(-c6c(F)cc(S(=O)(=O)[O-])cc6F)c6ccc3[nH]6)C=C5)C=C4)cc1)c(C(F)(F)F)n2C(=O)c1ccc(Cl)cc1
REMARK SMILES IDX 16 1 15 2 14 3 13 4 11 5 12 6 10 8 9 9 3 10 4 11 8 12 5 13
REMARK SMILES IDX 7 14 6 15 94 16 89 17 2 18 1 19 95 20 96 21 97 22 98 23
REMARK SMILES IDX 103 24 99 25 102 26 100 27 101 28 90 29 91 30 92 31 93 32
REMARK SMILES IDX 17 33 18 34 19 35 20 36 21 37 22 39 23 40 24 41 88 42 25 43
REMARK SMILES IDX 87 44 26 45 27 46 28 47 81 48 29 49 86 50 80 51 82 52 30 53
REMARK SMILES IDX 85 54 79 55 78 56 31 58 65 59 44 60 64 61 45 62 48 63 63 64
REMARK SMILES IDX 83 65 46 66 47 67 62 69 84 70 49 71 32 72 33 73 42 74 34 75
REMARK SMILES IDX 35 76 41 77 43 78 36 79 37 80 38 81 39 82 40 83 66 84 67 85
REMARK SMILES IDX 76 86 68 87 69 88 75 89 77 90 70 91 71 92 72 93 73 94 74 95
REMARK SMILES IDX 50 96 51 97 60 98 52 99 53 100 59 101 61 102 54 103 55 104
REMARK SMILES IDX 56 105 57 106 58 107
REMARK H PARENT 13 7 20 38 82 57 48 68
REMARK Flexibility Score: inf
ROOT
ATOM      1  C   UNL     1       0.641  -1.017   8.258  1.00  0.00     0.002 C 
ENDROOT
BRANCH   1   2
ATOM      2  C   UNL     1       0.567  -2.275   7.384  1.00  0.00     0.021 C 
BRANCH   2   3
ATOM      3  C   UNL     1      -0.812  -2.933   7.373  1.00  0.00     0.116 C 
BRANCH   3   4
ATOM      4  N   UNL     1      -1.741  -2.197   6.536  1.00  0.00    -0.356 N 
ATOM      5  C   UNL     1      -2.284  -2.564   5.338  1.00  0.00     0.224 C 
ATOM      6  O   UNL     1      -3.036  -1.776   4.760  1.00  0.00    -0.275 OA
ATOM      7  H   UNL     1      -2.015  -1.315   6.876  1.00  0.00     0.163 HD
BRANCH   5   8
ATOM      8  C   UNL     1      -1.989  -3.942   4.763  1.00  0.00     0.138 C 
BRANCH   8   9
ATOM      9  C   UNL     1      -0.555  -4.128   4.343  1.00  0.00     0.000 A 
ATOM     10  C   UNL     1       0.771  -1.511   1.898  1.00  0.00     0.119 A 
ATOM     11  C   UNL     1       2.009  -2.104   1.704  1.00  0.00     0.048 A 
ATOM     12  C   UNL     1      -0.146  -2.099   2.771  1.00  0.00     0.057 A 
ATOM     13  C   UNL     1       2.354  -3.280   2.380  1.00  0.00     0.031 A 
ATOM     14  C   UNL     1       0.180  -3.284   3.466  1.00  0.00     0.008 A 
ATOM     15  C   UNL     1       1.450  -3.844   3.303  1.00  0.00     0.057 A 
ATOM     16  N   UNL     1       1.568  -4.893   4.227  1.00  0.00    -0.271 N 
ATOM     17  C   UNL     1       0.282  -5.192   4.677  1.00  0.00     0.135 A 
BRANCH  10  18
ATOM     18  O   UNL     1       0.354  -0.348   1.313  1.00  0.00    -0.497 OA
ATOM     19  C   UNL     1       0.932  -0.053   0.048  1.00  0.00     0.278 C 
ENDBRANCH  10  18
BRANCH  16  20
ATOM     20  C   UNL     1       2.772  -5.507   4.677  1.00  0.00     0.262 C 
ATOM     21  O   UNL     1       2.719  -6.263   5.629  1.00  0.00    -0.268 OA
BRANCH  20  22
ATOM     22  C   UNL     1       4.108  -5.256   4.101  1.00  0.00     0.040 A 
ATOM     23  C   UNL     1       4.780  -4.058   4.370  1.00  0.00     0.015 A 
ATOM     24  C   UNL     1       4.662  -6.215   3.248  1.00  0.00     0.015 A 
ATOM     25  C   UNL     1       5.978  -3.783   3.706  1.00  0.00     0.021 A 
ATOM     26  C   UNL     1       5.867  -5.939   2.597  1.00  0.00     0.021 A 
ATOM     27  C   UNL     1       6.508  -4.717   2.812  1.00  0.00     0.041 A 
ATOM     28  Cl  UNL     1       7.948  -4.348   1.947  1.00  0.00    -0.084 Cl
ENDBRANCH  20  22
ENDBRANCH  16  20
BRANCH  17  29
ATOM     29  C   UNL     1      -0.051  -6.436   5.432  1.00  0.00     0.432 C 
ATOM     30  F   UNL     1       0.044  -6.258   6.770  1.00  0.00    -0.165 F 
ATOM     31  F   UNL     1      -1.341  -6.799   5.186  1.00  0.00    -0.165 F 
ATOM     32  F   UNL     1       0.689  -7.513   5.078  1.00  0.00    -0.165 F 
ENDBRANCH  17  29
ENDBRANCH   8   9
ENDBRANCH   5   8
ENDBRANCH   3   4
ENDBRANCH   2   3
ENDBRANCH   1   2
BRANCH   1  33
ATOM     33  C   UNL     1       0.351  -1.245   9.747  1.00  0.00     0.002 C 
BRANCH  33  34
ATOM     34  C   UNL     1       1.240  -2.285  10.441  1.00  0.00     0.021 C 
BRANCH  34  35
ATOM     35  C   UNL     1       2.739  -2.000  10.347  1.00  0.00     0.116 C 
BRANCH  35  36
ATOM     36  N   UNL     1       3.112  -0.687  10.832  1.00  0.00    -0.352 N 
ATOM     37  C   UNL     1       3.428  -0.156  12.050  1.00  0.00     0.251 C 
ATOM     38  H   UNL     1       3.147  -0.017  10.111  1.00  0.00     0.163 HD
ATOM     39  O   UNL     1       3.803   1.021  12.037  1.00  0.00    -0.269 OA
BRANCH  37  40
ATOM     40  C   UNL     1       3.297  -0.852  13.360  1.00  0.00     0.039 A 
ATOM     41  C   UNL     1       2.949  -2.189  13.545  1.00  0.00     0.014 A 
ATOM     42  C   UNL     1       3.496  -0.049  14.502  1.00  0.00     0.014 A 
ATOM     43  C   UNL     1       2.706  -2.680  14.826  1.00  0.00     0.010 A 
ATOM     44  C   UNL     1       3.273  -0.539  15.784  1.00  0.00     0.010 A 
ATOM     45  C   UNL     1       2.828  -1.845  15.943  1.00  0.00    -0.014 A 
BRANCH  45  46
ATOM     46  C   UNL     1       2.598  -2.428  17.264  1.00  0.00     0.031 A 
ATOM     47  C   UNL     1       3.510  -3.561  17.585  1.00  0.00     0.074 A 
ATOM     48  C   UNL     1       1.709  -1.956  18.166  1.00  0.00     0.049 A 
ATOM     49  N   UNL     1       3.210  -4.814  17.693  1.00  0.00    -0.248 NA
ATOM     50  C   UNL     1       4.956  -3.290  17.640  1.00  0.00     0.031 C 
ATOM     51  C   UNL     1       0.950  -0.702  18.105  1.00  0.00     0.029 A 
ATOM     52  N   UNL     1       1.347  -2.469  19.380  1.00  0.00    -0.354 N 
ATOM     53  C   UNL     1       4.391  -5.458  18.059  1.00  0.00     0.074 A 
ATOM     54  C   UNL     1       5.453  -4.512  17.844  1.00  0.00     0.031 C 
ATOM     55  C   UNL     1       0.399  -0.448  19.316  1.00  0.00     0.029 A 
ATOM     56  C   UNL     1       0.621  -1.592  20.184  1.00  0.00     0.049 A 
ATOM     57  H   UNL     1       1.579  -3.383  19.663  1.00  0.00     0.167 HD
ATOM     58  C   UNL     1       4.366  -6.631  18.753  1.00  0.00     0.037 A 
ATOM     59  C   UNL     1       0.241  -1.794  21.471  1.00  0.00     0.037 A 
ATOM     60  C   UNL     1       3.055  -7.222  18.723  1.00  0.00     0.049 A 
ATOM     61  C   UNL     1       0.210  -3.257  21.694  1.00  0.00     0.074 A 
ATOM     62  C   UNL     1       2.296  -7.938  17.825  1.00  0.00     0.029 A 
ATOM     63  N   UNL     1       2.209  -6.736  19.682  1.00  0.00    -0.354 N 
ATOM     64  N   UNL     1      -0.632  -4.060  21.106  1.00  0.00    -0.248 NA
ATOM     65  C   UNL     1       1.337  -3.905  22.357  1.00  0.00     0.031 C 
ATOM     66  C   UNL     1       0.934  -7.693  18.174  1.00  0.00     0.029 A 
ATOM     67  C   UNL     1       0.902  -6.868  19.296  1.00  0.00     0.049 A 
ATOM     68  H   UNL     1       2.500  -6.343  20.536  1.00  0.00     0.167 HD
ATOM     69  C   UNL     1       0.066  -5.240  20.963  1.00  0.00     0.074 A 
ATOM     70  C   UNL     1       1.181  -5.148  21.897  1.00  0.00     0.031 C 
ATOM     71  C   UNL     1      -0.132  -6.042  19.880  1.00  0.00     0.037 A 
BRANCH  58  72
ATOM     72  C   UNL     1       5.363  -7.010  19.830  1.00  0.00     0.058 A 
ATOM     73  C   UNL     1       5.346  -8.312  20.375  1.00  0.00     0.135 A 
ATOM     74  C   UNL     1       6.126  -6.063  20.550  1.00  0.00     0.135 A 
ATOM     75  F   UNL     1       4.630  -9.287  19.792  1.00  0.00    -0.206 F 
ATOM     76  C   UNL     1       6.007  -8.636  21.564  1.00  0.00     0.059 A 
ATOM     77  C   UNL     1       6.832  -6.377  21.707  1.00  0.00     0.059 A 
ATOM     78  F   UNL     1       6.142  -4.766  20.221  1.00  0.00    -0.206 F 
ATOM     79  C   UNL     1       6.744  -7.658  22.225  1.00  0.00     0.060 A 
BRANCH  79  80
ATOM     80  S   UNL     1       7.550  -8.055  23.788  1.00  0.00     0.124 S 
ATOM     81  O   UNL     1       6.406  -8.277  24.664  1.00  0.00    -0.237 OA
ATOM     82  O   UNL     1       8.325  -9.239  23.434  1.00  0.00    -0.237 OA
ATOM     83  O   UNL     1       8.340  -6.860  24.072  1.00  0.00    -0.744 OA
ENDBRANCH  79  80
ENDBRANCH  58  72
BRANCH  59  84
ATOM     84  C   UNL     1       0.165  -0.844  22.615  1.00  0.00     0.058 A 
ATOM     85  C   UNL     1      -0.443  -1.231  23.826  1.00  0.00     0.135 A 
ATOM     86  C   UNL     1       0.986   0.297  22.669  1.00  0.00     0.135 A 
ATOM     87  F   UNL     1      -1.250  -2.303  23.866  1.00  0.00    -0.206 F 
ATOM     88  C   UNL     1      -0.164  -0.596  25.039  1.00  0.00     0.059 A 
ATOM     89  C   UNL     1       1.273   0.953  23.867  1.00  0.00     0.059 A 
ATOM     90  F   UNL     1       1.619   0.740  21.573  1.00  0.00    -0.206 F 
ATOM     91  C   UNL     1       0.729   0.473  25.055  1.00  0.00     0.060 A 
BRANCH  91  92
ATOM     92  S   UNL     1       1.282   1.132  26.648  1.00  0.00     0.124 S 
ATOM     93  O   UNL     1       0.062   1.745  27.162  1.00  0.00    -0.237 OA
ATOM     94  O   UNL     1       1.729  -0.073  27.338  1.00  0.00    -0.237 OA
ATOM     95  O   UNL     1       2.342   2.066  26.278  1.00  0.00    -0.744 OA
ENDBRANCH  91  92
ENDBRANCH  59  84
BRANCH  71  96
ATOM     96  C   UNL     1      -1.451  -5.944  19.175  1.00  0.00     0.058 A 
ATOM     97  C   UNL     1      -1.886  -4.841  18.422  1.00  0.00     0.135 A 
ATOM     98  C   UNL     1      -2.283  -7.072  19.209  1.00  0.00     0.135 A 
ATOM     99  F   UNL     1      -1.115  -3.752  18.284  1.00  0.00    -0.206 F 
ATOM    100  C   UNL     1      -3.111  -4.854  17.751  1.00  0.00     0.059 A 
ATOM    101  C   UNL     1      -3.492  -7.119  18.525  1.00  0.00     0.059 A 
ATOM    102  F   UNL     1      -1.900  -8.170  19.882  1.00  0.00    -0.206 F 
ATOM    103  C   UNL     1      -3.905  -6.002  17.805  1.00  0.00     0.060 A 
BRANCH 103 104
ATOM    104  S   UNL     1      -5.452  -6.050  16.875  1.00  0.00     0.124 S 
ATOM    105  O   UNL     1      -6.279  -5.092  17.601  1.00  0.00    -0.237 OA
ATOM    106  O   UNL     1      -5.028  -5.638  15.540  1.00  0.00    -0.237 OA
ATOM    107  O   UNL     1      -5.872  -7.445  16.983  1.00  0.00    -0.744 OA
ENDBRANCH 103 104
ENDBRANCH  71  96
ENDBRANCH  45  46
ENDBRANCH  37  40
ENDBRANCH  35  36
ENDBRANCH  34  35
ENDBRANCH  33  34
ENDBRANCH   1  33
TORSDOF 21
