REMARK SMILES CCCCCCNC(=O)Oc1cccc(-c2ccc([C@@H](C)C(=O)NCCCCCCNC(=O)c3ccc(-c4c5nc(c(-c6c(F)cc(S(=O)(=O)[O-])cc6F)c6ccc([nH]6)c(-c6c(F)cc(S(=O)(=O)[O-])cc6F)c6nc(c(-c7c(F)cc(S(=O)(=O)[O-])cc7F)c7ccc4[nH]7)C=C6)C=C5)cc3)cc2C)c1
REMARK SMILES IDX 22 1 23 2 24 3 20 5 21 6 19 7 16 8 17 9 101 10 18 11 100 12
REMARK SMILES IDX 102 13 15 14 11 15 12 16 103 17 13 18 14 19 10 20 8 21 7 22
REMARK SMILES IDX 9 24 6 25 5 26 4 27 3 28 2 29 1 30 25 31 26 32 27 33 28 34
REMARK SMILES IDX 29 35 30 36 31 37 32 38 33 40 34 41 35 42 99 43 36 44 98 45
REMARK SMILES IDX 37 46 38 47 39 48 92 49 40 50 97 51 91 52 93 53 41 54 96 55
REMARK SMILES IDX 90 56 89 57 42 59 76 60 55 61 75 62 56 63 59 64 74 65 94 66
REMARK SMILES IDX 57 67 58 68 73 70 95 71 60 72 43 73 44 74 53 75 45 76 46 77
REMARK SMILES IDX 52 78 54 79 47 80 48 81 49 82 50 83 51 84 77 85 78 86 87 87
REMARK SMILES IDX 79 88 80 89 86 90 88 91 81 92 82 93 83 94 84 95 85 96 61 97
REMARK SMILES IDX 62 98 71 99 63 100 64 101 70 102 72 103 65 104 66 105 67 106
REMARK SMILES IDX 68 107 69 108
REMARK H PARENT 24 4 7 23 31 39 93 58 59 69
REMARK Flexibility Score: inf
ROOT
ATOM      1  C   UNL     1      -3.054 -12.766  -6.011  1.00  0.00     0.227 C 
ATOM      2  O   UNL     1      -2.147 -13.057  -5.219  1.00  0.00    -0.274 OA
ATOM      3  N   UNL     1      -2.740 -12.832  -7.333  1.00  0.00    -0.356 N 
ATOM      4  H   UNL     1      -1.840 -13.185  -7.517  1.00  0.00     0.163 HD
ENDROOT
BRANCH   1   5
ATOM      5  C   UNL     1      -4.444 -12.390  -5.476  1.00  0.00     0.105 C 
ATOM      6  C   UNL     1      -5.568 -13.314  -5.942  1.00  0.00     0.023 C 
BRANCH   5   7
ATOM      7  C   UNL     1      -4.754 -10.902  -5.532  1.00  0.00    -0.036 A 
ATOM      8  C   UNL     1      -5.123  -8.065  -5.604  1.00  0.00    -0.015 A 
ATOM      9  C   UNL     1      -5.399  -8.881  -6.714  1.00  0.00     0.009 A 
ATOM     10  C   UNL     1      -4.750  -8.710  -4.405  1.00  0.00    -0.043 A 
ATOM     11  C   UNL     1      -5.266 -10.271  -6.664  1.00  0.00     0.005 A 
ATOM     12  C   UNL     1      -4.519 -10.103  -4.403  1.00  0.00     0.008 A 
ATOM     13  C   UNL     1      -4.608  -8.002  -3.082  1.00  0.00     0.045 C 
BRANCH   8  14
ATOM     14  C   UNL     1      -5.222  -6.597  -5.761  1.00  0.00    -0.014 A 
ATOM     15  C   UNL     1      -4.295  -4.366  -5.480  1.00  0.00     0.133 A 
ATOM     16  C   UNL     1      -5.412  -3.792  -6.079  1.00  0.00     0.047 A 
ATOM     17  C   UNL     1      -4.186  -5.750  -5.332  1.00  0.00     0.056 A 
ATOM     18  C   UNL     1      -6.431  -4.617  -6.545  1.00  0.00     0.004 A 
ATOM     19  C   UNL     1      -6.340  -6.003  -6.376  1.00  0.00     0.009 A 
BRANCH  15  20
ATOM     20  O   UNL     1      -3.368  -3.491  -4.891  1.00  0.00    -0.410 OA
BRANCH  20  21
ATOM     21  C   UNL     1      -2.015  -3.689  -5.118  1.00  0.00     0.412 C 
ATOM     22  N   UNL     1      -1.223  -2.904  -4.324  1.00  0.00    -0.321 N 
ATOM     23  H   UNL     1      -0.252  -2.966  -4.473  1.00  0.00     0.167 HD
ATOM     24  O   UNL     1      -1.522  -4.465  -5.925  1.00  0.00    -0.224 OA
BRANCH  22  25
ATOM     25  C   UNL     1      -1.664  -1.992  -3.288  1.00  0.00     0.119 C 
BRANCH  25  26
ATOM     26  C   UNL     1      -1.070  -2.350  -1.925  1.00  0.00     0.021 C 
BRANCH  26  27
ATOM     27  C   UNL     1       0.459  -2.265  -1.844  1.00  0.00     0.002 C 
BRANCH  27  28
ATOM     28  C   UNL     1       1.063  -0.901  -2.195  1.00  0.00    -0.000 C 
BRANCH  28  29
ATOM     29  C   UNL     1       0.584   0.269  -1.332  1.00  0.00    -0.003 C 
ATOM     30  C   UNL     1       0.957   0.126   0.135  1.00  0.00     0.004 C 
ENDBRANCH  28  29
ENDBRANCH  27  28
ENDBRANCH  26  27
ENDBRANCH  25  26
ENDBRANCH  22  25
ENDBRANCH  20  21
ENDBRANCH  15  20
ENDBRANCH   8  14
ENDBRANCH   5   7
ENDBRANCH   1   5
BRANCH   3  31
ATOM     31  C   UNL     1      -3.492 -12.476  -8.518  1.00  0.00     0.116 C 
BRANCH  31  32
ATOM     32  C   UNL     1      -3.056 -11.118  -9.074  1.00  0.00     0.021 C 
BRANCH  32  33
ATOM     33  C   UNL     1      -1.919 -11.206 -10.096  1.00  0.00     0.002 C 
BRANCH  33  34
ATOM     34  C   UNL     1      -2.260 -11.976 -11.378  1.00  0.00     0.002 C 
BRANCH  34  35
ATOM     35  C   UNL     1      -3.498 -11.480 -12.133  1.00  0.00     0.021 C 
BRANCH  35  36
ATOM     36  C   UNL     1      -3.416 -10.030 -12.604  1.00  0.00     0.116 C 
BRANCH  36  37
ATOM     37  N   UNL     1      -2.322  -9.831 -13.543  1.00  0.00    -0.352 N 
ATOM     38  C   UNL     1      -2.357  -9.435 -14.856  1.00  0.00     0.251 C 
ATOM     39  H   UNL     1      -1.423 -10.008 -13.182  1.00  0.00     0.163 HD
ATOM     40  O   UNL     1      -1.362  -9.569 -15.562  1.00  0.00    -0.269 OA
BRANCH  38  41
ATOM     41  C   UNL     1      -3.594  -8.855 -15.421  1.00  0.00     0.039 A 
ATOM     42  C   UNL     1      -4.013  -9.255 -16.692  1.00  0.00     0.014 A 
ATOM     43  C   UNL     1      -4.324  -7.898 -14.709  1.00  0.00     0.014 A 
ATOM     44  C   UNL     1      -5.197  -8.738 -17.225  1.00  0.00     0.010 A 
ATOM     45  C   UNL     1      -5.537  -7.435 -15.213  1.00  0.00     0.010 A 
ATOM     46  C   UNL     1      -5.985  -7.848 -16.476  1.00  0.00    -0.014 A 
BRANCH  46  47
ATOM     47  C   UNL     1      -7.284  -7.346 -16.994  1.00  0.00     0.031 A 
ATOM     48  C   UNL     1      -7.472  -5.880 -17.275  1.00  0.00     0.074 A 
ATOM     49  C   UNL     1      -8.312  -8.204 -17.149  1.00  0.00     0.049 A 
ATOM     50  N   UNL     1      -8.549  -5.246 -17.662  1.00  0.00    -0.248 NA
ATOM     51  C   UNL     1      -6.304  -5.009 -17.070  1.00  0.00     0.031 C 
ATOM     52  C   UNL     1      -8.264  -9.641 -16.867  1.00  0.00     0.029 A 
ATOM     53  N   UNL     1      -9.600  -7.993 -17.571  1.00  0.00    -0.354 N 
ATOM     54  C   UNL     1      -8.193  -3.904 -17.737  1.00  0.00     0.074 A 
ATOM     55  C   UNL     1      -6.815  -3.809 -17.305  1.00  0.00     0.031 C 
ATOM     56  C   UNL     1      -9.460 -10.184 -17.144  1.00  0.00     0.029 A 
ATOM     57  C   UNL     1     -10.371  -9.132 -17.584  1.00  0.00     0.049 A 
ATOM     58  H   UNL     1      -9.941  -7.109 -17.839  1.00  0.00     0.167 HD
ATOM     59  C   UNL     1      -8.940  -2.852 -18.150  1.00  0.00     0.037 A 
ATOM     60  C   UNL     1     -11.667  -9.308 -17.905  1.00  0.00     0.037 A 
ATOM     61  C   UNL     1     -10.305  -2.958 -18.597  1.00  0.00     0.049 A 
ATOM     62  C   UNL     1     -12.479  -8.122 -18.350  1.00  0.00     0.074 A 
ATOM     63  C   UNL     1     -11.130  -1.961 -19.085  1.00  0.00     0.029 A 
ATOM     64  N   UNL     1     -11.046  -4.131 -18.608  1.00  0.00    -0.354 N 
ATOM     65  N   UNL     1     -12.109  -6.870 -18.472  1.00  0.00    -0.248 NA
ATOM     66  C   UNL     1     -13.882  -8.373 -18.706  1.00  0.00     0.031 C 
ATOM     67  C   UNL     1     -12.384  -2.521 -19.349  1.00  0.00     0.029 A 
ATOM     68  C   UNL     1     -12.326  -3.878 -19.074  1.00  0.00     0.049 A 
ATOM     69  H   UNL     1     -10.712  -5.013 -18.326  1.00  0.00     0.167 HD
ATOM     70  C   UNL     1     -13.225  -6.187 -18.943  1.00  0.00     0.074 A 
ATOM     71  C   UNL     1     -14.280  -7.169 -19.095  1.00  0.00     0.031 C 
ATOM     72  C   UNL     1     -13.364  -4.868 -19.224  1.00  0.00     0.037 A 
BRANCH  59  73
ATOM     73  C   UNL     1      -8.294  -1.492 -18.141  1.00  0.00     0.058 A 
ATOM     74  C   UNL     1      -7.279  -1.153 -19.051  1.00  0.00     0.135 A 
ATOM     75  C   UNL     1      -8.719  -0.503 -17.239  1.00  0.00     0.135 A 
ATOM     76  F   UNL     1      -6.824  -2.064 -19.927  1.00  0.00    -0.206 F 
ATOM     77  C   UNL     1      -6.687   0.105 -19.046  1.00  0.00     0.059 A 
ATOM     78  C   UNL     1      -8.160   0.772 -17.236  1.00  0.00     0.059 A 
ATOM     79  F   UNL     1      -9.686  -0.771 -16.348  1.00  0.00    -0.206 F 
ATOM     80  C   UNL     1      -7.134   1.062 -18.134  1.00  0.00     0.060 A 
BRANCH  80  81
ATOM     81  S   UNL     1      -6.358   2.692 -18.144  1.00  0.00     0.124 S 
ATOM     82  O   UNL     1      -5.056   2.399 -17.553  1.00  0.00    -0.237 OA
ATOM     83  O   UNL     1      -6.348   3.024 -19.565  1.00  0.00    -0.237 OA
ATOM     84  O   UNL     1      -7.253   3.500 -17.321  1.00  0.00    -0.744 OA
ENDBRANCH  80  81
ENDBRANCH  59  73
BRANCH  60  85
ATOM     85  C   UNL     1     -12.271 -10.666 -17.837  1.00  0.00     0.058 A 
ATOM     86  C   UNL     1     -12.622 -11.358 -19.005  1.00  0.00     0.135 A 
ATOM     87  C   UNL     1     -12.495 -11.305 -16.607  1.00  0.00     0.135 A 
ATOM     88  F   UNL     1     -12.434 -10.786 -20.204  1.00  0.00    -0.206 F 
ATOM     89  C   UNL     1     -13.187 -12.628 -18.959  1.00  0.00     0.059 A 
ATOM     90  C   UNL     1     -13.035 -12.585 -16.535  1.00  0.00     0.059 A 
ATOM     91  F   UNL     1     -12.160 -10.693 -15.460  1.00  0.00    -0.206 F 
ATOM     92  C   UNL     1     -13.387 -13.234 -17.718  1.00  0.00     0.060 A 
BRANCH  92  93
ATOM     93  S   UNL     1     -14.076 -14.903 -17.670  1.00  0.00     0.124 S 
ATOM     94  O   UNL     1     -15.471 -14.655 -18.015  1.00  0.00    -0.237 OA
ATOM     95  O   UNL     1     -13.281 -15.592 -18.682  1.00  0.00    -0.237 OA
ATOM     96  O   UNL     1     -13.831 -15.328 -16.295  1.00  0.00    -0.744 OA
ENDBRANCH  92  93
ENDBRANCH  60  85
BRANCH  72  97
ATOM     97  C   UNL     1     -14.695  -4.410 -19.755  1.00  0.00     0.058 A 
ATOM     98  C   UNL     1     -15.827  -4.323 -18.930  1.00  0.00     0.135 A 
ATOM     99  C   UNL     1     -14.824  -4.004 -21.093  1.00  0.00     0.135 A 
ATOM    100  F   UNL     1     -15.759  -4.706 -17.645  1.00  0.00    -0.206 F 
ATOM    101  C   UNL     1     -17.047  -3.869 -19.419  1.00  0.00     0.059 A 
ATOM    102  C   UNL     1     -16.028  -3.520 -21.596  1.00  0.00     0.059 A 
ATOM    103  F   UNL     1     -13.769  -4.058 -21.921  1.00  0.00    -0.206 F 
ATOM    104  C   UNL     1     -17.137  -3.467 -20.753  1.00  0.00     0.060 A 
BRANCH 104 105
ATOM    105  S   UNL     1     -18.718  -2.844 -21.365  1.00  0.00     0.124 S 
ATOM    106  O   UNL     1     -19.497  -4.073 -21.468  1.00  0.00    -0.237 OA
ATOM    107  O   UNL     1     -19.122  -1.924 -20.306  1.00  0.00    -0.237 OA
ATOM    108  O   UNL     1     -18.367  -2.214 -22.634  1.00  0.00    -0.744 OA
ENDBRANCH 104 105
ENDBRANCH  72  97
ENDBRANCH  46  47
ENDBRANCH  38  41
ENDBRANCH  36  37
ENDBRANCH  35  36
ENDBRANCH  34  35
ENDBRANCH  33  34
ENDBRANCH  32  33
ENDBRANCH  31  32
ENDBRANCH   3  31
TORSDOF 25
