REMARK SMILES CC(C)C[C@H](CNC(=O)Nc1ccccc1Br)C(=O)NCCCCCCNC(=O)c1ccc(-c2c3nc(c(-c4c(F)cc(S(=O)(=O)[O-])cc4F)c4ccc([nH]4)c(-c4c(F)cc(S(=O)(=O)[O-])cc4F)c4nc(c(-c5c(F)cc(S(=O)(=O)[O-])cc5F)c5ccc2[nH]5)C=C4)C=C3)cc1
REMARK SMILES IDX 23 1 22 2 21 3 20 4 18 5 19 6 5 8 4 9 2 10 1 11 3 12 6 13
REMARK SMILES IDX 7 14 8 15 9 17 10 18 11 20 12 21 16 22 13 23 15 24 17 25
REMARK SMILES IDX 14 26 24 27 25 28 26 29 27 30 28 31 29 33 30 34 31 35 95 36
REMARK SMILES IDX 32 37 94 38 33 39 34 40 35 41 88 42 36 43 93 44 87 45 89 46
REMARK SMILES IDX 37 47 92 48 86 49 85 50 38 52 72 53 51 54 71 55 52 56 55 57
REMARK SMILES IDX 70 58 90 59 53 60 54 61 69 63 91 64 56 65 39 66 40 67 49 68
REMARK SMILES IDX 41 69 42 70 48 71 50 72 43 73 44 74 45 75 46 76 47 77 73 78
REMARK SMILES IDX 74 79 83 80 75 81 76 82 82 83 84 84 77 85 78 86 79 87 80 88
REMARK SMILES IDX 81 89 57 90 58 91 67 92 59 93 60 94 66 95 68 96 61 97 62 98
REMARK SMILES IDX 63 99 64 100 65 101
REMARK H PARENT 20 7 7 16 10 19 27 32 89 51 55 62
REMARK Flexibility Score: inf
ROOT
ATOM      1  C   UNL     1      -5.898  -3.492   2.576  1.00  0.00     0.002 C 
ENDROOT
BRANCH   1   2
ATOM      2  C   UNL     1      -4.448  -3.003   2.558  1.00  0.00     0.021 C 
BRANCH   2   3
ATOM      3  C   UNL     1      -3.767  -3.149   1.205  1.00  0.00     0.116 C 
BRANCH   3   4
ATOM      4  N   UNL     1      -4.068  -2.057   0.308  1.00  0.00    -0.356 N 
ATOM      5  C   UNL     1      -3.270  -1.359  -0.535  1.00  0.00     0.224 C 
ATOM      6  O   UNL     1      -3.838  -0.577  -1.307  1.00  0.00    -0.275 OA
ATOM      7  H   UNL     1      -5.011  -1.774   0.310  1.00  0.00     0.163 HD
BRANCH   5   8
ATOM      8  C   UNL     1      -1.747  -1.465  -0.558  1.00  0.00     0.098 C 
BRANCH   8   9
ATOM      9  C   UNL     1      -1.092  -2.648  -1.316  1.00  0.00     0.018 C 
BRANCH   9  10
ATOM     10  C   UNL     1      -1.117  -4.069  -0.732  1.00  0.00    -0.017 C 
ATOM     11  C   UNL     1      -2.348  -4.849  -1.205  1.00  0.00     0.007 C 
ATOM     12  C   UNL     1       0.122  -4.861  -1.177  1.00  0.00     0.007 C 
ENDBRANCH   9  10
ENDBRANCH   8   9
BRANCH   8  13
ATOM     13  C   UNL     1      -1.004  -0.900   0.668  1.00  0.00     0.131 C 
BRANCH  13  14
ATOM     14  N   UNL     1      -1.313  -1.418   1.989  1.00  0.00    -0.337 N 
ATOM     15  C   UNL     1      -0.690  -2.259   2.842  1.00  0.00     0.319 C 
ATOM     16  H   UNL     1      -2.168  -1.080   2.342  1.00  0.00     0.165 HD
ATOM     17  O   UNL     1      -1.351  -2.727   3.772  1.00  0.00    -0.249 OA
ATOM     18  N   UNL     1       0.564  -2.707   2.631  1.00  0.00    -0.307 N 
ATOM     19  H   UNL     1       0.751  -3.598   3.007  1.00  0.00     0.171 HD
BRANCH  18  20
ATOM     20  C   UNL     1       1.646  -2.116   1.964  1.00  0.00     0.057 A 
ATOM     21  C   UNL     1       2.412  -2.975   1.170  1.00  0.00     0.027 A 
ATOM     22  C   UNL     1       1.978  -0.751   2.014  1.00  0.00     0.041 A 
ATOM     23  C   UNL     1       3.377  -2.461   0.304  1.00  0.00     0.002 A 
ATOM     24  C   UNL     1       2.956  -0.242   1.153  1.00  0.00     0.018 A 
ATOM     25  Br  UNL     1       1.232   0.458   3.278  1.00  0.00    -0.049 Br
ATOM     26  C   UNL     1       3.629  -1.092   0.276  1.00  0.00     0.001 A 
ENDBRANCH  18  20
ENDBRANCH  13  14
ENDBRANCH   8  13
ENDBRANCH   5   8
ENDBRANCH   3   4
ENDBRANCH   2   3
ENDBRANCH   1   2
BRANCH   1  27
ATOM     27  C   UNL     1      -6.120  -4.927   2.078  1.00  0.00     0.002 C 
BRANCH  27  28
ATOM     28  C   UNL     1      -5.194  -5.995   2.671  1.00  0.00     0.021 C 
BRANCH  28  29
ATOM     29  C   UNL     1      -5.165  -6.064   4.194  1.00  0.00     0.116 C 
BRANCH  29  30
ATOM     30  N   UNL     1      -6.495  -6.205   4.760  1.00  0.00    -0.352 N 
ATOM     31  C   UNL     1      -6.987  -7.137   5.635  1.00  0.00     0.251 C 
ATOM     32  H   UNL     1      -7.144  -5.524   4.470  1.00  0.00     0.163 HD
ATOM     33  O   UNL     1      -8.195  -7.189   5.845  1.00  0.00    -0.269 OA
BRANCH  31  34
ATOM     34  C   UNL     1      -6.076  -8.086   6.309  1.00  0.00     0.039 A 
ATOM     35  C   UNL     1      -6.475  -9.420   6.424  1.00  0.00     0.014 A 
ATOM     36  C   UNL     1      -4.859  -7.668   6.858  1.00  0.00     0.014 A 
ATOM     37  C   UNL     1      -5.636 -10.342   7.051  1.00  0.00     0.010 A 
ATOM     38  C   UNL     1      -3.994  -8.602   7.425  1.00  0.00     0.010 A 
ATOM     39  C   UNL     1      -4.378  -9.946   7.533  1.00  0.00    -0.014 A 
BRANCH  39  40
ATOM     40  C   UNL     1      -3.458 -10.942   8.138  1.00  0.00     0.031 A 
ATOM     41  C   UNL     1      -3.104 -10.871   9.597  1.00  0.00     0.074 A 
ATOM     42  C   UNL     1      -2.920 -11.897   7.355  1.00  0.00     0.049 A 
ATOM     43  N   UNL     1      -2.346 -11.673  10.301  1.00  0.00    -0.248 NA
ATOM     44  C   UNL     1      -3.652  -9.740  10.362  1.00  0.00     0.031 C 
ATOM     45  C   UNL     1      -3.145 -12.030   5.913  1.00  0.00     0.029 A 
ATOM     46  N   UNL     1      -2.080 -12.937   7.658  1.00  0.00    -0.354 N 
ATOM     47  C   UNL     1      -2.318 -11.141  11.585  1.00  0.00     0.074 A 
ATOM     48  C   UNL     1      -3.094  -9.920  11.550  1.00  0.00     0.031 C 
ATOM     49  C   UNL     1      -2.492 -13.114   5.466  1.00  0.00     0.029 A 
ATOM     50  C   UNL     1      -1.781 -13.735   6.579  1.00  0.00     0.049 A 
ATOM     51  H   UNL     1      -1.725 -13.098   8.562  1.00  0.00     0.167 HD
ATOM     52  C   UNL     1      -1.716 -11.636  12.694  1.00  0.00     0.037 A 
ATOM     53  C   UNL     1      -1.027 -14.848   6.498  1.00  0.00     0.037 A 
ATOM     54  C   UNL     1      -0.963 -12.864  12.722  1.00  0.00     0.049 A 
ATOM     55  C   UNL     1      -0.384 -15.387   7.745  1.00  0.00     0.074 A 
ATOM     56  C   UNL     1      -0.381 -13.494  13.808  1.00  0.00     0.029 A 
ATOM     57  N   UNL     1      -0.678 -13.644  11.610  1.00  0.00    -0.354 N 
ATOM     58  N   UNL     1      -0.437 -14.918   8.969  1.00  0.00    -0.248 NA
ATOM     59  C   UNL     1       0.415 -16.610   7.600  1.00  0.00     0.031 C 
ATOM     60  C   UNL     1       0.294 -14.630  13.346  1.00  0.00     0.029 A 
ATOM     61  C   UNL     1       0.095 -14.733  11.978  1.00  0.00     0.049 A 
ATOM     62  H   UNL     1      -0.981 -13.451  10.693  1.00  0.00     0.167 HD
ATOM     63  C   UNL     1       0.308 -15.798   9.745  1.00  0.00     0.074 A 
ATOM     64  C   UNL     1       0.784 -16.837   8.854  1.00  0.00     0.031 C 
ATOM     65  C   UNL     1       0.575 -15.750  11.075  1.00  0.00     0.037 A 
BRANCH  52  66
ATOM     66  C   UNL     1      -1.847 -10.843  13.966  1.00  0.00     0.058 A 
ATOM     67  C   UNL     1      -3.070 -10.737  14.650  1.00  0.00     0.135 A 
ATOM     68  C   UNL     1      -0.733 -10.189  14.517  1.00  0.00     0.135 A 
ATOM     69  F   UNL     1      -4.171 -11.331  14.162  1.00  0.00    -0.206 F 
ATOM     70  C   UNL     1      -3.192  -9.980  15.811  1.00  0.00     0.059 A 
ATOM     71  C   UNL     1      -0.826  -9.450  15.693  1.00  0.00     0.059 A 
ATOM     72  F   UNL     1       0.461 -10.258  13.908  1.00  0.00    -0.206 F 
ATOM     73  C   UNL     1      -2.065  -9.335  16.323  1.00  0.00     0.060 A 
BRANCH  73  74
ATOM     74  S   UNL     1      -2.241  -8.345  17.822  1.00  0.00     0.124 S 
ATOM     75  O   UNL     1      -2.925  -7.162  17.309  1.00  0.00    -0.237 OA
ATOM     76  O   UNL     1      -3.038  -9.214  18.681  1.00  0.00    -0.237 OA
ATOM     77  O   UNL     1      -0.863  -8.135  18.254  1.00  0.00    -0.744 OA
ENDBRANCH  73  74
ENDBRANCH  52  66
BRANCH  53  78
ATOM     78  C   UNL     1      -0.883 -15.547   5.195  1.00  0.00     0.058 A 
ATOM     79  C   UNL     1      -1.527 -16.771   4.963  1.00  0.00     0.135 A 
ATOM     80  C   UNL     1      -0.135 -14.992   4.146  1.00  0.00     0.135 A 
ATOM     81  F   UNL     1      -2.250 -17.344   5.937  1.00  0.00    -0.206 F 
ATOM     82  C   UNL     1      -1.429 -17.426   3.740  1.00  0.00     0.059 A 
ATOM     83  C   UNL     1      -0.040 -15.615   2.906  1.00  0.00     0.059 A 
ATOM     84  F   UNL     1       0.486 -13.813   4.313  1.00  0.00    -0.206 F 
ATOM     85  C   UNL     1      -0.686 -16.836   2.715  1.00  0.00     0.060 A 
BRANCH  85  86
ATOM     86  S   UNL     1      -0.622 -17.659   1.108  1.00  0.00     0.124 S 
ATOM     87  O   UNL     1       0.279 -18.772   1.384  1.00  0.00    -0.237 OA
ATOM     88  O   UNL     1      -2.021 -18.008   0.886  1.00  0.00    -0.237 OA
ATOM     89  O   UNL     1      -0.095 -16.623   0.224  1.00  0.00    -0.744 OA
ENDBRANCH  85  86
ENDBRANCH  53  78
BRANCH  65  90
ATOM     90  C   UNL     1       1.414 -16.862  11.640  1.00  0.00     0.058 A 
ATOM     91  C   UNL     1       2.789 -16.953  11.373  1.00  0.00     0.135 A 
ATOM     92  C   UNL     1       0.840 -17.840  12.469  1.00  0.00     0.135 A 
ATOM     93  F   UNL     1       3.385 -16.048  10.582  1.00  0.00    -0.206 F 
ATOM     94  C   UNL     1       3.559 -17.996  11.877  1.00  0.00     0.059 A 
ATOM     95  C   UNL     1       1.597 -18.876  13.006  1.00  0.00     0.059 A 
ATOM     96  F   UNL     1      -0.468 -17.793  12.765  1.00  0.00    -0.206 F 
ATOM     97  C   UNL     1       2.953 -18.956  12.689  1.00  0.00     0.060 A 
BRANCH  97  98
ATOM     98  S   UNL     1       3.961 -20.305  13.339  1.00  0.00     0.124 S 
ATOM     99  O   UNL     1       4.101 -21.158  12.164  1.00  0.00    -0.237 OA
ATOM    100  O   UNL     1       5.173 -19.613  13.768  1.00  0.00    -0.237 OA
ATOM    101  O   UNL     1       3.143 -20.850  14.419  1.00  0.00    -0.744 OA
ENDBRANCH  97  98
ENDBRANCH  65  90
ENDBRANCH  39  40
ENDBRANCH  31  34
ENDBRANCH  29  30
ENDBRANCH  28  29
ENDBRANCH  27  28
ENDBRANCH   1  27
TORSDOF 21
