REMARK SMILES Cc1noc(-c2ccc(CCl)cc2)c1C(=O)NCCCCCCNC(=O)c1ccc(-c2c3nc(c(-c4c(F)cc(S(=O)(=O)[O-])cc4F)c4ccc([nH]4)c(-c4c(F)cc(S(=O)(=O)[O-])cc4F)c4nc(c(-c5c(F)cc(S(=O)(=O)[O-])cc5F)c5ccc2[nH]5)C=C4)C=C3)cc1
REMARK SMILES IDX 21 1 20 2 19 3 18 4 17 5 15 6 16 7 14 9 1 10 2 11 3 12 4 13
REMARK SMILES IDX 5 14 6 15 7 16 13 17 8 18 12 19 9 20 10 21 11 22 22 23 23 24
REMARK SMILES IDX 24 25 25 26 26 28 27 29 28 30 92 31 29 32 91 33 30 34 31 35
REMARK SMILES IDX 32 36 85 37 33 38 90 39 84 40 86 41 34 42 89 43 83 44 82 45
REMARK SMILES IDX 35 47 69 48 48 49 68 50 49 51 52 52 67 53 87 54 50 55 51 56
REMARK SMILES IDX 66 58 88 59 53 60 36 61 37 62 46 63 38 64 39 65 45 66 47 67
REMARK SMILES IDX 40 68 41 69 42 70 43 71 44 72 70 73 71 74 80 75 72 76 73 77
REMARK SMILES IDX 79 78 81 79 74 80 75 81 76 82 77 83 78 84 54 85 55 86 64 87
REMARK SMILES IDX 56 88 57 89 63 90 65 91 58 92 59 93 60 94 61 95 62 96
REMARK H PARENT 17 8 24 27 86 46 52 57
REMARK Flexibility Score: inf
ROOT
ATOM      1  C   UNL     1       5.336  -3.905  -0.015  1.00  0.00     0.002 C 
ENDROOT
BRANCH   1   2
ATOM      2  C   UNL     1       4.462  -3.935   1.241  1.00  0.00     0.002 C 
BRANCH   2   3
ATOM      3  C   UNL     1       3.731  -2.641   1.598  1.00  0.00     0.021 C 
BRANCH   3   4
ATOM      4  C   UNL     1       2.886  -1.999   0.505  1.00  0.00     0.116 C 
BRANCH   4   5
ATOM      5  N   UNL     1       1.738  -2.769   0.106  1.00  0.00    -0.352 N 
ATOM      6  C   UNL     1       0.455  -2.402  -0.210  1.00  0.00     0.257 C 
ATOM      7  O   UNL     1      -0.281  -3.340  -0.528  1.00  0.00    -0.269 OA
ATOM      8  H   UNL     1       1.904  -3.737   0.051  1.00  0.00     0.163 HD
BRANCH   6   9
ATOM      9  C   UNL     1      -0.050  -1.033  -0.146  1.00  0.00     0.110 A 
ATOM     10  C   UNL     1       1.878   0.791  -0.527  1.00  0.00     0.071 C 
ATOM     11  C   UNL     1       0.508   0.289  -0.261  1.00  0.00     0.094 A 
ATOM     12  N   UNL     1      -0.434   1.234  -0.139  1.00  0.00    -0.084 NA
ATOM     13  O   UNL     1      -1.627   0.575  -0.024  1.00  0.00    -0.355 OA
ATOM     14  C   UNL     1      -1.412  -0.762  -0.044  1.00  0.00     0.179 A 
BRANCH  14  15
ATOM     15  C   UNL     1      -2.634  -1.546   0.023  1.00  0.00     0.021 A 
ATOM     16  C   UNL     1      -3.595  -1.418  -0.989  1.00  0.00     0.012 A 
ATOM     17  C   UNL     1      -2.876  -2.425   1.082  1.00  0.00     0.012 A 
ATOM     18  C   UNL     1      -4.768  -2.174  -0.955  1.00  0.00     0.006 A 
ATOM     19  C   UNL     1      -4.056  -3.176   1.122  1.00  0.00     0.006 A 
ATOM     20  C   UNL     1      -5.010  -3.064   0.101  1.00  0.00    -0.033 A 
BRANCH  20  21
ATOM     21  C   UNL     1      -6.256  -3.905   0.120  1.00  0.00     0.145 C 
ATOM     22  Cl  UNL     1      -7.706  -2.906   0.357  1.00  0.00    -0.122 Cl
ENDBRANCH  20  21
ENDBRANCH  14  15
ENDBRANCH   6   9
ENDBRANCH   4   5
ENDBRANCH   3   4
ENDBRANCH   2   3
ENDBRANCH   1   2
BRANCH   1  23
ATOM     23  C   UNL     1       6.336  -2.752  -0.122  1.00  0.00     0.021 C 
BRANCH  23  24
ATOM     24  C   UNL     1       7.270  -2.571   1.070  1.00  0.00     0.116 C 
BRANCH  24  25
ATOM     25  N   UNL     1       8.077  -3.749   1.333  1.00  0.00    -0.352 N 
ATOM     26  C   UNL     1       9.439  -3.866   1.447  1.00  0.00     0.251 C 
ATOM     27  H   UNL     1       7.573  -4.587   1.447  1.00  0.00     0.163 HD
ATOM     28  O   UNL     1       9.952  -4.983   1.499  1.00  0.00    -0.269 OA
BRANCH  26  29
ATOM     29  C   UNL     1      10.291  -2.657   1.484  1.00  0.00     0.039 A 
ATOM     30  C   UNL     1      11.464  -2.635   0.725  1.00  0.00     0.014 A 
ATOM     31  C   UNL     1       9.945  -1.554   2.271  1.00  0.00     0.014 A 
ATOM     32  C   UNL     1      12.258  -1.486   0.710  1.00  0.00     0.010 A 
ATOM     33  C   UNL     1      10.697  -0.384   2.196  1.00  0.00     0.010 A 
ATOM     34  C   UNL     1      11.864  -0.338   1.418  1.00  0.00    -0.014 A 
BRANCH  34  35
ATOM     35  C   UNL     1      12.659   0.916   1.353  1.00  0.00     0.031 A 
ATOM     36  C   UNL     1      13.304   1.472   2.595  1.00  0.00     0.074 A 
ATOM     37  C   UNL     1      12.752   1.585   0.186  1.00  0.00     0.049 A 
ATOM     38  N   UNL     1      13.986   2.578   2.747  1.00  0.00    -0.248 NA
ATOM     39  C   UNL     1      13.138   0.696   3.834  1.00  0.00     0.031 C 
ATOM     40  C   UNL     1      12.134   1.171  -1.076  1.00  0.00     0.029 A 
ATOM     41  N   UNL     1      13.394   2.756  -0.129  1.00  0.00    -0.354 N 
ATOM     42  C   UNL     1      14.321   2.636   4.095  1.00  0.00     0.074 A 
ATOM     43  C   UNL     1      13.718   1.483   4.728  1.00  0.00     0.031 C 
ATOM     44  C   UNL     1      12.446   2.061  -2.031  1.00  0.00     0.029 A 
ATOM     45  C   UNL     1      13.249   3.129  -1.445  1.00  0.00     0.049 A 
ATOM     46  H   UNL     1      13.910   3.281   0.525  1.00  0.00     0.167 HD
ATOM     47  C   UNL     1      15.082   3.552   4.741  1.00  0.00     0.037 A 
ATOM     48  C   UNL     1      13.704   4.213  -2.104  1.00  0.00     0.037 A 
ATOM     49  C   UNL     1      15.692   4.688   4.098  1.00  0.00     0.049 A 
ATOM     50  C   UNL     1      14.533   5.226  -1.362  1.00  0.00     0.074 A 
ATOM     51  C   UNL     1      16.525   5.644   4.652  1.00  0.00     0.029 A 
ATOM     52  N   UNL     1      15.530   5.027   2.762  1.00  0.00    -0.354 N 
ATOM     53  N   UNL     1      14.897   5.229  -0.101  1.00  0.00    -0.248 NA
ATOM     54  C   UNL     1      15.020   6.379  -2.131  1.00  0.00     0.031 C 
ATOM     55  C   UNL     1      16.822   6.590   3.666  1.00  0.00     0.029 A 
ATOM     56  C   UNL     1      16.225   6.192   2.481  1.00  0.00     0.049 A 
ATOM     57  H   UNL     1      14.999   4.514   2.110  1.00  0.00     0.167 HD
ATOM     58  C   UNL     1      15.677   6.368   0.067  1.00  0.00     0.074 A 
ATOM     59  C   UNL     1      15.744   7.021  -1.225  1.00  0.00     0.031 C 
ATOM     60  C   UNL     1      16.285   6.830   1.188  1.00  0.00     0.037 A 
BRANCH  47  61
ATOM     61  C   UNL     1      15.294   3.366   6.220  1.00  0.00     0.058 A 
ATOM     62  C   UNL     1      16.067   2.309   6.729  1.00  0.00     0.135 A 
ATOM     63  C   UNL     1      14.747   4.276   7.140  1.00  0.00     0.135 A 
ATOM     64  F   UNL     1      16.603   1.402   5.898  1.00  0.00    -0.206 F 
ATOM     65  C   UNL     1      16.259   2.140   8.097  1.00  0.00     0.059 A 
ATOM     66  C   UNL     1      14.953   4.144   8.511  1.00  0.00     0.059 A 
ATOM     67  F   UNL     1      14.001   5.306   6.711  1.00  0.00    -0.206 F 
ATOM     68  C   UNL     1      15.697   3.063   8.980  1.00  0.00     0.060 A 
BRANCH  68  69
ATOM     69  S   UNL     1      15.956   2.826  10.751  1.00  0.00     0.124 S 
ATOM     70  O   UNL     1      15.111   1.665  11.015  1.00  0.00    -0.237 OA
ATOM     71  O   UNL     1      17.394   2.594  10.827  1.00  0.00    -0.237 OA
ATOM     72  O   UNL     1      15.494   4.082  11.334  1.00  0.00    -0.744 OA
ENDBRANCH  68  69
ENDBRANCH  47  61
BRANCH  48  73
ATOM     73  C   UNL     1      13.398   4.385  -3.550  1.00  0.00     0.058 A 
ATOM     74  C   UNL     1      14.405   4.275  -4.520  1.00  0.00     0.135 A 
ATOM     75  C   UNL     1      12.091   4.645  -3.993  1.00  0.00     0.135 A 
ATOM     76  F   UNL     1      15.671   4.034  -4.148  1.00  0.00    -0.206 F 
ATOM     77  C   UNL     1      14.132   4.430  -5.876  1.00  0.00     0.059 A 
ATOM     78  C   UNL     1      11.788   4.777  -5.345  1.00  0.00     0.059 A 
ATOM     79  F   UNL     1      11.087   4.744  -3.107  1.00  0.00    -0.206 F 
ATOM     80  C   UNL     1      12.819   4.677  -6.278  1.00  0.00     0.060 A 
BRANCH  80  81
ATOM     81  S   UNL     1      12.468   4.823  -8.044  1.00  0.00     0.124 S 
ATOM     82  O   UNL     1      13.069   6.114  -8.357  1.00  0.00    -0.237 OA
ATOM     83  O   UNL     1      13.147   3.651  -8.588  1.00  0.00    -0.237 OA
ATOM     84  O   UNL     1      11.010   4.775  -8.101  1.00  0.00    -0.744 OA
ENDBRANCH  80  81
ENDBRANCH  48  73
BRANCH  60  85
ATOM     85  C   UNL     1      17.105   8.086   1.066  1.00  0.00     0.058 A 
ATOM     86  C   UNL     1      16.510   9.344   0.878  1.00  0.00     0.135 A 
ATOM     87  C   UNL     1      18.503   8.036   1.190  1.00  0.00     0.135 A 
ATOM     88  F   UNL     1      15.178   9.449   0.747  1.00  0.00    -0.206 F 
ATOM     89  C   UNL     1      17.274  10.504   0.794  1.00  0.00     0.059 A 
ATOM     90  C   UNL     1      19.284   9.186   1.140  1.00  0.00     0.059 A 
ATOM     91  F   UNL     1      19.123   6.860   1.381  1.00  0.00    -0.206 F 
ATOM     92  C   UNL     1      18.661  10.415   0.929  1.00  0.00     0.060 A 
BRANCH  92  93
ATOM     93  S   UNL     1      19.636  11.932   0.852  1.00  0.00     0.124 S 
ATOM     94  O   UNL     1      19.558  12.259  -0.568  1.00  0.00    -0.237 OA
ATOM     95  O   UNL     1      18.903  12.819   1.749  1.00  0.00    -0.237 OA
ATOM     96  O   UNL     1      20.952  11.516   1.328  1.00  0.00    -0.744 OA
ENDBRANCH  92  93
ENDBRANCH  60  85
ENDBRANCH  34  35
ENDBRANCH  26  29
ENDBRANCH  24  25
ENDBRANCH  23  24
ENDBRANCH   1  23
TORSDOF 18
