REMARK SMILES COc1cccc([C@@H]2CN(C(=O)CSc3nc(C)n[nH]3)C[C@H]2C(=O)NCCCCCCNC(=O)c2ccc(-c3c4nc(c(-c5c(F)cc(S(=O)(=O)[O-])cc5F)c5ccc([nH]5)c(-c5c(F)cc(S(=O)(=O)[O-])cc5F)c5nc(c(-c6c(F)cc(S(=O)(=O)[O-])cc6F)c6ccc3[nH]6)C=C5)C=C4)cc2)c1
REMARK SMILES IDX 28 1 27 2 26 3 25 4 23 5 24 6 22 8 8 9 9 10 10 11 21 12 7 13
REMARK SMILES IDX 3 14 4 15 101 16 5 17 6 18 2 19 1 20 11 21 12 22 13 23 14 24
REMARK SMILES IDX 15 25 16 26 20 27 17 28 19 29 18 31 29 32 30 33 31 34 32 35
REMARK SMILES IDX 33 36 34 38 35 39 36 40 100 41 37 42 99 43 38 44 39 45 40 46
REMARK SMILES IDX 93 47 41 48 98 49 92 50 94 51 42 52 97 53 91 54 90 55 43 57
REMARK SMILES IDX 77 58 56 59 76 60 57 61 60 62 75 63 95 64 58 65 59 66 74 68
REMARK SMILES IDX 96 69 61 70 44 71 45 72 54 73 46 74 47 75 53 76 55 77 48 78
REMARK SMILES IDX 49 79 50 80 51 81 52 82 78 83 79 84 88 85 80 86 81 87 87 88
REMARK SMILES IDX 89 89 82 90 83 91 84 92 85 93 86 94 62 95 63 96 72 97 64 98
REMARK SMILES IDX 65 99 71 100 73 101 66 102 67 103 68 104 69 105 70 106
REMARK H PARENT 25 7 20 30 32 37 94 56 60 67
REMARK Flexibility Score: inf
ROOT
ATOM      1  C   UNL     1       4.734  -2.680   8.574  1.00  0.00     0.002 C 
ENDROOT
BRANCH   1   2
ATOM      2  C   UNL     1       4.820  -1.497   7.606  1.00  0.00     0.021 C 
BRANCH   2   3
ATOM      3  C   UNL     1       5.566  -1.811   6.313  1.00  0.00     0.116 C 
BRANCH   3   4
ATOM      4  N   UNL     1       4.819  -2.730   5.473  1.00  0.00    -0.356 N 
ATOM      5  C   UNL     1       4.322  -2.592   4.216  1.00  0.00     0.225 C 
ATOM      6  O   UNL     1       3.761  -3.569   3.713  1.00  0.00    -0.275 OA
ATOM      7  H   UNL     1       4.642  -3.606   5.887  1.00  0.00     0.163 HD
BRANCH   5   8
ATOM      8  C   UNL     1       4.478  -1.311   3.422  1.00  0.00     0.107 C 
ATOM      9  C   UNL     1       3.849  -0.073   4.093  1.00  0.00     0.053 C 
ATOM     10  C   UNL     1       4.785   1.070   3.694  1.00  0.00     0.128 C 
ATOM     11  N   UNL     1       6.089   0.436   3.550  1.00  0.00    -0.341 N 
ATOM     12  C   UNL     1       5.947  -0.966   3.191  1.00  0.00     0.133 C 
BRANCH   9  13
ATOM     13  C   UNL     1       2.404   0.199   3.752  1.00  0.00    -0.039 A 
ATOM     14  C   UNL     1       0.629   0.591   2.131  1.00  0.00     0.119 A 
ATOM     15  C   UNL     1      -0.264   0.830   3.174  1.00  0.00     0.046 A 
ATOM     16  C   UNL     1       1.961   0.290   2.422  1.00  0.00     0.050 A 
ATOM     17  C   UNL     1       0.157   0.735   4.499  1.00  0.00     0.004 A 
ATOM     18  C   UNL     1       1.482   0.417   4.787  1.00  0.00     0.004 A 
BRANCH  14  19
ATOM     19  O   UNL     1       0.113   0.731   0.871  1.00  0.00    -0.497 OA
ATOM     20  C   UNL     1       0.773   0.002  -0.156  1.00  0.00     0.278 C 
ENDBRANCH  14  19
ENDBRANCH   9  13
BRANCH  11  21
ATOM     21  C   UNL     1       7.330   1.018   3.659  1.00  0.00     0.233 C 
ATOM     22  O   UNL     1       8.348   0.367   3.409  1.00  0.00    -0.274 OA
BRANCH  21  23
ATOM     23  C   UNL     1       7.434   2.485   4.028  1.00  0.00     0.178 C 
BRANCH  23  24
ATOM     24  S   UNL     1       6.827   3.555   2.702  1.00  0.00    -0.077 SA
BRANCH  24  25
ATOM     25  C   UNL     1       7.886   3.232   1.385  1.00  0.00     0.184 A 
ATOM     26  N   UNL     1       8.460   4.137   0.632  1.00  0.00    -0.206 NA
ATOM     27  N   UNL     1       8.121   1.993   0.871  1.00  0.00    -0.254 N 
ATOM     28  C   UNL     1       9.046   3.389  -0.353  1.00  0.00     0.148 A 
ATOM     29  N   UNL     1       8.860   2.066  -0.253  1.00  0.00    -0.158 NA
ATOM     30  H   UNL     1       7.793   1.154   1.268  1.00  0.00     0.192 HD
ATOM     31  C   UNL     1       9.795   4.015  -1.458  1.00  0.00     0.092 C 
ENDBRANCH  24  25
ENDBRANCH  23  24
ENDBRANCH  21  23
ENDBRANCH  11  21
ENDBRANCH   5   8
ENDBRANCH   3   4
ENDBRANCH   2   3
ENDBRANCH   1   2
BRANCH   1  32
ATOM     32  C   UNL     1       6.069  -3.364   8.903  1.00  0.00     0.002 C 
BRANCH  32  33
ATOM     33  C   UNL     1       7.217  -2.448   9.357  1.00  0.00     0.021 C 
BRANCH  33  34
ATOM     34  C   UNL     1       6.938  -1.714  10.657  1.00  0.00     0.116 C 
BRANCH  34  35
ATOM     35  N   UNL     1       6.829  -2.624  11.799  1.00  0.00    -0.352 N 
ATOM     36  C   UNL     1       6.547  -2.312  13.113  1.00  0.00     0.251 C 
ATOM     37  H   UNL     1       6.976  -3.578  11.605  1.00  0.00     0.163 HD
ATOM     38  O   UNL     1       6.876  -3.078  14.023  1.00  0.00    -0.269 OA
BRANCH  36  39
ATOM     39  C   UNL     1       5.830  -1.062  13.407  1.00  0.00     0.039 A 
ATOM     40  C   UNL     1       6.093  -0.287  14.541  1.00  0.00     0.014 A 
ATOM     41  C   UNL     1       4.870  -0.660  12.483  1.00  0.00     0.014 A 
ATOM     42  C   UNL     1       5.408   0.916  14.697  1.00  0.00     0.010 A 
ATOM     43  C   UNL     1       4.381   0.613  12.517  1.00  0.00     0.010 A 
ATOM     44  C   UNL     1       4.556   1.357  13.670  1.00  0.00    -0.014 A 
BRANCH  44  45
ATOM     45  C   UNL     1       3.893   2.650  13.703  1.00  0.00     0.031 A 
ATOM     46  C   UNL     1       4.840   3.788  13.773  1.00  0.00     0.074 A 
ATOM     47  C   UNL     1       2.577   2.801  13.430  1.00  0.00     0.049 A 
ATOM     48  N   UNL     1       5.125   4.499  14.810  1.00  0.00    -0.248 NA
ATOM     49  C   UNL     1       5.736   4.027  12.628  1.00  0.00     0.031 C 
ATOM     50  C   UNL     1       1.601   1.789  13.005  1.00  0.00     0.029 A 
ATOM     51  N   UNL     1       1.843   3.944  13.385  1.00  0.00    -0.354 N 
ATOM     52  C   UNL     1       6.020   5.465  14.364  1.00  0.00     0.074 A 
ATOM     53  C   UNL     1       6.548   4.964  13.124  1.00  0.00     0.031 C 
ATOM     54  C   UNL     1       0.487   2.395  12.534  1.00  0.00     0.029 A 
ATOM     55  C   UNL     1       0.595   3.821  12.774  1.00  0.00     0.049 A 
ATOM     56  H   UNL     1       2.168   4.796  13.756  1.00  0.00     0.167 HD
ATOM     57  C   UNL     1       6.015   6.716  14.903  1.00  0.00     0.037 A 
ATOM     58  C   UNL     1      -0.260   4.838  12.478  1.00  0.00     0.037 A 
ATOM     59  C   UNL     1       5.233   6.739  16.120  1.00  0.00     0.049 A 
ATOM     60  C   UNL     1       0.138   5.988  13.339  1.00  0.00     0.074 A 
ATOM     61  C   UNL     1       5.280   6.048  17.317  1.00  0.00     0.029 A 
ATOM     62  N   UNL     1       3.965   7.268  16.044  1.00  0.00    -0.354 N 
ATOM     63  N   UNL     1       0.026   5.983  14.640  1.00  0.00    -0.248 NA
ATOM     64  C   UNL     1       1.121   6.916  12.801  1.00  0.00     0.031 C 
ATOM     65  C   UNL     1       3.916   5.779  17.639  1.00  0.00     0.029 A 
ATOM     66  C   UNL     1       3.113   6.403  16.683  1.00  0.00     0.049 A 
ATOM     67  H   UNL     1       3.714   8.115  15.610  1.00  0.00     0.167 HD
ATOM     68  C   UNL     1       1.202   6.561  15.099  1.00  0.00     0.074 A 
ATOM     69  C   UNL     1       1.808   7.175  13.918  1.00  0.00     0.031 C 
ATOM     70  C   UNL     1       1.724   6.229  16.318  1.00  0.00     0.037 A 
BRANCH  57  71
ATOM     71  C   UNL     1       6.350   7.988  14.153  1.00  0.00     0.058 A 
ATOM     72  C   UNL     1       6.387   9.203  14.870  1.00  0.00     0.135 A 
ATOM     73  C   UNL     1       6.359   8.117  12.746  1.00  0.00     0.135 A 
ATOM     74  F   UNL     1       6.393   9.206  16.213  1.00  0.00    -0.206 F 
ATOM     75  C   UNL     1       6.338  10.447  14.242  1.00  0.00     0.059 A 
ATOM     76  C   UNL     1       6.365   9.347  12.099  1.00  0.00     0.059 A 
ATOM     77  F   UNL     1       6.269   7.070  11.920  1.00  0.00    -0.206 F 
ATOM     78  C   UNL     1       6.311  10.506  12.853  1.00  0.00     0.060 A 
BRANCH  78  79
ATOM     79  S   UNL     1       6.158  12.104  12.041  1.00  0.00     0.124 S 
ATOM     80  O   UNL     1       4.803  12.489  12.413  1.00  0.00    -0.237 OA
ATOM     81  O   UNL     1       7.237  12.861  12.668  1.00  0.00    -0.237 OA
ATOM     82  O   UNL     1       6.362  11.783  10.631  1.00  0.00    -0.744 OA
ENDBRANCH  78  79
ENDBRANCH  57  71
BRANCH  58  83
ATOM     83  C   UNL     1      -1.132   5.015  11.281  1.00  0.00     0.058 A 
ATOM     84  C   UNL     1      -2.073   6.063  11.214  1.00  0.00     0.135 A 
ATOM     85  C   UNL     1      -0.847   4.367  10.062  1.00  0.00     0.135 A 
ATOM     86  F   UNL     1      -2.402   6.743  12.323  1.00  0.00    -0.206 F 
ATOM     87  C   UNL     1      -2.637   6.491  10.005  1.00  0.00     0.059 A 
ATOM     88  C   UNL     1      -1.403   4.771   8.847  1.00  0.00     0.059 A 
ATOM     89  F   UNL     1       0.059   3.380   9.999  1.00  0.00    -0.206 F 
ATOM     90  C   UNL     1      -2.271   5.856   8.820  1.00  0.00     0.060 A 
BRANCH  90  91
ATOM     91  S   UNL     1      -2.822   6.534   7.233  1.00  0.00     0.124 S 
ATOM     92  O   UNL     1      -4.246   6.218   7.246  1.00  0.00    -0.237 OA
ATOM     93  O   UNL     1      -2.480   7.946   7.365  1.00  0.00    -0.237 OA
ATOM     94  O   UNL     1      -2.026   5.793   6.258  1.00  0.00    -0.744 OA
ENDBRANCH  90  91
ENDBRANCH  58  83
BRANCH  70  95
ATOM     95  C   UNL     1       0.860   5.463  17.288  1.00  0.00     0.058 A 
ATOM     96  C   UNL     1       0.350   4.168  17.075  1.00  0.00     0.135 A 
ATOM     97  C   UNL     1       0.663   6.022  18.560  1.00  0.00     0.135 A 
ATOM     98  F   UNL     1       0.583   3.514  15.928  1.00  0.00    -0.206 F 
ATOM     99  C   UNL     1      -0.365   3.486  18.063  1.00  0.00     0.059 A 
ATOM    100  C   UNL     1      -0.015   5.348  19.570  1.00  0.00     0.059 A 
ATOM    101  F   UNL     1       1.179   7.228  18.850  1.00  0.00    -0.206 F 
ATOM    102  C   UNL     1      -0.544   4.088  19.309  1.00  0.00     0.060 A 
BRANCH 102 103
ATOM    103  S   UNL     1      -1.435   3.198  20.604  1.00  0.00     0.124 S 
ATOM    104  O   UNL     1      -2.803   3.205  20.094  1.00  0.00    -0.237 OA
ATOM    105  O   UNL     1      -0.768   1.900  20.614  1.00  0.00    -0.237 OA
ATOM    106  O   UNL     1      -1.211   4.014  21.795  1.00  0.00    -0.744 OA
ENDBRANCH 102 103
ENDBRANCH  70  95
ENDBRANCH  44  45
ENDBRANCH  36  39
ENDBRANCH  34  35
ENDBRANCH  33  34
ENDBRANCH  32  33
ENDBRANCH   1  32
TORSDOF 22
