REMARK SMILES O=C(NCCCCCCNC(=O)[C@H]1Cc2c([nH]c3ccccc23)[C@@H](c2ccc(OC(F)(F)F)cc2)[NH2+]1)c1ccc(-c2c3nc(c(-c4c(F)cc(S(=O)(=O)[O-])cc4F)c4ccc([nH]4)c(-c4c(F)cc(S(=O)(=O)[O-])cc4F)c4nc(c(-c5c(F)cc(S(=O)(=O)[O-])cc5F)c5ccc2[nH]5)C=C4)C=C3)cc1
REMARK SMILES IDX 6 1 5 2 4 3 3 4 1 5 2 6 37 8 38 9 102 10 39 11 101 12 40 13
REMARK SMILES IDX 41 14 42 15 95 16 43 17 100 18 94 19 96 20 44 21 99 22 93 23
REMARK SMILES IDX 92 24 45 26 79 27 58 28 78 29 59 30 62 31 77 32 97 33 60 34
REMARK SMILES IDX 61 35 76 37 98 38 63 39 46 40 47 41 56 42 48 43 49 44 55 45
REMARK SMILES IDX 57 46 50 47 51 48 52 49 53 50 54 51 80 52 81 53 90 54 82 55
REMARK SMILES IDX 83 56 89 57 91 58 84 59 85 60 86 61 87 62 88 63 64 64 65 65
REMARK SMILES IDX 74 66 66 67 67 68 73 69 75 70 68 71 69 72 70 73 71 74 72 75
REMARK SMILES IDX 7 76 8 77 9 78 10 79 11 80 12 82 13 83 14 84 36 85 15 86
REMARK SMILES IDX 24 87 16 90 23 91 17 92 18 93 22 94 19 96 21 97 20 98 25 99
REMARK SMILES IDX 26 100 35 101 27 102 34 103 28 104 29 105 30 106 31 107
REMARK SMILES IDX 32 108 33 109
REMARK H PARENT 3 7 96 25 62 36 10 81 36 88 36 89 17 95
REMARK Flexibility Score: inf
ROOT
ATOM      1  C   UNL     1       4.057  -3.841  -0.787  1.00  0.00     0.002 C 
ENDROOT
BRANCH   1   2
ATOM      2  C   UNL     1       4.467  -2.736   0.187  1.00  0.00     0.021 C 
BRANCH   2   3
ATOM      3  C   UNL     1       4.312  -1.316  -0.346  1.00  0.00     0.116 C 
BRANCH   3   4
ATOM      4  N   UNL     1       2.923  -0.949  -0.571  1.00  0.00    -0.352 N 
ATOM      5  O   UNL     1       1.005   0.195  -0.255  1.00  0.00    -0.269 OA
ATOM      6  C   UNL     1       2.220   0.130  -0.090  1.00  0.00     0.251 C 
ATOM      7  H   UNL     1       2.413  -1.561  -1.149  1.00  0.00     0.163 HD
BRANCH   6   8
ATOM      8  C   UNL     1       2.927   1.198   0.653  1.00  0.00     0.039 A 
ATOM      9  C   UNL     1       4.134   1.718   0.179  1.00  0.00     0.014 A 
ATOM     10  C   UNL     1       2.378   1.680   1.845  1.00  0.00     0.014 A 
ATOM     11  C   UNL     1       4.864   2.599   0.970  1.00  0.00     0.010 A 
ATOM     12  C   UNL     1       3.076   2.628   2.600  1.00  0.00     0.010 A 
ATOM     13  C   UNL     1       4.346   3.064   2.191  1.00  0.00    -0.014 A 
BRANCH  13  14
ATOM     14  C   UNL     1       5.145   4.017   3.005  1.00  0.00     0.031 A 
ATOM     15  C   UNL     1       5.674   3.627   4.360  1.00  0.00     0.074 A 
ATOM     16  C   UNL     1       5.431   5.231   2.495  1.00  0.00     0.049 A 
ATOM     17  N   UNL     1       6.433   4.314   5.177  1.00  0.00    -0.248 NA
ATOM     18  C   UNL     1       5.300   2.299   4.870  1.00  0.00     0.031 C 
ATOM     19  C   UNL     1       4.962   5.731   1.200  1.00  0.00     0.029 A 
ATOM     20  N   UNL     1       6.199   6.255   2.986  1.00  0.00    -0.354 N 
ATOM     21  C   UNL     1       6.603   3.519   6.304  1.00  0.00     0.074 A 
ATOM     22  C   UNL     1       5.853   2.303   6.075  1.00  0.00     0.031 C 
ATOM     23  C   UNL     1       5.496   6.940   0.975  1.00  0.00     0.029 A 
ATOM     24  C   UNL     1       6.303   7.324   2.129  1.00  0.00     0.049 A 
ATOM     25  H   UNL     1       6.636   6.226   3.868  1.00  0.00     0.167 HD
ATOM     26  C   UNL     1       7.324   3.776   7.424  1.00  0.00     0.037 A 
ATOM     27  C   UNL     1       6.971   8.486   2.254  1.00  0.00     0.037 A 
ATOM     28  C   UNL     1       8.092   4.977   7.636  1.00  0.00     0.049 A 
ATOM     29  C   UNL     1       7.774   8.739   3.497  1.00  0.00     0.074 A 
ATOM     30  C   UNL     1       8.889   5.310   8.718  1.00  0.00     0.029 A 
ATOM     31  N   UNL     1       8.160   6.042   6.749  1.00  0.00    -0.354 N 
ATOM     32  N   UNL     1       7.951   7.959   4.536  1.00  0.00    -0.248 NA
ATOM     33  C   UNL     1       8.471  10.029   3.584  1.00  0.00     0.031 C 
ATOM     34  C   UNL     1       9.411   6.591   8.501  1.00  0.00     0.029 A 
ATOM     35  C   UNL     1       8.974   7.038   7.265  1.00  0.00     0.049 A 
ATOM     36  H   UNL     1       7.698   6.083   5.881  1.00  0.00     0.167 HD
ATOM     37  C   UNL     1       8.798   8.654   5.391  1.00  0.00     0.074 A 
ATOM     38  C   UNL     1       9.106   9.912   4.742  1.00  0.00     0.031 C 
ATOM     39  C   UNL     1       9.277   8.282   6.604  1.00  0.00     0.037 A 
BRANCH  26  40
ATOM     40  C   UNL     1       7.302   2.744   8.519  1.00  0.00     0.058 A 
ATOM     41  C   UNL     1       7.987   1.525   8.402  1.00  0.00     0.135 A 
ATOM     42  C   UNL     1       6.611   2.994   9.716  1.00  0.00     0.135 A 
ATOM     43  F   UNL     1       8.653   1.228   7.274  1.00  0.00    -0.206 F 
ATOM     44  C   UNL     1       7.962   0.576   9.420  1.00  0.00     0.059 A 
ATOM     45  C   UNL     1       6.591   2.069  10.756  1.00  0.00     0.059 A 
ATOM     46  F   UNL     1       5.941   4.145   9.882  1.00  0.00    -0.206 F 
ATOM     47  C   UNL     1       7.257   0.855  10.592  1.00  0.00     0.060 A 
BRANCH  47  48
ATOM     48  S   UNL     1       7.222  -0.390  11.899  1.00  0.00     0.124 S 
ATOM     49  O   UNL     1       6.274  -1.356  11.353  1.00  0.00    -0.237 OA
ATOM     50  O   UNL     1       8.613  -0.829  11.953  1.00  0.00    -0.237 OA
ATOM     51  O   UNL     1       6.758   0.355  13.065  1.00  0.00    -0.744 OA
ENDBRANCH  47  48
ENDBRANCH  26  40
BRANCH  27  52
ATOM     52  C   UNL     1       6.925   9.483   1.154  1.00  0.00     0.058 A 
ATOM     53  C   UNL     1       8.047   9.715   0.345  1.00  0.00     0.135 A 
ATOM     54  C   UNL     1       5.751  10.198   0.870  1.00  0.00     0.135 A 
ATOM     55  F   UNL     1       9.192   9.056   0.582  1.00  0.00    -0.206 F 
ATOM     56  C   UNL     1       8.011  10.627  -0.703  1.00  0.00     0.059 A 
ATOM     57  C   UNL     1       5.684  11.098  -0.189  1.00  0.00     0.059 A 
ATOM     58  F   UNL     1       4.647   9.997   1.605  1.00  0.00    -0.206 F 
ATOM     59  C   UNL     1       6.823  11.312  -0.964  1.00  0.00     0.060 A 
BRANCH  59  60
ATOM     60  S   UNL     1       6.765  12.449  -2.366  1.00  0.00     0.124 S 
ATOM     61  O   UNL     1       7.482  13.603  -1.836  1.00  0.00    -0.237 OA
ATOM     62  O   UNL     1       7.455  11.691  -3.406  1.00  0.00    -0.237 OA
ATOM     63  O   UNL     1       5.334  12.637  -2.584  1.00  0.00    -0.744 OA
ENDBRANCH  59  60
ENDBRANCH  27  52
BRANCH  39  64
ATOM     64  C   UNL     1      10.220   9.232   7.286  1.00  0.00     0.058 A 
ATOM     65  C   UNL     1       9.768  10.419   7.883  1.00  0.00     0.135 A 
ATOM     66  C   UNL     1      11.590   8.937   7.362  1.00  0.00     0.135 A 
ATOM     67  F   UNL     1       8.468  10.749   7.831  1.00  0.00    -0.206 F 
ATOM     68  C   UNL     1      10.648  11.298   8.506  1.00  0.00     0.059 A 
ATOM     69  C   UNL     1      12.485   9.790   8.001  1.00  0.00     0.059 A 
ATOM     70  F   UNL     1      12.071   7.809   6.815  1.00  0.00    -0.206 F 
ATOM     71  C   UNL     1      12.006  10.976   8.556  1.00  0.00     0.060 A 
BRANCH  71  72
ATOM     72  S   UNL     1      13.140  12.115   9.378  1.00  0.00     0.124 S 
ATOM     73  O   UNL     1      13.302  13.151   8.363  1.00  0.00    -0.237 OA
ATOM     74  O   UNL     1      12.390  12.504  10.568  1.00  0.00    -0.237 OA
ATOM     75  O   UNL     1      14.320  11.292   9.630  1.00  0.00    -0.744 OA
ENDBRANCH  71  72
ENDBRANCH  39  64
ENDBRANCH  13  14
ENDBRANCH   6   8
ENDBRANCH   3   4
ENDBRANCH   2   3
ENDBRANCH   1   2
BRANCH   1  76
ATOM     76  C   UNL     1       4.788  -3.836  -2.133  1.00  0.00     0.002 C 
BRANCH  76  77
ATOM     77  C   UNL     1       6.320  -3.834  -2.056  1.00  0.00     0.021 C 
BRANCH  77  78
ATOM     78  C   UNL     1       6.922  -5.019  -1.298  1.00  0.00     0.116 C 
BRANCH  78  79
ATOM     79  N   UNL     1       6.638  -6.276  -1.965  1.00  0.00    -0.351 N 
ATOM     80  C   UNL     1       7.478  -7.139  -2.618  1.00  0.00     0.278 C 
ATOM     81  H   UNL     1       5.693  -6.552  -1.946  1.00  0.00     0.163 HD
ATOM     82  O   UNL     1       6.988  -8.170  -3.083  1.00  0.00    -0.268 OA
BRANCH  80  83
ATOM     83  C   UNL     1       8.977  -6.808  -2.700  1.00  0.00     0.277 C 
ATOM     84  C   UNL     1       9.768  -8.041  -3.209  1.00  0.00     0.114 C 
ATOM     85  N   UNL     1       9.198  -5.651  -3.610  1.00  0.00    -0.325 N 
ATOM     86  C   UNL     1      11.190  -7.647  -3.417  1.00  0.00    -0.006 A 
ATOM     87  C   UNL     1      10.589  -5.149  -3.560  1.00  0.00     0.262 C 
ATOM     88  H   UNL     1       8.567  -4.897  -3.338  1.00  0.00     0.347 HD
ATOM     89  H   UNL     1       9.016  -5.967  -4.562  1.00  0.00     0.347 HD
ATOM     90  C   UNL     1      11.538  -6.316  -3.559  1.00  0.00     0.083 A 
ATOM     91  C   UNL     1      12.365  -8.425  -3.550  1.00  0.00     0.003 A 
ATOM     92  N   UNL     1      12.904  -6.253  -3.637  1.00  0.00    -0.353 N 
ATOM     93  C   UNL     1      13.429  -7.529  -3.688  1.00  0.00     0.046 A 
ATOM     94  C   UNL     1      12.631  -9.807  -3.574  1.00  0.00     0.010 A 
ATOM     95  H   UNL     1      13.433  -5.422  -3.655  1.00  0.00     0.166 HD
ATOM     96  C   UNL     1      14.752  -7.956  -3.847  1.00  0.00     0.026 A 
ATOM     97  C   UNL     1      13.947 -10.249  -3.747  1.00  0.00     0.001 A 
ATOM     98  C   UNL     1      14.990  -9.335  -3.880  1.00  0.00     0.002 A 
BRANCH  87  99
ATOM     99  C   UNL     1      10.773  -4.155  -4.704  1.00  0.00     0.016 A 
ATOM    100  C   UNL     1      11.397  -4.491  -5.914  1.00  0.00     0.014 A 
ATOM    101  C   UNL     1      10.214  -2.869  -4.592  1.00  0.00     0.014 A 
ATOM    102  C   UNL     1      11.479  -3.567  -6.960  1.00  0.00     0.047 A 
ATOM    103  C   UNL     1      10.267  -1.955  -5.653  1.00  0.00     0.047 A 
ATOM    104  C   UNL     1      10.895  -2.305  -6.847  1.00  0.00     0.129 A 
BRANCH 104 105
ATOM    105  O   UNL     1      11.015  -1.524  -7.959  1.00  0.00    -0.406 OA
BRANCH 105 106
ATOM    106  C   UNL     1      10.146  -0.409  -8.067  1.00  0.00     0.573 C 
ATOM    107  F   UNL     1       8.854  -0.776  -7.923  1.00  0.00    -0.132 F 
ATOM    108  F   UNL     1      10.453   0.536  -7.154  1.00  0.00    -0.132 F 
ATOM    109  F   UNL     1      10.292   0.132  -9.298  1.00  0.00    -0.132 F 
ENDBRANCH 105 106
ENDBRANCH 104 105
ENDBRANCH  87  99
ENDBRANCH  80  83
ENDBRANCH  78  79
ENDBRANCH  77  78
ENDBRANCH  76  77
ENDBRANCH   1  76
TORSDOF 19
