REMARK SMILES O=C(NCCCCCCNC(=O)c1ccc(-c2c3nc(c(-c4c(F)cc(S(=O)(=O)[O-])cc4F)c4ccc([nH]4)c(-c4c(F)cc(S(=O)(=O)[O-])cc4F)c4nc(c(-c5c(F)cc(S(=O)(=O)[O-])cc5F)c5ccc2[nH]5)C=C4)C=C3)cc1)C1=CCc2ccccc21
REMARK SMILES IDX 8 1 7 2 6 3 5 4 4 5 3 6 1 7 2 8 79 10 80 11 87 12 81 13
REMARK SMILES IDX 82 14 86 15 83 16 85 17 84 18 9 19 10 20 11 21 12 23 13 24
REMARK SMILES IDX 14 25 78 26 15 27 77 28 16 29 17 30 18 31 71 32 19 33 76 34
REMARK SMILES IDX 70 35 72 36 20 37 75 38 69 39 68 40 21 42 55 43 34 44 54 45
REMARK SMILES IDX 35 46 38 47 53 48 73 49 36 50 37 51 52 53 74 54 39 55 22 56
REMARK SMILES IDX 23 57 32 58 24 59 25 60 31 61 33 62 26 63 27 64 28 65 29 66
REMARK SMILES IDX 30 67 56 68 57 69 66 70 58 71 59 72 65 73 67 74 60 75 61 76
REMARK SMILES IDX 62 77 63 78 64 79 40 80 41 81 50 82 42 83 43 84 49 85 51 86
REMARK SMILES IDX 44 87 45 88 46 89 47 90 48 91
REMARK H PARENT 3 9 10 22 72 41 38 52
REMARK Flexibility Score: inf
ROOT
ATOM      1  C   UNL     1       6.118  -1.404  -4.397  1.00  0.00     0.021 C 
ENDROOT
BRANCH   1   2
ATOM      2  C   UNL     1       4.600  -1.566  -4.494  1.00  0.00     0.002 C 
BRANCH   2   3
ATOM      3  C   UNL     1       3.922  -2.233  -3.287  1.00  0.00     0.002 C 
BRANCH   3   4
ATOM      4  C   UNL     1       4.141  -1.554  -1.927  1.00  0.00     0.021 C 
BRANCH   4   5
ATOM      5  C   UNL     1       3.852  -0.051  -1.944  1.00  0.00     0.116 C 
BRANCH   5   6
ATOM      6  N   UNL     1       2.791   0.379  -1.042  1.00  0.00    -0.352 N 
ATOM      7  O   UNL     1       1.842   1.587   0.618  1.00  0.00    -0.269 OA
ATOM      8  C   UNL     1       2.864   1.165   0.082  1.00  0.00     0.251 C 
ATOM      9  H   UNL     1       1.889   0.060  -1.273  1.00  0.00     0.163 HD
BRANCH   8  10
ATOM     10  C   UNL     1       4.193   1.325   0.703  1.00  0.00     0.043 C 
ATOM     11  C   UNL     1       4.542   0.334   1.547  1.00  0.00    -0.008 C 
ATOM     12  C   UNL     1       5.411   1.885   0.127  1.00  0.00    -0.010 A 
ATOM     13  C   UNL     1       6.013   0.031   1.479  1.00  0.00     0.064 C 
ATOM     14  C   UNL     1       6.477   1.047   0.481  1.00  0.00    -0.036 A 
ATOM     15  C   UNL     1       5.603   2.963  -0.723  1.00  0.00     0.009 A 
ATOM     16  C   UNL     1       7.722   1.183  -0.104  1.00  0.00     0.004 A 
ATOM     17  C   UNL     1       6.875   3.143  -1.278  1.00  0.00     0.001 A 
ATOM     18  C   UNL     1       7.914   2.239  -0.999  1.00  0.00     0.000 A 
ENDBRANCH   8  10
ENDBRANCH   5   6
ENDBRANCH   4   5
ENDBRANCH   3   4
ENDBRANCH   2   3
ENDBRANCH   1   2
BRANCH   1  19
ATOM     19  C   UNL     1       6.891  -2.718  -4.356  1.00  0.00     0.116 C 
BRANCH  19  20
ATOM     20  N   UNL     1       6.644  -3.525  -5.545  1.00  0.00    -0.352 N 
ATOM     21  C   UNL     1       7.510  -3.916  -6.530  1.00  0.00     0.251 C 
ATOM     22  H   UNL     1       5.716  -3.834  -5.656  1.00  0.00     0.163 HD
ATOM     23  O   UNL     1       7.064  -4.353  -7.597  1.00  0.00    -0.269 OA
BRANCH  21  24
ATOM     24  C   UNL     1       8.968  -3.825  -6.323  1.00  0.00     0.039 A 
ATOM     25  C   UNL     1       9.784  -3.391  -7.371  1.00  0.00     0.014 A 
ATOM     26  C   UNL     1       9.535  -4.209  -5.104  1.00  0.00     0.014 A 
ATOM     27  C   UNL     1      11.164  -3.296  -7.179  1.00  0.00     0.010 A 
ATOM     28  C   UNL     1      10.900  -4.043  -4.891  1.00  0.00     0.010 A 
ATOM     29  C   UNL     1      11.730  -3.596  -5.929  1.00  0.00    -0.014 A 
BRANCH  29  30
ATOM     30  C   UNL     1      13.188  -3.458  -5.689  1.00  0.00     0.031 A 
ATOM     31  C   UNL     1      14.016  -4.670  -5.357  1.00  0.00     0.074 A 
ATOM     32  C   UNL     1      13.750  -2.233  -5.704  1.00  0.00     0.049 A 
ATOM     33  N   UNL     1      15.285  -4.744  -5.048  1.00  0.00    -0.248 NA
ATOM     34  C   UNL     1      13.320  -5.967  -5.344  1.00  0.00     0.031 C 
ATOM     35  C   UNL     1      13.039  -0.980  -5.967  1.00  0.00     0.029 A 
ATOM     36  N   UNL     1      15.046  -1.838  -5.485  1.00  0.00    -0.354 N 
ATOM     37  C   UNL     1      15.535  -6.088  -4.790  1.00  0.00     0.074 A 
ATOM     38  C   UNL     1      14.275  -6.785  -4.926  1.00  0.00     0.031 C 
ATOM     39  C   UNL     1      13.910   0.040  -5.917  1.00  0.00     0.029 A 
ATOM     40  C   UNL     1      15.232  -0.479  -5.580  1.00  0.00     0.049 A 
ATOM     41  H   UNL     1      15.773  -2.469  -5.280  1.00  0.00     0.167 HD
ATOM     42  C   UNL     1      16.712  -6.687  -4.492  1.00  0.00     0.037 A 
ATOM     43  C   UNL     1      16.341   0.265  -5.406  1.00  0.00     0.037 A 
ATOM     44  C   UNL     1      17.965  -5.986  -4.383  1.00  0.00     0.049 A 
ATOM     45  C   UNL     1      17.637  -0.423  -5.070  1.00  0.00     0.074 A 
ATOM     46  C   UNL     1      19.225  -6.506  -4.144  1.00  0.00     0.029 A 
ATOM     47  N   UNL     1      18.117  -4.611  -4.503  1.00  0.00    -0.354 N 
ATOM     48  N   UNL     1      17.868  -1.703  -4.895  1.00  0.00    -0.248 NA
ATOM     49  C   UNL     1      18.822   0.430  -4.914  1.00  0.00     0.031 C 
ATOM     50  C   UNL     1      20.130  -5.442  -4.070  1.00  0.00     0.029 A 
ATOM     51  C   UNL     1      19.445  -4.264  -4.319  1.00  0.00     0.049 A 
ATOM     52  H   UNL     1      17.388  -3.977  -4.691  1.00  0.00     0.167 HD
ATOM     53  C   UNL     1      19.231  -1.811  -4.638  1.00  0.00     0.074 A 
ATOM     54  C   UNL     1      19.772  -0.468  -4.692  1.00  0.00     0.031 C 
ATOM     55  C   UNL     1      19.968  -2.921  -4.383  1.00  0.00     0.037 A 
BRANCH  42  56
ATOM     56  C   UNL     1      16.702  -8.175  -4.262  1.00  0.00     0.058 A 
ATOM     57  C   UNL     1      16.470  -9.083  -5.309  1.00  0.00     0.135 A 
ATOM     58  C   UNL     1      16.960  -8.703  -2.986  1.00  0.00     0.135 A 
ATOM     59  F   UNL     1      16.203  -8.635  -6.546  1.00  0.00    -0.206 F 
ATOM     60  C   UNL     1      16.464 -10.457  -5.093  1.00  0.00     0.059 A 
ATOM     61  C   UNL     1      16.989 -10.075  -2.754  1.00  0.00     0.059 A 
ATOM     62  F   UNL     1      17.189  -7.883  -1.949  1.00  0.00    -0.206 F 
ATOM     63  C   UNL     1      16.724 -10.944  -3.811  1.00  0.00     0.060 A 
BRANCH  63  64
ATOM     64  S   UNL     1      16.715 -12.730  -3.550  1.00  0.00     0.124 S 
ATOM     65  O   UNL     1      15.289 -13.030  -3.642  1.00  0.00    -0.237 OA
ATOM     66  O   UNL     1      17.535 -13.212  -4.657  1.00  0.00    -0.237 OA
ATOM     67  O   UNL     1      17.303 -12.884  -2.223  1.00  0.00    -0.744 OA
ENDBRANCH  63  64
ENDBRANCH  42  56
BRANCH  43  68
ATOM     68  C   UNL     1      16.279   1.742  -5.571  1.00  0.00     0.058 A 
ATOM     69  C   UNL     1      16.898   2.373  -6.660  1.00  0.00     0.135 A 
ATOM     70  C   UNL     1      15.589   2.551  -4.654  1.00  0.00     0.135 A 
ATOM     71  F   UNL     1      17.574   1.644  -7.561  1.00  0.00    -0.206 F 
ATOM     72  C   UNL     1      16.851   3.753  -6.827  1.00  0.00     0.059 A 
ATOM     73  C   UNL     1      15.505   3.930  -4.814  1.00  0.00     0.059 A 
ATOM     74  F   UNL     1      14.963   1.996  -3.604  1.00  0.00    -0.206 F 
ATOM     75  C   UNL     1      16.149   4.524  -5.899  1.00  0.00     0.060 A 
BRANCH  75  76
ATOM     76  S   UNL     1      16.056   6.309  -6.150  1.00  0.00     0.124 S 
ATOM     77  O   UNL     1      17.413   6.724  -5.815  1.00  0.00    -0.237 OA
ATOM     78  O   UNL     1      15.688   6.401  -7.559  1.00  0.00    -0.237 OA
ATOM     79  O   UNL     1      15.018   6.726  -5.211  1.00  0.00    -0.744 OA
ENDBRANCH  75  76
ENDBRANCH  43  68
BRANCH  55  80
ATOM     80  C   UNL     1      21.446  -2.738  -4.178  1.00  0.00     0.058 A 
ATOM     81  C   UNL     1      21.965  -2.150  -3.014  1.00  0.00     0.135 A 
ATOM     82  C   UNL     1      22.358  -3.207  -5.138  1.00  0.00     0.135 A 
ATOM     83  F   UNL     1      21.137  -1.678  -2.069  1.00  0.00    -0.206 F 
ATOM     84  C   UNL     1      23.335  -2.011  -2.820  1.00  0.00     0.059 A 
ATOM     85  C   UNL     1      23.733  -3.106  -4.951  1.00  0.00     0.059 A 
ATOM     86  F   UNL     1      21.915  -3.788  -6.265  1.00  0.00    -0.206 F 
ATOM     87  C   UNL     1      24.212  -2.495  -3.793  1.00  0.00     0.060 A 
BRANCH  87  88
ATOM     88  S   UNL     1      25.988  -2.341  -3.512  1.00  0.00     0.124 S 
ATOM     89  O   UNL     1      26.196  -0.912  -3.723  1.00  0.00    -0.237 OA
ATOM     90  O   UNL     1      26.127  -2.805  -2.135  1.00  0.00    -0.237 OA
ATOM     91  O   UNL     1      26.570  -3.217  -4.524  1.00  0.00    -0.744 OA
ENDBRANCH  87  88
ENDBRANCH  55  80
ENDBRANCH  29  30
ENDBRANCH  21  24
ENDBRANCH  19  20
ENDBRANCH   1  19
TORSDOF 16
