REMARK SMILES O=C(NCCCCCCNC(=O)c1cccc(Nc2nc(-c3ccc(F)cc3F)cs2)c1)c1ccc(-c2c3nc(c(-c4c(F)cc(S(=O)(=O)[O-])cc4F)c4ccc([nH]4)c(-c4c(F)cc(S(=O)(=O)[O-])cc4F)c4nc(c(-c5c(F)cc(S(=O)(=O)[O-])cc5F)c5ccc2[nH]5)C=C4)C=C3)cc1
REMARK SMILES IDX 6 1 5 2 4 3 3 4 1 5 2 6 33 8 34 9 98 10 35 11 97 12 36 13
REMARK SMILES IDX 37 14 38 15 91 16 39 17 96 18 90 19 92 20 40 21 95 22 89 23
REMARK SMILES IDX 88 24 41 26 75 27 54 28 74 29 55 30 58 31 73 32 93 33 56 34
REMARK SMILES IDX 57 35 72 37 94 38 59 39 42 40 43 41 52 42 44 43 45 44 51 45
REMARK SMILES IDX 53 46 46 47 47 48 48 49 49 50 50 51 76 52 77 53 86 54 78 55
REMARK SMILES IDX 79 56 85 57 87 58 80 59 81 60 82 61 83 62 84 63 60 64 61 65
REMARK SMILES IDX 70 66 62 67 63 68 69 69 71 70 64 71 65 72 66 73 67 74 68 75
REMARK SMILES IDX 7 76 8 77 9 78 10 79 11 80 12 82 13 83 14 84 32 85 15 86
REMARK SMILES IDX 17 87 16 88 18 89 19 91 20 92 31 93 21 94 30 95 22 96 23 97
REMARK SMILES IDX 28 98 24 99 27 100 29 101 25 102 26 103
REMARK H PARENT 3 7 92 25 58 36 10 81 18 90
REMARK Flexibility Score: inf
ROOT
ATOM      1  C   UNL     1       4.264  -2.708  -2.769  1.00  0.00     0.002 C 
ENDROOT
BRANCH   1   2
ATOM      2  C   UNL     1       4.712  -2.304  -1.365  1.00  0.00     0.021 C 
BRANCH   2   3
ATOM      3  C   UNL     1       4.494  -0.840  -1.003  1.00  0.00     0.116 C 
BRANCH   3   4
ATOM      4  N   UNL     1       3.089  -0.469  -0.956  1.00  0.00    -0.352 N 
ATOM      5  O   UNL     1       1.175   0.294  -0.038  1.00  0.00    -0.269 OA
ATOM      6  C   UNL     1       2.395   0.178   0.040  1.00  0.00     0.251 C 
ATOM      7  H   UNL     1       2.559  -0.716  -1.749  1.00  0.00     0.163 HD
BRANCH   6   8
ATOM      8  C   UNL     1       3.118   0.704   1.221  1.00  0.00     0.039 A 
ATOM      9  C   UNL     1       4.312   1.412   1.072  1.00  0.00     0.014 A 
ATOM     10  C   UNL     1       2.595   0.475   2.497  1.00  0.00     0.014 A 
ATOM     11  C   UNL     1       5.056   1.755   2.196  1.00  0.00     0.010 A 
ATOM     12  C   UNL     1       3.305   0.896   3.627  1.00  0.00     0.010 A 
ATOM     13  C   UNL     1       4.561   1.506   3.487  1.00  0.00    -0.014 A 
BRANCH  13  14
ATOM     14  C   UNL     1       5.360   1.932   4.667  1.00  0.00     0.031 A 
ATOM     15  C   UNL     1       5.931   0.924   5.628  1.00  0.00     0.074 A 
ATOM     16  C   UNL     1       5.605   3.245   4.842  1.00  0.00     0.049 A 
ATOM     17  N   UNL     1       6.694   1.125   6.673  1.00  0.00    -0.248 NA
ATOM     18  C   UNL     1       5.596  -0.489   5.396  1.00  0.00     0.031 C 
ATOM     19  C   UNL     1       5.092   4.318   3.985  1.00  0.00     0.029 A 
ATOM     20  N   UNL     1       6.364   3.903   5.775  1.00  0.00    -0.354 N 
ATOM     21  C   UNL     1       6.912  -0.127   7.237  1.00  0.00     0.074 A 
ATOM     22  C   UNL     1       6.182  -1.081   6.429  1.00  0.00     0.031 C 
ATOM     23  C   UNL     1       5.598   5.490   4.395  1.00  0.00     0.029 A 
ATOM     24  C   UNL     1       6.425   5.261   5.574  1.00  0.00     0.049 A 
ATOM     25  H   UNL     1       6.822   3.446   6.517  1.00  0.00     0.167 HD
ATOM     26  C   UNL     1       7.656  -0.451   8.323  1.00  0.00     0.037 A 
ATOM     27  C   UNL     1       7.071   6.221   6.263  1.00  0.00     0.037 A 
ATOM     28  C   UNL     1       8.401   0.502   9.108  1.00  0.00     0.049 A 
ATOM     29  C   UNL     1       7.891   5.835   7.459  1.00  0.00     0.074 A 
ATOM     30  C   UNL     1       9.223   0.266  10.197  1.00  0.00     0.029 A 
ATOM     31  N   UNL     1       8.413   1.872   8.891  1.00  0.00    -0.354 N 
ATOM     32  N   UNL     1       8.113   4.641   7.955  1.00  0.00    -0.248 NA
ATOM     33  C   UNL     1       8.545   6.926   8.193  1.00  0.00     0.031 C 
ATOM     34  C   UNL     1       9.701   1.496  10.661  1.00  0.00     0.029 A 
ATOM     35  C   UNL     1       9.211   2.496   9.837  1.00  0.00     0.049 A 
ATOM     36  H   UNL     1       7.927   2.334   8.170  1.00  0.00     0.167 HD
ATOM     37  C   UNL     1       8.945   4.834   9.050  1.00  0.00     0.074 A 
ATOM     38  C   UNL     1       9.200   6.259   9.134  1.00  0.00     0.031 C 
ATOM     39  C   UNL     1       9.452   3.916   9.909  1.00  0.00     0.037 A 
BRANCH  26  40
ATOM     40  C   UNL     1       7.687  -1.896   8.742  1.00  0.00     0.058 A 
ATOM     41  C   UNL     1       8.395  -2.864   8.013  1.00  0.00     0.135 A 
ATOM     42  C   UNL     1       7.024  -2.312   9.908  1.00  0.00     0.135 A 
ATOM     43  F   UNL     1       9.037  -2.525   6.884  1.00  0.00    -0.206 F 
ATOM     44  C   UNL     1       8.419  -4.199   8.407  1.00  0.00     0.059 A 
ATOM     45  C   UNL     1       7.053  -3.637  10.334  1.00  0.00     0.059 A 
ATOM     46  F   UNL     1       6.335  -1.427  10.646  1.00  0.00    -0.206 F 
ATOM     47  C   UNL     1       7.739  -4.577   9.567  1.00  0.00     0.060 A 
BRANCH  47  48
ATOM     48  S   UNL     1       7.766  -6.314  10.060  1.00  0.00     0.124 S 
ATOM     49  O   UNL     1       6.828  -6.900   9.107  1.00  0.00    -0.237 OA
ATOM     50  O   UNL     1       9.168  -6.674   9.869  1.00  0.00    -0.237 OA
ATOM     51  O   UNL     1       7.314  -6.281  11.447  1.00  0.00    -0.744 OA
ENDBRANCH  47  48
ENDBRANCH  26  40
BRANCH  27  52
ATOM     52  C   UNL     1       6.977   7.635   5.819  1.00  0.00     0.058 A 
ATOM     53  C   UNL     1       8.076   8.279   5.232  1.00  0.00     0.135 A 
ATOM     54  C   UNL     1       5.779   8.356   5.937  1.00  0.00     0.135 A 
ATOM     55  F   UNL     1       9.243   7.630   5.102  1.00  0.00    -0.206 F 
ATOM     56  C   UNL     1       7.994   9.592   4.784  1.00  0.00     0.059 A 
ATOM     57  C   UNL     1       5.665   9.662   5.473  1.00  0.00     0.059 A 
ATOM     58  F   UNL     1       4.696   7.776   6.476  1.00  0.00    -0.206 F 
ATOM     59  C   UNL     1       6.782  10.275   4.905  1.00  0.00     0.060 A 
BRANCH  59  60
ATOM     60  S   UNL     1       6.664  11.958   4.262  1.00  0.00     0.124 S 
ATOM     61  O   UNL     1       7.357  12.716   5.297  1.00  0.00    -0.237 OA
ATOM     62  O   UNL     1       7.353  11.848   2.980  1.00  0.00    -0.237 OA
ATOM     63  O   UNL     1       5.223  12.180   4.172  1.00  0.00    -0.744 OA
ENDBRANCH  59  60
ENDBRANCH  27  52
BRANCH  39  64
ATOM     64  C   UNL     1      10.353   4.426  10.998  1.00  0.00     0.058 A 
ATOM     65  C   UNL     1       9.845   5.119  12.107  1.00  0.00     0.135 A 
ATOM     66  C   UNL     1      11.737   4.201  10.939  1.00  0.00     0.135 A 
ATOM     67  F   UNL     1       8.530   5.367  12.205  1.00  0.00    -0.206 F 
ATOM     68  C   UNL     1      10.684   5.598  13.108  1.00  0.00     0.059 A 
ATOM     69  C   UNL     1      12.591   4.651  11.940  1.00  0.00     0.059 A 
ATOM     70  F   UNL     1      12.271   3.536   9.902  1.00  0.00    -0.206 F 
ATOM     71  C   UNL     1      12.056   5.363  13.014  1.00  0.00     0.060 A 
BRANCH  71  72
ATOM     72  S   UNL     1      13.136   5.976  14.325  1.00  0.00     0.124 S 
ATOM     73  O   UNL     1      13.228   7.393  13.989  1.00  0.00    -0.237 OA
ATOM     74  O   UNL     1      12.380   5.657  15.532  1.00  0.00    -0.237 OA
ATOM     75  O   UNL     1      14.362   5.205  14.140  1.00  0.00    -0.744 OA
ENDBRANCH  71  72
ENDBRANCH  39  64
ENDBRANCH  13  14
ENDBRANCH   6   8
ENDBRANCH   3   4
ENDBRANCH   2   3
ENDBRANCH   1   2
BRANCH   1  76
ATOM     76  C   UNL     1       4.851  -1.884  -3.918  1.00  0.00     0.002 C 
BRANCH  76  77
ATOM     77  C   UNL     1       6.379  -1.760  -3.947  1.00  0.00     0.021 C 
BRANCH  77  78
ATOM     78  C   UNL     1       7.149  -3.079  -3.921  1.00  0.00     0.116 C 
BRANCH  78  79
ATOM     79  N   UNL     1       6.830  -3.920  -5.061  1.00  0.00    -0.352 N 
ATOM     80  C   UNL     1       7.666  -4.449  -6.009  1.00  0.00     0.251 C 
ATOM     81  H   UNL     1       5.876  -4.141  -5.168  1.00  0.00     0.163 HD
ATOM     82  O   UNL     1       7.207  -5.003  -7.004  1.00  0.00    -0.269 OA
BRANCH  80  83
ATOM     83  C   UNL     1       9.128  -4.348  -5.841  1.00  0.00     0.041 A 
ATOM     84  C   UNL     1       9.880  -3.784  -6.871  1.00  0.00     0.014 A 
ATOM     85  C   UNL     1       9.755  -4.863  -4.699  1.00  0.00     0.040 A 
ATOM     86  C   UNL     1      11.259  -3.678  -6.726  1.00  0.00     0.003 A 
ATOM     87  C   UNL     1      11.149  -4.788  -4.552  1.00  0.00     0.041 A 
ATOM     88  C   UNL     1      11.881  -4.159  -5.568  1.00  0.00     0.026 A 
BRANCH  87  89
ATOM     89  N   UNL     1      11.737  -5.328  -3.394  1.00  0.00    -0.332 N 
ATOM     90  H   UNL     1      11.149  -5.880  -2.831  1.00  0.00     0.169 HD
BRANCH  89  91
ATOM     91  C   UNL     1      13.010  -5.185  -2.956  1.00  0.00     0.187 A 
ATOM     92  N   UNL     1      13.841  -4.200  -3.225  1.00  0.00    -0.220 NA
ATOM     93  S   UNL     1      13.663  -6.399  -1.907  1.00  0.00    -0.105 S 
ATOM     94  C   UNL     1      15.028  -4.370  -2.543  1.00  0.00     0.086 A 
ATOM     95  C   UNL     1      15.143  -5.546  -1.834  1.00  0.00     0.097 A 
BRANCH  94  96
ATOM     96  C   UNL     1      16.069  -3.367  -2.562  1.00  0.00     0.037 A 
ATOM     97  C   UNL     1      17.190  -3.515  -3.388  1.00  0.00     0.016 A 
ATOM     98  C   UNL     1      15.973  -2.245  -1.728  1.00  0.00     0.135 A 
ATOM     99  C   UNL     1      18.202  -2.551  -3.362  1.00  0.00     0.040 A 
ATOM    100  C   UNL     1      16.978  -1.285  -1.699  1.00  0.00     0.079 A 
ATOM    101  F   UNL     1      14.917  -2.090  -0.916  1.00  0.00    -0.206 F 
ATOM    102  C   UNL     1      18.087  -1.449  -2.517  1.00  0.00     0.126 A 
ATOM    103  F   UNL     1      19.067  -0.537  -2.493  1.00  0.00    -0.207 F 
ENDBRANCH  94  96
ENDBRANCH  89  91
ENDBRANCH  87  89
ENDBRANCH  80  83
ENDBRANCH  78  79
ENDBRANCH  77  78
ENDBRANCH  76  77
ENDBRANCH   1  76
TORSDOF 19
