REMARK SMILES Cc1cc(NCc2ccc(C(=O)NCCCCCCNC(=O)c3ccc(-c4c5nc(c(-c6c(F)cc(S(=O)(=O)[O-])cc6F)c6ccc([nH]6)c(-c6c(F)cc(S(=O)(=O)[O-])cc6F)c6nc(c(-c7c(F)cc(S(=O)(=O)[O-])cc7F)c7ccc4[nH]7)C=C6)C=C5)cc3)o2)ccc1Br
REMARK SMILES IDX 16 1 15 2 14 3 13 4 11 5 12 6 10 8 7 9 8 10 89 11 9 12 6 13
REMARK SMILES IDX 5 14 4 16 1 17 2 18 3 19 92 20 91 21 93 22 90 23 17 24 18 25
REMARK SMILES IDX 19 26 20 27 21 28 22 30 23 31 24 32 88 33 25 34 87 35 26 36
REMARK SMILES IDX 27 37 28 38 81 39 29 40 86 41 80 42 82 43 30 44 85 45 79 46
REMARK SMILES IDX 78 47 31 49 65 50 44 51 64 52 45 53 48 54 63 55 83 56 46 57
REMARK SMILES IDX 47 58 62 60 84 61 49 62 32 63 33 64 42 65 34 66 35 67 41 68
REMARK SMILES IDX 43 69 36 70 37 71 38 72 39 73 40 74 66 75 67 76 76 77 68 78
REMARK SMILES IDX 69 79 75 80 77 81 70 82 71 83 72 84 73 85 74 86 50 87 51 88
REMARK SMILES IDX 60 89 52 90 53 91 59 92 61 93 54 94 55 95 56 96 57 97 58 98
REMARK H PARENT 13 7 5 15 20 29 82 48 48 59
REMARK Flexibility Score: inf
ROOT
ATOM      1  C   UNL     1       9.250   2.170   7.624  1.00  0.00     0.002 C 
ENDROOT
BRANCH   1   2
ATOM      2  C   UNL     1       8.465   2.736   6.432  1.00  0.00     0.021 C 
BRANCH   2   3
ATOM      3  C   UNL     1       9.090   2.403   5.077  1.00  0.00     0.116 C 
BRANCH   3   4
ATOM      4  N   UNL     1       8.743   1.060   4.667  1.00  0.00    -0.349 N 
ATOM      5  C   UNL     1       7.925   0.584   3.671  1.00  0.00     0.286 C 
ATOM      6  O   UNL     1       7.908  -0.644   3.548  1.00  0.00    -0.266 OA
ATOM      7  H   UNL     1       9.174   0.354   5.202  1.00  0.00     0.163 HD
BRANCH   5   8
ATOM      8  C   UNL     1       7.156   1.467   2.810  1.00  0.00     0.191 A 
ATOM      9  C   UNL     1       5.959   1.844   0.976  1.00  0.00     0.124 A 
ATOM     10  C   UNL     1       6.013   3.040   1.651  1.00  0.00     0.048 A 
ATOM     11  O   UNL     1       6.654   0.895   1.663  1.00  0.00    -0.454 OA
ATOM     12  C   UNL     1       6.747   2.791   2.840  1.00  0.00     0.056 A 
BRANCH   9  13
ATOM     13  C   UNL     1       5.333   1.405  -0.300  1.00  0.00     0.188 C 
BRANCH  13  14
ATOM     14  N   UNL     1       4.459   0.251  -0.173  1.00  0.00    -0.378 N 
ATOM     15  H   UNL     1       4.890  -0.635  -0.186  1.00  0.00     0.161 HD
BRANCH  14  16
ATOM     16  C   UNL     1       3.087   0.271  -0.038  1.00  0.00     0.035 A 
ATOM     17  C   UNL     1       0.349  -2.398   0.015  1.00  0.00     0.045 C 
ATOM     18  C   UNL     1       0.999  -1.044   0.018  1.00  0.00    -0.035 A 
ATOM     19  C   UNL     1       2.403  -0.957  -0.021  1.00  0.00     0.030 A 
ATOM     20  C   UNL     1       0.263   0.145   0.038  1.00  0.00     0.021 A 
ATOM     21  C   UNL     1       0.919   1.377   0.021  1.00  0.00     0.018 A 
ATOM     22  Br  UNL     1      -1.636   0.156   0.069  1.00  0.00    -0.051 Br
ATOM     23  C   UNL     1       2.317   1.434  -0.025  1.00  0.00     0.027 A 
ENDBRANCH  14  16
ENDBRANCH  13  14
ENDBRANCH   9  13
ENDBRANCH   5   8
ENDBRANCH   3   4
ENDBRANCH   2   3
ENDBRANCH   1   2
BRANCH   1  24
ATOM     24  C   UNL     1      10.698   2.664   7.745  1.00  0.00     0.002 C 
BRANCH  24  25
ATOM     25  C   UNL     1      10.868   4.186   7.738  1.00  0.00     0.021 C 
BRANCH  25  26
ATOM     26  C   UNL     1      10.166   4.904   8.887  1.00  0.00     0.116 C 
BRANCH  26  27
ATOM     27  N   UNL     1      10.719   4.525  10.178  1.00  0.00    -0.352 N 
ATOM     28  C   UNL     1      11.248   5.318  11.165  1.00  0.00     0.251 C 
ATOM     29  H   UNL     1      10.712   3.559  10.371  1.00  0.00     0.163 HD
ATOM     30  O   UNL     1      11.874   4.808  12.089  1.00  0.00    -0.269 OA
BRANCH  28  31
ATOM     31  C   UNL     1      11.072   6.785  11.105  1.00  0.00     0.039 A 
ATOM     32  C   UNL     1      12.164   7.610  11.387  1.00  0.00     0.014 A 
ATOM     33  C   UNL     1       9.832   7.344  10.781  1.00  0.00     0.014 A 
ATOM     34  C   UNL     1      12.026   8.996  11.285  1.00  0.00     0.010 A 
ATOM     35  C   UNL     1       9.716   8.721  10.612  1.00  0.00     0.010 A 
ATOM     36  C   UNL     1      10.811   9.562  10.862  1.00  0.00    -0.014 A 
BRANCH  36  37
ATOM     37  C   UNL     1      10.671  11.027  10.663  1.00  0.00     0.031 A 
ATOM     38  C   UNL     1       9.708  11.820  11.504  1.00  0.00     0.074 A 
ATOM     39  C   UNL     1      11.365  11.630   9.677  1.00  0.00     0.049 A 
ATOM     40  N   UNL     1       9.397  13.088  11.429  1.00  0.00    -0.248 NA
ATOM     41  C   UNL     1       8.978  11.085  12.550  1.00  0.00     0.031 C 
ATOM     42  C   UNL     1      12.293  10.959   8.764  1.00  0.00     0.029 A 
ATOM     43  N   UNL     1      11.388  12.940   9.267  1.00  0.00    -0.354 N 
ATOM     44  C   UNL     1       8.432  13.302  12.406  1.00  0.00     0.074 A 
ATOM     45  C   UNL     1       8.169  12.020  13.025  1.00  0.00     0.031 C 
ATOM     46  C   UNL     1      12.810  11.864   7.917  1.00  0.00     0.029 A 
ATOM     47  C   UNL     1      12.221  13.169   8.197  1.00  0.00     0.049 A 
ATOM     48  H   UNL     1      10.859  13.649   9.699  1.00  0.00     0.167 HD
ATOM     49  C   UNL     1       7.836  14.463  12.768  1.00  0.00     0.037 A 
ATOM     50  C   UNL     1      12.474  14.301   7.510  1.00  0.00     0.037 A 
ATOM     51  C   UNL     1       8.118  15.737  12.159  1.00  0.00     0.049 A 
ATOM     52  C   UNL     1      11.793  15.576   7.926  1.00  0.00     0.074 A 
ATOM     53  C   UNL     1       7.611  16.981  12.492  1.00  0.00     0.029 A 
ATOM     54  N   UNL     1       8.980  15.932  11.089  1.00  0.00    -0.354 N 
ATOM     55  N   UNL     1      10.930  15.772   8.895  1.00  0.00    -0.248 NA
ATOM     56  C   UNL     1      12.123  16.786   7.160  1.00  0.00     0.031 C 
ATOM     57  C   UNL     1       8.126  17.919  11.592  1.00  0.00     0.029 A 
ATOM     58  C   UNL     1       8.999  17.271  10.733  1.00  0.00     0.049 A 
ATOM     59  H   UNL     1       9.501  15.223  10.648  1.00  0.00     0.167 HD
ATOM     60  C   UNL     1      10.635  17.131   8.873  1.00  0.00     0.074 A 
ATOM     61  C   UNL     1      11.421  17.710   7.803  1.00  0.00     0.031 C 
ATOM     62  C   UNL     1       9.791  17.834   9.667  1.00  0.00     0.037 A 
BRANCH  49  63
ATOM     63  C   UNL     1       6.818  14.411  13.877  1.00  0.00     0.058 A 
ATOM     64  C   UNL     1       7.188  14.157  15.207  1.00  0.00     0.135 A 
ATOM     65  C   UNL     1       5.461  14.659  13.613  1.00  0.00     0.135 A 
ATOM     66  F   UNL     1       8.469  13.899  15.516  1.00  0.00    -0.206 F 
ATOM     67  C   UNL     1       6.247  14.119  16.231  1.00  0.00     0.059 A 
ATOM     68  C   UNL     1       4.506  14.657  14.626  1.00  0.00     0.059 A 
ATOM     69  F   UNL     1       5.050  14.909  12.360  1.00  0.00    -0.206 F 
ATOM     70  C   UNL     1       4.907  14.371  15.930  1.00  0.00     0.060 A 
BRANCH  70  71
ATOM     71  S   UNL     1       3.700  14.325  17.271  1.00  0.00     0.124 S 
ATOM     72  O   UNL     1       3.628  12.894  17.548  1.00  0.00    -0.237 OA
ATOM     73  O   UNL     1       4.345  15.137  18.299  1.00  0.00    -0.237 OA
ATOM     74  O   UNL     1       2.504  14.909  16.674  1.00  0.00    -0.744 OA
ENDBRANCH  70  71
ENDBRANCH  49  63
BRANCH  50  75
ATOM     75  C   UNL     1      13.428  14.279   6.369  1.00  0.00     0.058 A 
ATOM     76  C   UNL     1      14.677  14.911   6.460  1.00  0.00     0.135 A 
ATOM     77  C   UNL     1      13.118  13.614   5.172  1.00  0.00     0.135 A 
ATOM     78  F   UNL     1      15.018  15.564   7.581  1.00  0.00    -0.206 F 
ATOM     79  C   UNL     1      15.579  14.899   5.401  1.00  0.00     0.059 A 
ATOM     80  C   UNL     1      14.014  13.566   4.109  1.00  0.00     0.059 A 
ATOM     81  F   UNL     1      11.943  12.979   5.040  1.00  0.00    -0.206 F 
ATOM     82  C   UNL     1      15.239  14.221   4.229  1.00  0.00     0.060 A 
BRANCH  82  83
ATOM     83  S   UNL     1      16.436  14.170   2.879  1.00  0.00     0.124 S 
ATOM     84  O   UNL     1      16.371  15.537   2.377  1.00  0.00    -0.237 OA
ATOM     85  O   UNL     1      17.666  13.801   3.574  1.00  0.00    -0.237 OA
ATOM     86  O   UNL     1      15.896  13.145   1.991  1.00  0.00    -0.744 OA
ENDBRANCH  82  83
ENDBRANCH  50  75
BRANCH  62  87
ATOM     87  C   UNL     1       9.695  19.318   9.434  1.00  0.00     0.058 A 
ATOM     88  C   UNL     1       9.050  19.849   8.306  1.00  0.00     0.135 A 
ATOM     89  C   UNL     1      10.213  20.219  10.379  1.00  0.00     0.135 A 
ATOM     90  F   UNL     1       8.544  19.032   7.369  1.00  0.00    -0.206 F 
ATOM     91  C   UNL     1       8.944  21.222   8.111  1.00  0.00     0.059 A 
ATOM     92  C   UNL     1      10.091  21.596  10.218  1.00  0.00     0.059 A 
ATOM     93  F   UNL     1      10.831  19.764  11.480  1.00  0.00    -0.206 F 
ATOM     94  C   UNL     1       9.465  22.088   9.074  1.00  0.00     0.060 A 
BRANCH  94  95
ATOM     95  S   UNL     1       9.290  23.867   8.824  1.00  0.00     0.124 S 
ATOM     96  O   UNL     1      10.260  24.111   7.761  1.00  0.00    -0.237 OA
ATOM     97  O   UNL     1       7.887  23.992   8.443  1.00  0.00    -0.237 OA
ATOM     98  O   UNL     1       9.632  24.429  10.127  1.00  0.00    -0.744 OA
ENDBRANCH  94  95
ENDBRANCH  62  87
ENDBRANCH  36  37
ENDBRANCH  28  31
ENDBRANCH  26  27
ENDBRANCH  25  26
ENDBRANCH  24  25
ENDBRANCH   1  24
TORSDOF 19
