REMARK SMILES CC[C@@H](NC(=O)c1ccc(CNC(=O)[C@H]2CCCO2)cc1)C(=O)NCCCCCCNC(=O)c1ccc(-c2c3nc(c(-c4c(F)cc(S(=O)(=O)[O-])cc4F)c4ccc([nH]4)c(-c4c(F)cc(S(=O)(=O)[O-])cc4F)c4nc(c(-c5c(F)cc(S(=O)(=O)[O-])cc5F)c5ccc2[nH]5)C=C4)C=C3)cc1
REMARK SMILES IDX 26 1 25 2 24 3 22 4 23 5 3 7 2 8 1 9 4 10 5 11 6 13 7 14
REMARK SMILES IDX 8 15 21 16 9 17 20 18 10 19 11 20 12 21 13 22 14 24 15 25
REMARK SMILES IDX 16 26 19 27 17 28 18 29 27 30 28 31 29 32 30 33 31 34 32 35
REMARK SMILES IDX 33 37 34 38 35 39 99 40 36 41 98 42 37 43 38 44 39 45 92 46
REMARK SMILES IDX 40 47 97 48 91 49 93 50 41 51 96 52 90 53 89 54 42 56 76 57
REMARK SMILES IDX 55 58 75 59 56 60 59 61 74 62 94 63 57 64 58 65 73 67 95 68
REMARK SMILES IDX 60 69 43 70 44 71 53 72 45 73 46 74 52 75 54 76 47 77 48 78
REMARK SMILES IDX 49 79 50 80 51 81 77 82 78 83 87 84 79 85 80 86 86 87 88 88
REMARK SMILES IDX 81 89 82 90 83 91 84 92 85 93 61 94 62 95 71 96 63 97 64 98
REMARK SMILES IDX 70 99 72 100 65 101 66 102 67 103 68 104 69 105
REMARK H PARENT 24 6 4 12 12 23 31 36 93 55 59 66
REMARK Flexibility Score: inf
ROOT
ATOM      1  C   UNL     1      -7.608   3.342   3.811  1.00  0.00     0.021 C 
ENDROOT
BRANCH   1   2
ATOM      2  C   UNL     1      -8.652   3.612   4.886  1.00  0.00     0.116 C 
BRANCH   2   3
ATOM      3  N   UNL     1      -8.231   4.726   5.714  1.00  0.00    -0.354 N 
ATOM      4  C   UNL     1      -8.963   5.750   6.227  1.00  0.00     0.242 C 
ATOM      5  O   UNL     1      -8.360   6.690   6.754  1.00  0.00    -0.273 OA
ATOM      6  H   UNL     1      -7.273   4.744   5.938  1.00  0.00     0.163 HD
BRANCH   4   7
ATOM      7  C   UNL     1     -10.490   5.806   6.038  1.00  0.00     0.171 C 
BRANCH   7   8
ATOM      8  C   UNL     1     -10.712   6.341   4.601  1.00  0.00     0.032 C 
ATOM      9  C   UNL     1     -12.157   6.550   4.185  1.00  0.00     0.006 C 
ENDBRANCH   7   8
BRANCH   7  10
ATOM     10  N   UNL     1     -11.214   4.551   6.304  1.00  0.00    -0.340 N 
ATOM     11  C   UNL     1     -11.184   3.716   7.402  1.00  0.00     0.251 C 
ATOM     12  H   UNL     1     -11.816   4.261   5.581  1.00  0.00     0.164 HD
ATOM     13  O   UNL     1     -12.126   2.954   7.604  1.00  0.00    -0.269 OA
BRANCH  11  14
ATOM     14  C   UNL     1      -9.963   3.579   8.227  1.00  0.00     0.039 A 
ATOM     15  C   UNL     1      -9.304   2.344   8.185  1.00  0.00     0.014 A 
ATOM     16  C   UNL     1      -9.418   4.631   8.960  1.00  0.00     0.014 A 
ATOM     17  C   UNL     1      -8.036   2.207   8.752  1.00  0.00     0.006 A 
ATOM     18  C   UNL     1      -8.141   4.492   9.522  1.00  0.00     0.006 A 
ATOM     19  C   UNL     1      -7.421   3.293   9.389  1.00  0.00    -0.029 A 
BRANCH  19  20
ATOM     20  C   UNL     1      -5.995   3.181   9.874  1.00  0.00     0.151 C 
BRANCH  20  21
ATOM     21  N   UNL     1      -5.869   2.165  10.896  1.00  0.00    -0.350 N 
ATOM     22  C   UNL     1      -5.125   1.022  10.904  1.00  0.00     0.249 C 
ATOM     23  H   UNL     1      -6.401   2.323  11.709  1.00  0.00     0.163 HD
ATOM     24  O   UNL     1      -5.191   0.311  11.910  1.00  0.00    -0.272 OA
BRANCH  22  25
ATOM     25  C   UNL     1      -4.173   0.702   9.725  1.00  0.00     0.207 C 
ATOM     26  C   UNL     1      -3.602  -0.712   9.817  1.00  0.00     0.044 C 
ATOM     27  O   UNL     1      -4.810   0.788   8.440  1.00  0.00    -0.368 OA
ATOM     28  C   UNL     1      -4.556  -1.498   8.951  1.00  0.00     0.032 C 
ATOM     29  C   UNL     1      -4.829  -0.515   7.841  1.00  0.00     0.161 C 
ENDBRANCH  22  25
ENDBRANCH  20  21
ENDBRANCH  19  20
ENDBRANCH  11  14
ENDBRANCH   7  10
ENDBRANCH   4   7
ENDBRANCH   2   3
ENDBRANCH   1   2
BRANCH   1  30
ATOM     30  C   UNL     1      -6.303   2.764   4.370  1.00  0.00     0.002 C 
BRANCH  30  31
ATOM     31  C   UNL     1      -6.458   1.432   5.108  1.00  0.00     0.002 C 
BRANCH  31  32
ATOM     32  C   UNL     1      -7.157   0.331   4.309  1.00  0.00     0.021 C 
BRANCH  32  33
ATOM     33  C   UNL     1      -6.525   0.052   2.951  1.00  0.00     0.116 C 
BRANCH  33  34
ATOM     34  N   UNL     1      -5.135  -0.360   3.073  1.00  0.00    -0.352 N 
ATOM     35  C   UNL     1      -4.504  -1.423   2.481  1.00  0.00     0.251 C 
ATOM     36  H   UNL     1      -4.574   0.199   3.658  1.00  0.00     0.163 HD
ATOM     37  O   UNL     1      -3.377  -1.753   2.838  1.00  0.00    -0.269 OA
BRANCH  35  38
ATOM     38  C   UNL     1      -5.212  -2.178   1.429  1.00  0.00     0.039 A 
ATOM     39  C   UNL     1      -5.257  -3.571   1.507  1.00  0.00     0.014 A 
ATOM     40  C   UNL     1      -5.864  -1.503   0.392  1.00  0.00     0.014 A 
ATOM     41  C   UNL     1      -6.014  -4.286   0.578  1.00  0.00     0.010 A 
ATOM     42  C   UNL     1      -6.674  -2.211  -0.488  1.00  0.00     0.010 A 
ATOM     43  C   UNL     1      -6.759  -3.609  -0.402  1.00  0.00    -0.014 A 
BRANCH  43  44
ATOM     44  C   UNL     1      -7.647  -4.342  -1.339  1.00  0.00     0.031 A 
ATOM     45  C   UNL     1      -7.373  -4.310  -2.817  1.00  0.00     0.074 A 
ATOM     46  C   UNL     1      -8.744  -4.965  -0.862  1.00  0.00     0.049 A 
ATOM     47  N   UNL     1      -8.080  -4.808  -3.797  1.00  0.00    -0.248 NA
ATOM     48  C   UNL     1      -6.158  -3.602  -3.253  1.00  0.00     0.031 C 
ATOM     49  C   UNL     1      -9.142  -5.018   0.547  1.00  0.00     0.029 A 
ATOM     50  N   UNL     1      -9.736  -5.656  -1.511  1.00  0.00    -0.354 N 
ATOM     51  C   UNL     1      -7.411  -4.457  -4.963  1.00  0.00     0.074 A 
ATOM     52  C   UNL     1      -6.264  -3.667  -4.572  1.00  0.00     0.031 C 
ATOM     53  C   UNL     1     -10.286  -5.713   0.656  1.00  0.00     0.029 A 
ATOM     54  C   UNL     1     -10.726  -6.119  -0.675  1.00  0.00     0.049 A 
ATOM     55  H   UNL     1      -9.740  -5.806  -2.484  1.00  0.00     0.167 HD
ATOM     56  C   UNL     1      -7.716  -4.782  -6.242  1.00  0.00     0.037 A 
ATOM     57  C   UNL     1     -11.867  -6.779  -0.950  1.00  0.00     0.037 A 
ATOM     58  C   UNL     1      -8.842  -5.597  -6.617  1.00  0.00     0.049 A 
ATOM     59  C   UNL     1     -12.184  -7.126  -2.381  1.00  0.00     0.074 A 
ATOM     60  C   UNL     1      -9.189  -6.054  -7.876  1.00  0.00     0.029 A 
ATOM     61  N   UNL     1      -9.807  -6.069  -5.739  1.00  0.00    -0.354 N 
ATOM     62  N   UNL     1     -11.492  -6.863  -3.464  1.00  0.00    -0.248 NA
ATOM     63  C   UNL     1     -13.432  -7.861  -2.628  1.00  0.00     0.031 C 
ATOM     64  C   UNL     1     -10.393  -6.755  -7.768  1.00  0.00     0.029 A 
ATOM     65  C   UNL     1     -10.769  -6.783  -6.435  1.00  0.00     0.049 A 
ATOM     66  H   UNL     1      -9.809  -5.918  -4.766  1.00  0.00     0.167 HD
ATOM     67  C   UNL     1     -12.210  -7.418  -4.518  1.00  0.00     0.074 A 
ATOM     68  C   UNL     1     -13.381  -8.045  -3.941  1.00  0.00     0.031 C 
ATOM     69  C   UNL     1     -11.926  -7.408  -5.843  1.00  0.00     0.037 A 
BRANCH  56  70
ATOM     70  C   UNL     1      -6.824  -4.259  -7.334  1.00  0.00     0.058 A 
ATOM     71  C   UNL     1      -5.519  -4.744  -7.519  1.00  0.00     0.135 A 
ATOM     72  C   UNL     1      -7.300  -3.299  -8.242  1.00  0.00     0.135 A 
ATOM     73  F   UNL     1      -5.007  -5.650  -6.672  1.00  0.00    -0.206 F 
ATOM     74  C   UNL     1      -4.711  -4.279  -8.551  1.00  0.00     0.059 A 
ATOM     75  C   UNL     1      -6.519  -2.841  -9.299  1.00  0.00     0.059 A 
ATOM     76  F   UNL     1      -8.539  -2.800  -8.110  1.00  0.00    -0.206 F 
ATOM     77  C   UNL     1      -5.221  -3.329  -9.438  1.00  0.00     0.060 A 
BRANCH  77  78
ATOM     78  S   UNL     1      -4.164  -2.752 -10.783  1.00  0.00     0.124 S 
ATOM     79  O   UNL     1      -3.200  -1.926 -10.061  1.00  0.00    -0.237 OA
ATOM     80  O   UNL     1      -3.644  -4.002 -11.329  1.00  0.00    -0.237 OA
ATOM     81  O   UNL     1      -5.084  -2.026 -11.652  1.00  0.00    -0.744 OA
ENDBRANCH  77  78
ENDBRANCH  56  70
BRANCH  57  82
ATOM     82  C   UNL     1     -12.796  -7.154   0.149  1.00  0.00     0.058 A 
ATOM     83  C   UNL     1     -12.979  -8.496   0.517  1.00  0.00     0.135 A 
ATOM     84  C   UNL     1     -13.519  -6.180   0.856  1.00  0.00     0.135 A 
ATOM     85  F   UNL     1     -12.315  -9.464  -0.132  1.00  0.00    -0.206 F 
ATOM     86  C   UNL     1     -13.860  -8.861   1.529  1.00  0.00     0.059 A 
ATOM     87  C   UNL     1     -14.386  -6.518   1.891  1.00  0.00     0.059 A 
ATOM     88  F   UNL     1     -13.368  -4.880   0.556  1.00  0.00    -0.206 F 
ATOM     89  C   UNL     1     -14.560  -7.864   2.211  1.00  0.00     0.060 A 
BRANCH  89  90
ATOM     90  S   UNL     1     -15.677  -8.347   3.545  1.00  0.00     0.124 S 
ATOM     91  O   UNL     1     -16.788  -8.929   2.800  1.00  0.00    -0.237 OA
ATOM     92  O   UNL     1     -14.857  -9.284   4.306  1.00  0.00    -0.237 OA
ATOM     93  O   UNL     1     -15.961  -7.083   4.218  1.00  0.00    -0.744 OA
ENDBRANCH  89  90
ENDBRANCH  57  82
BRANCH  69  94
ATOM     94  C   UNL     1     -12.879  -8.116  -6.765  1.00  0.00     0.058 A 
ATOM     95  C   UNL     1     -14.139  -7.582  -7.072  1.00  0.00     0.135 A 
ATOM     96  C   UNL     1     -12.496  -9.305  -7.407  1.00  0.00     0.135 A 
ATOM     97  F   UNL     1     -14.557  -6.452  -6.479  1.00  0.00    -0.206 F 
ATOM     98  C   UNL     1     -14.993  -8.207  -7.975  1.00  0.00     0.059 A 
ATOM     99  C   UNL     1     -13.321  -9.933  -8.334  1.00  0.00     0.059 A 
ATOM    100  F   UNL     1     -11.297  -9.854  -7.155  1.00  0.00    -0.206 F 
ATOM    101  C   UNL     1     -14.571  -9.379  -8.607  1.00  0.00     0.060 A 
BRANCH 101 102
ATOM    102  S   UNL     1     -15.666 -10.148  -9.819  1.00  0.00     0.124 S 
ATOM    103  O   UNL     1     -16.702 -10.714  -8.963  1.00  0.00    -0.237 OA
ATOM    104  O   UNL     1     -16.071  -9.011 -10.638  1.00  0.00    -0.237 OA
ATOM    105  O   UNL     1     -14.804 -11.119 -10.488  1.00  0.00    -0.744 OA
ENDBRANCH 101 102
ENDBRANCH  69  94
ENDBRANCH  43  44
ENDBRANCH  35  38
ENDBRANCH  33  34
ENDBRANCH  32  33
ENDBRANCH  31  32
ENDBRANCH  30  31
ENDBRANCH   1  30
TORSDOF 22
