REMARK SMILES C[C@@H](C(=O)NCCCCCCNC(=O)c1ccc(-c2c3nc(c(-c4c(F)cc(S(=O)(=O)[O-])cc4F)c4ccc([nH]4)c(-c4c(F)cc(S(=O)(=O)[O-])cc4F)c4nc(c(-c5c(F)cc(S(=O)(=O)[O-])cc5F)c5ccc2[nH]5)C=C4)C=C3)cc1)c1ccc2c3cc(Cl)ccc3n(C(=O)c3ccc(Cl)cc3)c2c1
REMARK SMILES IDX 8 1 7 2 6 3 5 4 3 5 4 6 2 8 1 9 81 10 82 11 103 12 83 13
REMARK SMILES IDX 102 14 84 15 92 16 85 17 91 18 86 19 90 20 87 21 89 22 88 23
REMARK SMILES IDX 93 24 94 25 95 26 96 27 101 28 97 29 100 30 98 31 99 32 9 33
REMARK SMILES IDX 10 34 11 35 12 36 13 37 14 39 15 40 16 41 80 42 17 43 79 44
REMARK SMILES IDX 18 45 19 46 20 47 73 48 21 49 78 50 72 51 74 52 22 53 77 54
REMARK SMILES IDX 71 55 70 56 23 58 57 59 36 60 56 61 37 62 40 63 55 64 75 65
REMARK SMILES IDX 38 66 39 67 54 69 76 70 41 71 24 72 25 73 34 74 26 75 27 76
REMARK SMILES IDX 33 77 35 78 28 79 29 80 30 81 31 82 32 83 58 84 59 85 68 86
REMARK SMILES IDX 60 87 61 88 67 89 69 90 62 91 63 92 64 93 65 94 66 95 42 96
REMARK SMILES IDX 43 97 52 98 44 99 45 100 51 101 53 102 46 103 47 104 48 105
REMARK SMILES IDX 49 106 50 107
REMARK H PARENT 5 7 12 38 74 57 40 68
REMARK Flexibility Score: inf
ROOT
ATOM      1  C   UNL     1       4.953  -2.042   1.945  1.00  0.00     0.002 C 
ENDROOT
BRANCH   1   2
ATOM      2  C   UNL     1       4.251  -1.142   0.920  1.00  0.00     0.021 C 
BRANCH   2   3
ATOM      3  C   UNL     1       3.371  -1.904  -0.077  1.00  0.00     0.116 C 
BRANCH   3   4
ATOM      4  N   UNL     1       2.237  -2.476   0.618  1.00  0.00    -0.356 N 
ATOM      5  C   UNL     1       1.004  -1.918   0.812  1.00  0.00     0.227 C 
ATOM      6  O   UNL     1       0.382  -2.272   1.815  1.00  0.00    -0.274 OA
ATOM      7  H   UNL     1       2.369  -3.376   0.995  1.00  0.00     0.163 HD
BRANCH   5   8
ATOM      8  C   UNL     1       0.461  -0.911  -0.223  1.00  0.00     0.105 C 
ATOM      9  C   UNL     1       0.983   0.484   0.142  1.00  0.00     0.023 C 
BRANCH   8  10
ATOM     10  C   UNL     1      -1.066  -0.969  -0.385  1.00  0.00    -0.034 A 
ATOM     11  C   UNL     1      -1.821   0.161  -0.711  1.00  0.00     0.005 A 
ATOM     12  C   UNL     1      -1.740  -2.197  -0.243  1.00  0.00     0.032 A 
ATOM     13  C   UNL     1      -3.213   0.096  -0.843  1.00  0.00     0.011 A 
ATOM     14  C   UNL     1      -3.150  -2.247  -0.270  1.00  0.00     0.057 A 
ATOM     15  C   UNL     1      -3.887  -1.117  -0.601  1.00  0.00     0.008 A 
ATOM     16  N   UNL     1      -4.042  -3.303  -0.008  1.00  0.00    -0.276 N 
ATOM     17  C   UNL     1      -5.257  -1.480  -0.585  1.00  0.00     0.009 A 
ATOM     18  C   UNL     1      -5.349  -2.801  -0.122  1.00  0.00     0.057 A 
ATOM     19  C   UNL     1      -6.430  -0.743  -0.860  1.00  0.00     0.031 A 
ATOM     20  C   UNL     1      -6.610  -3.343   0.201  1.00  0.00     0.029 A 
ATOM     21  C   UNL     1      -7.672  -1.315  -0.608  1.00  0.00     0.041 A 
ATOM     22  C   UNL     1      -7.763  -2.588  -0.062  1.00  0.00     0.023 A 
ATOM     23  Cl  UNL     1      -9.101  -0.412  -0.932  1.00  0.00    -0.084 Cl
BRANCH  16  24
ATOM     24  C   UNL     1      -3.618  -4.606   0.382  1.00  0.00     0.262 C 
ATOM     25  O   UNL     1      -2.496  -4.689   0.885  1.00  0.00    -0.268 OA
BRANCH  24  26
ATOM     26  C   UNL     1      -4.317  -5.914   0.241  1.00  0.00     0.040 A 
ATOM     27  C   UNL     1      -3.821  -6.989   1.009  1.00  0.00     0.015 A 
ATOM     28  C   UNL     1      -5.313  -6.173  -0.705  1.00  0.00     0.015 A 
ATOM     29  C   UNL     1      -4.315  -8.284   0.852  1.00  0.00     0.021 A 
ATOM     30  C   UNL     1      -5.835  -7.469  -0.838  1.00  0.00     0.021 A 
ATOM     31  C   UNL     1      -5.329  -8.518  -0.067  1.00  0.00     0.041 A 
ATOM     32  Cl  UNL     1      -5.938 -10.113  -0.276  1.00  0.00    -0.084 Cl
ENDBRANCH  24  26
ENDBRANCH  16  24
ENDBRANCH   8  10
ENDBRANCH   5   8
ENDBRANCH   3   4
ENDBRANCH   2   3
ENDBRANCH   1   2
BRANCH   1  33
ATOM     33  C   UNL     1       5.901  -3.083   1.343  1.00  0.00     0.002 C 
BRANCH  33  34
ATOM     34  C   UNL     1       6.951  -2.511   0.390  1.00  0.00     0.021 C 
BRANCH  34  35
ATOM     35  C   UNL     1       7.850  -1.451   1.014  1.00  0.00     0.116 C 
BRANCH  35  36
ATOM     36  N   UNL     1       8.704  -2.006   2.052  1.00  0.00    -0.352 N 
ATOM     37  C   UNL     1      10.070  -1.903   2.176  1.00  0.00     0.251 C 
ATOM     38  H   UNL     1       8.247  -2.521   2.755  1.00  0.00     0.163 HD
ATOM     39  O   UNL     1      10.679  -2.584   2.987  1.00  0.00    -0.269 OA
BRANCH  37  40
ATOM     40  C   UNL     1      10.790  -0.961   1.293  1.00  0.00     0.039 A 
ATOM     41  C   UNL     1      11.893  -1.412   0.564  1.00  0.00     0.014 A 
ATOM     42  C   UNL     1      10.339   0.355   1.162  1.00  0.00     0.014 A 
ATOM     43  C   UNL     1      12.512  -0.553  -0.347  1.00  0.00     0.010 A 
ATOM     44  C   UNL     1      10.913   1.183   0.207  1.00  0.00     0.010 A 
ATOM     45  C   UNL     1      12.008   0.740  -0.553  1.00  0.00    -0.014 A 
BRANCH  45  46
ATOM     46  C   UNL     1      12.608   1.675  -1.537  1.00  0.00     0.031 A 
ATOM     47  C   UNL     1      13.214   2.962  -1.053  1.00  0.00     0.074 A 
ATOM     48  C   UNL     1      12.499   1.429  -2.857  1.00  0.00     0.049 A 
ATOM     49  N   UNL     1      13.616   3.998  -1.740  1.00  0.00    -0.248 NA
ATOM     50  C   UNL     1      13.347   3.115   0.404  1.00  0.00     0.031 C 
ATOM     51  C   UNL     1      11.897   0.233  -3.448  1.00  0.00     0.029 A 
ATOM     52  N   UNL     1      12.860   2.191  -3.940  1.00  0.00    -0.354 N 
ATOM     53  C   UNL     1      14.012   4.941  -0.799  1.00  0.00     0.074 A 
ATOM     54  C   UNL     1      13.763   4.367   0.505  1.00  0.00     0.031 C 
ATOM     55  C   UNL     1      11.923   0.345  -4.786  1.00  0.00     0.029 A 
ATOM     56  C   UNL     1      12.502   1.636  -5.146  1.00  0.00     0.049 A 
ATOM     57  H   UNL     1      13.331   3.052  -3.861  1.00  0.00     0.167 HD
ATOM     58  C   UNL     1      14.546   6.169  -1.006  1.00  0.00     0.037 A 
ATOM     59  C   UNL     1      12.604   2.123  -6.399  1.00  0.00     0.037 A 
ATOM     60  C   UNL     1      14.816   6.715  -2.308  1.00  0.00     0.049 A 
ATOM     61  C   UNL     1      13.219   3.479  -6.613  1.00  0.00     0.074 A 
ATOM     62  C   UNL     1      15.416   7.919  -2.629  1.00  0.00     0.029 A 
ATOM     63  N   UNL     1      14.498   6.093  -3.508  1.00  0.00    -0.354 N 
ATOM     64  N   UNL     1      13.643   4.338  -5.717  1.00  0.00    -0.248 NA
ATOM     65  C   UNL     1      13.377   3.931  -8.002  1.00  0.00     0.031 C 
ATOM     66  C   UNL     1      15.425   8.043  -4.022  1.00  0.00     0.029 A 
ATOM     67  C   UNL     1      14.876   6.894  -4.571  1.00  0.00     0.049 A 
ATOM     68  H   UNL     1      14.068   5.211  -3.590  1.00  0.00     0.167 HD
ATOM     69  C   UNL     1      14.146   5.419  -6.432  1.00  0.00     0.074 A 
ATOM     70  C   UNL     1      13.969   5.108  -7.836  1.00  0.00     0.031 C 
ATOM     71  C   UNL     1      14.709   6.560  -5.966  1.00  0.00     0.037 A 
BRANCH  58  72
ATOM     72  C   UNL     1      14.849   7.000   0.210  1.00  0.00     0.058 A 
ATOM     73  C   UNL     1      15.871   6.654   1.110  1.00  0.00     0.135 A 
ATOM     74  C   UNL     1      14.092   8.149   0.492  1.00  0.00     0.135 A 
ATOM     75  F   UNL     1      16.618   5.559   0.896  1.00  0.00    -0.206 F 
ATOM     76  C   UNL     1      16.091   7.381   2.275  1.00  0.00     0.059 A 
ATOM     77  C   UNL     1      14.317   8.910   1.635  1.00  0.00     0.059 A 
ATOM     78  F   UNL     1      13.107   8.531  -0.336  1.00  0.00    -0.206 F 
ATOM     79  C   UNL     1      15.301   8.501   2.535  1.00  0.00     0.060 A 
BRANCH  79  80
ATOM     80  S   UNL     1      15.562   9.406   4.075  1.00  0.00     0.124 S 
ATOM     81  O   UNL     1      14.923   8.518   5.042  1.00  0.00    -0.237 OA
ATOM     82  O   UNL     1      17.017   9.483   4.152  1.00  0.00    -0.237 OA
ATOM     83  O   UNL     1      14.881  10.675   3.842  1.00  0.00    -0.744 OA
ENDBRANCH  79  80
ENDBRANCH  58  72
BRANCH  59  84
ATOM     84  C   UNL     1      12.120   1.300  -7.537  1.00  0.00     0.058 A 
ATOM     85  C   UNL     1      13.023   0.642  -8.385  1.00  0.00     0.135 A 
ATOM     86  C   UNL     1      10.749   1.089  -7.750  1.00  0.00     0.135 A 
ATOM     87  F   UNL     1      14.343   0.819  -8.225  1.00  0.00    -0.206 F 
ATOM     88  C   UNL     1      12.585  -0.205  -9.398  1.00  0.00     0.059 A 
ATOM     89  C   UNL     1      10.287   0.231  -8.744  1.00  0.00     0.059 A 
ATOM     90  F   UNL     1       9.846   1.683  -6.955  1.00  0.00    -0.206 F 
ATOM     91  C   UNL     1      11.214  -0.414  -9.562  1.00  0.00     0.060 A 
BRANCH  91  92
ATOM     92  S   UNL     1      10.662  -1.597 -10.810  1.00  0.00     0.124 S 
ATOM     93  O   UNL     1      10.912  -0.861 -12.044  1.00  0.00    -0.237 OA
ATOM     94  O   UNL     1      11.536  -2.738 -10.558  1.00  0.00    -0.237 OA
ATOM     95  O   UNL     1       9.257  -1.808 -10.473  1.00  0.00    -0.744 OA
ENDBRANCH  91  92
ENDBRANCH  59  84
BRANCH  71  96
ATOM     96  C   UNL     1      15.227   7.552  -6.969  1.00  0.00     0.058 A 
ATOM     97  C   UNL     1      14.368   8.402  -7.678  1.00  0.00     0.135 A 
ATOM     98  C   UNL     1      16.611   7.731  -7.128  1.00  0.00     0.135 A 
ATOM     99  F   UNL     1      13.037   8.265  -7.567  1.00  0.00    -0.206 F 
ATOM    100  C   UNL     1      14.863   9.404  -8.507  1.00  0.00     0.059 A 
ATOM    101  C   UNL     1      17.128   8.740  -7.934  1.00  0.00     0.059 A 
ATOM    102  F   UNL     1      17.475   6.946  -6.465  1.00  0.00    -0.206 F 
ATOM    103  C   UNL     1      16.245   9.573  -8.619  1.00  0.00     0.060 A 
BRANCH 103 104
ATOM    104  S   UNL     1      16.874  10.935  -9.625  1.00  0.00     0.124 S 
ATOM    105  O   UNL     1      16.629  10.441 -10.976  1.00  0.00    -0.237 OA
ATOM    106  O   UNL     1      16.038  12.052  -9.196  1.00  0.00    -0.237 OA
ATOM    107  O   UNL     1      18.278  11.026  -9.234  1.00  0.00    -0.744 OA
ENDBRANCH 103 104
ENDBRANCH  71  96
ENDBRANCH  45  46
ENDBRANCH  37  40
ENDBRANCH  35  36
ENDBRANCH  34  35
ENDBRANCH  33  34
ENDBRANCH   1  33
TORSDOF 19
