REMARK SMILES O=C(COc1ccc(Br)cc1/C=N/Nc1ncccc1[N+](=O)[O-])NCCCCCCNC(=O)c1ccc(-c2c3nc(c(-c4c(F)cc(S(=O)(=O)[O-])cc4F)c4ccc([nH]4)c(-c4c(F)cc(S(=O)(=O)[O-])cc4F)c4nc(c(-c5c(F)cc(S(=O)(=O)[O-])cc5F)c5ccc2[nH]5)C=C4)C=C3)cc1
REMARK SMILES IDX 26 1 25 2 24 3 1 4 2 5 3 7 4 8 5 9 6 10 11 11 7 12 10 13
REMARK SMILES IDX 8 14 9 15 12 16 13 17 14 18 15 20 16 21 20 22 17 23 19 24
REMARK SMILES IDX 18 25 21 26 22 27 23 28 27 29 28 30 29 31 30 32 31 33 32 34
REMARK SMILES IDX 33 36 34 37 35 38 99 39 36 40 98 41 37 42 38 43 39 44 92 45
REMARK SMILES IDX 40 46 97 47 91 48 93 49 41 50 96 51 90 52 89 53 42 55 76 56
REMARK SMILES IDX 55 57 75 58 56 59 59 60 74 61 94 62 57 63 58 64 73 66 95 67
REMARK SMILES IDX 60 68 43 69 44 70 53 71 45 72 46 73 52 74 54 75 47 76 48 77
REMARK SMILES IDX 49 78 50 79 51 80 77 81 78 82 87 83 79 84 80 85 86 86 88 87
REMARK SMILES IDX 81 88 82 89 83 90 84 91 85 92 61 93 62 94 71 95 63 96 64 97
REMARK SMILES IDX 70 98 72 99 65 100 66 101 67 102 68 103 69 104
REMARK H PARENT 24 6 14 19 31 35 93 54 59 65
REMARK Flexibility Score: inf
ROOT
ATOM      1  C   UNL     1       2.842   2.972  -1.802  1.00  0.00     0.021 C 
ENDROOT
BRANCH   1   2
ATOM      2  C   UNL     1       2.267   1.560  -1.806  1.00  0.00     0.116 C 
BRANCH   2   3
ATOM      3  N   UNL     1       2.940   0.676  -0.877  1.00  0.00    -0.353 N 
ATOM      4  O   UNL     1       1.235   0.555   0.662  1.00  0.00    -0.271 OA
ATOM      5  C   UNL     1       2.321   0.164   0.244  1.00  0.00     0.257 C 
ATOM      6  H   UNL     1       3.877   0.431  -1.053  1.00  0.00     0.163 HD
BRANCH   5   7
ATOM      7  C   UNL     1       3.108  -0.960   0.928  1.00  0.00     0.329 C 
BRANCH   7   8
ATOM      8  O   UNL     1       3.897  -1.777   0.052  1.00  0.00    -0.483 OA
BRANCH   8   9
ATOM      9  C   UNL     1       3.177  -2.800  -0.514  1.00  0.00     0.129 A 
ATOM     10  C   UNL     1       2.163  -2.530  -1.439  1.00  0.00     0.048 A 
ATOM     11  C   UNL     1       3.507  -4.133  -0.239  1.00  0.00     0.038 A 
ATOM     12  C   UNL     1       1.463  -3.570  -2.053  1.00  0.00     0.019 A 
ATOM     13  C   UNL     1       2.796  -5.179  -0.845  1.00  0.00     0.029 A 
ATOM     14  C   UNL     1       1.781  -4.889  -1.751  1.00  0.00     0.018 A 
ATOM     15  Br  UNL     1       0.853  -6.295  -2.607  1.00  0.00    -0.051 Br
BRANCH  11  16
ATOM     16  C   UNL     1       4.635  -4.472   0.648  1.00  0.00     0.145 C 
ATOM     17  N   UNL     1       4.682  -5.617   1.260  1.00  0.00    -0.181 NA
BRANCH  17  18
ATOM     18  N   UNL     1       5.792  -5.895   1.983  1.00  0.00    -0.256 N 
ATOM     19  H   UNL     1       6.228  -6.759   1.801  1.00  0.00     0.192 HD
BRANCH  18  20
ATOM     20  C   UNL     1       6.387  -5.095   2.956  1.00  0.00     0.225 A 
ATOM     21  N   UNL     1       7.728  -5.282   3.071  1.00  0.00    -0.232 NA
ATOM     22  C   UNL     1       5.757  -4.124   3.722  1.00  0.00     0.313 A 
ATOM     23  C   UNL     1       8.436  -4.459   3.879  1.00  0.00     0.114 A 
ATOM     24  C   UNL     1       6.497  -3.264   4.544  1.00  0.00     0.091 A 
ATOM     25  C   UNL     1       7.873  -3.430   4.611  1.00  0.00     0.027 A 
BRANCH  22  26
ATOM     26  N   UNL     1       4.323  -4.012   3.754  1.00  0.00     0.066 N 
ATOM     27  O   UNL     1       3.685  -4.946   4.257  1.00  0.00    -0.258 OA
ATOM     28  O   UNL     1       3.845  -2.929   3.383  1.00  0.00    -0.258 OA
ENDBRANCH  22  26
ENDBRANCH  18  20
ENDBRANCH  17  18
ENDBRANCH  11  16
ENDBRANCH   8   9
ENDBRANCH   7   8
ENDBRANCH   5   7
ENDBRANCH   2   3
ENDBRANCH   1   2
BRANCH   1  29
ATOM     29  C   UNL     1       4.333   3.057  -2.147  1.00  0.00     0.002 C 
BRANCH  29  30
ATOM     30  C   UNL     1       4.736   2.471  -3.503  1.00  0.00     0.002 C 
BRANCH  30  31
ATOM     31  C   UNL     1       4.028   3.071  -4.720  1.00  0.00     0.021 C 
BRANCH  31  32
ATOM     32  C   UNL     1       4.165   4.584  -4.874  1.00  0.00     0.116 C 
BRANCH  32  33
ATOM     33  N   UNL     1       5.546   5.006  -5.054  1.00  0.00    -0.352 N 
ATOM     34  C   UNL     1       6.095   5.804  -6.029  1.00  0.00     0.251 C 
ATOM     35  H   UNL     1       6.180   4.671  -4.378  1.00  0.00     0.163 HD
ATOM     36  O   UNL     1       7.315   5.924  -6.107  1.00  0.00    -0.269 OA
BRANCH  34  37
ATOM     37  C   UNL     1       5.218   6.492  -7.002  1.00  0.00     0.039 A 
ATOM     38  C   UNL     1       5.543   6.440  -8.360  1.00  0.00     0.014 A 
ATOM     39  C   UNL     1       4.073   7.174  -6.580  1.00  0.00     0.014 A 
ATOM     40  C   UNL     1       4.677   7.003  -9.301  1.00  0.00     0.010 A 
ATOM     41  C   UNL     1       3.178   7.672  -7.524  1.00  0.00     0.010 A 
ATOM     42  C   UNL     1       3.465   7.583  -8.894  1.00  0.00    -0.014 A 
BRANCH  42  43
ATOM     43  C   UNL     1       2.469   8.068  -9.887  1.00  0.00     0.031 A 
ATOM     44  C   UNL     1       2.089   9.521  -9.939  1.00  0.00     0.074 A 
ATOM     45  C   UNL     1       1.845   7.180 -10.686  1.00  0.00     0.049 A 
ATOM     46  N   UNL     1       1.182  10.112 -10.675  1.00  0.00    -0.248 NA
ATOM     47  C   UNL     1       2.803  10.425  -9.024  1.00  0.00     0.031 C 
ATOM     48  C   UNL     1       2.085   5.735 -10.691  1.00  0.00     0.029 A 
ATOM     49  N   UNL     1       0.867   7.356 -11.633  1.00  0.00    -0.354 N 
ATOM     50  C   UNL     1       1.210  11.452 -10.308  1.00  0.00     0.074 A 
ATOM     51  C   UNL     1       2.184  11.576  -9.244  1.00  0.00     0.031 C 
ATOM     52  C   UNL     1       1.282   5.159 -11.600  1.00  0.00     0.029 A 
ATOM     53  C   UNL     1       0.442   6.183 -12.213  1.00  0.00     0.049 A 
ATOM     54  H   UNL     1       0.503   8.238 -11.875  1.00  0.00     0.167 HD
ATOM     55  C   UNL     1       0.504  12.488 -10.824  1.00  0.00     0.037 A 
ATOM     56  C   UNL     1      -0.527   5.952 -13.120  1.00  0.00     0.037 A 
ATOM     57  C   UNL     1      -0.460  12.357 -11.886  1.00  0.00     0.049 A 
ATOM     58  C   UNL     1      -1.308   7.112 -13.672  1.00  0.00     0.074 A 
ATOM     59  C   UNL     1      -1.185  13.352 -12.519  1.00  0.00     0.029 A 
ATOM     60  N   UNL     1      -0.844  11.155 -12.466  1.00  0.00    -0.354 N 
ATOM     61  N   UNL     1      -1.214   8.385 -13.370  1.00  0.00    -0.248 NA
ATOM     62  C   UNL     1      -2.320   6.809 -14.694  1.00  0.00     0.031 C 
ATOM     63  C   UNL     1      -2.044  12.748 -13.443  1.00  0.00     0.029 A 
ATOM     64  C   UNL     1      -1.816  11.381 -13.428  1.00  0.00     0.049 A 
ATOM     65  H   UNL     1      -0.480  10.272 -12.229  1.00  0.00     0.167 HD
ATOM     66  C   UNL     1      -2.143   9.037 -14.173  1.00  0.00     0.074 A 
ATOM     67  C   UNL     1      -2.775   8.019 -14.988  1.00  0.00     0.031 C 
ATOM     68  C   UNL     1      -2.443  10.358 -14.230  1.00  0.00     0.037 A 
BRANCH  55  69
ATOM     69  C   UNL     1       0.748  13.853 -10.238  1.00  0.00     0.058 A 
ATOM     70  C   UNL     1       1.966  14.528 -10.422  1.00  0.00     0.135 A 
ATOM     71  C   UNL     1      -0.251  14.502  -9.492  1.00  0.00     0.135 A 
ATOM     72  F   UNL     1       2.960  13.953 -11.117  1.00  0.00    -0.206 F 
ATOM     73  C   UNL     1       2.202  15.774  -9.850  1.00  0.00     0.059 A 
ATOM     74  C   UNL     1      -0.047  15.763  -8.938  1.00  0.00     0.059 A 
ATOM     75  F   UNL     1      -1.436  13.907  -9.288  1.00  0.00    -0.206 F 
ATOM     76  C   UNL     1       1.191  16.381  -9.104  1.00  0.00     0.060 A 
BRANCH  76  77
ATOM     77  S   UNL     1       1.523  17.986  -8.348  1.00  0.00     0.124 S 
ATOM     78  O   UNL     1       2.424  17.613  -7.261  1.00  0.00    -0.237 OA
ATOM     79  O   UNL     1       2.131  18.730  -9.446  1.00  0.00    -0.237 OA
ATOM     80  O   UNL     1       0.202  18.449  -7.936  1.00  0.00    -0.744 OA
ENDBRANCH  76  77
ENDBRANCH  55  69
BRANCH  56  81
ATOM     81  C   UNL     1      -0.803   4.557 -13.558  1.00  0.00     0.058 A 
ATOM     82  C   UNL     1      -0.455   4.117 -14.843  1.00  0.00     0.135 A 
ATOM     83  C   UNL     1      -1.383   3.625 -12.682  1.00  0.00     0.135 A 
ATOM     84  F   UNL     1       0.094   4.973 -15.719  1.00  0.00    -0.206 F 
ATOM     85  C   UNL     1      -0.673   2.804 -15.247  1.00  0.00     0.059 A 
ATOM     86  C   UNL     1      -1.587   2.300 -13.054  1.00  0.00     0.059 A 
ATOM     87  F   UNL     1      -1.719   3.991 -11.435  1.00  0.00    -0.206 F 
ATOM     88  C   UNL     1      -1.233   1.900 -14.342  1.00  0.00     0.060 A 
BRANCH  88  89
ATOM     89  S   UNL     1      -1.440   0.180 -14.851  1.00  0.00     0.124 S 
ATOM     90  O   UNL     1      -2.556   0.282 -15.785  1.00  0.00    -0.237 OA
ATOM     91  O   UNL     1      -0.139  -0.123 -15.440  1.00  0.00    -0.237 OA
ATOM     92  O   UNL     1      -1.727  -0.509 -13.597  1.00  0.00    -0.744 OA
ENDBRANCH  88  89
ENDBRANCH  56  81
BRANCH  68  93
ATOM     93  C   UNL     1      -3.493  10.790 -15.219  1.00  0.00     0.058 A 
ATOM     94  C   UNL     1      -4.854  10.516 -15.015  1.00  0.00     0.135 A 
ATOM     95  C   UNL     1      -3.138  11.540 -16.352  1.00  0.00     0.135 A 
ATOM     96  F   UNL     1      -5.247   9.796 -13.952  1.00  0.00    -0.206 F 
ATOM     97  C   UNL     1      -5.826  10.957 -15.908  1.00  0.00     0.059 A 
ATOM     98  C   UNL     1      -4.095  12.014 -17.243  1.00  0.00     0.059 A 
ATOM     99  F   UNL     1      -1.851  11.836 -16.591  1.00  0.00    -0.206 F 
ATOM    100  C   UNL     1      -5.437  11.710 -17.017  1.00  0.00     0.060 A 
BRANCH 100 101
ATOM    101  S   UNL     1      -6.712  12.315 -18.143  1.00  0.00     0.124 S 
ATOM    102  O   UNL     1      -7.106  11.088 -18.828  1.00  0.00    -0.237 OA
ATOM    103  O   UNL     1      -7.700  12.873 -17.224  1.00  0.00    -0.237 OA
ATOM    104  O   UNL     1      -6.006  13.294 -18.964  1.00  0.00    -0.744 OA
ENDBRANCH 100 101
ENDBRANCH  68  93
ENDBRANCH  42  43
ENDBRANCH  34  37
ENDBRANCH  32  33
ENDBRANCH  31  32
ENDBRANCH  30  31
ENDBRANCH  29  30
ENDBRANCH   1  29
TORSDOF 22
