REMARK SMILES CC1(C)S[C@H](c2ccc([N+](=O)[O-])cc2)[NH2+][C@@H]1C(=O)NCCCCCCNC(=O)c1ccc(-c2c3nc(c(-c4c(F)cc(S(=O)(=O)[O-])cc4F)c4ccc([nH]4)c(-c4c(F)cc(S(=O)(=O)[O-])cc4F)c4nc(c(-c5c(F)cc(S(=O)(=O)[O-])cc5F)c5ccc2[nH]5)C=C4)C=C3)cc1
REMARK SMILES IDX 23 1 22 2 21 3 20 4 19 5 17 6 18 7 16 9 1 10 2 11 3 12 4 13
REMARK SMILES IDX 5 14 15 15 6 18 7 19 14 20 8 21 13 22 9 23 10 24 11 25 12 26
REMARK SMILES IDX 24 27 25 28 26 29 27 30 28 32 29 33 30 34 94 35 31 36 93 37
REMARK SMILES IDX 32 38 33 39 34 40 87 41 35 42 92 43 86 44 88 45 36 46 91 47
REMARK SMILES IDX 85 48 84 49 37 51 71 52 50 53 70 54 51 55 54 56 69 57 89 58
REMARK SMILES IDX 52 59 53 60 68 62 90 63 55 64 38 65 39 66 48 67 40 68 41 69
REMARK SMILES IDX 47 70 49 71 42 72 43 73 44 74 45 75 46 76 72 77 73 78 82 79
REMARK SMILES IDX 74 80 75 81 81 82 83 83 76 84 77 85 78 86 79 87 80 88 56 89
REMARK SMILES IDX 57 90 66 91 58 92 59 93 65 94 67 95 60 96 61 97 62 98 63 99
REMARK SMILES IDX 64 100
REMARK H PARENT 19 8 15 16 15 17 26 31 88 50 54 61
REMARK Flexibility Score: inf
ROOT
ATOM      1  C   UNL     1      -3.988   2.818  -4.432  1.00  0.00     0.002 C 
ENDROOT
BRANCH   1   2
ATOM      2  C   UNL     1      -3.142   4.060  -4.148  1.00  0.00     0.002 C 
BRANCH   2   3
ATOM      3  C   UNL     1      -2.773   4.353  -2.684  1.00  0.00     0.021 C 
BRANCH   3   4
ATOM      4  C   UNL     1      -2.173   3.210  -1.858  1.00  0.00     0.116 C 
BRANCH   4   5
ATOM      5  N   UNL     1      -1.116   2.487  -2.544  1.00  0.00    -0.351 N 
ATOM      6  C   UNL     1      -0.319   1.466  -2.089  1.00  0.00     0.279 C 
ATOM      7  O   UNL     1       0.369   0.897  -2.936  1.00  0.00    -0.268 OA
ATOM      8  H   UNL     1      -0.946   2.771  -3.472  1.00  0.00     0.163 HD
BRANCH   6   9
ATOM      9  C   UNL     1      -0.264   1.145  -0.572  1.00  0.00     0.289 C 
ATOM     10  C   UNL     1       1.195   0.426   1.377  1.00  0.00     0.030 C 
ATOM     11  C   UNL     1       0.796   0.121  -0.083  1.00  0.00     0.077 C 
ATOM     12  C   UNL     1       2.084  -0.007  -0.902  1.00  0.00     0.030 C 
ATOM     13  S   UNL     1      -0.084  -1.476  -0.105  1.00  0.00    -0.081 SA
ATOM     14  C   UNL     1      -1.737  -0.743  -0.136  1.00  0.00     0.274 C 
ATOM     15  N   UNL     1      -1.606   0.727  -0.052  1.00  0.00    -0.320 N 
ATOM     16  H   UNL     1      -1.699   1.020   0.920  1.00  0.00     0.348 HD
ATOM     17  H   UNL     1      -2.337   1.163  -0.614  1.00  0.00     0.348 HD
BRANCH  14  18
ATOM     18  C   UNL     1      -2.603  -1.268  -1.276  1.00  0.00     0.021 A 
ATOM     19  C   UNL     1      -3.074  -0.441  -2.303  1.00  0.00     0.018 A 
ATOM     20  C   UNL     1      -3.002  -2.619  -1.310  1.00  0.00     0.018 A 
ATOM     21  C   UNL     1      -3.886  -0.913  -3.333  1.00  0.00     0.086 A 
ATOM     22  C   UNL     1      -3.824  -3.112  -2.336  1.00  0.00     0.086 A 
ATOM     23  C   UNL     1      -4.260  -2.251  -3.348  1.00  0.00     0.269 A 
BRANCH  23  24
ATOM     24  N   UNL     1      -5.110  -2.741  -4.438  1.00  0.00     0.062 N 
ATOM     25  O   UNL     1      -5.497  -1.919  -5.282  1.00  0.00    -0.258 OA
ATOM     26  O   UNL     1      -5.382  -3.950  -4.457  1.00  0.00    -0.258 OA
ENDBRANCH  23  24
ENDBRANCH  14  18
ENDBRANCH   6   9
ENDBRANCH   4   5
ENDBRANCH   3   4
ENDBRANCH   2   3
ENDBRANCH   1   2
BRANCH   1  27
ATOM     27  C   UNL     1      -5.332   2.720  -3.707  1.00  0.00     0.021 C 
BRANCH  27  28
ATOM     28  C   UNL     1      -6.284   3.889  -3.933  1.00  0.00     0.116 C 
BRANCH  28  29
ATOM     29  N   UNL     1      -6.686   4.040  -5.321  1.00  0.00    -0.352 N 
ATOM     30  C   UNL     1      -7.877   4.487  -5.836  1.00  0.00     0.251 C 
ATOM     31  H   UNL     1      -6.008   3.785  -5.987  1.00  0.00     0.163 HD
ATOM     32  O   UNL     1      -8.061   4.433  -7.055  1.00  0.00    -0.269 OA
BRANCH  30  33
ATOM     33  C   UNL     1      -8.948   5.010  -4.955  1.00  0.00     0.039 A 
ATOM     34  C   UNL     1     -10.278   4.718  -5.275  1.00  0.00     0.014 A 
ATOM     35  C   UNL     1      -8.668   5.820  -3.850  1.00  0.00     0.014 A 
ATOM     36  C   UNL     1     -11.315   5.213  -4.479  1.00  0.00     0.010 A 
ATOM     37  C   UNL     1      -9.698   6.246  -3.011  1.00  0.00     0.010 A 
ATOM     38  C   UNL     1     -11.034   5.969  -3.330  1.00  0.00    -0.014 A 
BRANCH  38  39
ATOM     39  C   UNL     1     -12.133   6.507  -2.484  1.00  0.00     0.031 A 
ATOM     40  C   UNL     1     -12.335   7.995  -2.358  1.00  0.00     0.074 A 
ATOM     41  C   UNL     1     -12.934   5.657  -1.812  1.00  0.00     0.049 A 
ATOM     42  N   UNL     1     -13.236   8.653  -1.674  1.00  0.00    -0.248 NA
ATOM     43  C   UNL     1     -11.382   8.860  -3.073  1.00  0.00     0.031 C 
ATOM     44  C   UNL     1     -12.805   4.198  -1.808  1.00  0.00     0.029 A 
ATOM     45  N   UNL     1     -14.017   5.895  -1.003  1.00  0.00    -0.354 N 
ATOM     46  C   UNL     1     -12.955  10.001  -1.869  1.00  0.00     0.074 A 
ATOM     47  C   UNL     1     -11.761  10.068  -2.682  1.00  0.00     0.031 C 
ATOM     48  C   UNL     1     -13.790   3.671  -1.064  1.00  0.00     0.029 A 
ATOM     49  C   UNL     1     -14.602   4.752  -0.512  1.00  0.00     0.049 A 
ATOM     50  H   UNL     1     -14.345   6.800  -0.794  1.00  0.00     0.167 HD
ATOM     51  C   UNL     1     -13.645  11.084  -1.437  1.00  0.00     0.037 A 
ATOM     52  C   UNL     1     -15.674   4.592   0.289  1.00  0.00     0.037 A 
ATOM     53  C   UNL     1     -14.848  11.009  -0.649  1.00  0.00     0.049 A 
ATOM     54  C   UNL     1     -16.432   5.809   0.744  1.00  0.00     0.074 A 
ATOM     55  C   UNL     1     -15.656  12.043  -0.208  1.00  0.00     0.029 A 
ATOM     56  N   UNL     1     -15.418   9.832  -0.184  1.00  0.00    -0.354 N 
ATOM     57  N   UNL     1     -16.192   7.075   0.492  1.00  0.00    -0.248 NA
ATOM     58  C   UNL     1     -17.616   5.577   1.582  1.00  0.00     0.031 C 
ATOM     59  C   UNL     1     -16.687  11.494   0.563  1.00  0.00     0.029 A 
ATOM     60  C   UNL     1     -16.554  10.115   0.557  1.00  0.00     0.049 A 
ATOM     61  H   UNL     1     -15.067   8.928  -0.356  1.00  0.00     0.167 HD
ATOM     62  C   UNL     1     -17.207   7.787   1.120  1.00  0.00     0.074 A 
ATOM     63  C   UNL     1     -18.076   6.810   1.744  1.00  0.00     0.031 C 
ATOM     64  C   UNL     1     -17.404   9.129   1.178  1.00  0.00     0.037 A 
BRANCH  51  65
ATOM     65  C   UNL     1     -13.117  12.445  -1.812  1.00  0.00     0.058 A 
ATOM     66  C   UNL     1     -13.145  12.909  -3.138  1.00  0.00     0.135 A 
ATOM     67  C   UNL     1     -12.602  13.308  -0.831  1.00  0.00     0.135 A 
ATOM     68  F   UNL     1     -13.611  12.122  -4.120  1.00  0.00    -0.206 F 
ATOM     69  C   UNL     1     -12.652  14.164  -3.482  1.00  0.00     0.059 A 
ATOM     70  C   UNL     1     -12.133  14.580  -1.148  1.00  0.00     0.059 A 
ATOM     71  F   UNL     1     -12.550  12.919   0.453  1.00  0.00    -0.206 F 
ATOM     72  C   UNL     1     -12.148  14.993  -2.479  1.00  0.00     0.060 A 
BRANCH  72  73
ATOM     73  S   UNL     1     -11.515  16.619  -2.943  1.00  0.00     0.124 S 
ATOM     74  O   UNL     1     -10.270  16.265  -3.619  1.00  0.00    -0.237 OA
ATOM     75  O   UNL     1     -12.577  17.134  -3.801  1.00  0.00    -0.237 OA
ATOM     76  O   UNL     1     -11.361  17.302  -1.663  1.00  0.00    -0.744 OA
ENDBRANCH  72  73
ENDBRANCH  51  65
BRANCH  52  77
ATOM     77  C   UNL     1     -16.111   3.225   0.684  1.00  0.00     0.058 A 
ATOM     78  C   UNL     1     -17.304   2.675   0.192  1.00  0.00     0.135 A 
ATOM     79  C   UNL     1     -15.340   2.438   1.553  1.00  0.00     0.135 A 
ATOM     80  F   UNL     1     -18.080   3.390  -0.638  1.00  0.00    -0.206 F 
ATOM     81  C   UNL     1     -17.730   1.404   0.563  1.00  0.00     0.059 A 
ATOM     82  C   UNL     1     -15.730   1.152   1.916  1.00  0.00     0.059 A 
ATOM     83  F   UNL     1     -14.180   2.909   2.038  1.00  0.00    -0.206 F 
ATOM     84  C   UNL     1     -16.933   0.648   1.425  1.00  0.00     0.060 A 
BRANCH  84  85
ATOM     85  S   UNL     1     -17.472  -1.018   1.867  1.00  0.00     0.124 S 
ATOM     86  O   UNL     1     -18.583  -0.738   2.769  1.00  0.00    -0.237 OA
ATOM     87  O   UNL     1     -17.830  -1.578   0.568  1.00  0.00    -0.237 OA
ATOM     88  O   UNL     1     -16.286  -1.600   2.487  1.00  0.00    -0.744 OA
ENDBRANCH  84  85
ENDBRANCH  52  77
BRANCH  64  89
ATOM     89  C   UNL     1     -18.619   9.612   1.923  1.00  0.00     0.058 A 
ATOM     90  C   UNL     1     -18.714   9.518   3.321  1.00  0.00     0.135 A 
ATOM     91  C   UNL     1     -19.695  10.191   1.232  1.00  0.00     0.135 A 
ATOM     92  F   UNL     1     -17.715   8.970   4.031  1.00  0.00    -0.206 F 
ATOM     93  C   UNL     1     -19.851   9.939   4.002  1.00  0.00     0.059 A 
ATOM     94  C   UNL     1     -20.828  10.650   1.896  1.00  0.00     0.059 A 
ATOM     95  F   UNL     1     -19.651  10.321  -0.104  1.00  0.00    -0.206 F 
ATOM     96  C   UNL     1     -20.905  10.500   3.280  1.00  0.00     0.060 A 
BRANCH  96  97
ATOM     97  S   UNL     1     -22.376  11.041   4.175  1.00  0.00     0.124 S 
ATOM     98  O   UNL     1     -23.010   9.767   4.495  1.00  0.00    -0.237 OA
ATOM     99  O   UNL     1     -21.806  11.768   5.305  1.00  0.00    -0.237 OA
ATOM    100  O   UNL     1     -23.083  11.867   3.200  1.00  0.00    -0.744 OA
ENDBRANCH  96  97
ENDBRANCH  64  89
ENDBRANCH  38  39
ENDBRANCH  30  33
ENDBRANCH  28  29
ENDBRANCH  27  28
ENDBRANCH   1  27
TORSDOF 18
