REMARK SMILES O=C(NCCCCCCNC(=O)c1ccc(F)cc1-c1ccc(F)c(Cl)c1)c1ccc(-c2c3nc(c(-c4c(F)cc(S(=O)(=O)[O-])cc4F)c4ccc([nH]4)c(-c4c(F)cc(S(=O)(=O)[O-])cc4F)c4nc(c(-c5c(F)cc(S(=O)(=O)[O-])cc5F)c5ccc2[nH]5)C=C4)C=C3)cc1
REMARK SMILES IDX 5 1 4 2 3 3 1 4 2 5 28 7 29 8 93 9 30 10 92 11 31 12 32 13
REMARK SMILES IDX 33 14 86 15 34 16 91 17 85 18 87 19 35 20 90 21 84 22 83 23
REMARK SMILES IDX 36 25 70 26 49 27 69 28 50 29 53 30 68 31 88 32 51 33 52 34
REMARK SMILES IDX 67 36 89 37 54 38 37 39 38 40 47 41 39 42 40 43 46 44 48 45
REMARK SMILES IDX 41 46 42 47 43 48 44 49 45 50 71 51 72 52 81 53 73 54 74 55
REMARK SMILES IDX 80 56 82 57 75 58 76 59 77 60 78 61 79 62 55 63 56 64 65 65
REMARK SMILES IDX 57 66 58 67 64 68 66 69 59 70 60 71 61 72 62 73 63 74 6 75
REMARK SMILES IDX 7 76 8 77 9 78 10 79 11 80 12 82 13 83 14 84 19 85 15 86
REMARK SMILES IDX 18 87 16 88 17 89 20 90 21 91 27 92 22 93 25 94 23 95 26 96
REMARK SMILES IDX 24 97
REMARK H PARENT 3 6 87 24 53 35 10 81
REMARK Flexibility Score: inf
ROOT
ATOM      1  C   UNL     1       4.664  -2.703  -0.746  1.00  0.00     0.021 C 
ENDROOT
BRANCH   1   2
ATOM      2  C   UNL     1       4.451  -1.194  -0.745  1.00  0.00     0.116 C 
BRANCH   2   3
ATOM      3  N   UNL     1       3.049  -0.812  -0.781  1.00  0.00    -0.352 N 
ATOM      4  O   UNL     1       1.138   0.154  -0.075  1.00  0.00    -0.269 OA
ATOM      5  C   UNL     1       2.356   0.047   0.041  1.00  0.00     0.251 C 
ATOM      6  H   UNL     1       2.518  -1.229  -1.497  1.00  0.00     0.163 HD
BRANCH   5   7
ATOM      7  C   UNL     1       3.072   0.814   1.088  1.00  0.00     0.039 A 
ATOM      8  C   UNL     1       4.280   1.456   0.810  1.00  0.00     0.014 A 
ATOM      9  C   UNL     1       2.526   0.884   2.374  1.00  0.00     0.014 A 
ATOM     10  C   UNL     1       5.017   2.022   1.846  1.00  0.00     0.010 A 
ATOM     11  C   UNL     1       3.230   1.528   3.398  1.00  0.00     0.010 A 
ATOM     12  C   UNL     1       4.502   2.064   3.153  1.00  0.00    -0.014 A 
BRANCH  12  13
ATOM     13  C   UNL     1       5.310   2.695   4.231  1.00  0.00     0.031 A 
ATOM     14  C   UNL     1       5.847   1.882   5.379  1.00  0.00     0.074 A 
ATOM     15  C   UNL     1       5.614   4.004   4.136  1.00  0.00     0.049 A 
ATOM     16  N   UNL     1       6.620   2.262   6.365  1.00  0.00    -0.248 NA
ATOM     17  C   UNL     1       5.465   0.462   5.434  1.00  0.00     0.031 C 
ATOM     18  C   UNL     1       5.145   4.899   3.075  1.00  0.00     0.029 A 
ATOM     19  N   UNL     1       6.410   4.803   4.916  1.00  0.00    -0.354 N 
ATOM     20  C   UNL     1       6.808   1.139   7.162  1.00  0.00     0.074 A 
ATOM     21  C   UNL     1       6.044   0.067   6.560  1.00  0.00     0.031 C 
ATOM     22  C   UNL     1       5.713   6.103   3.233  1.00  0.00     0.029 A 
ATOM     23  C   UNL     1       6.542   6.084   4.434  1.00  0.00     0.049 A 
ATOM     24  H   UNL     1       6.846   4.489   5.741  1.00  0.00     0.167 HD
ATOM     25  C   UNL     1       7.557   1.010   8.284  1.00  0.00     0.037 A 
ATOM     26  C   UNL     1       7.251   7.129   4.901  1.00  0.00     0.037 A 
ATOM     27  C   UNL     1       8.328   2.076   8.872  1.00  0.00     0.049 A 
ATOM     28  C   UNL     1       8.073   6.963   6.144  1.00  0.00     0.074 A 
ATOM     29  C   UNL     1       9.121   2.040  10.007  1.00  0.00     0.029 A 
ATOM     30  N   UNL     1       8.408   3.367   8.372  1.00  0.00    -0.354 N 
ATOM     31  N   UNL     1       8.236   5.891   6.883  1.00  0.00    -0.248 NA
ATOM     32  C   UNL     1       8.805   8.143   6.620  1.00  0.00     0.031 C 
ATOM     33  C   UNL     1       9.659   3.316  10.208  1.00  0.00     0.029 A 
ATOM     34  C   UNL     1       9.231   4.138   9.178  1.00  0.00     0.049 A 
ATOM     35  H   UNL     1       7.948   3.689   7.563  1.00  0.00     0.167 HD
ATOM     36  C   UNL     1       9.093   6.266   7.910  1.00  0.00     0.074 A 
ATOM     37  C   UNL     1       9.431   7.658   7.685  1.00  0.00     0.031 C 
ATOM     38  C   UNL     1       9.554   5.524   8.946  1.00  0.00     0.037 A 
BRANCH  25  39
ATOM     39  C   UNL     1       7.579  -0.335   8.958  1.00  0.00     0.058 A 
ATOM     40  C   UNL     1       6.918  -0.533  10.181  1.00  0.00     0.135 A 
ATOM     41  C   UNL     1       8.290  -1.417   8.415  1.00  0.00     0.135 A 
ATOM     42  F   UNL     1       6.220   0.466  10.742  1.00  0.00    -0.206 F 
ATOM     43  C   UNL     1       6.965  -1.755  10.844  1.00  0.00     0.059 A 
ATOM     44  C   UNL     1       8.334  -2.654   9.052  1.00  0.00     0.059 A 
ATOM     45  F   UNL     1       8.922  -1.287   7.237  1.00  0.00    -0.206 F 
ATOM     46  C   UNL     1       7.676  -2.811  10.271  1.00  0.00     0.060 A 
BRANCH  46  47
ATOM     47  S   UNL     1       7.681  -4.410  11.112  1.00  0.00     0.124 S 
ATOM     48  O   UNL     1       8.595  -4.164  12.220  1.00  0.00    -0.237 OA
ATOM     49  O   UNL     1       6.275  -4.576  11.469  1.00  0.00    -0.237 OA
ATOM     50  O   UNL     1       8.167  -5.327  10.084  1.00  0.00    -0.744 OA
ENDBRANCH  46  47
ENDBRANCH  25  39
BRANCH  26  51
ATOM     51  C   UNL     1       7.222   8.414   4.156  1.00  0.00     0.058 A 
ATOM     52  C   UNL     1       6.065   9.208   4.127  1.00  0.00     0.135 A 
ATOM     53  C   UNL     1       8.323   8.829   3.394  1.00  0.00     0.135 A 
ATOM     54  F   UNL     1       4.982   8.846   4.831  1.00  0.00    -0.206 F 
ATOM     55  C   UNL     1       5.987  10.348   3.337  1.00  0.00     0.059 A 
ATOM     56  C   UNL     1       8.278   9.979   2.613  1.00  0.00     0.059 A 
ATOM     57  F   UNL     1       9.453   8.105   3.400  1.00  0.00    -0.206 F 
ATOM     58  C   UNL     1       7.095  10.719   2.573  1.00  0.00     0.060 A 
BRANCH  58  59
ATOM     59  S   UNL     1       6.961  12.176   1.516  1.00  0.00     0.124 S 
ATOM     60  O   UNL     1       6.094  11.681   0.451  1.00  0.00    -0.237 OA
ATOM     61  O   UNL     1       6.364  13.156   2.417  1.00  0.00    -0.237 OA
ATOM     62  O   UNL     1       8.343  12.441   1.131  1.00  0.00    -0.744 OA
ENDBRANCH  58  59
ENDBRANCH  26  51
BRANCH  38  63
ATOM     63  C   UNL     1      10.483   6.197   9.915  1.00  0.00     0.058 A 
ATOM     64  C   UNL     1      11.852   5.888   9.922  1.00  0.00     0.135 A 
ATOM     65  C   UNL     1      10.008   7.106  10.873  1.00  0.00     0.135 A 
ATOM     66  F   UNL     1      12.355   5.023   9.027  1.00  0.00    -0.206 F 
ATOM     67  C   UNL     1      12.719   6.452  10.851  1.00  0.00     0.059 A 
ATOM     68  C   UNL     1      10.861   7.698  11.800  1.00  0.00     0.059 A 
ATOM     69  F   UNL     1       8.709   7.442  10.899  1.00  0.00    -0.206 F 
ATOM     70  C   UNL     1      12.213   7.354  11.789  1.00  0.00     0.060 A 
BRANCH  70  71
ATOM     71  S   UNL     1      13.354   8.099  12.973  1.00  0.00     0.124 S 
ATOM     72  O   UNL     1      13.587   6.995  13.898  1.00  0.00    -0.237 OA
ATOM     73  O   UNL     1      14.485   8.467  12.127  1.00  0.00    -0.237 OA
ATOM     74  O   UNL     1      12.595   9.223  13.512  1.00  0.00    -0.744 OA
ENDBRANCH  70  71
ENDBRANCH  38  63
ENDBRANCH  12  13
ENDBRANCH   5   7
ENDBRANCH   2   3
ENDBRANCH   1   2
BRANCH   1  75
ATOM     75  C   UNL     1       4.213  -3.436  -2.010  1.00  0.00     0.002 C 
BRANCH  75  76
ATOM     76  C   UNL     1       4.791  -2.922  -3.331  1.00  0.00     0.002 C 
BRANCH  76  77
ATOM     77  C   UNL     1       6.316  -2.790  -3.403  1.00  0.00     0.021 C 
BRANCH  77  78
ATOM     78  C   UNL     1       7.112  -4.041  -3.038  1.00  0.00     0.116 C 
BRANCH  78  79
ATOM     79  N   UNL     1       6.813  -5.168  -3.904  1.00  0.00    -0.352 N 
ATOM     80  C   UNL     1       7.669  -5.973  -4.614  1.00  0.00     0.251 C 
ATOM     81  H   UNL     1       5.858  -5.387  -3.994  1.00  0.00     0.163 HD
ATOM     82  O   UNL     1       7.234  -6.882  -5.312  1.00  0.00    -0.269 OA
BRANCH  80  83
ATOM     83  C   UNL     1       9.129  -5.741  -4.525  1.00  0.00     0.047 A 
ATOM     84  C   UNL     1       9.745  -5.902  -3.270  1.00  0.00     0.017 A 
ATOM     85  C   UNL     1       9.887  -5.430  -5.674  1.00  0.00    -0.003 A 
ATOM     86  C   UNL     1      11.116  -5.697  -3.135  1.00  0.00     0.040 A 
ATOM     87  C   UNL     1      11.271  -5.229  -5.507  1.00  0.00     0.048 A 
ATOM     88  C   UNL     1      11.864  -5.356  -4.254  1.00  0.00     0.123 A 
ATOM     89  F   UNL     1      13.182  -5.157  -4.129  1.00  0.00    -0.207 F 
BRANCH  85  90
ATOM     90  C   UNL     1       9.307  -5.324  -7.024  1.00  0.00    -0.016 A 
ATOM     91  C   UNL     1       8.386  -4.314  -7.351  1.00  0.00     0.012 A 
ATOM     92  C   UNL     1       9.674  -6.246  -8.022  1.00  0.00     0.032 A 
ATOM     93  C   UNL     1       7.840  -4.233  -8.635  1.00  0.00     0.041 A 
ATOM     94  C   UNL     1       9.130  -6.161  -9.305  1.00  0.00     0.077 A 
ATOM     95  C   UNL     1       8.216  -5.157  -9.605  1.00  0.00     0.141 A 
ATOM     96  Cl  UNL     1       9.607  -7.303 -10.504  1.00  0.00    -0.081 Cl
ATOM     97  F   UNL     1       7.684  -5.056 -10.832  1.00  0.00    -0.205 F 
ENDBRANCH  85  90
ENDBRANCH  80  83
ENDBRANCH  78  79
ENDBRANCH  77  78
ENDBRANCH  76  77
ENDBRANCH  75  76
ENDBRANCH   1  75
TORSDOF 17
