REMARK SMILES COC(=O)[C@]1(C)C[C@H](C(=O)NCCCCCCNC(=O)c2ccc(-c3c4nc(c(-c5c(F)cc(S(=O)(=O)[O-])cc5F)c5ccc([nH]5)c(-c5c(F)cc(S(=O)(=O)[O-])cc5F)c5nc(c(-c6c(F)cc(S(=O)(=O)[O-])cc6F)c6ccc3[nH]6)C=C5)C=C4)cc2)[C@H](c2ccccc2F)[N@@H+]1C
REMARK SMILES IDX 15 1 14 2 13 3 12 4 11 5 9 6 10 7 8 9 5 10 7 11 95 12 6 13
REMARK SMILES IDX 87 14 96 15 3 17 4 18 2 19 1 20 88 21 89 22 93 23 90 24
REMARK SMILES IDX 92 25 94 26 91 27 16 28 17 29 18 30 19 31 20 33 21 34 22 35
REMARK SMILES IDX 86 36 23 37 85 38 24 39 25 40 26 41 79 42 27 43 84 44 78 45
REMARK SMILES IDX 80 46 28 47 83 48 77 49 76 50 29 52 63 53 42 54 62 55 43 56
REMARK SMILES IDX 46 57 61 58 81 59 44 60 45 61 60 63 82 64 47 65 30 66 31 67
REMARK SMILES IDX 40 68 32 69 33 70 39 71 41 72 34 73 35 74 36 75 37 76 38 77
REMARK SMILES IDX 64 78 65 79 74 80 66 81 67 82 73 83 75 84 68 85 69 86 70 87
REMARK SMILES IDX 71 88 72 89 48 90 49 91 58 92 50 93 51 94 57 95 59 96 52 97
REMARK SMILES IDX 53 98 54 99 55 100 56 101
REMARK H PARENT 11 8 95 16 18 32 80 51 46 62
REMARK Flexibility Score: inf
ROOT
ATOM      1  C   UNL     1       2.506  -2.603  -8.178  1.00  0.00     0.002 C 
ENDROOT
BRANCH   1   2
ATOM      2  C   UNL     1       3.182  -3.765  -7.435  1.00  0.00     0.002 C 
BRANCH   2   3
ATOM      3  C   UNL     1       3.086  -3.791  -5.906  1.00  0.00     0.021 C 
BRANCH   3   4
ATOM      4  C   UNL     1       1.672  -3.877  -5.324  1.00  0.00     0.116 C 
BRANCH   4   5
ATOM      5  N   UNL     1       1.248  -5.205  -4.932  1.00  0.00    -0.356 N 
ATOM      6  C   UNL     1       0.501  -5.674  -3.898  1.00  0.00     0.229 C 
ATOM      7  O   UNL     1       0.220  -6.882  -3.974  1.00  0.00    -0.275 OA
ATOM      8  H   UNL     1       1.565  -5.913  -5.538  1.00  0.00     0.163 HD
BRANCH   6   9
ATOM      9  C   UNL     1       0.050  -4.902  -2.641  1.00  0.00     0.148 C 
ATOM     10  C   UNL     1       0.011  -2.503  -2.148  1.00  0.00     0.194 C 
ATOM     11  C   UNL     1       0.895  -3.760  -2.086  1.00  0.00     0.101 C 
ATOM     12  N   UNL     1      -1.335  -3.063  -1.929  1.00  0.00    -0.317 N 
ATOM     13  C   UNL     1       0.432  -1.536  -1.029  1.00  0.00     0.092 C 
ATOM     14  C   UNL     1      -1.427  -4.430  -2.479  1.00  0.00     0.231 C 
ATOM     15  C   UNL     1      -2.448  -2.143  -1.950  1.00  0.00     0.334 C 
ATOM     16  H   UNL     1      -1.485  -3.231  -0.934  1.00  0.00     0.349 HD
BRANCH  10  17
ATOM     17  C   UNL     1       0.106  -1.799  -3.521  1.00  0.00     0.367 C 
ATOM     18  O   UNL     1      -0.561  -2.079  -4.503  1.00  0.00    -0.245 OA
BRANCH  17  19
ATOM     19  O   UNL     1       1.139  -0.907  -3.532  1.00  0.00    -0.464 OA
ATOM     20  C   UNL     1       1.417  -0.304  -4.792  1.00  0.00     0.282 C 
ENDBRANCH  17  19
ENDBRANCH  10  17
BRANCH  14  21
ATOM     21  C   UNL     1      -2.439  -4.915  -3.502  1.00  0.00     0.046 A 
ATOM     22  C   UNL     1      -2.694  -6.310  -3.508  1.00  0.00     0.013 A 
ATOM     23  C   UNL     1      -3.158  -4.162  -4.431  1.00  0.00     0.132 A 
ATOM     24  C   UNL     1      -3.580  -6.911  -4.407  1.00  0.00     0.001 A 
ATOM     25  C   UNL     1      -4.066  -4.753  -5.321  1.00  0.00     0.040 A 
ATOM     26  F   UNL     1      -3.042  -2.835  -4.513  1.00  0.00    -0.206 F 
ATOM     27  C   UNL     1      -4.271  -6.128  -5.319  1.00  0.00     0.003 A 
ENDBRANCH  14  21
ENDBRANCH   6   9
ENDBRANCH   4   5
ENDBRANCH   3   4
ENDBRANCH   2   3
ENDBRANCH   1   2
BRANCH   1  28
ATOM     28  C   UNL     1       2.970  -1.166  -7.912  1.00  0.00     0.021 C 
BRANCH  28  29
ATOM     29  C   UNL     1       4.454  -0.916  -7.681  1.00  0.00     0.116 C 
BRANCH  29  30
ATOM     30  N   UNL     1       5.169  -0.873  -8.940  1.00  0.00    -0.352 N 
ATOM     31  C   UNL     1       5.664   0.225  -9.602  1.00  0.00     0.251 C 
ATOM     32  H   UNL     1       5.319  -1.742  -9.377  1.00  0.00     0.163 HD
ATOM     33  O   UNL     1       5.846   0.158 -10.815  1.00  0.00    -0.269 OA
BRANCH  31  34
ATOM     34  C   UNL     1       5.999   1.476  -8.872  1.00  0.00     0.039 A 
ATOM     35  C   UNL     1       5.823   2.703  -9.520  1.00  0.00     0.014 A 
ATOM     36  C   UNL     1       6.578   1.450  -7.598  1.00  0.00     0.014 A 
ATOM     37  C   UNL     1       6.224   3.889  -8.897  1.00  0.00     0.010 A 
ATOM     38  C   UNL     1       6.909   2.641  -6.947  1.00  0.00     0.010 A 
ATOM     39  C   UNL     1       6.767   3.874  -7.600  1.00  0.00    -0.014 A 
BRANCH  39  40
ATOM     40  C   UNL     1       7.215   5.137  -6.949  1.00  0.00     0.031 A 
ATOM     41  C   UNL     1       8.669   5.353  -6.608  1.00  0.00     0.074 A 
ATOM     42  C   UNL     1       6.310   6.093  -6.657  1.00  0.00     0.049 A 
ATOM     43  N   UNL     1       9.248   6.399  -6.073  1.00  0.00    -0.248 NA
ATOM     44  C   UNL     1       9.593   4.239  -6.880  1.00  0.00     0.031 C 
ATOM     45  C   UNL     1       4.867   5.985  -6.885  1.00  0.00     0.029 A 
ATOM     46  N   UNL     1       6.466   7.344  -6.114  1.00  0.00    -0.354 N 
ATOM     47  C   UNL     1      10.593   6.069  -5.940  1.00  0.00     0.074 A 
ATOM     48  C   UNL     1      10.734   4.702  -6.392  1.00  0.00     0.031 C 
ATOM     49  C   UNL     1       4.277   7.135  -6.521  1.00  0.00     0.029 A 
ATOM     50  C   UNL     1       5.290   8.050  -6.005  1.00  0.00     0.049 A 
ATOM     51  H   UNL     1       7.337   7.703  -5.828  1.00  0.00     0.167 HD
ATOM     52  C   UNL     1      11.621   6.840  -5.508  1.00  0.00     0.037 A 
ATOM     53  C   UNL     1       5.053   9.296  -5.549  1.00  0.00     0.037 A 
ATOM     54  C   UNL     1      11.476   8.208  -5.077  1.00  0.00     0.049 A 
ATOM     55  C   UNL     1       6.212  10.139  -5.091  1.00  0.00     0.074 A 
ATOM     56  C   UNL     1      12.460   9.092  -4.670  1.00  0.00     0.029 A 
ATOM     57  N   UNL     1      10.271   8.890  -4.997  1.00  0.00    -0.354 N 
ATOM     58  N   UNL     1       7.486   9.831  -5.037  1.00  0.00    -0.248 NA
ATOM     59  C   UNL     1       5.904  11.506  -4.648  1.00  0.00     0.031 C 
ATOM     60  C   UNL     1      11.845  10.292  -4.296  1.00  0.00     0.029 A 
ATOM     61  C   UNL     1      10.484  10.177  -4.528  1.00  0.00     0.049 A 
ATOM     62  H   UNL     1       9.393   8.516  -5.237  1.00  0.00     0.167 HD
ATOM     63  C   UNL     1       8.135  10.975  -4.583  1.00  0.00     0.074 A 
ATOM     64  C   UNL     1       7.113  11.985  -4.395  1.00  0.00     0.031 C 
ATOM     65  C   UNL     1       9.456  11.173  -4.345  1.00  0.00     0.037 A 
BRANCH  52  66
ATOM     66  C   UNL     1      12.998   6.225  -5.481  1.00  0.00     0.058 A 
ATOM     67  C   UNL     1      13.688   5.902  -6.661  1.00  0.00     0.135 A 
ATOM     68  C   UNL     1      13.654   5.993  -4.261  1.00  0.00     0.135 A 
ATOM     69  F   UNL     1      13.107   6.090  -7.857  1.00  0.00    -0.206 F 
ATOM     70  C   UNL     1      14.962   5.343  -6.633  1.00  0.00     0.059 A 
ATOM     71  C   UNL     1      14.942   5.463  -4.209  1.00  0.00     0.059 A 
ATOM     72  F   UNL     1      13.046   6.283  -3.099  1.00  0.00    -0.206 F 
ATOM     73  C   UNL     1      15.582   5.128  -5.401  1.00  0.00     0.060 A 
BRANCH  73  74
ATOM     74  S   UNL     1      17.237   4.407  -5.383  1.00  0.00     0.124 S 
ATOM     75  O   UNL     1      16.959   3.029  -5.775  1.00  0.00    -0.237 OA
ATOM     76  O   UNL     1      17.940   5.217  -6.373  1.00  0.00    -0.237 OA
ATOM     77  O   UNL     1      17.674   4.590  -4.003  1.00  0.00    -0.744 OA
ENDBRANCH  73  74
ENDBRANCH  52  66
BRANCH  53  78
ATOM     78  C   UNL     1       3.664   9.831  -5.539  1.00  0.00     0.058 A 
ATOM     79  C   UNL     1       3.276  10.860  -6.411  1.00  0.00     0.135 A 
ATOM     80  C   UNL     1       2.692   9.314  -4.668  1.00  0.00     0.135 A 
ATOM     81  F   UNL     1       4.169  11.392  -7.260  1.00  0.00    -0.206 F 
ATOM     82  C   UNL     1       1.981  11.370  -6.409  1.00  0.00     0.059 A 
ATOM     83  C   UNL     1       1.384   9.787  -4.667  1.00  0.00     0.059 A 
ATOM     84  F   UNL     1       3.006   8.316  -3.827  1.00  0.00    -0.206 F 
ATOM     85  C   UNL     1       1.041  10.823  -5.534  1.00  0.00     0.060 A 
BRANCH  85  86
ATOM     86  S   UNL     1      -0.650  11.457  -5.573  1.00  0.00     0.124 S 
ATOM     87  O   UNL     1      -0.488  12.765  -4.949  1.00  0.00    -0.237 OA
ATOM     88  O   UNL     1      -0.942  11.462  -7.003  1.00  0.00    -0.237 OA
ATOM     89  O   UNL     1      -1.395  10.473  -4.792  1.00  0.00    -0.744 OA
ENDBRANCH  85  86
ENDBRANCH  53  78
BRANCH  65  90
ATOM     90  C   UNL     1       9.876  12.546  -3.895  1.00  0.00     0.058 A 
ATOM     91  C   UNL     1       9.553  13.043  -2.622  1.00  0.00     0.135 A 
ATOM     92  C   UNL     1      10.629  13.372  -4.747  1.00  0.00     0.135 A 
ATOM     93  F   UNL     1       8.835  12.297  -1.768  1.00  0.00    -0.206 F 
ATOM     94  C   UNL     1       9.921  14.325  -2.227  1.00  0.00     0.059 A 
ATOM     95  C   UNL     1      11.036  14.645  -4.360  1.00  0.00     0.059 A 
ATOM     96  F   UNL     1      10.979  12.943  -5.970  1.00  0.00    -0.206 F 
ATOM     97  C   UNL     1      10.658  15.121  -3.106  1.00  0.00     0.060 A 
BRANCH  97  98
ATOM     98  S   UNL     1      11.125  16.785  -2.584  1.00  0.00     0.124 S 
ATOM     99  O   UNL     1       9.852  17.490  -2.683  1.00  0.00    -0.237 OA
ATOM    100  O   UNL     1      11.623  16.560  -1.231  1.00  0.00    -0.237 OA
ATOM    101  O   UNL     1      12.137  17.176  -3.561  1.00  0.00    -0.744 OA
ENDBRANCH  97  98
ENDBRANCH  65  90
ENDBRANCH  39  40
ENDBRANCH  31  34
ENDBRANCH  29  30
ENDBRANCH  28  29
ENDBRANCH   1  28
TORSDOF 19
