REMARK SMILES Cc1c(NC(=O)c2cccc(-c3cc4ccccc4oc3=O)c2)cccc1C(=O)NCCCCCCNC(=O)c1ccc(-c2c3nc(c(-c4c(F)cc(S(=O)(=O)[O-])cc4F)c4ccc([nH]4)c(-c4c(F)cc(S(=O)(=O)[O-])cc4F)c4nc(c(-c5c(F)cc(S(=O)(=O)[O-])cc5F)c5ccc2[nH]5)C=C4)C=C3)cc1
REMARK SMILES IDX 33 1 32 2 31 3 30 4 28 5 29 6 27 8 1 9 2 10 3 11 24 12 26 13
REMARK SMILES IDX 25 14 4 15 5 16 6 18 7 19 8 20 23 21 9 22 11 23 10 24 12 25
REMARK SMILES IDX 13 26 21 27 14 28 20 29 22 30 15 31 19 32 16 33 18 34 17 35
REMARK SMILES IDX 34 36 35 37 36 38 37 39 38 40 39 42 40 43 41 44 105 45 42 46
REMARK SMILES IDX 104 47 43 48 44 49 45 50 98 51 46 52 103 53 97 54 99 55
REMARK SMILES IDX 47 56 102 57 96 58 95 59 48 61 82 62 61 63 81 64 62 65 65 66
REMARK SMILES IDX 80 67 100 68 63 69 64 70 79 72 101 73 66 74 49 75 50 76
REMARK SMILES IDX 59 77 51 78 52 79 58 80 60 81 53 82 54 83 55 84 56 85 57 86
REMARK SMILES IDX 83 87 84 88 93 89 85 90 86 91 92 92 94 93 87 94 88 95 89 96
REMARK SMILES IDX 90 97 91 98 67 99 68 100 77 101 69 102 70 103 76 104 78 105
REMARK SMILES IDX 71 106 72 107 73 108 74 109 75 110
REMARK H PARENT 30 7 4 17 37 41 99 60 65 71
REMARK Flexibility Score: inf
ROOT
ATOM      1  C   UNL     1       5.416   2.835  -0.696  1.00  0.00     0.002 C 
ENDROOT
BRANCH   1   2
ATOM      2  C   UNL     1       4.282   1.830  -0.454  1.00  0.00     0.021 C 
BRANCH   2   3
ATOM      3  C   UNL     1       3.402   2.095   0.781  1.00  0.00     0.116 C 
BRANCH   3   4
ATOM      4  N   UNL     1       2.133   2.676   0.384  1.00  0.00    -0.352 N 
ATOM      5  C   UNL     1       0.828   2.280   0.310  1.00  0.00     0.251 C 
ATOM      6  O   UNL     1       0.059   3.158  -0.107  1.00  0.00    -0.269 OA
ATOM      7  H   UNL     1       2.242   3.609   0.088  1.00  0.00     0.163 HD
BRANCH   5   8
ATOM      8  C   UNL     1       0.211   0.956   0.683  1.00  0.00     0.044 A 
ATOM      9  C   UNL     1       2.087  -0.663   0.011  1.00  0.00     0.047 C 
ATOM     10  C   UNL     1       0.720  -0.358   0.552  1.00  0.00    -0.015 A 
ATOM     11  C   UNL     1      -0.136  -1.468   0.828  1.00  0.00     0.045 A 
ATOM     12  C   UNL     1      -1.476  -1.277   1.175  1.00  0.00     0.026 A 
ATOM     13  C   UNL     1      -1.152   1.095   1.052  1.00  0.00     0.014 A 
ATOM     14  C   UNL     1      -1.988   0.004   1.278  1.00  0.00     0.003 A 
BRANCH  11  15
ATOM     15  N   UNL     1       0.386  -2.778   0.776  1.00  0.00    -0.322 N 
ATOM     16  C   UNL     1      -0.216  -3.978   0.462  1.00  0.00     0.255 C 
ATOM     17  H   UNL     1       1.342  -2.847   1.002  1.00  0.00     0.170 HD
ATOM     18  O   UNL     1       0.272  -5.023   0.891  1.00  0.00    -0.269 OA
BRANCH  16  19
ATOM     19  C   UNL     1      -1.353  -4.057  -0.504  1.00  0.00     0.040 A 
ATOM     20  C   UNL     1      -2.148  -5.209  -0.510  1.00  0.00     0.014 A 
ATOM     21  C   UNL     1      -1.550  -3.092  -1.502  1.00  0.00     0.022 A 
ATOM     22  C   UNL     1      -3.144  -5.374  -1.474  1.00  0.00     0.001 A 
ATOM     23  C   UNL     1      -2.556  -3.236  -2.470  1.00  0.00    -0.010 A 
ATOM     24  C   UNL     1      -3.350  -4.391  -2.444  1.00  0.00     0.009 A 
BRANCH  23  25
ATOM     25  C   UNL     1      -2.735  -2.281  -3.595  1.00  0.00     0.068 A 
ATOM     26  C   UNL     1      -2.610  -0.944  -3.446  1.00  0.00     0.028 A 
ATOM     27  C   UNL     1      -2.140  -2.735  -4.893  1.00  0.00     0.344 A 
ATOM     28  C   UNL     1      -1.204  -0.491  -3.546  1.00  0.00     0.018 A 
ATOM     29  O   UNL     1      -0.807  -2.356  -5.060  1.00  0.00    -0.422 OA
ATOM     30  O   UNL     1      -2.753  -3.445  -5.680  1.00  0.00    -0.246 OA
ATOM     31  C   UNL     1      -0.736   0.647  -2.897  1.00  0.00     0.012 A 
ATOM     32  C   UNL     1      -0.317  -1.274  -4.295  1.00  0.00     0.138 A 
ATOM     33  C   UNL     1       0.624   0.960  -2.968  1.00  0.00     0.001 A 
ATOM     34  C   UNL     1       1.042  -0.995  -4.335  1.00  0.00     0.048 A 
ATOM     35  C   UNL     1       1.514   0.128  -3.655  1.00  0.00     0.004 A 
ENDBRANCH  23  25
ENDBRANCH  16  19
ENDBRANCH  11  15
ENDBRANCH   5   8
ENDBRANCH   3   4
ENDBRANCH   2   3
ENDBRANCH   1   2
BRANCH   1  36
ATOM     36  C   UNL     1       6.444   2.997   0.435  1.00  0.00     0.002 C 
BRANCH  36  37
ATOM     37  C   UNL     1       6.977   1.698   1.042  1.00  0.00     0.021 C 
BRANCH  37  38
ATOM     38  C   UNL     1       7.884   0.910   0.104  1.00  0.00     0.116 C 
BRANCH  38  39
ATOM     39  N   UNL     1       9.296   1.094   0.396  1.00  0.00    -0.352 N 
ATOM     40  C   UNL     1      10.279   0.211  -0.016  1.00  0.00     0.251 C 
ATOM     41  H   UNL     1       9.567   1.887   0.913  1.00  0.00     0.163 HD
ATOM     42  O   UNL     1      11.213  -0.158   0.685  1.00  0.00    -0.269 OA
BRANCH  40  43
ATOM     43  C   UNL     1      10.194  -0.194  -1.432  1.00  0.00     0.039 A 
ATOM     44  C   UNL     1      10.969   0.496  -2.369  1.00  0.00     0.014 A 
ATOM     45  C   UNL     1       9.183  -1.067  -1.830  1.00  0.00     0.014 A 
ATOM     46  C   UNL     1      10.643   0.409  -3.721  1.00  0.00     0.010 A 
ATOM     47  C   UNL     1       8.820  -1.097  -3.164  1.00  0.00     0.010 A 
ATOM     48  C   UNL     1       9.524  -0.332  -4.107  1.00  0.00    -0.014 A 
BRANCH  48  49
ATOM     49  C   UNL     1       8.963  -0.308  -5.457  1.00  0.00     0.031 A 
ATOM     50  C   UNL     1       9.121  -1.473  -6.362  1.00  0.00     0.074 A 
ATOM     51  C   UNL     1       8.225   0.751  -5.859  1.00  0.00     0.049 A 
ATOM     52  N   UNL     1       8.922  -1.443  -7.638  1.00  0.00    -0.248 NA
ATOM     53  C   UNL     1       9.563  -2.778  -5.882  1.00  0.00     0.031 C 
ATOM     54  C   UNL     1       7.338   0.823  -7.015  1.00  0.00     0.029 A 
ATOM     55  N   UNL     1       8.316   2.070  -5.408  1.00  0.00    -0.354 N 
ATOM     56  C   UNL     1       8.986  -2.733  -8.112  1.00  0.00     0.074 A 
ATOM     57  C   UNL     1       9.407  -3.526  -6.979  1.00  0.00     0.031 C 
ATOM     58  C   UNL     1       7.174   2.109  -7.356  1.00  0.00     0.029 A 
ATOM     59  C   UNL     1       8.066   2.897  -6.524  1.00  0.00     0.049 A 
ATOM     60  H   UNL     1       8.517   2.365  -4.490  1.00  0.00     0.167 HD
ATOM     61  C   UNL     1       8.589  -3.010  -9.388  1.00  0.00     0.037 A 
ATOM     62  C   UNL     1       9.033   3.741  -6.992  1.00  0.00     0.037 A 
ATOM     63  C   UNL     1       8.258  -1.799 -10.130  1.00  0.00     0.049 A 
ATOM     64  C   UNL     1       9.523   3.428  -8.392  1.00  0.00     0.074 A 
ATOM     65  C   UNL     1       7.083  -1.116 -10.396  1.00  0.00     0.029 A 
ATOM     66  N   UNL     1       9.286  -0.947 -10.493  1.00  0.00    -0.354 N 
ATOM     67  N   UNL     1       9.103   2.429  -9.118  1.00  0.00    -0.248 NA
ATOM     68  C   UNL     1      10.591   4.183  -9.053  1.00  0.00     0.031 C 
ATOM     69  C   UNL     1       7.422   0.185 -10.864  1.00  0.00     0.029 A 
ATOM     70  C   UNL     1       8.800   0.285 -10.887  1.00  0.00     0.049 A 
ATOM     71  H   UNL     1      10.240  -1.188 -10.473  1.00  0.00     0.167 HD
ATOM     72  C   UNL     1       9.855   2.355 -10.259  1.00  0.00     0.074 A 
ATOM     73  C   UNL     1      10.755   3.489 -10.192  1.00  0.00     0.031 C 
ATOM     74  C   UNL     1       9.742   1.350 -11.169  1.00  0.00     0.037 A 
BRANCH  61  75
ATOM     75  C   UNL     1       8.300  -4.407  -9.884  1.00  0.00     0.058 A 
ATOM     76  C   UNL     1       7.240  -4.644 -10.786  1.00  0.00     0.135 A 
ATOM     77  C   UNL     1       8.994  -5.560  -9.468  1.00  0.00     0.135 A 
ATOM     78  F   UNL     1       6.544  -3.636 -11.329  1.00  0.00    -0.206 F 
ATOM     79  C   UNL     1       6.828  -5.927 -11.151  1.00  0.00     0.059 A 
ATOM     80  C   UNL     1       8.563  -6.856  -9.769  1.00  0.00     0.059 A 
ATOM     81  F   UNL     1      10.139  -5.465  -8.777  1.00  0.00    -0.206 F 
ATOM     82  C   UNL     1       7.469  -7.030 -10.604  1.00  0.00     0.060 A 
BRANCH  82  83
ATOM     83  S   UNL     1       6.838  -8.677 -10.982  1.00  0.00     0.124 S 
ATOM     84  O   UNL     1       5.411  -8.532 -10.708  1.00  0.00    -0.237 OA
ATOM     85  O   UNL     1       7.202  -8.825 -12.386  1.00  0.00    -0.237 OA
ATOM     86  O   UNL     1       7.560  -9.538 -10.050  1.00  0.00    -0.744 OA
ENDBRANCH  82  83
ENDBRANCH  61  75
BRANCH  62  87
ATOM     87  C   UNL     1       9.860   4.322  -5.896  1.00  0.00     0.058 A 
ATOM     88  C   UNL     1       9.212   5.143  -4.951  1.00  0.00     0.135 A 
ATOM     89  C   UNL     1      11.092   3.764  -5.535  1.00  0.00     0.135 A 
ATOM     90  F   UNL     1       8.038   5.722  -5.256  1.00  0.00    -0.206 F 
ATOM     91  C   UNL     1       9.672   5.256  -3.644  1.00  0.00     0.059 A 
ATOM     92  C   UNL     1      11.582   3.880  -4.233  1.00  0.00     0.059 A 
ATOM     93  F   UNL     1      11.761   2.983  -6.395  1.00  0.00    -0.206 F 
ATOM     94  C   UNL     1      10.820   4.558  -3.278  1.00  0.00     0.060 A 
BRANCH  94  95
ATOM     95  S   UNL     1      11.212   4.426  -1.517  1.00  0.00     0.124 S 
ATOM     96  O   UNL     1      11.263   5.826  -1.111  1.00  0.00    -0.237 OA
ATOM     97  O   UNL     1      10.076   3.660  -1.002  1.00  0.00    -0.237 OA
ATOM     98  O   UNL     1      12.487   3.719  -1.512  1.00  0.00    -0.744 OA
ENDBRANCH  94  95
ENDBRANCH  62  87
BRANCH  74  99
ATOM     99  C   UNL     1      10.549   1.323 -12.423  1.00  0.00     0.058 A 
ATOM    100  C   UNL     1      10.479   2.370 -13.354  1.00  0.00     0.135 A 
ATOM    101  C   UNL     1      11.313   0.197 -12.781  1.00  0.00     0.135 A 
ATOM    102  F   UNL     1       9.751   3.468 -13.089  1.00  0.00    -0.206 F 
ATOM    103  C   UNL     1      11.145   2.313 -14.575  1.00  0.00     0.059 A 
ATOM    104  C   UNL     1      11.961   0.103 -14.008  1.00  0.00     0.059 A 
ATOM    105  F   UNL     1      11.457  -0.833 -11.931  1.00  0.00    -0.206 F 
ATOM    106  C   UNL     1      11.882   1.173 -14.895  1.00  0.00     0.060 A 
BRANCH 106 107
ATOM    107  S   UNL     1      12.712   1.071 -16.493  1.00  0.00     0.124 S 
ATOM    108  O   UNL     1      11.860   1.884 -17.356  1.00  0.00    -0.237 OA
ATOM    109  O   UNL     1      14.017   1.642 -16.178  1.00  0.00    -0.237 OA
ATOM    110  O   UNL     1      12.700  -0.360 -16.782  1.00  0.00    -0.744 OA
ENDBRANCH 106 107
ENDBRANCH  74  99
ENDBRANCH  48  49
ENDBRANCH  40  43
ENDBRANCH  38  39
ENDBRANCH  37  38
ENDBRANCH  36  37
ENDBRANCH   1  36
TORSDOF 19
