REMARK SMILES C[C@@H]1[C@H](C(=O)NCCCCCCNC(=O)c2ccc(-c3c4nc(c(-c5c(F)cc(S(=O)(=O)[O-])cc5F)c5ccc([nH]5)c(-c5c(F)cc(S(=O)(=O)[O-])cc5F)c5nc(c(-c6c(F)cc(S(=O)(=O)[O-])cc6F)c6ccc3[nH]6)C=C5)C=C4)cc2)CCN1C(=O)COCc1ccccc1
REMARK SMILES IDX 8 1 7 2 6 3 4 4 5 5 3 7 1 8 2 9 84 10 82 11 83 12 85 13
REMARK SMILES IDX 86 14 87 15 88 16 89 17 90 18 91 19 95 20 92 21 94 22 93 23
REMARK SMILES IDX 9 24 10 25 11 26 12 27 13 28 14 29 15 31 16 32 17 33 81 34
REMARK SMILES IDX 18 35 80 36 19 37 20 38 21 39 74 40 22 41 79 42 73 43 75 44
REMARK SMILES IDX 23 45 78 46 72 47 71 48 24 50 58 51 37 52 57 53 38 54 41 55
REMARK SMILES IDX 56 56 76 57 39 58 40 59 55 61 77 62 42 63 25 64 26 65 35 66
REMARK SMILES IDX 27 67 28 68 34 69 36 70 29 71 30 72 31 73 32 74 33 75 59 76
REMARK SMILES IDX 60 77 69 78 61 79 62 80 68 81 70 82 63 83 64 84 65 85 66 86
REMARK SMILES IDX 67 87 43 88 44 89 53 90 45 91 46 92 52 93 54 94 47 95 48 96
REMARK SMILES IDX 49 97 50 98 51 99
REMARK H PARENT 6 6 13 30 75 49 41 60
REMARK Flexibility Score: inf
ROOT
ATOM      1  C   UNL     1       2.824   1.587   2.514  1.00  0.00     0.021 C 
ENDROOT
BRANCH   1   2
ATOM      2  C   UNL     1       1.355   1.808   2.152  1.00  0.00     0.116 C 
BRANCH   2   3
ATOM      3  N   UNL     1       1.219   2.643   0.972  1.00  0.00    -0.356 N 
ATOM      4  C   UNL     1       0.652   2.417  -0.241  1.00  0.00     0.225 C 
ATOM      5  O   UNL     1       0.785   3.303  -1.093  1.00  0.00    -0.275 OA
ATOM      6  H   UNL     1       1.611   3.541   1.069  1.00  0.00     0.163 HD
BRANCH   4   7
ATOM      7  C   UNL     1      -0.121   1.156  -0.591  1.00  0.00     0.102 C 
ATOM      8  C   UNL     1       2.077  -0.228  -0.283  1.00  0.00     0.032 C 
ATOM      9  C   UNL     1       0.657  -0.158  -0.829  1.00  0.00     0.094 C 
ATOM     10  N   UNL     1      -0.245  -1.206  -0.316  1.00  0.00    -0.337 N 
ATOM     11  C   UNL     1      -1.273   0.821   0.355  1.00  0.00     0.037 C 
ATOM     12  C   UNL     1      -1.511  -0.656   0.134  1.00  0.00     0.121 C 
BRANCH  10  13
ATOM     13  C   UNL     1      -0.145  -2.579  -0.453  1.00  0.00     0.248 C 
ATOM     14  O   UNL     1      -1.084  -3.322  -0.154  1.00  0.00    -0.272 OA
BRANCH  13  15
ATOM     15  C   UNL     1       1.171  -3.174  -0.962  1.00  0.00     0.260 C 
BRANCH  15  16
ATOM     16  O   UNL     1       1.632  -2.719  -2.229  1.00  0.00    -0.367 OA
BRANCH  16  17
ATOM     17  C   UNL     1       0.771  -3.076  -3.312  1.00  0.00     0.196 C 
BRANCH  17  18
ATOM     18  C   UNL     1       0.733  -4.566  -3.519  1.00  0.00    -0.022 A 
ATOM     19  C   UNL     1      -0.483  -5.260  -3.460  1.00  0.00     0.006 A 
ATOM     20  C   UNL     1       1.925  -5.285  -3.691  1.00  0.00     0.006 A 
ATOM     21  C   UNL     1      -0.502  -6.651  -3.545  1.00  0.00     0.000 A 
ATOM     22  C   UNL     1       1.903  -6.676  -3.769  1.00  0.00     0.000 A 
ATOM     23  C   UNL     1       0.691  -7.358  -3.692  1.00  0.00     0.000 A 
ENDBRANCH  17  18
ENDBRANCH  16  17
ENDBRANCH  15  16
ENDBRANCH  13  15
ENDBRANCH  10  13
ENDBRANCH   4   7
ENDBRANCH   2   3
ENDBRANCH   1   2
BRANCH   1  24
ATOM     24  C   UNL     1       3.517   2.789   3.158  1.00  0.00     0.002 C 
BRANCH  24  25
ATOM     25  C   UNL     1       2.958   3.215   4.516  1.00  0.00     0.002 C 
BRANCH  25  26
ATOM     26  C   UNL     1       2.835   2.100   5.560  1.00  0.00     0.021 C 
BRANCH  26  27
ATOM     27  C   UNL     1       4.105   1.290   5.809  1.00  0.00     0.116 C 
BRANCH  27  28
ATOM     28  N   UNL     1       5.207   2.117   6.265  1.00  0.00    -0.352 N 
ATOM     29  C   UNL     1       5.981   1.999   7.392  1.00  0.00     0.251 C 
ATOM     30  H   UNL     1       5.432   2.875   5.679  1.00  0.00     0.163 HD
ATOM     31  O   UNL     1       6.748   2.907   7.698  1.00  0.00    -0.269 OA
BRANCH  29  32
ATOM     32  C   UNL     1       5.883   0.794   8.245  1.00  0.00     0.039 A 
ATOM     33  C   UNL     1       5.847   0.958   9.632  1.00  0.00     0.014 A 
ATOM     34  C   UNL     1       5.866  -0.491   7.692  1.00  0.00     0.014 A 
ATOM     35  C   UNL     1       5.755  -0.162  10.462  1.00  0.00     0.010 A 
ATOM     36  C   UNL     1       5.713  -1.603   8.518  1.00  0.00     0.010 A 
ATOM     37  C   UNL     1       5.668  -1.451   9.912  1.00  0.00    -0.014 A 
BRANCH  37  38
ATOM     38  C   UNL     1       5.551  -2.644  10.789  1.00  0.00     0.031 A 
ATOM     39  C   UNL     1       6.668  -3.651  10.852  1.00  0.00     0.074 A 
ATOM     40  C   UNL     1       4.425  -2.838  11.503  1.00  0.00     0.049 A 
ATOM     41  N   UNL     1       6.742  -4.759  11.543  1.00  0.00    -0.248 NA
ATOM     42  C   UNL     1       7.847  -3.389  10.011  1.00  0.00     0.031 C 
ATOM     43  C   UNL     1       3.253  -1.959  11.489  1.00  0.00     0.029 A 
ATOM     44  N   UNL     1       4.079  -3.837  12.378  1.00  0.00    -0.354 N 
ATOM     45  C   UNL     1       7.966  -5.331  11.214  1.00  0.00     0.074 A 
ATOM     46  C   UNL     1       8.579  -4.473  10.224  1.00  0.00     0.031 C 
ATOM     47  C   UNL     1       2.329  -2.446  12.333  1.00  0.00     0.029 A 
ATOM     48  C   UNL     1       2.828  -3.683  12.927  1.00  0.00     0.049 A 
ATOM     49  H   UNL     1       4.671  -4.594  12.592  1.00  0.00     0.167 HD
ATOM     50  C   UNL     1       8.538  -6.454  11.710  1.00  0.00     0.037 A 
ATOM     51  C   UNL     1       2.161  -4.449  13.811  1.00  0.00     0.037 A 
ATOM     52  C   UNL     1       7.936  -7.290  12.717  1.00  0.00     0.049 A 
ATOM     53  C   UNL     1       2.822  -5.685  14.358  1.00  0.00     0.074 A 
ATOM     54  C   UNL     1       8.460  -8.415  13.328  1.00  0.00     0.029 A 
ATOM     55  N   UNL     1       6.676  -7.090  13.262  1.00  0.00    -0.354 N 
ATOM     56  N   UNL     1       4.008  -6.174  14.084  1.00  0.00    -0.248 NA
ATOM     57  C   UNL     1       2.059  -6.467  15.340  1.00  0.00     0.031 C 
ATOM     58  C   UNL     1       7.503  -8.916  14.218  1.00  0.00     0.029 A 
ATOM     59  C   UNL     1       6.399  -8.080  14.190  1.00  0.00     0.049 A 
ATOM     60  H   UNL     1       6.069  -6.353  13.024  1.00  0.00     0.167 HD
ATOM     61  C   UNL     1       4.141  -7.310  14.874  1.00  0.00     0.074 A 
ATOM     62  C   UNL     1       2.922  -7.426  15.648  1.00  0.00     0.031 C 
ATOM     63  C   UNL     1       5.179  -8.180  14.952  1.00  0.00     0.037 A 
BRANCH  50  64
ATOM     64  C   UNL     1       9.890  -6.840  11.177  1.00  0.00     0.058 A 
ATOM     65  C   UNL     1      11.044  -6.109  11.503  1.00  0.00     0.135 A 
ATOM     66  C   UNL     1      10.041  -7.968  10.354  1.00  0.00     0.135 A 
ATOM     67  F   UNL     1      10.955  -5.013  12.273  1.00  0.00    -0.206 F 
ATOM     68  C   UNL     1      12.294  -6.464  11.008  1.00  0.00     0.059 A 
ATOM     69  C   UNL     1      11.286  -8.357   9.869  1.00  0.00     0.059 A 
ATOM     70  F   UNL     1       8.971  -8.703  10.011  1.00  0.00    -0.206 F 
ATOM     71  C   UNL     1      12.405  -7.589  10.189  1.00  0.00     0.060 A 
BRANCH  71  72
ATOM     72  S   UNL     1      14.035  -8.037   9.553  1.00  0.00     0.124 S 
ATOM     73  O   UNL     1      14.229  -7.028   8.517  1.00  0.00    -0.237 OA
ATOM     74  O   UNL     1      14.880  -7.902  10.735  1.00  0.00    -0.237 OA
ATOM     75  O   UNL     1      13.848  -9.402   9.073  1.00  0.00    -0.744 OA
ENDBRANCH  71  72
ENDBRANCH  50  64
BRANCH  51  76
ATOM     76  C   UNL     1       0.799  -4.053  14.256  1.00  0.00     0.058 A 
ATOM     77  C   UNL     1       0.579  -3.562  15.551  1.00  0.00     0.135 A 
ATOM     78  C   UNL     1      -0.304  -4.143  13.393  1.00  0.00     0.135 A 
ATOM     79  F   UNL     1       1.602  -3.464  16.413  1.00  0.00    -0.206 F 
ATOM     80  C   UNL     1      -0.689  -3.188  15.983  1.00  0.00     0.059 A 
ATOM     81  C   UNL     1      -1.578  -3.753  13.794  1.00  0.00     0.059 A 
ATOM     82  F   UNL     1      -0.142  -4.590  12.138  1.00  0.00    -0.206 F 
ATOM     83  C   UNL     1      -1.762  -3.285  15.095  1.00  0.00     0.060 A 
BRANCH  83  84
ATOM     84  S   UNL     1      -3.396  -2.748  15.646  1.00  0.00     0.124 S 
ATOM     85  O   UNL     1      -3.794  -3.856  16.507  1.00  0.00    -0.237 OA
ATOM     86  O   UNL     1      -3.095  -1.490  16.322  1.00  0.00    -0.237 OA
ATOM     87  O   UNL     1      -4.143  -2.616  14.398  1.00  0.00    -0.744 OA
ENDBRANCH  83  84
ENDBRANCH  51  76
BRANCH  63  88
ATOM     88  C   UNL     1       5.050  -9.320  15.921  1.00  0.00     0.058 A 
ATOM     89  C   UNL     1       4.213 -10.416  15.659  1.00  0.00     0.135 A 
ATOM     90  C   UNL     1       5.805  -9.338  17.105  1.00  0.00     0.135 A 
ATOM     91  F   UNL     1       3.466 -10.443  14.544  1.00  0.00    -0.206 F 
ATOM     92  C   UNL     1       4.110 -11.480  16.549  1.00  0.00     0.059 A 
ATOM     93  C   UNL     1       5.736 -10.403  17.998  1.00  0.00     0.059 A 
ATOM     94  F   UNL     1       6.628  -8.319  17.398  1.00  0.00    -0.206 F 
ATOM     95  C   UNL     1       4.876 -11.464  17.716  1.00  0.00     0.060 A 
BRANCH  95  96
ATOM     96  S   UNL     1       4.756 -12.864  18.850  1.00  0.00     0.124 S 
ATOM     97  O   UNL     1       3.477 -12.605  19.502  1.00  0.00    -0.237 OA
ATOM     98  O   UNL     1       4.786 -14.007  17.943  1.00  0.00    -0.237 OA
ATOM     99  O   UNL     1       5.936 -12.715  19.698  1.00  0.00    -0.744 OA
ENDBRANCH  95  96
ENDBRANCH  63  88
ENDBRANCH  37  38
ENDBRANCH  29  32
ENDBRANCH  27  28
ENDBRANCH  26  27
ENDBRANCH  25  26
ENDBRANCH  24  25
ENDBRANCH   1  24
TORSDOF 21
