REMARK SMILES Cc1ccc(C(=O)NC2CC2)cc1NC(=O)[C@@H]1[C@@H](C(=O)NCCCCCCNC(=O)c2ccc(-c3c4nc(c(-c5c(F)cc(S(=O)(=O)[O-])cc5F)c5ccc([nH]5)c(-c5c(F)cc(S(=O)(=O)[O-])cc5F)c5nc(c(-c6c(F)cc(S(=O)(=O)[O-])cc6F)c6ccc3[nH]6)C=C5)C=C4)cc2)[C@H]2C=C[C@@H]1C2
REMARK SMILES IDX 24 1 23 2 22 3 21 4 19 5 20 6 18 8 17 9 100 10 97 11 99 12
REMARK SMILES IDX 101 13 98 14 15 15 14 16 16 18 13 19 1 20 2 21 3 22 4 23
REMARK SMILES IDX 12 24 5 25 6 26 7 27 8 28 9 30 10 31 11 32 25 33 26 34 27 35
REMARK SMILES IDX 28 36 29 37 30 39 31 40 32 41 96 42 33 43 95 44 34 45 35 46
REMARK SMILES IDX 36 47 89 48 37 49 94 50 88 51 90 52 38 53 93 54 87 55 86 56
REMARK SMILES IDX 39 58 73 59 52 60 72 61 53 62 56 63 71 64 91 65 54 66 55 67
REMARK SMILES IDX 70 69 92 70 57 71 40 72 41 73 50 74 42 75 43 76 49 77 51 78
REMARK SMILES IDX 44 79 45 80 46 81 47 82 48 83 74 84 75 85 84 86 76 87 77 88
REMARK SMILES IDX 83 89 85 90 78 91 79 92 80 93 81 94 82 95 58 96 59 97 68 98
REMARK SMILES IDX 60 99 61 100 67 101 69 102 62 103 63 104 64 105 65 106
REMARK SMILES IDX 66 107
REMARK H PARENT 21 7 14 17 8 29 28 38 90 57 56 68
REMARK Flexibility Score: inf
ROOT
ATOM      1  C   UNL     1      -4.935   9.300  -0.983  1.00  0.00     0.002 C 
ENDROOT
BRANCH   1   2
ATOM      2  C   UNL     1      -3.825   9.145   0.065  1.00  0.00     0.021 C 
BRANCH   2   3
ATOM      3  C   UNL     1      -3.510   7.730   0.548  1.00  0.00     0.116 C 
BRANCH   3   4
ATOM      4  N   UNL     1      -3.020   6.866  -0.502  1.00  0.00    -0.356 N 
ATOM      5  C   UNL     1      -2.148   5.829  -0.477  1.00  0.00     0.224 C 
ATOM      6  O   UNL     1      -1.949   5.266  -1.560  1.00  0.00    -0.275 OA
ATOM      7  H   UNL     1      -3.384   7.066  -1.394  1.00  0.00     0.163 HD
BRANCH   5   8
ATOM      8  C   UNL     1      -1.341   5.416   0.755  1.00  0.00     0.098 C 
ATOM      9  C   UNL     1      -0.959   3.885   0.619  1.00  0.00     0.099 C 
ATOM     10  C   UNL     1      -1.270   3.318   2.028  1.00  0.00     0.025 C 
ATOM     11  C   UNL     1      -1.976   5.439   2.164  1.00  0.00     0.025 C 
ATOM     12  C   UNL     1      -2.775   3.282   2.181  1.00  0.00    -0.027 C 
ATOM     13  C   UNL     1      -0.996   4.526   2.921  1.00  0.00     0.017 C 
ATOM     14  C   UNL     1      -3.199   4.553   2.228  1.00  0.00    -0.027 C 
BRANCH   9  15
ATOM     15  C   UNL     1       0.473   3.609   0.197  1.00  0.00     0.228 C 
ATOM     16  N   UNL     1       0.903   2.343  -0.117  1.00  0.00    -0.326 N 
ATOM     17  H   UNL     1       1.864   2.299  -0.326  1.00  0.00     0.169 HD
ATOM     18  O   UNL     1       1.329   4.498   0.212  1.00  0.00    -0.274 OA
BRANCH  16  19
ATOM     19  C   UNL     1       0.256   1.089  -0.202  1.00  0.00     0.044 A 
ATOM     20  C   UNL     1       2.481  -0.117   0.307  1.00  0.00     0.046 C 
ATOM     21  C   UNL     1       0.994  -0.081   0.070  1.00  0.00    -0.027 A 
ATOM     22  C   UNL     1       0.324  -1.315   0.094  1.00  0.00     0.006 A 
ATOM     23  C   UNL     1      -1.048  -1.394  -0.142  1.00  0.00     0.014 A 
ATOM     24  C   UNL     1      -1.096   0.960  -0.568  1.00  0.00     0.040 A 
ATOM     25  C   UNL     1      -1.785  -0.256  -0.490  1.00  0.00     0.041 A 
BRANCH  25  26
ATOM     26  C   UNL     1      -3.249  -0.461  -0.755  1.00  0.00     0.251 C 
ATOM     27  O   UNL     1      -3.692  -1.614  -0.749  1.00  0.00    -0.269 OA
ATOM     28  N   UNL     1      -4.161   0.549  -0.974  1.00  0.00    -0.349 N 
ATOM     29  H   UNL     1      -5.087   0.238  -1.091  1.00  0.00     0.164 HD
BRANCH  28  30
ATOM     30  C   UNL     1      -4.006   1.956  -1.060  1.00  0.00     0.082 C 
ATOM     31  C   UNL     1      -3.918   2.613  -2.409  1.00  0.00     0.027 C 
ATOM     32  C   UNL     1      -5.113   2.854  -1.538  1.00  0.00     0.027 C 
ENDBRANCH  28  30
ENDBRANCH  25  26
ENDBRANCH  16  19
ENDBRANCH   9  15
ENDBRANCH   5   8
ENDBRANCH   3   4
ENDBRANCH   2   3
ENDBRANCH   1   2
BRANCH   1  33
ATOM     33  C   UNL     1      -6.328   8.753  -0.642  1.00  0.00     0.002 C 
BRANCH  33  34
ATOM     34  C   UNL     1      -6.873   9.049   0.756  1.00  0.00     0.021 C 
BRANCH  34  35
ATOM     35  C   UNL     1      -6.894  10.523   1.135  1.00  0.00     0.116 C 
BRANCH  35  36
ATOM     36  N   UNL     1      -8.226  11.126   1.182  1.00  0.00    -0.352 N 
ATOM     37  C   UNL     1      -8.551  12.397   1.595  1.00  0.00     0.251 C 
ATOM     38  H   UNL     1      -8.973  10.558   0.884  1.00  0.00     0.163 HD
ATOM     39  O   UNL     1      -9.699  12.757   1.761  1.00  0.00    -0.269 OA
BRANCH  37  40
ATOM     40  C   UNL     1      -7.434  13.365   1.748  1.00  0.00     0.039 A 
ATOM     41  C   UNL     1      -7.366  14.431   0.842  1.00  0.00     0.014 A 
ATOM     42  C   UNL     1      -6.363  13.081   2.596  1.00  0.00     0.014 A 
ATOM     43  C   UNL     1      -6.161  15.110   0.672  1.00  0.00     0.010 A 
ATOM     44  C   UNL     1      -5.146  13.697   2.363  1.00  0.00     0.010 A 
ATOM     45  C   UNL     1      -5.030  14.684   1.374  1.00  0.00    -0.014 A 
BRANCH  45  46
ATOM     46  C   UNL     1      -3.676  15.149   1.071  1.00  0.00     0.031 A 
ATOM     47  C   UNL     1      -2.988  16.117   1.960  1.00  0.00     0.074 A 
ATOM     48  C   UNL     1      -3.016  14.706  -0.024  1.00  0.00     0.049 A 
ATOM     49  N   UNL     1      -2.138  16.999   1.544  1.00  0.00    -0.248 NA
ATOM     50  C   UNL     1      -3.223  16.182   3.399  1.00  0.00     0.031 C 
ATOM     51  C   UNL     1      -1.598  14.904  -0.316  1.00  0.00     0.029 A 
ATOM     52  N   UNL     1      -3.529  14.170  -1.207  1.00  0.00    -0.354 N 
ATOM     53  C   UNL     1      -1.523  17.543   2.650  1.00  0.00     0.074 A 
ATOM     54  C   UNL     1      -2.281  17.053   3.780  1.00  0.00     0.031 C 
ATOM     55  C   UNL     1      -1.415  14.809  -1.640  1.00  0.00     0.029 A 
ATOM     56  C   UNL     1      -2.726  14.662  -2.249  1.00  0.00     0.049 A 
ATOM     57  H   UNL     1      -4.301  13.566  -1.294  1.00  0.00     0.167 HD
ATOM     58  C   UNL     1      -0.352  18.232   2.522  1.00  0.00     0.037 A 
ATOM     59  C   UNL     1      -3.170  15.355  -3.336  1.00  0.00     0.037 A 
ATOM     60  C   UNL     1       0.117  18.248   1.143  1.00  0.00     0.049 A 
ATOM     61  C   UNL     1      -2.462  16.674  -3.540  1.00  0.00     0.074 A 
ATOM     62  C   UNL     1       1.030  17.452   0.470  1.00  0.00     0.029 A 
ATOM     63  N   UNL     1      -0.547  18.992   0.177  1.00  0.00    -0.354 N 
ATOM     64  N   UNL     1      -1.763  17.269  -2.615  1.00  0.00    -0.248 NA
ATOM     65  C   UNL     1      -2.520  17.452  -4.774  1.00  0.00     0.031 C 
ATOM     66  C   UNL     1       0.916  17.717  -0.911  1.00  0.00     0.029 A 
ATOM     67  C   UNL     1      -0.073  18.670  -1.080  1.00  0.00     0.049 A 
ATOM     68  H   UNL     1      -1.254  19.652   0.361  1.00  0.00     0.167 HD
ATOM     69  C   UNL     1      -1.311  18.480  -3.079  1.00  0.00     0.074 A 
ATOM     70  C   UNL     1      -1.794  18.536  -4.445  1.00  0.00     0.031 C 
ATOM     71  C   UNL     1      -0.588  19.319  -2.276  1.00  0.00     0.037 A 
BRANCH  58  72
ATOM     72  C   UNL     1       0.522  18.618   3.697  1.00  0.00     0.058 A 
ATOM     73  C   UNL     1       1.932  18.585   3.603  1.00  0.00     0.135 A 
ATOM     74  C   UNL     1       0.022  19.002   4.957  1.00  0.00     0.135 A 
ATOM     75  F   UNL     1       2.558  18.332   2.447  1.00  0.00    -0.206 F 
ATOM     76  C   UNL     1       2.772  18.788   4.697  1.00  0.00     0.059 A 
ATOM     77  C   UNL     1       0.842  19.167   6.080  1.00  0.00     0.059 A 
ATOM     78  F   UNL     1      -1.285  19.249   5.132  1.00  0.00    -0.206 F 
ATOM     79  C   UNL     1       2.218  19.039   5.943  1.00  0.00     0.060 A 
BRANCH  79  80
ATOM     80  S   UNL     1       3.320  19.161   7.365  1.00  0.00     0.124 S 
ATOM     81  O   UNL     1       4.110  17.938   7.248  1.00  0.00    -0.237 OA
ATOM     82  O   UNL     1       4.033  20.404   7.093  1.00  0.00    -0.237 OA
ATOM     83  O   UNL     1       2.404  19.196   8.501  1.00  0.00    -0.744 OA
ENDBRANCH  79  80
ENDBRANCH  58  72
BRANCH  59  84
ATOM     84  C   UNL     1      -4.582  15.094  -3.704  1.00  0.00     0.058 A 
ATOM     85  C   UNL     1      -4.902  13.841  -4.256  1.00  0.00     0.135 A 
ATOM     86  C   UNL     1      -5.620  15.846  -3.137  1.00  0.00     0.135 A 
ATOM     87  F   UNL     1      -3.945  13.096  -4.832  1.00  0.00    -0.206 F 
ATOM     88  C   UNL     1      -6.164  13.282  -4.101  1.00  0.00     0.059 A 
ATOM     89  C   UNL     1      -6.895  15.306  -2.975  1.00  0.00     0.059 A 
ATOM     90  F   UNL     1      -5.364  17.041  -2.585  1.00  0.00    -0.206 F 
ATOM     91  C   UNL     1      -7.132  13.998  -3.398  1.00  0.00     0.060 A 
BRANCH  91  92
ATOM     92  S   UNL     1      -8.624  13.116  -2.881  1.00  0.00     0.124 S 
ATOM     93  O   UNL     1      -9.197  12.712  -4.160  1.00  0.00    -0.237 OA
ATOM     94  O   UNL     1      -8.059  12.040  -2.070  1.00  0.00    -0.237 OA
ATOM     95  O   UNL     1      -9.368  14.130  -2.145  1.00  0.00    -0.744 OA
ENDBRANCH  91  92
ENDBRANCH  59  84
BRANCH  71  96
ATOM     96  C   UNL     1      -0.187  20.757  -2.551  1.00  0.00     0.058 A 
ATOM     97  C   UNL     1      -0.845  21.614  -3.449  1.00  0.00     0.135 A 
ATOM     98  C   UNL     1       0.842  21.370  -1.787  1.00  0.00     0.135 A 
ATOM     99  F   UNL     1      -1.909  21.206  -4.153  1.00  0.00    -0.206 F 
ATOM    100  C   UNL     1      -0.473  22.951  -3.627  1.00  0.00     0.059 A 
ATOM    101  C   UNL     1       1.194  22.713  -1.909  1.00  0.00     0.059 A 
ATOM    102  F   UNL     1       1.542  20.686  -0.870  1.00  0.00    -0.206 F 
ATOM    103  C   UNL     1       0.548  23.494  -2.853  1.00  0.00     0.060 A 
BRANCH 103 104
ATOM    104  S   UNL     1       0.985  25.234  -3.024  1.00  0.00     0.124 S 
ATOM    105  O   UNL     1       2.024  25.175  -4.047  1.00  0.00    -0.237 OA
ATOM    106  O   UNL     1      -0.274  25.845  -3.441  1.00  0.00    -0.237 OA
ATOM    107  O   UNL     1       1.434  25.598  -1.684  1.00  0.00    -0.744 OA
ENDBRANCH 103 104
ENDBRANCH  71  96
ENDBRANCH  45  46
ENDBRANCH  37  40
ENDBRANCH  35  36
ENDBRANCH  34  35
ENDBRANCH  33  34
ENDBRANCH   1  33
TORSDOF 20
