REMARK SMILES Cc1ccc(S(=O)(=O)Nc2ccc(C(=O)CCC(=O)NCCCCCCNC(=O)c3ccc(-c4c5nc(c(-c6c(F)cc(S(=O)(=O)[O-])cc6F)c6ccc([nH]6)c(-c6c(F)cc(S(=O)(=O)[O-])cc6F)c6nc(c(-c7c(F)cc(S(=O)(=O)[O-])cc7F)c7ccc4[nH]7)C=C6)C=C5)cc3)cc2)c(C)c1
REMARK SMILES IDX 22 1 21 2 20 3 18 4 19 5 17 7 16 8 14 9 15 10 13 11 10 12
REMARK SMILES IDX 11 13 97 14 12 15 96 16 9 17 6 19 7 20 8 21 5 22 1 23 2 24
REMARK SMILES IDX 3 25 100 26 4 27 98 28 99 29 23 30 24 31 25 32 26 33 27 34
REMARK SMILES IDX 28 35 29 37 30 38 31 39 95 40 32 41 94 42 33 43 34 44 35 45
REMARK SMILES IDX 88 46 36 47 93 48 87 49 89 50 37 51 92 52 86 53 85 54 38 56
REMARK SMILES IDX 72 57 51 58 71 59 52 60 55 61 70 62 90 63 53 64 54 65 69 67
REMARK SMILES IDX 91 68 56 69 39 70 40 71 49 72 41 73 42 74 48 75 50 76 43 77
REMARK SMILES IDX 44 78 45 79 46 80 47 81 73 82 74 83 83 84 75 85 76 86 82 87
REMARK SMILES IDX 84 88 77 89 78 90 79 91 80 92 81 93 57 94 58 95 67 96 59 97
REMARK SMILES IDX 60 98 66 99 68 100 61 101 62 102 63 103 64 104 65 105
REMARK H PARENT 20 6 9 18 27 36 89 55 55 66
REMARK Flexibility Score: inf
ROOT
ATOM      1  C   UNL     1       1.233  -4.233   0.072  1.00  0.00     0.021 C 
ENDROOT
BRANCH   1   2
ATOM      2  C   UNL     1       2.062  -3.073  -0.743  1.00  0.00     0.116 C 
BRANCH   2   3
ATOM      3  N   UNL     1       2.925  -2.404   0.259  1.00  0.00    -0.356 N 
ATOM      4  C   UNL     1       3.774  -3.006   1.163  1.00  0.00     0.220 C 
ATOM      5  O   UNL     1       4.064  -2.388   2.190  1.00  0.00    -0.275 OA
ATOM      6  H   UNL     1       2.887  -1.420   0.282  1.00  0.00     0.163 HD
BRANCH   4   7
ATOM      7  C   UNL     1       4.332  -4.418   0.903  1.00  0.00     0.108 C 
BRANCH   7   8
ATOM      8  C   UNL     1       3.711  -5.561   1.755  1.00  0.00     0.091 C 
BRANCH   8   9
ATOM      9  C   UNL     1       2.876  -6.632   0.996  1.00  0.00     0.163 C 
ATOM     10  O   UNL     1       3.358  -7.681   0.582  1.00  0.00    -0.294 OA
BRANCH   9  11
ATOM     11  C   UNL     1       1.463  -6.281   0.599  1.00  0.00     0.018 A 
ATOM     12  C   UNL     1      -0.619  -3.500  -0.516  1.00  0.00     0.049 A 
ATOM     13  C   UNL     1       0.288  -4.516  -1.733  1.00  0.00     0.027 A 
ATOM     14  C   UNL     1      -0.514  -3.907   1.222  1.00  0.00     0.027 A 
ATOM     15  C   UNL     1       1.308  -5.915  -1.183  1.00  0.00     0.014 A 
ATOM     16  C   UNL     1       0.523  -5.300   1.774  1.00  0.00     0.014 A 
BRANCH  12  17
ATOM     17  N   UNL     1      -1.666  -2.665  -1.048  1.00  0.00    -0.280 N 
ATOM     18  H   UNL     1      -2.059  -2.945  -1.906  1.00  0.00     0.180 HD
BRANCH  17  19
ATOM     19  S   UNL     1      -2.283  -1.274  -0.362  1.00  0.00     0.262 S 
ATOM     20  O   UNL     1      -2.391  -1.478   1.065  1.00  0.00    -0.201 OA
ATOM     21  O   UNL     1      -3.445  -0.950  -1.162  1.00  0.00    -0.201 OA
BRANCH  19  22
ATOM     22  C   UNL     1      -1.082  -0.019  -0.671  1.00  0.00     0.090 A 
ATOM     23  C   UNL     1       2.561   2.045   0.056  1.00  0.00     0.044 C 
ATOM     24  C   UNL     1       1.249   1.421  -0.306  1.00  0.00    -0.051 A 
ATOM     25  C   UNL     1       1.216   0.382  -1.236  1.00  0.00     0.005 A 
ATOM     26  C   UNL     1       0.048   1.875   0.256  1.00  0.00     0.008 A 
ATOM     27  C   UNL     1       0.037  -0.323  -1.440  1.00  0.00     0.023 A 
ATOM     28  C   UNL     1      -1.143   1.165   0.068  1.00  0.00    -0.030 A 
ATOM     29  C   UNL     1      -2.453   1.744   0.524  1.00  0.00     0.046 C 
ENDBRANCH  19  22
ENDBRANCH  17  19
ENDBRANCH  12  17
ENDBRANCH   9  11
ENDBRANCH   8   9
ENDBRANCH   7   8
ENDBRANCH   4   7
ENDBRANCH   2   3
ENDBRANCH   1   2
BRANCH   1  30
ATOM     30  C   UNL     1      -0.462  -5.573  -0.125  1.00  0.00     0.002 C 
BRANCH  30  31
ATOM     31  C   UNL     1      -1.790  -5.720  -1.201  1.00  0.00     0.002 C 
BRANCH  31  32
ATOM     32  C   UNL     1      -1.657  -6.524  -2.488  1.00  0.00     0.021 C 
BRANCH  32  33
ATOM     33  C   UNL     1      -2.434  -7.812  -2.386  1.00  0.00     0.116 C 
BRANCH  33  34
ATOM     34  N   UNL     1      -3.876  -7.564  -2.269  1.00  0.00    -0.352 N 
ATOM     35  C   UNL     1      -4.877  -7.961  -3.123  1.00  0.00     0.251 C 
ATOM     36  H   UNL     1      -4.162  -7.048  -1.481  1.00  0.00     0.163 HD
ATOM     37  O   UNL     1      -6.006  -7.493  -3.049  1.00  0.00    -0.269 OA
BRANCH  35  38
ATOM     38  C   UNL     1      -4.524  -8.959  -4.144  1.00  0.00     0.039 A 
ATOM     39  C   UNL     1      -4.819  -8.725  -5.486  1.00  0.00     0.014 A 
ATOM     40  C   UNL     1      -3.743 -10.048  -3.749  1.00  0.00     0.014 A 
ATOM     41  C   UNL     1      -4.256  -9.557  -6.450  1.00  0.00     0.010 A 
ATOM     42  C   UNL     1      -3.065 -10.767  -4.710  1.00  0.00     0.010 A 
ATOM     43  C   UNL     1      -3.342 -10.553  -6.067  1.00  0.00    -0.014 A 
BRANCH  43  44
ATOM     44  C   UNL     1      -2.692 -11.446  -7.048  1.00  0.00     0.031 A 
ATOM     45  C   UNL     1      -2.918 -12.928  -6.925  1.00  0.00     0.074 A 
ATOM     46  C   UNL     1      -1.831 -10.941  -7.951  1.00  0.00     0.049 A 
ATOM     47  N   UNL     1      -2.354 -13.906  -7.580  1.00  0.00    -0.248 NA
ATOM     48  C   UNL     1      -3.864 -13.372  -5.885  1.00  0.00     0.031 C 
ATOM     49  C   UNL     1      -1.485  -9.525  -8.095  1.00  0.00     0.029 A 
ATOM     50  N   UNL     1      -1.071 -11.567  -8.904  1.00  0.00    -0.354 N 
ATOM     51  C   UNL     1      -2.851 -15.071  -7.009  1.00  0.00     0.074 A 
ATOM     52  C   UNL     1      -3.699 -14.684  -5.907  1.00  0.00     0.031 C 
ATOM     53  C   UNL     1      -0.594  -9.389  -9.090  1.00  0.00     0.029 A 
ATOM     54  C   UNL     1      -0.274 -10.709  -9.623  1.00  0.00     0.049 A 
ATOM     55  H   UNL     1      -1.094 -12.539  -9.059  1.00  0.00     0.167 HD
ATOM     56  C   UNL     1      -2.642 -16.350  -7.393  1.00  0.00     0.037 A 
ATOM     57  C   UNL     1       0.627 -10.967 -10.591  1.00  0.00     0.037 A 
ATOM     58  C   UNL     1      -1.827 -16.706  -8.521  1.00  0.00     0.049 A 
ATOM     59  C   UNL     1       0.828 -12.393 -11.023  1.00  0.00     0.074 A 
ATOM     60  C   UNL     1      -1.626 -17.954  -9.076  1.00  0.00     0.029 A 
ATOM     61  N   UNL     1      -1.069 -15.806  -9.259  1.00  0.00    -0.354 N 
ATOM     62  N   UNL     1       0.262 -13.481 -10.553  1.00  0.00    -0.248 NA
ATOM     63  C   UNL     1       1.781 -12.633 -12.113  1.00  0.00     0.031 C 
ATOM     64  C   UNL     1      -0.695 -17.819 -10.111  1.00  0.00     0.029 A 
ATOM     65  C   UNL     1      -0.361 -16.478 -10.238  1.00  0.00     0.049 A 
ATOM     66  H   UNL     1      -1.041 -14.834  -9.107  1.00  0.00     0.167 HD
ATOM     67  C   UNL     1       0.788 -14.535 -11.290  1.00  0.00     0.074 A 
ATOM     68  C   UNL     1       1.697 -13.949 -12.256  1.00  0.00     0.031 C 
ATOM     69  C   UNL     1       0.548 -15.865 -11.176  1.00  0.00     0.037 A 
BRANCH  56  70
ATOM     70  C   UNL     1      -3.298 -17.436  -6.585  1.00  0.00     0.058 A 
ATOM     71  C   UNL     1      -4.693 -17.601  -6.550  1.00  0.00     0.135 A 
ATOM     72  C   UNL     1      -2.518 -18.324  -5.828  1.00  0.00     0.135 A 
ATOM     73  F   UNL     1      -5.491 -16.768  -7.238  1.00  0.00    -0.206 F 
ATOM     74  C   UNL     1      -5.292 -18.577  -5.761  1.00  0.00     0.059 A 
ATOM     75  C   UNL     1      -3.094 -19.330  -5.058  1.00  0.00     0.059 A 
ATOM     76  F   UNL     1      -1.181 -18.210  -5.818  1.00  0.00    -0.206 F 
ATOM     77  C   UNL     1      -4.483 -19.436  -5.017  1.00  0.00     0.060 A 
BRANCH  77  78
ATOM     78  S   UNL     1      -5.277 -20.692  -3.993  1.00  0.00     0.124 S 
ATOM     79  O   UNL     1      -5.837 -19.880  -2.917  1.00  0.00    -0.237 OA
ATOM     80  O   UNL     1      -6.245 -21.278  -4.914  1.00  0.00    -0.237 OA
ATOM     81  O   UNL     1      -4.173 -21.566  -3.609  1.00  0.00    -0.744 OA
ENDBRANCH  77  78
ENDBRANCH  56  70
BRANCH  57  82
ATOM     82  C   UNL     1       1.387  -9.845 -11.205  1.00  0.00     0.058 A 
ATOM     83  C   UNL     1       1.124  -9.419 -12.514  1.00  0.00     0.135 A 
ATOM     84  C   UNL     1       2.348  -9.134 -10.468  1.00  0.00     0.135 A 
ATOM     85  F   UNL     1       0.219 -10.069 -13.262  1.00  0.00    -0.206 F 
ATOM     86  C   UNL     1       1.781  -8.325 -13.071  1.00  0.00     0.059 A 
ATOM     87  C   UNL     1       3.001  -8.023 -10.994  1.00  0.00     0.059 A 
ATOM     88  F   UNL     1       2.625  -9.489  -9.203  1.00  0.00    -0.206 F 
ATOM     89  C   UNL     1       2.711  -7.627 -12.298  1.00  0.00     0.060 A 
BRANCH  89  90
ATOM     90  S   UNL     1       3.490  -6.155 -12.999  1.00  0.00     0.124 S 
ATOM     91  O   UNL     1       4.382  -6.739 -13.994  1.00  0.00    -0.237 OA
ATOM     92  O   UNL     1       2.341  -5.422 -13.521  1.00  0.00    -0.237 OA
ATOM     93  O   UNL     1       4.144  -5.541 -11.847  1.00  0.00    -0.744 OA
ENDBRANCH  89  90
ENDBRANCH  57  82
BRANCH  69  94
ATOM     94  C   UNL     1       1.288 -16.782 -12.108  1.00  0.00     0.058 A 
ATOM     95  C   UNL     1       2.656 -17.044 -11.940  1.00  0.00     0.135 A 
ATOM     96  C   UNL     1       0.603 -17.474 -13.121  1.00  0.00     0.135 A 
ATOM     97  F   UNL     1       3.355 -16.401 -10.991  1.00  0.00    -0.206 F 
ATOM     98  C   UNL     1       3.323 -17.954 -12.750  1.00  0.00     0.059 A 
ATOM     99  C   UNL     1       1.244 -18.411 -13.922  1.00  0.00     0.059 A 
ATOM    100  F   UNL     1      -0.709 -17.266 -13.315  1.00  0.00    -0.206 F 
ATOM    101  C   UNL     1       2.606 -18.640 -13.732  1.00  0.00     0.060 A 
BRANCH 101 102
ATOM    102  S   UNL     1       3.475 -19.864 -14.734  1.00  0.00     0.124 S 
ATOM    103  O   UNL     1       4.315 -19.015 -15.572  1.00  0.00    -0.237 OA
ATOM    104  O   UNL     1       4.176 -20.651 -13.724  1.00  0.00    -0.237 OA
ATOM    105  O   UNL     1       2.397 -20.562 -15.429  1.00  0.00    -0.744 OA
ENDBRANCH 101 102
ENDBRANCH  69  94
ENDBRANCH  43  44
ENDBRANCH  35  38
ENDBRANCH  33  34
ENDBRANCH  32  33
ENDBRANCH  31  32
ENDBRANCH  30  31
ENDBRANCH   1  30
TORSDOF 22
