REMARK SMILES C[C@@H](CO)CS[C@@H](C)C[C@@](C)([NH3+])C(=O)NCCCCCCNC(=O)c1ccc(-c2c3nc(c(-c4c(F)cc(S(=O)(=O)[O-])cc4F)c4ccc([nH]4)c(-c4c(F)cc(S(=O)(=O)[O-])cc4F)c4nc(c(-c5c(F)cc(S(=O)(=O)[O-])cc5F)c5ccc2[nH]5)C=C4)C=C3)cc1
REMARK SMILES IDX 16 1 15 2 13 3 14 4 10 6 11 7 9 8 7 9 8 10 6 11 5 12 2 13
REMARK SMILES IDX 1 14 3 15 4 16 12 18 17 22 18 23 19 24 20 25 21 26 22 27
REMARK SMILES IDX 23 28 24 30 25 31 26 32 90 33 27 34 89 35 28 36 29 37 30 38
REMARK SMILES IDX 83 39 31 40 88 41 82 42 84 43 32 44 87 45 81 46 80 47 33 49
REMARK SMILES IDX 67 50 46 51 66 52 47 53 50 54 65 55 85 56 48 57 49 58 64 60
REMARK SMILES IDX 86 61 51 62 34 63 35 64 44 65 36 66 37 67 43 68 45 69 38 70
REMARK SMILES IDX 39 71 40 72 41 73 42 74 68 75 69 76 78 77 70 78 71 79 77 80
REMARK SMILES IDX 79 81 72 82 73 83 74 84 75 85 76 86 52 87 53 88 62 89 54 90
REMARK SMILES IDX 55 91 61 92 63 93 56 94 57 95 58 96 59 97 60 98
REMARK H PARENT 15 5 4 17 12 19 12 20 12 21 22 29 84 48 50 59
REMARK Flexibility Score: inf
ROOT
ATOM      1  C   UNL     1       2.006  -4.972   2.485  1.00  0.00     0.116 C 
ENDROOT
BRANCH   1   2
ATOM      2  N   UNL     1       0.922  -4.013   2.436  1.00  0.00    -0.351 N 
ATOM      3  C   UNL     1       0.776  -2.973   1.565  1.00  0.00     0.281 C 
ATOM      4  O   UNL     1       0.623  -1.883   2.110  1.00  0.00    -0.268 OA
ATOM      5  H   UNL     1       0.210  -4.125   3.106  1.00  0.00     0.163 HD
BRANCH   3   6
ATOM      6  C   UNL     1       0.914  -3.182   0.020  1.00  0.00     0.172 C 
ATOM      7  C   UNL     1       0.325  -4.540  -0.404  1.00  0.00     0.090 C 
BRANCH   6   8
ATOM      8  C   UNL     1       0.295  -2.064  -0.882  1.00  0.00     0.093 C 
BRANCH   8   9
ATOM      9  C   UNL     1      -1.171  -1.596  -0.749  1.00  0.00     0.050 C 
ATOM     10  C   UNL     1      -1.523  -0.657  -1.913  1.00  0.00     0.019 C 
BRANCH   9  11
ATOM     11  S   UNL     1      -1.757  -0.856   0.833  1.00  0.00    -0.158 SA
BRANCH  11  12
ATOM     12  C   UNL     1      -1.024   0.837   0.919  1.00  0.00     0.075 C 
BRANCH  12  13
ATOM     13  C   UNL     1       0.389   1.035   1.519  1.00  0.00     0.021 C 
ATOM     14  C   UNL     1       1.523   0.754   0.531  1.00  0.00     0.011 C 
BRANCH  13  15
ATOM     15  C   UNL     1       0.553   2.469   2.046  1.00  0.00     0.160 C 
BRANCH  15  16
ATOM     16  O   UNL     1       0.330   3.433   1.025  1.00  0.00    -0.396 OA
ATOM     17  H   UNL     1       0.979   3.307   0.315  1.00  0.00     0.210 HD
ENDBRANCH  15  16
ENDBRANCH  13  15
ENDBRANCH  12  13
ENDBRANCH  11  12
ENDBRANCH   9  11
ENDBRANCH   8   9
ENDBRANCH   6   8
BRANCH   6  18
ATOM     18  N   UNL     1       2.366  -3.135  -0.319  1.00  0.00    -0.345 N 
ATOM     19  H   UNL     1       2.485  -3.269  -1.323  1.00  0.00     0.345 HD
ATOM     20  H   UNL     1       2.856  -3.876   0.182  1.00  0.00     0.345 HD
ATOM     21  H   UNL     1       2.750  -2.230  -0.049  1.00  0.00     0.345 HD
ENDBRANCH   6  18
ENDBRANCH   3   6
ENDBRANCH   1   2
BRANCH   1  22
ATOM     22  C   UNL     1       3.102  -4.500   3.451  1.00  0.00     0.021 C 
BRANCH  22  23
ATOM     23  C   UNL     1       2.643  -4.287   4.903  1.00  0.00     0.002 C 
BRANCH  23  24
ATOM     24  C   UNL     1       1.857  -5.444   5.526  1.00  0.00     0.002 C 
BRANCH  24  25
ATOM     25  C   UNL     1       2.530  -6.814   5.436  1.00  0.00     0.021 C 
BRANCH  25  26
ATOM     26  C   UNL     1       3.923  -6.882   6.046  1.00  0.00     0.116 C 
BRANCH  26  27
ATOM     27  N   UNL     1       3.904  -6.692   7.487  1.00  0.00    -0.352 N 
ATOM     28  C   UNL     1       4.440  -7.491   8.465  1.00  0.00     0.251 C 
ATOM     29  H   UNL     1       3.445  -5.881   7.804  1.00  0.00     0.163 HD
ATOM     30  O   UNL     1       4.180  -7.276   9.649  1.00  0.00    -0.269 OA
BRANCH  28  31
ATOM     31  C   UNL     1       5.305  -8.630   8.089  1.00  0.00     0.039 A 
ATOM     32  C   UNL     1       5.065  -9.879   8.664  1.00  0.00     0.014 A 
ATOM     33  C   UNL     1       6.331  -8.470   7.152  1.00  0.00     0.014 A 
ATOM     34  C   UNL     1       5.809 -10.985   8.246  1.00  0.00     0.010 A 
ATOM     35  C   UNL     1       7.023  -9.585   6.686  1.00  0.00     0.010 A 
ATOM     36  C   UNL     1       6.766 -10.855   7.225  1.00  0.00    -0.014 A 
BRANCH  36  37
ATOM     37  C   UNL     1       7.481 -12.041   6.689  1.00  0.00     0.031 A 
ATOM     38  C   UNL     1       8.972 -12.165   6.842  1.00  0.00     0.074 A 
ATOM     39  C   UNL     1       6.792 -12.976   6.004  1.00  0.00     0.049 A 
ATOM     40  N   UNL     1       9.773 -13.097   6.392  1.00  0.00    -0.248 NA
ATOM     41  C   UNL     1       9.657 -11.089   7.575  1.00  0.00     0.031 C 
ATOM     42  C   UNL     1       5.351 -12.939   5.741  1.00  0.00     0.029 A 
ATOM     43  N   UNL     1       7.210 -14.131   5.392  1.00  0.00    -0.354 N 
ATOM     44  C   UNL     1      11.053 -12.716   6.776  1.00  0.00     0.074 A 
ATOM     45  C   UNL     1      10.928 -11.444   7.453  1.00  0.00     0.031 C 
ATOM     46  C   UNL     1       5.003 -14.029   5.040  1.00  0.00     0.029 A 
ATOM     47  C   UNL     1       6.198 -14.823   4.769  1.00  0.00     0.049 A 
ATOM     48  H   UNL     1       8.146 -14.436   5.398  1.00  0.00     0.167 HD
ATOM     49  C   UNL     1      12.222 -13.378   6.598  1.00  0.00     0.037 A 
ATOM     50  C   UNL     1       6.228 -15.963   4.050  1.00  0.00     0.037 A 
ATOM     51  C   UNL     1      12.334 -14.655   5.943  1.00  0.00     0.049 A 
ATOM     52  C   UNL     1       7.538 -16.676   3.862  1.00  0.00     0.074 A 
ATOM     53  C   UNL     1      13.461 -15.442   5.780  1.00  0.00     0.029 A 
ATOM     54  N   UNL     1      11.286 -15.330   5.333  1.00  0.00    -0.354 N 
ATOM     55  N   UNL     1       8.728 -16.341   4.302  1.00  0.00    -0.248 NA
ATOM     56  C   UNL     1       7.512 -17.921   3.083  1.00  0.00     0.031 C 
ATOM     57  C   UNL     1      13.105 -16.568   5.029  1.00  0.00     0.029 A 
ATOM     58  C   UNL     1      11.746 -16.507   4.764  1.00  0.00     0.049 A 
ATOM     59  H   UNL     1      10.353 -15.018   5.307  1.00  0.00     0.167 HD
ATOM     60  C   UNL     1       9.590 -17.341   3.864  1.00  0.00     0.074 A 
ATOM     61  C   UNL     1       8.781 -18.303   3.143  1.00  0.00     0.031 C 
ATOM     62  C   UNL     1      10.930 -17.450   4.040  1.00  0.00     0.037 A 
BRANCH  49  63
ATOM     63  C   UNL     1      13.476 -12.733   7.123  1.00  0.00     0.058 A 
ATOM     64  C   UNL     1      13.730 -12.628   8.500  1.00  0.00     0.135 A 
ATOM     65  C   UNL     1      14.453 -12.248   6.239  1.00  0.00     0.135 A 
ATOM     66  F   UNL     1      12.825 -13.064   9.391  1.00  0.00    -0.206 F 
ATOM     67  C   UNL     1      14.893 -12.037   8.982  1.00  0.00     0.059 A 
ATOM     68  C   UNL     1      15.636 -11.678   6.699  1.00  0.00     0.059 A 
ATOM     69  F   UNL     1      14.261 -12.323   4.913  1.00  0.00    -0.206 F 
ATOM     70  C   UNL     1      15.841 -11.563   8.073  1.00  0.00     0.060 A 
BRANCH  70  71
ATOM     71  S   UNL     1      17.345 -10.800   8.716  1.00  0.00     0.124 S 
ATOM     72  O   UNL     1      16.837  -9.521   9.203  1.00  0.00    -0.237 OA
ATOM     73  O   UNL     1      17.763 -11.749   9.743  1.00  0.00    -0.237 OA
ATOM     74  O   UNL     1      18.215 -10.724   7.546  1.00  0.00    -0.744 OA
ENDBRANCH  70  71
ENDBRANCH  49  63
BRANCH  50  75
ATOM     75  C   UNL     1       4.972 -16.501   3.465  1.00  0.00     0.058 A 
ATOM     76  C   UNL     1       4.378 -17.665   3.974  1.00  0.00     0.135 A 
ATOM     77  C   UNL     1       4.327 -15.849   2.401  1.00  0.00     0.135 A 
ATOM     78  F   UNL     1       4.960 -18.327   4.985  1.00  0.00    -0.206 F 
ATOM     79  C   UNL     1       3.194 -18.170   3.445  1.00  0.00     0.059 A 
ATOM     80  C   UNL     1       3.131 -16.321   1.871  1.00  0.00     0.059 A 
ATOM     81  F   UNL     1       4.847 -14.722   1.889  1.00  0.00    -0.206 F 
ATOM     82  C   UNL     1       2.576 -17.488   2.395  1.00  0.00     0.060 A 
BRANCH  82  83
ATOM     83  S   UNL     1       1.009 -18.117   1.756  1.00  0.00     0.124 S 
ATOM     84  O   UNL     1       1.447 -19.290   1.008  1.00  0.00    -0.237 OA
ATOM     85  O   UNL     1       0.262 -18.383   2.981  1.00  0.00    -0.237 OA
ATOM     86  O   UNL     1       0.505 -17.007   0.953  1.00  0.00    -0.744 OA
ENDBRANCH  82  83
ENDBRANCH  50  75
BRANCH  62  87
ATOM     87  C   UNL     1      11.608 -18.654   3.447  1.00  0.00     0.058 A 
ATOM     88  C   UNL     1      11.807 -18.776   2.063  1.00  0.00     0.135 A 
ATOM     89  C   UNL     1      12.109 -19.672   4.275  1.00  0.00     0.135 A 
ATOM     90  F   UNL     1      11.340 -17.834   1.228  1.00  0.00    -0.206 F 
ATOM     91  C   UNL     1      12.462 -19.875   1.518  1.00  0.00     0.059 A 
ATOM     92  C   UNL     1      12.791 -20.767   3.753  1.00  0.00     0.059 A 
ATOM     93  F   UNL     1      11.953 -19.600   5.606  1.00  0.00    -0.206 F 
ATOM     94  C   UNL     1      12.954 -20.864   2.371  1.00  0.00     0.060 A 
BRANCH  94  95
ATOM     95  S   UNL     1      13.834 -22.267   1.652  1.00  0.00     0.124 S 
ATOM     96  O   UNL     1      12.740 -23.029   1.060  1.00  0.00    -0.237 OA
ATOM     97  O   UNL     1      14.738 -21.617   0.708  1.00  0.00    -0.237 OA
ATOM     98  O   UNL     1      14.482 -22.888   2.804  1.00  0.00    -0.744 OA
ENDBRANCH  94  95
ENDBRANCH  62  87
ENDBRANCH  36  37
ENDBRANCH  28  31
ENDBRANCH  26  27
ENDBRANCH  25  26
ENDBRANCH  24  25
ENDBRANCH  23  24
ENDBRANCH  22  23
ENDBRANCH   1  22
TORSDOF 24
