REMARK SMILES COc1cc(C(C)C)cc([C@H]([NH3+])C(=O)NCCCCCCNC(=O)c2ccc(-c3c4nc(c(-c5c(F)cc(S(=O)(=O)[O-])cc5F)c5ccc([nH]5)c(-c5c(F)cc(S(=O)(=O)[O-])cc5F)c5nc(c(-c6c(F)cc(S(=O)(=O)[O-])cc6F)c6ccc3[nH]6)C=C5)C=C4)cc2)c1O
REMARK SMILES IDX 19 1 18 2 17 3 16 4 15 5 13 6 14 7 11 9 10 10 3 11 4 12
REMARK SMILES IDX 91 13 5 14 9 15 2 16 1 17 92 18 6 20 7 21 8 22 12 23 20 27
REMARK SMILES IDX 21 28 22 29 23 30 24 32 25 33 26 34 90 35 27 36 89 37 28 38
REMARK SMILES IDX 29 39 30 40 83 41 31 42 88 43 82 44 84 45 32 46 87 47 81 48
REMARK SMILES IDX 80 49 33 51 67 52 46 53 66 54 47 55 50 56 65 57 85 58 48 59
REMARK SMILES IDX 49 60 64 62 86 63 51 64 34 65 35 66 44 67 36 68 37 69 43 70
REMARK SMILES IDX 45 71 38 72 39 73 40 74 41 75 42 76 68 77 69 78 78 79 70 80
REMARK SMILES IDX 71 81 77 82 79 83 72 84 73 85 74 86 75 87 76 88 52 89 53 90
REMARK SMILES IDX 62 91 54 92 55 93 61 94 63 95 56 96 57 97 58 98 59 99 60 100
REMARK H PARENT 15 8 92 19 12 24 12 25 12 26 22 31 84 50 50 61
REMARK Flexibility Score: inf
ROOT
ATOM      1  C   UNL     1      -0.903  -9.057   3.357  1.00  0.00     0.002 C 
ENDROOT
BRANCH   1   2
ATOM      2  C   UNL     1      -1.506  -7.726   2.896  1.00  0.00     0.002 C 
BRANCH   2   3
ATOM      3  C   UNL     1      -0.539  -6.539   2.910  1.00  0.00     0.021 C 
BRANCH   3   4
ATOM      4  C   UNL     1       0.727  -6.750   2.085  1.00  0.00     0.116 C 
BRANCH   4   5
ATOM      5  N   UNL     1       0.419  -6.872   0.673  1.00  0.00    -0.351 N 
ATOM      6  C   UNL     1       0.869  -6.119  -0.374  1.00  0.00     0.283 C 
ATOM      7  O   UNL     1       0.381  -6.346  -1.486  1.00  0.00    -0.268 OA
ATOM      8  H   UNL     1      -0.201  -7.599   0.435  1.00  0.00     0.163 HD
BRANCH   6   9
ATOM      9  C   UNL     1       1.955  -5.022  -0.173  1.00  0.00     0.306 C 
BRANCH   9  10
ATOM     10  C   UNL     1       3.265  -5.610   0.346  1.00  0.00     0.065 A 
ATOM     11  C   UNL     1       5.052  -7.275   0.118  1.00  0.00     0.161 A 
ATOM     12  C   UNL     1       5.554  -6.876   1.362  1.00  0.00     0.054 A 
ATOM     13  C   UNL     1       3.912  -6.634  -0.379  1.00  0.00     0.167 A 
ATOM     14  C   UNL     1       4.955  -5.850   2.106  1.00  0.00    -0.041 A 
ATOM     15  C   UNL     1       3.826  -5.213   1.574  1.00  0.00     0.018 A 
BRANCH  11  16
ATOM     16  O   UNL     1       5.777  -8.291  -0.442  1.00  0.00    -0.493 OA
ATOM     17  C   UNL     1       5.407  -8.788  -1.717  1.00  0.00     0.278 C 
ENDBRANCH  11  16
BRANCH  13  18
ATOM     18  O   UNL     1       3.369  -6.980  -1.585  1.00  0.00    -0.504 OA
ATOM     19  H   UNL     1       3.766  -7.655  -2.101  1.00  0.00     0.293 HD
ENDBRANCH  13  18
BRANCH  14  20
ATOM     20  C   UNL     1       5.488  -5.438   3.468  1.00  0.00     0.013 C 
ATOM     21  C   UNL     1       5.487  -6.607   4.457  1.00  0.00     0.012 C 
ATOM     22  C   UNL     1       6.882  -4.819   3.353  1.00  0.00     0.012 C 
ENDBRANCH  14  20
ENDBRANCH   9  10
BRANCH   9  23
ATOM     23  N   UNL     1       1.385  -3.927   0.652  1.00  0.00    -0.343 N 
ATOM     24  H   UNL     1       1.108  -4.295   1.562  1.00  0.00     0.345 HD
ATOM     25  H   UNL     1       0.569  -3.536   0.180  1.00  0.00     0.345 HD
ATOM     26  H   UNL     1       2.086  -3.197   0.779  1.00  0.00     0.345 HD
ENDBRANCH   9  23
ENDBRANCH   6   9
ENDBRANCH   4   5
ENDBRANCH   3   4
ENDBRANCH   2   3
ENDBRANCH   1   2
BRANCH   1  27
ATOM     27  C   UNL     1      -0.246  -9.027   4.739  1.00  0.00     0.021 C 
BRANCH  27  28
ATOM     28  C   UNL     1      -1.156  -8.555   5.868  1.00  0.00     0.116 C 
BRANCH  28  29
ATOM     29  N   UNL     1      -2.312  -9.420   6.036  1.00  0.00    -0.352 N 
ATOM     30  C   UNL     1      -2.789 -10.020   7.172  1.00  0.00     0.251 C 
ATOM     31  H   UNL     1      -2.827  -9.601   5.216  1.00  0.00     0.163 HD
ATOM     32  O   UNL     1      -3.668 -10.878   7.087  1.00  0.00    -0.269 OA
BRANCH  30  33
ATOM     33  C   UNL     1      -2.237  -9.652   8.493  1.00  0.00     0.039 A 
ATOM     34  C   UNL     1      -1.971 -10.663   9.419  1.00  0.00     0.014 A 
ATOM     35  C   UNL     1      -1.997  -8.315   8.826  1.00  0.00     0.014 A 
ATOM     36  C   UNL     1      -1.423 -10.336  10.662  1.00  0.00     0.010 A 
ATOM     37  C   UNL     1      -1.378  -8.000  10.033  1.00  0.00     0.010 A 
ATOM     38  C   UNL     1      -1.097  -9.005  10.970  1.00  0.00    -0.014 A 
BRANCH  38  39
ATOM     39  C   UNL     1      -0.478  -8.651  12.274  1.00  0.00     0.031 A 
ATOM     40  C   UNL     1      -1.210  -7.760  13.242  1.00  0.00     0.074 A 
ATOM     41  C   UNL     1       0.758  -9.099  12.569  1.00  0.00     0.049 A 
ATOM     42  N   UNL     1      -0.826  -7.320  14.413  1.00  0.00    -0.248 NA
ATOM     43  C   UNL     1      -2.539  -7.278  12.830  1.00  0.00     0.031 C 
ATOM     44  C   UNL     1       1.588  -9.928  11.693  1.00  0.00     0.029 A 
ATOM     45  N   UNL     1       1.534  -8.920  13.687  1.00  0.00    -0.354 N 
ATOM     46  C   UNL     1      -1.856  -6.507  14.872  1.00  0.00     0.074 A 
ATOM     47  C   UNL     1      -2.855  -6.463  13.826  1.00  0.00     0.031 C 
ATOM     48  C   UNL     1       2.742 -10.211  12.318  1.00  0.00     0.029 A 
ATOM     49  C   UNL     1       2.752  -9.555  13.621  1.00  0.00     0.049 A 
ATOM     50  H   UNL     1       1.246  -8.387  14.463  1.00  0.00     0.167 HD
ATOM     51  C   UNL     1      -1.974  -5.878  16.066  1.00  0.00     0.037 A 
ATOM     52  C   UNL     1       3.764  -9.601  14.510  1.00  0.00     0.037 A 
ATOM     53  C   UNL     1      -0.983  -5.942  17.109  1.00  0.00     0.049 A 
ATOM     54  C   UNL     1       3.612  -8.890  15.828  1.00  0.00     0.074 A 
ATOM     55  C   UNL     1      -1.028  -5.381  18.374  1.00  0.00     0.029 A 
ATOM     56  N   UNL     1       0.232  -6.605  17.010  1.00  0.00    -0.354 N 
ATOM     57  N   UNL     1       2.603  -8.178  16.270  1.00  0.00    -0.248 NA
ATOM     58  C   UNL     1       4.732  -8.998  16.773  1.00  0.00     0.031 C 
ATOM     59  C   UNL     1       0.180  -5.662  19.020  1.00  0.00     0.029 A 
ATOM     60  C   UNL     1       0.954  -6.450  18.183  1.00  0.00     0.049 A 
ATOM     61  H   UNL     1       0.536  -7.112  16.223  1.00  0.00     0.167 HD
ATOM     62  C   UNL     1       2.953  -7.780  17.557  1.00  0.00     0.074 A 
ATOM     63  C   UNL     1       4.261  -8.342  17.824  1.00  0.00     0.031 C 
ATOM     64  C   UNL     1       2.253  -7.021  18.437  1.00  0.00     0.037 A 
BRANCH  51  65
ATOM     65  C   UNL     1      -3.220  -5.068  16.308  1.00  0.00     0.058 A 
ATOM     66  C   UNL     1      -4.478  -5.676  16.458  1.00  0.00     0.135 A 
ATOM     67  C   UNL     1      -3.154  -3.670  16.422  1.00  0.00     0.135 A 
ATOM     68  F   UNL     1      -4.604  -7.007  16.343  1.00  0.00    -0.206 F 
ATOM     69  C   UNL     1      -5.629  -4.925  16.677  1.00  0.00     0.059 A 
ATOM     70  C   UNL     1      -4.288  -2.902  16.674  1.00  0.00     0.059 A 
ATOM     71  F   UNL     1      -1.979  -3.035  16.289  1.00  0.00    -0.206 F 
ATOM     72  C   UNL     1      -5.524  -3.538  16.784  1.00  0.00     0.060 A 
BRANCH  72  73
ATOM     73  S   UNL     1      -7.026  -2.580  17.071  1.00  0.00     0.124 S 
ATOM     74  O   UNL     1      -7.689  -2.684  15.774  1.00  0.00    -0.237 OA
ATOM     75  O   UNL     1      -7.658  -3.310  18.165  1.00  0.00    -0.237 OA
ATOM     76  O   UNL     1      -6.524  -1.253  17.413  1.00  0.00    -0.744 OA
ENDBRANCH  72  73
ENDBRANCH  51  65
BRANCH  52  77
ATOM     77  C   UNL     1       4.996 -10.373  14.196  1.00  0.00     0.058 A 
ATOM     78  C   UNL     1       5.302 -11.557  14.883  1.00  0.00     0.135 A 
ATOM     79  C   UNL     1       5.887  -9.950  13.197  1.00  0.00     0.135 A 
ATOM     80  F   UNL     1       4.485 -12.001  15.851  1.00  0.00    -0.206 F 
ATOM     81  C   UNL     1       6.456 -12.284  14.608  1.00  0.00     0.059 A 
ATOM     82  C   UNL     1       7.033 -10.675  12.883  1.00  0.00     0.059 A 
ATOM     83  F   UNL     1       5.632  -8.834  12.496  1.00  0.00    -0.206 F 
ATOM     84  C   UNL     1       7.314 -11.835  13.603  1.00  0.00     0.060 A 
BRANCH  84  85
ATOM     85  S   UNL     1       8.787 -12.810  13.223  1.00  0.00     0.124 S 
ATOM     86  O   UNL     1       9.623 -12.545  14.388  1.00  0.00    -0.237 OA
ATOM     87  O   UNL     1       8.242 -14.160  13.120  1.00  0.00    -0.237 OA
ATOM     88  O   UNL     1       9.255 -12.233  11.966  1.00  0.00    -0.744 OA
ENDBRANCH  84  85
ENDBRANCH  52  77
BRANCH  64  89
ATOM     89  C   UNL     1       2.869  -6.788  19.791  1.00  0.00     0.058 A 
ATOM     90  C   UNL     1       3.990  -5.961  19.965  1.00  0.00     0.135 A 
ATOM     91  C   UNL     1       2.304  -7.375  20.936  1.00  0.00     0.135 A 
ATOM     92  F   UNL     1       4.572  -5.379  18.905  1.00  0.00    -0.206 F 
ATOM     93  C   UNL     1       4.549  -5.751  21.222  1.00  0.00     0.059 A 
ATOM     94  C   UNL     1       2.828  -7.153  22.205  1.00  0.00     0.059 A 
ATOM     95  F   UNL     1       1.224  -8.165  20.828  1.00  0.00    -0.206 F 
ATOM     96  C   UNL     1       3.961  -6.352  22.336  1.00  0.00     0.060 A 
BRANCH  96  97
ATOM     97  S   UNL     1       4.686  -6.057  23.963  1.00  0.00     0.124 S 
ATOM     98  O   UNL     1       5.899  -6.865  23.894  1.00  0.00    -0.237 OA
ATOM     99  O   UNL     1       4.886  -4.611  23.958  1.00  0.00    -0.237 OA
ATOM    100  O   UNL     1       3.662  -6.539  24.885  1.00  0.00    -0.744 OA
ENDBRANCH  96  97
ENDBRANCH  64  89
ENDBRANCH  38  39
ENDBRANCH  30  33
ENDBRANCH  28  29
ENDBRANCH  27  28
ENDBRANCH   1  27
TORSDOF 21
