REMARK SMILES CCc1cccc(C)c1Nc1ccccc1CC(=O)NCCCCCCNC(=O)c1ccc(-c2c3nc(c(-c4c(F)cc(S(=O)(=O)[O-])cc4F)c4ccc([nH]4)c(-c4c(F)cc(S(=O)(=O)[O-])cc4F)c4nc(c(-c5c(F)cc(S(=O)(=O)[O-])cc5F)c5ccc2[nH]5)C=C4)C=C3)cc1
REMARK SMILES IDX 23 1 22 2 21 3 20 4 18 5 19 6 17 8 16 9 11 10 12 11 13 12
REMARK SMILES IDX 15 13 14 14 10 15 9 17 3 18 4 19 5 20 7 21 6 22 8 23 2 24
REMARK SMILES IDX 1 25 24 26 25 27 26 28 27 29 28 30 29 32 30 33 31 34 95 35
REMARK SMILES IDX 32 36 94 37 33 38 34 39 35 40 88 41 36 42 93 43 87 44 89 45
REMARK SMILES IDX 37 46 92 47 86 48 85 49 38 51 72 52 51 53 71 54 52 55 55 56
REMARK SMILES IDX 70 57 90 58 53 59 54 60 69 62 91 63 56 64 39 65 40 66 49 67
REMARK SMILES IDX 41 68 42 69 48 70 50 71 43 72 44 73 45 74 46 75 47 76 73 77
REMARK SMILES IDX 74 78 83 79 75 80 76 81 82 82 84 83 77 84 78 85 79 86 80 87
REMARK SMILES IDX 81 88 57 89 58 90 67 91 59 92 60 93 66 94 68 95 61 96 62 97
REMARK SMILES IDX 63 98 64 99 65 100
REMARK H PARENT 20 7 10 16 27 31 89 50 55 61
REMARK Flexibility Score: inf
ROOT
ATOM      1  C   UNL     1      -1.122   5.940  -4.497  1.00  0.00     0.002 C 
ENDROOT
BRANCH   1   2
ATOM      2  C   UNL     1      -1.507   6.324  -3.060  1.00  0.00     0.021 C 
BRANCH   2   3
ATOM      3  C   UNL     1      -2.676   5.551  -2.447  1.00  0.00     0.116 C 
BRANCH   3   4
ATOM      4  N   UNL     1      -2.581   4.114  -2.605  1.00  0.00    -0.356 N 
ATOM      5  C   UNL     1      -2.471   3.109  -1.692  1.00  0.00     0.224 C 
ATOM      6  O   UNL     1      -2.785   1.976  -2.075  1.00  0.00    -0.275 OA
ATOM      7  H   UNL     1      -2.599   3.808  -3.541  1.00  0.00     0.163 HD
BRANCH   5   8
ATOM      8  C   UNL     1      -2.160   3.363  -0.233  1.00  0.00     0.137 C 
BRANCH   8   9
ATOM      9  C   UNL     1      -0.839   4.007   0.142  1.00  0.00    -0.015 A 
ATOM     10  C   UNL     1       0.401   3.332   0.135  1.00  0.00     0.042 A 
ATOM     11  C   UNL     1       1.538   3.994   0.649  1.00  0.00     0.026 A 
ATOM     12  C   UNL     1       1.466   5.288   1.160  1.00  0.00     0.002 A 
ATOM     13  C   UNL     1      -0.890   5.311   0.686  1.00  0.00     0.006 A 
ATOM     14  C   UNL     1       0.248   5.948   1.179  1.00  0.00     0.000 A 
BRANCH  10  15
ATOM     15  N   UNL     1       0.612   2.038  -0.393  1.00  0.00    -0.355 N 
ATOM     16  H   UNL     1       0.960   1.384   0.256  1.00  0.00     0.167 HD
BRANCH  15  17
ATOM     17  C   UNL     1       0.406   1.522  -1.695  1.00  0.00     0.045 A 
ATOM     18  C   UNL     1       0.069   0.155  -1.866  1.00  0.00    -0.024 A 
ATOM     19  C   UNL     1      -0.265  -0.303  -3.162  1.00  0.00     0.006 A 
ATOM     20  C   UNL     1      -0.197   0.530  -4.272  1.00  0.00     0.001 A 
ATOM     21  C   UNL     1       0.607   2.322  -2.852  1.00  0.00    -0.027 A 
ATOM     22  C   UNL     1       0.264   1.827  -4.121  1.00  0.00     0.005 A 
ATOM     23  C   UNL     1       1.245   3.684  -2.797  1.00  0.00     0.046 C 
BRANCH  18  24
ATOM     24  C   UNL     1      -0.053  -0.891  -0.770  1.00  0.00     0.034 C 
ATOM     25  C   UNL     1       0.826  -0.787   0.470  1.00  0.00     0.009 C 
ENDBRANCH  18  24
ENDBRANCH  15  17
ENDBRANCH  10  15
ENDBRANCH   8   9
ENDBRANCH   5   8
ENDBRANCH   3   4
ENDBRANCH   2   3
ENDBRANCH   1   2
BRANCH   1  26
ATOM     26  C   UNL     1      -2.175   6.161  -5.595  1.00  0.00     0.002 C 
BRANCH  26  27
ATOM     27  C   UNL     1      -2.765   7.569  -5.716  1.00  0.00     0.021 C 
BRANCH  27  28
ATOM     28  C   UNL     1      -1.753   8.683  -5.932  1.00  0.00     0.116 C 
BRANCH  28  29
ATOM     29  N   UNL     1      -1.395   8.978  -7.309  1.00  0.00    -0.352 N 
ATOM     30  C   UNL     1      -0.986  10.301  -7.574  1.00  0.00     0.251 C 
ATOM     31  H   UNL     1      -1.435   8.294  -8.016  1.00  0.00     0.163 HD
ATOM     32  O   UNL     1      -1.693  11.207  -7.790  1.00  0.00    -0.269 OA
BRANCH  30  33
ATOM     33  C   UNL     1       0.436  10.507  -7.133  1.00  0.00     0.039 A 
ATOM     34  C   UNL     1       1.515  10.210  -7.955  1.00  0.00     0.014 A 
ATOM     35  C   UNL     1       0.608  10.769  -5.771  1.00  0.00     0.014 A 
ATOM     36  C   UNL     1       2.781  10.065  -7.376  1.00  0.00     0.010 A 
ATOM     37  C   UNL     1       1.848  10.556  -5.196  1.00  0.00     0.010 A 
ATOM     38  C   UNL     1       2.934  10.165  -5.989  1.00  0.00    -0.014 A 
BRANCH  38  39
ATOM     39  C   UNL     1       4.145   9.763  -5.268  1.00  0.00     0.031 A 
ATOM     40  C   UNL     1       5.015  10.764  -4.590  1.00  0.00     0.074 A 
ATOM     41  C   UNL     1       4.510   8.463  -5.196  1.00  0.00     0.049 A 
ATOM     42  N   UNL     1       6.236  10.535  -4.223  1.00  0.00    -0.248 NA
ATOM     43  C   UNL     1       4.615  12.150  -4.371  1.00  0.00     0.031 C 
ATOM     44  C   UNL     1       5.458   7.871  -4.255  1.00  0.00     0.029 A 
ATOM     45  N   UNL     1       4.271   7.445  -6.104  1.00  0.00    -0.354 N 
ATOM     46  C   UNL     1       6.673  11.607  -3.482  1.00  0.00     0.074 A 
ATOM     47  C   UNL     1       5.690  12.631  -3.735  1.00  0.00     0.031 C 
ATOM     48  C   UNL     1       5.902   6.708  -4.753  1.00  0.00     0.029 A 
ATOM     49  C   UNL     1       5.358   6.565  -6.090  1.00  0.00     0.049 A 
ATOM     50  H   UNL     1       3.468   7.355  -6.666  1.00  0.00     0.167 HD
ATOM     51  C   UNL     1       7.740  11.450  -2.643  1.00  0.00     0.037 A 
ATOM     52  C   UNL     1       6.096   6.282  -7.204  1.00  0.00     0.037 A 
ATOM     53  C   UNL     1       8.463  10.206  -2.933  1.00  0.00     0.049 A 
ATOM     54  C   UNL     1       7.569   6.612  -7.091  1.00  0.00     0.074 A 
ATOM     55  C   UNL     1       8.580   8.990  -2.281  1.00  0.00     0.029 A 
ATOM     56  N   UNL     1       9.079  10.047  -4.171  1.00  0.00    -0.354 N 
ATOM     57  N   UNL     1       8.093   7.300  -6.115  1.00  0.00    -0.248 NA
ATOM     58  C   UNL     1       8.563   6.236  -8.095  1.00  0.00     0.031 C 
ATOM     59  C   UNL     1       9.228   8.081  -3.158  1.00  0.00     0.029 A 
ATOM     60  C   UNL     1       9.524   8.750  -4.334  1.00  0.00     0.049 A 
ATOM     61  H   UNL     1       9.182  10.762  -4.840  1.00  0.00     0.167 HD
ATOM     62  C   UNL     1       9.420   7.532  -6.374  1.00  0.00     0.074 A 
ATOM     63  C   UNL     1       9.679   6.796  -7.597  1.00  0.00     0.031 C 
ATOM     64  C   UNL     1      10.175   8.342  -5.573  1.00  0.00     0.037 A 
BRANCH  51  65
ATOM     65  C   UNL     1       8.039  12.295  -1.401  1.00  0.00     0.058 A 
ATOM     66  C   UNL     1       9.079  11.918  -0.512  1.00  0.00     0.135 A 
ATOM     67  C   UNL     1       7.275  13.392  -0.944  1.00  0.00     0.135 A 
ATOM     68  F   UNL     1       9.924  10.920  -0.808  1.00  0.00    -0.206 F 
ATOM     69  C   UNL     1       9.286  12.521   0.737  1.00  0.00     0.059 A 
ATOM     70  C   UNL     1       7.484  14.029   0.282  1.00  0.00     0.059 A 
ATOM     71  F   UNL     1       6.247  13.894  -1.628  1.00  0.00    -0.206 F 
ATOM     72  C   UNL     1       8.468  13.567   1.136  1.00  0.00     0.060 A 
BRANCH  72  73
ATOM     73  S   UNL     1       8.669  14.299   2.770  1.00  0.00     0.124 S 
ATOM     74  O   UNL     1       8.201  13.224   3.639  1.00  0.00    -0.237 OA
ATOM     75  O   UNL     1      10.100  14.580   2.815  1.00  0.00    -0.237 OA
ATOM     76  O   UNL     1       7.807  15.478   2.722  1.00  0.00    -0.744 OA
ENDBRANCH  72  73
ENDBRANCH  51  65
BRANCH  52  77
ATOM     77  C   UNL     1       5.307   6.319  -8.462  1.00  0.00     0.058 A 
ATOM     78  C   UNL     1       4.333   5.320  -8.643  1.00  0.00     0.135 A 
ATOM     79  C   UNL     1       5.180   7.500  -9.206  1.00  0.00     0.135 A 
ATOM     80  F   UNL     1       4.429   4.161  -7.971  1.00  0.00    -0.206 F 
ATOM     81  C   UNL     1       3.180   5.556  -9.380  1.00  0.00     0.059 A 
ATOM     82  C   UNL     1       4.035   7.753  -9.963  1.00  0.00     0.059 A 
ATOM     83  F   UNL     1       6.085   8.481  -9.080  1.00  0.00    -0.206 F 
ATOM     84  C   UNL     1       3.006   6.808  -9.967  1.00  0.00     0.060 A 
BRANCH  84  85
ATOM     85  S   UNL     1       1.352   7.240 -10.558  1.00  0.00     0.124 S 
ATOM     86  O   UNL     1       1.032   6.115 -11.428  1.00  0.00    -0.237 OA
ATOM     87  O   UNL     1       0.600   7.311  -9.303  1.00  0.00    -0.237 OA
ATOM     88  O   UNL     1       1.560   8.519 -11.227  1.00  0.00    -0.744 OA
ENDBRANCH  84  85
ENDBRANCH  52  77
BRANCH  64  89
ATOM     89  C   UNL     1      11.597   8.794  -5.841  1.00  0.00     0.058 A 
ATOM     90  C   UNL     1      12.141   8.990  -7.123  1.00  0.00     0.135 A 
ATOM     91  C   UNL     1      12.434   9.177  -4.763  1.00  0.00     0.135 A 
ATOM     92  F   UNL     1      11.415   8.773  -8.230  1.00  0.00    -0.206 F 
ATOM     93  C   UNL     1      13.440   9.470  -7.325  1.00  0.00     0.059 A 
ATOM     94  C   UNL     1      13.712   9.708  -4.942  1.00  0.00     0.059 A 
ATOM     95  F   UNL     1      12.030   9.055  -3.488  1.00  0.00    -0.206 F 
ATOM     96  C   UNL     1      14.218   9.830  -6.229  1.00  0.00     0.060 A 
BRANCH  96  97
ATOM     97  S   UNL     1      15.867  10.525  -6.464  1.00  0.00     0.124 S 
ATOM     98  O   UNL     1      16.715   9.366  -6.204  1.00  0.00    -0.237 OA
ATOM     99  O   UNL     1      15.839  10.983  -7.851  1.00  0.00    -0.237 OA
ATOM    100  O   UNL     1      15.917  11.587  -5.464  1.00  0.00    -0.744 OA
ENDBRANCH  96  97
ENDBRANCH  64  89
ENDBRANCH  38  39
ENDBRANCH  30  33
ENDBRANCH  28  29
ENDBRANCH  27  28
ENDBRANCH  26  27
ENDBRANCH   1  26
TORSDOF 20
