REMARK SMILES Cc1ccc(/N=N/c2ccc(NC(=O)CCC(=O)NCCCCCCNC(=O)c3ccc(-c4c5nc(c(-c6c(F)cc(S(=O)(=O)[O-])cc6F)c6ccc([nH]6)c(-c6c(F)cc(S(=O)(=O)[O-])cc6F)c6nc(c(-c7c(F)cc(S(=O)(=O)[O-])cc7F)c7ccc4[nH]7)C=C6)C=C5)cc3)cc2)cc1
REMARK SMILES IDX 21 1 20 2 19 3 17 4 18 5 16 7 15 8 13 9 12 10 14 12 11 13
REMARK SMILES IDX 8 14 9 15 96 16 10 17 95 18 7 19 6 20 5 21 1 22 2 23 3 24
REMARK SMILES IDX 98 25 4 26 97 27 22 28 23 29 24 30 25 31 26 32 27 33 28 35
REMARK SMILES IDX 29 36 30 37 94 38 31 39 93 40 32 41 33 42 34 43 87 44 35 45
REMARK SMILES IDX 92 46 86 47 88 48 36 49 91 50 85 51 84 52 37 54 71 55 50 56
REMARK SMILES IDX 70 57 51 58 54 59 69 60 89 61 52 62 53 63 68 65 90 66 55 67
REMARK SMILES IDX 38 68 39 69 48 70 40 71 41 72 47 73 49 74 42 75 43 76 44 77
REMARK SMILES IDX 45 78 46 79 72 80 73 81 82 82 74 83 75 84 81 85 83 86 76 87
REMARK SMILES IDX 77 88 78 89 79 90 80 91 56 92 57 93 66 94 58 95 59 96 65 97
REMARK SMILES IDX 67 98 60 99 61 100 62 101 63 102 64 103
REMARK H PARENT 19 6 12 11 26 34 88 53 54 64
REMARK Flexibility Score: inf
ROOT
ATOM      1  C   UNL     1     -10.217   0.649   1.492  1.00  0.00     0.021 C 
ENDROOT
BRANCH   1   2
ATOM      2  C   UNL     1     -10.011   2.158   1.598  1.00  0.00     0.116 C 
BRANCH   2   3
ATOM      3  N   UNL     1      -8.658   2.584   1.291  1.00  0.00    -0.356 N 
ATOM      4  C   UNL     1      -8.231   3.584   0.469  1.00  0.00     0.220 C 
ATOM      5  O   UNL     1      -7.040   3.901   0.471  1.00  0.00    -0.275 OA
ATOM      6  H   UNL     1      -7.944   2.077   1.742  1.00  0.00     0.163 HD
BRANCH   4   7
ATOM      7  C   UNL     1      -9.211   4.290  -0.441  1.00  0.00     0.110 C 
BRANCH   7   8
ATOM      8  C   UNL     1      -9.273   3.717  -1.851  1.00  0.00     0.110 C 
BRANCH   8   9
ATOM      9  C   UNL     1      -9.765   2.286  -1.928  1.00  0.00     0.224 C 
ATOM     10  N   UNL     1      -8.938   1.206  -1.811  1.00  0.00    -0.326 N 
ATOM     11  H   UNL     1      -9.389   0.335  -1.907  1.00  0.00     0.169 HD
ATOM     12  O   UNL     1     -10.981   2.074  -2.007  1.00  0.00    -0.275 OA
BRANCH  10  13
ATOM     13  C   UNL     1      -7.559   1.124  -1.577  1.00  0.00     0.041 A 
ATOM     14  C   UNL     1      -4.874   1.051  -0.745  1.00  0.00     0.086 A 
ATOM     15  C   UNL     1      -5.297   1.952  -1.724  1.00  0.00     0.032 A 
ATOM     16  C   UNL     1      -5.798   0.132  -0.236  1.00  0.00     0.032 A 
ATOM     17  C   UNL     1      -6.625   1.979  -2.151  1.00  0.00     0.028 A 
ATOM     18  C   UNL     1      -7.123   0.144  -0.679  1.00  0.00     0.028 A 
BRANCH  14  19
ATOM     19  N   UNL     1      -3.540   1.131  -0.315  1.00  0.00    -0.151 NA
ATOM     20  N   UNL     1      -3.010   0.005  -0.256  1.00  0.00    -0.151 NA
BRANCH  20  21
ATOM     21  C   UNL     1      -1.612   0.060  -0.085  1.00  0.00     0.086 A 
ATOM     22  C   UNL     1       2.705  -0.085   0.069  1.00  0.00     0.044 C 
ATOM     23  C   UNL     1       1.208  -0.024   0.054  1.00  0.00    -0.051 A 
ATOM     24  C   UNL     1       0.463  -1.207   0.024  1.00  0.00     0.006 A 
ATOM     25  C   UNL     1       0.538   1.202   0.047  1.00  0.00     0.006 A 
ATOM     26  C   UNL     1      -0.931  -1.161  -0.043  1.00  0.00     0.030 A 
ATOM     27  C   UNL     1      -0.858   1.242  -0.019  1.00  0.00     0.030 A 
ENDBRANCH  20  21
ENDBRANCH  14  19
ENDBRANCH  10  13
ENDBRANCH   8   9
ENDBRANCH   7   8
ENDBRANCH   4   7
ENDBRANCH   2   3
ENDBRANCH   1   2
BRANCH   1  28
ATOM     28  C   UNL     1      -9.411  -0.217   2.465  1.00  0.00     0.002 C 
BRANCH  28  29
ATOM     29  C   UNL     1      -9.610   0.049   3.964  1.00  0.00     0.002 C 
BRANCH  29  30
ATOM     30  C   UNL     1     -11.049   0.241   4.452  1.00  0.00     0.021 C 
BRANCH  30  31
ATOM     31  C   UNL     1     -11.988  -0.901   4.127  1.00  0.00     0.116 C 
BRANCH  31  32
ATOM     32  N   UNL     1     -11.925  -2.048   5.009  1.00  0.00    -0.352 N 
ATOM     33  C   UNL     1     -13.094  -2.787   5.151  1.00  0.00     0.251 C 
ATOM     34  H   UNL     1     -11.097  -2.292   5.482  1.00  0.00     0.163 HD
ATOM     35  O   UNL     1     -14.057  -2.465   5.839  1.00  0.00    -0.269 OA
BRANCH  33  36
ATOM     36  C   UNL     1     -13.248  -3.789   4.081  1.00  0.00     0.039 A 
ATOM     37  C   UNL     1     -12.978  -5.144   4.259  1.00  0.00     0.014 A 
ATOM     38  C   UNL     1     -13.495  -3.253   2.813  1.00  0.00     0.014 A 
ATOM     39  C   UNL     1     -12.851  -5.953   3.128  1.00  0.00     0.010 A 
ATOM     40  C   UNL     1     -13.261  -4.020   1.704  1.00  0.00     0.010 A 
ATOM     41  C   UNL     1     -12.930  -5.367   1.862  1.00  0.00    -0.014 A 
BRANCH  41  42
ATOM     42  C   UNL     1     -12.702  -6.051   0.603  1.00  0.00     0.031 A 
ATOM     43  C   UNL     1     -13.865  -6.474  -0.203  1.00  0.00     0.074 A 
ATOM     44  C   UNL     1     -11.449  -6.073   0.104  1.00  0.00     0.049 A 
ATOM     45  N   UNL     1     -13.811  -7.334  -1.158  1.00  0.00    -0.248 NA
ATOM     46  C   UNL     1     -15.211  -5.955   0.023  1.00  0.00     0.031 C 
ATOM     47  C   UNL     1     -11.032  -6.367  -1.261  1.00  0.00     0.029 A 
ATOM     48  N   UNL     1     -10.256  -6.008   0.826  1.00  0.00    -0.354 N 
ATOM     49  C   UNL     1     -15.008  -7.282  -1.841  1.00  0.00     0.074 A 
ATOM     50  C   UNL     1     -15.866  -6.451  -1.031  1.00  0.00     0.031 C 
ATOM     51  C   UNL     1      -9.739  -6.731  -1.248  1.00  0.00     0.029 A 
ATOM     52  C   UNL     1      -9.333  -6.824   0.146  1.00  0.00     0.049 A 
ATOM     53  H   UNL     1     -10.092  -5.493   1.649  1.00  0.00     0.167 HD
ATOM     54  C   UNL     1     -15.082  -7.839  -3.084  1.00  0.00     0.037 A 
ATOM     55  C   UNL     1      -8.872  -7.965   0.744  1.00  0.00     0.037 A 
ATOM     56  C   UNL     1     -13.813  -8.479  -3.428  1.00  0.00     0.049 A 
ATOM     57  C   UNL     1      -9.299  -9.225   0.022  1.00  0.00     0.074 A 
ATOM     58  C   UNL     1     -12.715  -8.037  -4.147  1.00  0.00     0.029 A 
ATOM     59  N   UNL     1     -13.392  -9.595  -2.712  1.00  0.00    -0.354 N 
ATOM     60  N   UNL     1     -10.306  -9.293  -0.806  1.00  0.00    -0.248 NA
ATOM     61  C   UNL     1      -8.598 -10.499   0.145  1.00  0.00     0.031 C 
ATOM     62  C   UNL     1     -11.605  -8.844  -3.795  1.00  0.00     0.029 A 
ATOM     63  C   UNL     1     -12.034  -9.794  -2.884  1.00  0.00     0.049 A 
ATOM     64  H   UNL     1     -13.977 -10.163  -2.161  1.00  0.00     0.167 HD
ATOM     65  C   UNL     1     -10.396 -10.559  -1.328  1.00  0.00     0.074 A 
ATOM     66  C   UNL     1      -9.296 -11.273  -0.707  1.00  0.00     0.031 C 
ATOM     67  C   UNL     1     -11.354 -10.909  -2.241  1.00  0.00     0.037 A 
BRANCH  54  68
ATOM     68  C   UNL     1     -16.180  -7.542  -4.086  1.00  0.00     0.058 A 
ATOM     69  C   UNL     1     -15.903  -7.521  -5.471  1.00  0.00     0.135 A 
ATOM     70  C   UNL     1     -17.513  -7.230  -3.751  1.00  0.00     0.135 A 
ATOM     71  F   UNL     1     -14.705  -7.875  -5.955  1.00  0.00    -0.206 F 
ATOM     72  C   UNL     1     -16.836  -7.123  -6.431  1.00  0.00     0.059 A 
ATOM     73  C   UNL     1     -18.452  -6.780  -4.688  1.00  0.00     0.059 A 
ATOM     74  F   UNL     1     -17.972  -7.394  -2.502  1.00  0.00    -0.206 F 
ATOM     75  C   UNL     1     -18.101  -6.722  -6.029  1.00  0.00     0.060 A 
BRANCH  75  76
ATOM     76  S   UNL     1     -19.265  -6.150  -7.282  1.00  0.00     0.124 S 
ATOM     77  O   UNL     1     -18.515  -5.080  -7.933  1.00  0.00    -0.237 OA
ATOM     78  O   UNL     1     -19.471  -7.355  -8.078  1.00  0.00    -0.237 OA
ATOM     79  O   UNL     1     -20.418  -5.711  -6.501  1.00  0.00    -0.744 OA
ENDBRANCH  75  76
ENDBRANCH  54  68
BRANCH  55  80
ATOM     80  C   UNL     1      -8.687  -7.794   2.218  1.00  0.00     0.058 A 
ATOM     81  C   UNL     1      -7.706  -6.868   2.633  1.00  0.00     0.135 A 
ATOM     82  C   UNL     1      -9.715  -8.087   3.126  1.00  0.00     0.135 A 
ATOM     83  F   UNL     1      -6.681  -6.569   1.817  1.00  0.00    -0.206 F 
ATOM     84  C   UNL     1      -7.851  -6.114   3.795  1.00  0.00     0.059 A 
ATOM     85  C   UNL     1      -9.867  -7.355   4.309  1.00  0.00     0.059 A 
ATOM     86  F   UNL     1     -10.671  -8.970   2.803  1.00  0.00    -0.206 F 
ATOM     87  C   UNL     1      -8.983  -6.309   4.580  1.00  0.00     0.060 A 
BRANCH  87  88
ATOM     88  S   UNL     1      -9.372  -5.064   5.838  1.00  0.00     0.124 S 
ATOM     89  O   UNL     1      -8.136  -5.009   6.609  1.00  0.00    -0.237 OA
ATOM     90  O   UNL     1      -9.664  -3.884   5.020  1.00  0.00    -0.237 OA
ATOM     91  O   UNL     1     -10.523  -5.630   6.531  1.00  0.00    -0.744 OA
ENDBRANCH  87  88
ENDBRANCH  55  80
BRANCH  67  92
ATOM     92  C   UNL     1     -11.685 -12.311  -2.713  1.00  0.00     0.058 A 
ATOM     93  C   UNL     1     -11.455 -13.475  -1.962  1.00  0.00     0.135 A 
ATOM     94  C   UNL     1     -12.406 -12.507  -3.922  1.00  0.00     0.135 A 
ATOM     95  F   UNL     1     -10.888 -13.425  -0.749  1.00  0.00    -0.206 F 
ATOM     96  C   UNL     1     -11.846 -14.742  -2.403  1.00  0.00     0.059 A 
ATOM     97  C   UNL     1     -12.862 -13.751  -4.347  1.00  0.00     0.059 A 
ATOM     98  F   UNL     1     -12.712 -11.484  -4.735  1.00  0.00    -0.206 F 
ATOM     99  C   UNL     1     -12.551 -14.870  -3.595  1.00  0.00     0.060 A 
BRANCH  99 100
ATOM    100  S   UNL     1     -13.118 -16.493  -4.133  1.00  0.00     0.124 S 
ATOM    101  O   UNL     1     -11.972 -16.957  -4.908  1.00  0.00    -0.237 OA
ATOM    102  O   UNL     1     -13.349 -17.189  -2.871  1.00  0.00    -0.237 OA
ATOM    103  O   UNL     1     -14.321 -16.189  -4.901  1.00  0.00    -0.744 OA
ENDBRANCH  99 100
ENDBRANCH  67  92
ENDBRANCH  41  42
ENDBRANCH  33  36
ENDBRANCH  31  32
ENDBRANCH  30  31
ENDBRANCH  29  30
ENDBRANCH  28  29
ENDBRANCH   1  28
TORSDOF 21
