REMARK SMILES CC(C)C[C@@H](C[NH3+])C(=O)N1CCC(CC(=O)NCCCCCCNC(=O)c2ccc(-c3c4nc(c(-c5c(F)cc(S(=O)(=O)[O-])cc5F)c5ccc([nH]5)c(-c5c(F)cc(S(=O)(=O)[O-])cc5F)c5nc(c(-c6c(F)cc(S(=O)(=O)[O-])cc6F)c6ccc3[nH]6)C=C5)C=C4)cc2)CC1
REMARK SMILES IDX 20 1 19 2 18 3 17 4 15 5 16 6 14 8 13 9 8 10 9 11 10 12
REMARK SMILES IDX 11 13 94 14 12 15 93 16 5 17 4 18 2 19 1 20 3 21 6 22 7 23
REMARK SMILES IDX 21 27 22 28 23 29 24 30 25 31 26 33 27 34 28 35 92 36 29 37
REMARK SMILES IDX 91 38 30 39 31 40 32 41 85 42 33 43 90 44 84 45 86 46 34 47
REMARK SMILES IDX 89 48 83 49 82 50 35 52 69 53 48 54 68 55 49 56 52 57 67 58
REMARK SMILES IDX 87 59 50 60 51 61 66 63 88 64 53 65 36 66 37 67 46 68 38 69
REMARK SMILES IDX 39 70 45 71 47 72 40 73 41 74 42 75 43 76 44 77 70 78 71 79
REMARK SMILES IDX 80 80 72 81 73 82 79 83 81 84 74 85 75 86 76 87 77 88 78 89
REMARK SMILES IDX 54 90 55 91 64 92 56 93 57 94 63 95 65 96 58 97 59 98 60 99
REMARK SMILES IDX 61 100 62 101
REMARK H PARENT 17 7 7 24 7 25 7 26 24 32 86 51 52 62
REMARK Flexibility Score: inf
ROOT
ATOM      1  C   UNL     1      -9.733  -1.309   3.944  1.00  0.00     0.002 C 
ENDROOT
BRANCH   1   2
ATOM      2  C   UNL     1      -8.562  -0.516   3.371  1.00  0.00     0.021 C 
BRANCH   2   3
ATOM      3  C   UNL     1      -8.958   0.585   2.378  1.00  0.00     0.116 C 
BRANCH   3   4
ATOM      4  N   UNL     1      -9.108   1.863   3.059  1.00  0.00    -0.356 N 
ATOM      5  C   UNL     1      -8.324   2.978   3.041  1.00  0.00     0.220 C 
ATOM      6  O   UNL     1      -8.608   3.905   3.803  1.00  0.00    -0.275 OA
ATOM      7  H   UNL     1      -9.909   1.934   3.627  1.00  0.00     0.163 HD
BRANCH   5   8
ATOM      8  C   UNL     1      -7.138   3.089   2.098  1.00  0.00     0.103 C 
BRANCH   8   9
ATOM      9  C   UNL     1      -5.788   2.670   2.715  1.00  0.00     0.002 C 
ATOM     10  C   UNL     1      -2.894  -0.024   1.621  1.00  0.00     0.231 C 
ATOM     11  O   UNL     1      -3.602  -0.947   1.203  1.00  0.00    -0.274 OA
ATOM     12  N   UNL     1      -3.436   0.991   2.384  1.00  0.00    -0.342 N 
ATOM     13  C   UNL     1      -4.405   0.633   3.392  1.00  0.00     0.120 C 
ATOM     14  C   UNL     1      -3.295   2.416   2.136  1.00  0.00     0.120 C 
ATOM     15  C   UNL     1      -5.768   1.172   3.025  1.00  0.00     0.026 C 
ATOM     16  C   UNL     1      -4.640   3.044   1.759  1.00  0.00     0.026 C 
BRANCH  10  17
ATOM     17  C   UNL     1      -1.366  -0.153   1.561  1.00  0.00     0.133 C 
BRANCH  17  18
ATOM     18  C   UNL     1      -0.615   1.090   1.077  1.00  0.00     0.022 C 
BRANCH  18  19
ATOM     19  C   UNL     1       0.900   0.936   0.851  1.00  0.00    -0.016 C 
ATOM     20  C   UNL     1       1.250  -0.150  -0.164  1.00  0.00     0.007 C 
ATOM     21  C   UNL     1       1.465   2.283   0.386  1.00  0.00     0.007 C 
ENDBRANCH  18  19
ENDBRANCH  17  18
BRANCH  17  22
ATOM     22  C   UNL     1      -0.875  -0.728   2.907  1.00  0.00     0.272 C 
BRANCH  22  23
ATOM     23  N   UNL     1      -0.856   0.224   4.022  1.00  0.00    -0.357 N 
ATOM     24  H   UNL     1      -0.199   0.977   3.815  1.00  0.00     0.344 HD
ATOM     25  H   UNL     1      -0.565  -0.256   4.874  1.00  0.00     0.344 HD
ATOM     26  H   UNL     1      -1.790   0.613   4.152  1.00  0.00     0.344 HD
ENDBRANCH  22  23
ENDBRANCH  17  22
ENDBRANCH  10  17
ENDBRANCH   8   9
ENDBRANCH   5   8
ENDBRANCH   3   4
ENDBRANCH   2   3
ENDBRANCH   1   2
BRANCH   1  27
ATOM     27  C   UNL     1     -10.411  -2.256   2.954  1.00  0.00     0.002 C 
BRANCH  27  28
ATOM     28  C   UNL     1      -9.490  -3.281   2.284  1.00  0.00     0.021 C 
BRANCH  28  29
ATOM     29  C   UNL     1      -8.654  -4.130   3.241  1.00  0.00     0.116 C 
BRANCH  29  30
ATOM     30  N   UNL     1      -9.484  -4.883   4.170  1.00  0.00    -0.352 N 
ATOM     31  C   UNL     1      -9.684  -6.238   4.264  1.00  0.00     0.251 C 
ATOM     32  H   UNL     1      -9.976  -4.340   4.828  1.00  0.00     0.163 HD
ATOM     33  O   UNL     1     -10.599  -6.678   4.952  1.00  0.00    -0.269 OA
BRANCH  31  34
ATOM     34  C   UNL     1      -8.801  -7.162   3.524  1.00  0.00     0.039 A 
ATOM     35  C   UNL     1      -9.371  -8.197   2.778  1.00  0.00     0.014 A 
ATOM     36  C   UNL     1      -7.412  -7.008   3.571  1.00  0.00     0.014 A 
ATOM     37  C   UNL     1      -8.550  -9.031   2.016  1.00  0.00     0.010 A 
ATOM     38  C   UNL     1      -6.601  -7.799   2.762  1.00  0.00     0.010 A 
ATOM     39  C   UNL     1      -7.162  -8.812   1.971  1.00  0.00    -0.014 A 
BRANCH  39  40
ATOM     40  C   UNL     1      -6.286  -9.605   1.072  1.00  0.00     0.031 A 
ATOM     41  C   UNL     1      -5.228 -10.508   1.641  1.00  0.00     0.074 A 
ATOM     42  C   UNL     1      -6.395  -9.447  -0.262  1.00  0.00     0.049 A 
ATOM     43  N   UNL     1      -4.328 -11.222   1.015  1.00  0.00    -0.248 NA
ATOM     44  C   UNL     1      -5.159 -10.604   3.107  1.00  0.00     0.031 C 
ATOM     45  C   UNL     1      -7.355  -8.566  -0.930  1.00  0.00     0.029 A 
ATOM     46  N   UNL     1      -5.688 -10.009  -1.294  1.00  0.00    -0.354 N 
ATOM     47  C   UNL     1      -3.580 -11.844   2.007  1.00  0.00     0.074 A 
ATOM     48  C   UNL     1      -4.100 -11.382   3.276  1.00  0.00     0.031 C 
ATOM     49  C   UNL     1      -7.193  -8.666  -2.259  1.00  0.00     0.029 A 
ATOM     50  C   UNL     1      -6.091  -9.582  -2.536  1.00  0.00     0.049 A 
ATOM     51  H   UNL     1      -4.960 -10.658  -1.157  1.00  0.00     0.167 HD
ATOM     52  C   UNL     1      -2.567 -12.734   1.871  1.00  0.00     0.037 A 
ATOM     53  C   UNL     1      -5.621  -9.885  -3.762  1.00  0.00     0.037 A 
ATOM     54  C   UNL     1      -2.060 -13.189   0.602  1.00  0.00     0.049 A 
ATOM     55  C   UNL     1      -4.471 -10.845  -3.888  1.00  0.00     0.074 A 
ATOM     56  C   UNL     1      -1.078 -14.133   0.355  1.00  0.00     0.029 A 
ATOM     57  N   UNL     1      -2.485 -12.724  -0.635  1.00  0.00    -0.354 N 
ATOM     58  N   UNL     1      -3.821 -11.480  -2.942  1.00  0.00    -0.248 NA
ATOM     59  C   UNL     1      -3.989 -11.128  -5.247  1.00  0.00     0.031 C 
ATOM     60  C   UNL     1      -0.873 -14.200  -1.028  1.00  0.00     0.029 A 
ATOM     61  C   UNL     1      -1.762 -13.335  -1.647  1.00  0.00     0.049 A 
ATOM     62  H   UNL     1      -3.196 -12.057  -0.773  1.00  0.00     0.167 HD
ATOM     63  C   UNL     1      -2.862 -12.250  -3.591  1.00  0.00     0.074 A 
ATOM     64  C   UNL     1      -3.028 -12.012  -5.011  1.00  0.00     0.031 C 
ATOM     65  C   UNL     1      -1.931 -13.079  -3.058  1.00  0.00     0.037 A 
BRANCH  52  66
ATOM     66  C   UNL     1      -1.937 -13.260   3.133  1.00  0.00     0.058 A 
ATOM     67  C   UNL     1      -2.633 -14.117   4.003  1.00  0.00     0.135 A 
ATOM     68  C   UNL     1      -0.624 -12.904   3.481  1.00  0.00     0.135 A 
ATOM     69  F   UNL     1      -3.894 -14.483   3.726  1.00  0.00    -0.206 F 
ATOM     70  C   UNL     1      -2.068 -14.561   5.194  1.00  0.00     0.059 A 
ATOM     71  C   UNL     1      -0.029 -13.361   4.654  1.00  0.00     0.059 A 
ATOM     72  F   UNL     1       0.090 -12.092   2.686  1.00  0.00    -0.206 F 
ATOM     73  C   UNL     1      -0.768 -14.170   5.516  1.00  0.00     0.060 A 
BRANCH  73  74
ATOM     74  S   UNL     1      -0.062 -14.724   7.082  1.00  0.00     0.124 S 
ATOM     75  O   UNL     1      -0.778 -13.882   8.036  1.00  0.00    -0.237 OA
ATOM     76  O   UNL     1      -0.412 -16.140   7.101  1.00  0.00    -0.237 OA
ATOM     77  O   UNL     1       1.361 -14.435   6.935  1.00  0.00    -0.744 OA
ENDBRANCH  73  74
ENDBRANCH  52  66
BRANCH  53  78
ATOM     78  C   UNL     1      -6.263  -9.289  -4.962  1.00  0.00     0.058 A 
ATOM     79  C   UNL     1      -7.064 -10.071  -5.807  1.00  0.00     0.135 A 
ATOM     80  C   UNL     1      -6.135  -7.923  -5.261  1.00  0.00     0.135 A 
ATOM     81  F   UNL     1      -7.210 -11.383  -5.568  1.00  0.00    -0.206 F 
ATOM     82  C   UNL     1      -7.718  -9.521  -6.905  1.00  0.00     0.059 A 
ATOM     83  C   UNL     1      -6.797  -7.346  -6.340  1.00  0.00     0.059 A 
ATOM     84  F   UNL     1      -5.390  -7.130  -4.475  1.00  0.00    -0.206 F 
ATOM     85  C   UNL     1      -7.585  -8.155  -7.158  1.00  0.00     0.060 A 
BRANCH  85  86
ATOM     86  S   UNL     1      -8.505  -7.439  -8.538  1.00  0.00     0.124 S 
ATOM     87  O   UNL     1      -7.769  -7.960  -9.684  1.00  0.00    -0.237 OA
ATOM     88  O   UNL     1      -9.841  -7.989  -8.332  1.00  0.00    -0.237 OA
ATOM     89  O   UNL     1      -8.386  -6.001  -8.311  1.00  0.00    -0.744 OA
ENDBRANCH  85  86
ENDBRANCH  53  78
BRANCH  65  90
ATOM     90  C   UNL     1      -1.019 -13.799  -4.013  1.00  0.00     0.058 A 
ATOM     91  C   UNL     1       0.015 -13.130  -4.685  1.00  0.00     0.135 A 
ATOM     92  C   UNL     1      -1.143 -15.184  -4.212  1.00  0.00     0.135 A 
ATOM     93  F   UNL     1       0.171 -11.805  -4.538  1.00  0.00    -0.206 F 
ATOM     94  C   UNL     1       0.887 -13.806  -5.533  1.00  0.00     0.059 A 
ATOM     95  C   UNL     1      -0.267 -15.884  -5.035  1.00  0.00     0.059 A 
ATOM     96  F   UNL     1      -2.111 -15.873  -3.588  1.00  0.00    -0.206 F 
ATOM     97  C   UNL     1       0.741 -15.185  -5.698  1.00  0.00     0.060 A 
BRANCH  97  98
ATOM     98  S   UNL     1       1.910 -16.057  -6.762  1.00  0.00     0.124 S 
ATOM     99  O   UNL     1       1.473 -15.634  -8.088  1.00  0.00    -0.237 OA
ATOM    100  O   UNL     1       3.194 -15.523  -6.318  1.00  0.00    -0.237 OA
ATOM    101  O   UNL     1       1.679 -17.462  -6.442  1.00  0.00    -0.744 OA
ENDBRANCH  97  98
ENDBRANCH  65  90
ENDBRANCH  39  40
ENDBRANCH  31  34
ENDBRANCH  29  30
ENDBRANCH  28  29
ENDBRANCH  27  28
ENDBRANCH   1  27
TORSDOF 22
