REMARK SMILES CC[C@H](C(=O)NCCCCCCNC(=O)c1ccc(-c2c3nc(c(-c4c(F)cc(S(=O)(=O)[O-])cc4F)c4ccc([nH]4)c(-c4c(F)cc(S(=O)(=O)[O-])cc4F)c4nc(c(-c5c(F)cc(S(=O)(=O)[O-])cc5F)c5ccc2[nH]5)C=C4)C=C3)cc1)[N@H+](C)[C@H]1CC[C@H]([NH3+])CC1
REMARK SMILES IDX 9 1 8 2 7 3 6 4 4 5 5 6 3 8 2 9 1 10 82 11 83 12 84 14 85 15
REMARK SMILES IDX 90 16 86 17 89 18 87 19 88 20 10 24 11 25 12 26 13 27 14 28
REMARK SMILES IDX 15 30 16 31 17 32 81 33 18 34 80 35 19 36 20 37 21 38 74 39
REMARK SMILES IDX 22 40 79 41 73 42 75 43 23 44 78 45 72 46 71 47 24 49 58 50
REMARK SMILES IDX 37 51 57 52 38 53 41 54 56 55 76 56 39 57 40 58 55 60 77 61
REMARK SMILES IDX 42 62 25 63 26 64 35 65 27 66 28 67 34 68 36 69 29 70 30 71
REMARK SMILES IDX 31 72 32 73 33 74 59 75 60 76 69 77 61 78 62 79 68 80 70 81
REMARK SMILES IDX 63 82 64 83 65 84 66 85 67 86 43 87 44 88 53 89 45 90 46 91
REMARK SMILES IDX 52 92 54 93 47 94 48 95 49 96 50 97 51 98
REMARK H PARENT 6 7 82 13 88 21 88 22 88 23 13 29 75 48 41 59
REMARK Flexibility Score: inf
ROOT
ATOM      1  C   UNL     1       2.688   1.479  -1.864  1.00  0.00     0.002 C 
ENDROOT
BRANCH   1   2
ATOM      2  C   UNL     1       3.188   0.865  -0.552  1.00  0.00     0.021 C 
BRANCH   2   3
ATOM      3  C   UNL     1       2.096   0.565   0.467  1.00  0.00     0.116 C 
BRANCH   3   4
ATOM      4  N   UNL     1       1.192  -0.463  -0.007  1.00  0.00    -0.351 N 
ATOM      5  C   UNL     1       0.581  -1.467   0.690  1.00  0.00     0.278 C 
ATOM      6  O   UNL     1      -0.183  -2.199   0.057  1.00  0.00    -0.268 OA
ATOM      7  H   UNL     1       0.989  -0.434  -0.970  1.00  0.00     0.163 HD
BRANCH   5   8
ATOM      8  C   UNL     1       0.851  -1.608   2.216  1.00  0.00     0.273 C 
BRANCH   8   9
ATOM      9  C   UNL     1       0.167  -0.429   2.966  1.00  0.00     0.072 C 
ATOM     10  C   UNL     1      -1.246  -0.089   2.521  1.00  0.00     0.011 C 
ENDBRANCH   8   9
BRANCH   8  11
ATOM     11  N   UNL     1       0.530  -3.007   2.657  1.00  0.00    -0.325 N 
ATOM     12  C   UNL     1       0.203  -3.111   4.074  1.00  0.00     0.333 C 
ATOM     13  H   UNL     1      -0.336  -3.260   2.182  1.00  0.00     0.348 HD
BRANCH  11  14
ATOM     14  C   UNL     1       1.544  -4.005   2.189  1.00  0.00     0.184 C 
ATOM     15  C   UNL     1       1.082  -5.465   2.436  1.00  0.00     0.071 C 
ATOM     16  C   UNL     1       2.974  -3.787   2.744  1.00  0.00     0.071 C 
ATOM     17  C   UNL     1       2.106  -6.508   1.980  1.00  0.00     0.071 C 
ATOM     18  C   UNL     1       3.963  -4.861   2.284  1.00  0.00     0.071 C 
ATOM     19  C   UNL     1       3.464  -6.258   2.641  1.00  0.00     0.181 C 
BRANCH  19  20
ATOM     20  N   UNL     1       4.443  -7.260   2.225  1.00  0.00    -0.355 N 
ATOM     21  H   UNL     1       4.576  -7.207   1.215  1.00  0.00     0.344 HD
ATOM     22  H   UNL     1       4.105  -8.190   2.475  1.00  0.00     0.344 HD
ATOM     23  H   UNL     1       5.331  -7.083   2.695  1.00  0.00     0.344 HD
ENDBRANCH  19  20
ENDBRANCH  11  14
ENDBRANCH   8  11
ENDBRANCH   5   8
ENDBRANCH   3   4
ENDBRANCH   2   3
ENDBRANCH   1   2
BRANCH   1  24
ATOM     24  C   UNL     1       1.920   2.797  -1.719  1.00  0.00     0.002 C 
BRANCH  24  25
ATOM     25  C   UNL     1       2.658   3.902  -0.960  1.00  0.00     0.021 C 
BRANCH  25  26
ATOM     26  C   UNL     1       4.046   4.235  -1.498  1.00  0.00     0.116 C 
BRANCH  26  27
ATOM     27  N   UNL     1       4.010   4.710  -2.871  1.00  0.00    -0.352 N 
ATOM     28  C   UNL     1       4.586   5.832  -3.414  1.00  0.00     0.251 C 
ATOM     29  H   UNL     1       3.501   4.149  -3.500  1.00  0.00     0.163 HD
ATOM     30  O   UNL     1       4.309   6.169  -4.563  1.00  0.00    -0.269 OA
BRANCH  28  31
ATOM     31  C   UNL     1       5.517   6.645  -2.603  1.00  0.00     0.039 A 
ATOM     32  C   UNL     1       5.375   8.034  -2.600  1.00  0.00     0.014 A 
ATOM     33  C   UNL     1       6.521   6.040  -1.841  1.00  0.00     0.014 A 
ATOM     34  C   UNL     1       6.199   8.812  -1.784  1.00  0.00     0.010 A 
ATOM     35  C   UNL     1       7.290   6.809  -0.972  1.00  0.00     0.010 A 
ATOM     36  C   UNL     1       7.139   8.204  -0.935  1.00  0.00    -0.014 A 
BRANCH  36  37
ATOM     37  C   UNL     1       7.969   9.010  -0.002  1.00  0.00     0.031 A 
ATOM     38  C   UNL     1       9.467   9.034  -0.148  1.00  0.00     0.074 A 
ATOM     39  C   UNL     1       7.377   9.674   1.012  1.00  0.00     0.049 A 
ATOM     40  N   UNL     1      10.361   9.622   0.604  1.00  0.00    -0.248 NA
ATOM     41  C   UNL     1      10.038   8.278  -1.275  1.00  0.00     0.031 C 
ATOM     42  C   UNL     1       5.938   9.694   1.284  1.00  0.00     0.029 A 
ATOM     43  N   UNL     1       7.911  10.454   2.007  1.00  0.00    -0.354 N 
ATOM     44  C   UNL     1      11.595   9.303   0.049  1.00  0.00     0.074 A 
ATOM     45  C   UNL     1      11.339   8.421  -1.068  1.00  0.00     0.031 C 
ATOM     46  C   UNL     1       5.703  10.466   2.357  1.00  0.00     0.029 A 
ATOM     47  C   UNL     1       6.974  10.961   2.876  1.00  0.00     0.049 A 
ATOM     48  H   UNL     1       8.876  10.634   2.091  1.00  0.00     0.167 HD
ATOM     49  C   UNL     1      12.826   9.728   0.421  1.00  0.00     0.037 A 
ATOM     50  C   UNL     1       7.121  11.729   3.974  1.00  0.00     0.037 A 
ATOM     51  C   UNL     1      13.071  10.621   1.524  1.00  0.00     0.049 A 
ATOM     52  C   UNL     1       8.503  12.168   4.380  1.00  0.00     0.074 A 
ATOM     53  C   UNL     1      14.278  11.146   1.953  1.00  0.00     0.029 A 
ATOM     54  N   UNL     1      12.095  11.120   2.374  1.00  0.00    -0.354 N 
ATOM     55  N   UNL     1       9.653  11.904   3.807  1.00  0.00    -0.248 NA
ATOM     56  C   UNL     1       8.607  13.014   5.577  1.00  0.00     0.031 C 
ATOM     57  C   UNL     1      14.039  11.920   3.092  1.00  0.00     0.029 A 
ATOM     58  C   UNL     1      12.675  11.927   3.339  1.00  0.00     0.049 A 
ATOM     59  H   UNL     1      11.132  10.928   2.303  1.00  0.00     0.167 HD
ATOM     60  C   UNL     1      10.614  12.579   4.555  1.00  0.00     0.074 A 
ATOM     61  C   UNL     1       9.908  13.271   5.613  1.00  0.00     0.031 C 
ATOM     62  C   UNL     1      11.958  12.621   4.380  1.00  0.00     0.037 A 
BRANCH  49  63
ATOM     63  C   UNL     1      14.006   9.238  -0.375  1.00  0.00     0.058 A 
ATOM     64  C   UNL     1      14.230   9.660  -1.696  1.00  0.00     0.135 A 
ATOM     65  C   UNL     1      14.953   8.377   0.204  1.00  0.00     0.135 A 
ATOM     66  F   UNL     1      13.350  10.470  -2.306  1.00  0.00    -0.206 F 
ATOM     67  C   UNL     1      15.334   9.225  -2.422  1.00  0.00     0.059 A 
ATOM     68  C   UNL     1      16.081   7.955  -0.493  1.00  0.00     0.059 A 
ATOM     69  F   UNL     1      14.789   7.941   1.463  1.00  0.00    -0.206 F 
ATOM     70  C   UNL     1      16.256   8.375  -1.811  1.00  0.00     0.060 A 
BRANCH  70  71
ATOM     71  S   UNL     1      17.691   7.835  -2.764  1.00  0.00     0.124 S 
ATOM     72  O   UNL     1      17.076   6.921  -3.722  1.00  0.00    -0.237 OA
ATOM     73  O   UNL     1      18.188   9.091  -3.316  1.00  0.00    -0.237 OA
ATOM     74  O   UNL     1      18.549   7.208  -1.763  1.00  0.00    -0.744 OA
ENDBRANCH  70  71
ENDBRANCH  49  63
BRANCH  50  75
ATOM     75  C   UNL     1       5.928  12.145   4.762  1.00  0.00     0.058 A 
ATOM     76  C   UNL     1       5.518  13.486   4.800  1.00  0.00     0.135 A 
ATOM     77  C   UNL     1       5.178  11.213   5.497  1.00  0.00     0.135 A 
ATOM     78  F   UNL     1       6.205  14.416   4.120  1.00  0.00    -0.206 F 
ATOM     79  C   UNL     1       4.424  13.894   5.557  1.00  0.00     0.059 A 
ATOM     80  C   UNL     1       4.063  11.591   6.237  1.00  0.00     0.059 A 
ATOM     81  F   UNL     1       5.516   9.914   5.482  1.00  0.00    -0.206 F 
ATOM     82  C   UNL     1       3.702  12.938   6.272  1.00  0.00     0.060 A 
BRANCH  82  83
ATOM     83  S   UNL     1       2.265  13.473   7.226  1.00  0.00     0.124 S 
ATOM     84  O   UNL     1       2.896  14.180   8.334  1.00  0.00    -0.237 OA
ATOM     85  O   UNL     1       1.550  14.302   6.262  1.00  0.00    -0.237 OA
ATOM     86  O   UNL     1       1.606  12.217   7.572  1.00  0.00    -0.744 OA
ENDBRANCH  82  83
ENDBRANCH  50  75
BRANCH  62  87
ATOM     87  C   UNL     1      12.755  13.478   5.326  1.00  0.00     0.058 A 
ATOM     88  C   UNL     1      12.953  13.117   6.668  1.00  0.00     0.135 A 
ATOM     89  C   UNL     1      13.376  14.652   4.866  1.00  0.00     0.135 A 
ATOM     90  F   UNL     1      12.377  12.009   7.161  1.00  0.00    -0.206 F 
ATOM     91  C   UNL     1      13.717  13.901   7.526  1.00  0.00     0.059 A 
ATOM     92  C   UNL     1      14.170  15.434   5.698  1.00  0.00     0.059 A 
ATOM     93  F   UNL     1      13.229  15.039   3.589  1.00  0.00    -0.206 F 
ATOM     94  C   UNL     1      14.325  15.056   7.031  1.00  0.00     0.060 A 
BRANCH  94  95
ATOM     95  S   UNL     1      15.344  16.043   8.147  1.00  0.00     0.124 S 
ATOM     96  O   UNL     1      14.334  16.656   9.003  1.00  0.00    -0.237 OA
ATOM     97  O   UNL     1      16.182  15.030   8.781  1.00  0.00    -0.237 OA
ATOM     98  O   UNL     1      16.045  16.956   7.250  1.00  0.00    -0.744 OA
ENDBRANCH  94  95
ENDBRANCH  62  87
ENDBRANCH  36  37
ENDBRANCH  28  31
ENDBRANCH  26  27
ENDBRANCH  25  26
ENDBRANCH  24  25
ENDBRANCH   1  24
TORSDOF 20
