REMARK SMILES Cc1cccc(CN(C)c2nc(C)c(C(=O)NCCCCCCNC(=O)c3ccc(-c4c5nc(c(-c6c(F)cc(S(=O)(=O)[O-])cc6F)c6ccc([nH]6)c(-c6c(F)cc(S(=O)(=O)[O-])cc6F)c6nc(c(-c7c(F)cc(S(=O)(=O)[O-])cc7F)c7ccc4[nH]7)C=C6)C=C5)cc3)s2)n1
REMARK SMILES IDX 20 1 19 2 18 3 17 4 15 5 16 6 14 8 10 9 11 10 93 11 12 12
REMARK SMILES IDX 13 13 8 14 9 15 7 16 6 17 1 18 2 19 3 20 94 21 4 22 5 23
REMARK SMILES IDX 21 24 22 25 23 26 24 27 25 28 26 30 27 31 28 32 92 33 29 34
REMARK SMILES IDX 91 35 30 36 31 37 32 38 85 39 33 40 90 41 84 42 86 43 34 44
REMARK SMILES IDX 89 45 83 46 82 47 35 49 69 50 48 51 68 52 49 53 52 54 67 55
REMARK SMILES IDX 87 56 50 57 51 58 66 60 88 61 53 62 36 63 37 64 46 65 38 66
REMARK SMILES IDX 39 67 45 68 47 69 40 70 41 71 42 72 43 73 44 74 70 75 71 76
REMARK SMILES IDX 80 77 72 78 73 79 79 80 81 81 74 82 75 83 76 84 77 85 78 86
REMARK SMILES IDX 54 87 55 88 64 89 56 90 57 91 63 92 65 93 58 94 59 95 60 96
REMARK SMILES IDX 61 97 62 98
REMARK H PARENT 17 7 24 29 86 48 52 59
REMARK Flexibility Score: inf
ROOT
ATOM      1  C   UNL     1      -3.478   1.060   9.485  1.00  0.00     0.002 C 
ENDROOT
BRANCH   1   2
ATOM      2  C   UNL     1      -3.247   1.886   8.215  1.00  0.00     0.021 C 
BRANCH   2   3
ATOM      3  C   UNL     1      -1.827   1.752   7.662  1.00  0.00     0.116 C 
BRANCH   3   4
ATOM      4  N   UNL     1      -1.778   0.635   6.757  1.00  0.00    -0.351 N 
ATOM      5  C   UNL     1      -1.861   0.529   5.396  1.00  0.00     0.263 C 
ATOM      6  O   UNL     1      -1.925  -0.648   5.014  1.00  0.00    -0.268 OA
ATOM      7  H   UNL     1      -1.662  -0.231   7.210  1.00  0.00     0.163 HD
BRANCH   5   8
ATOM      8  C   UNL     1      -1.809   1.652   4.470  1.00  0.00     0.117 A 
ATOM      9  C   UNL     1      -1.383   2.829   2.327  1.00  0.00     0.186 A 
ATOM     10  N   UNL     1      -1.795   3.660   3.253  1.00  0.00    -0.225 NA
ATOM     11  S   UNL     1      -1.255   1.220   2.889  1.00  0.00    -0.091 S 
ATOM     12  C   UNL     1      -2.119   3.008   4.444  1.00  0.00     0.063 A 
ATOM     13  C   UNL     1      -2.773   3.895   5.438  1.00  0.00     0.068 C 
BRANCH   9  14
ATOM     14  N   UNL     1      -1.048   3.223   1.066  1.00  0.00    -0.345 N 
ATOM     15  C   UNL     1      -0.588   4.587   0.894  1.00  0.00     0.146 C 
BRANCH  14  16
ATOM     16  C   UNL     1      -1.520   2.498  -0.119  1.00  0.00     0.174 C 
BRANCH  16  17
ATOM     17  C   UNL     1      -0.893   1.124  -0.289  1.00  0.00     0.060 A 
ATOM     18  C   UNL     1       2.526  -0.206  -0.145  1.00  0.00     0.067 C 
ATOM     19  C   UNL     1       1.034  -0.177  -0.258  1.00  0.00     0.038 A 
ATOM     20  C   UNL     1       0.287  -1.350  -0.233  1.00  0.00     0.023 A 
ATOM     21  N   UNL     1       0.463   1.048  -0.315  1.00  0.00    -0.256 NA
ATOM     22  C   UNL     1      -1.100  -1.264  -0.280  1.00  0.00     0.004 A 
ATOM     23  C   UNL     1      -1.703  -0.012  -0.311  1.00  0.00     0.026 A 
ENDBRANCH  16  17
ENDBRANCH  14  16
ENDBRANCH   9  14
ENDBRANCH   5   8
ENDBRANCH   3   4
ENDBRANCH   2   3
ENDBRANCH   1   2
BRANCH   1  24
ATOM     24  C   UNL     1      -2.682   1.544  10.703  1.00  0.00     0.002 C 
BRANCH  24  25
ATOM     25  C   UNL     1      -2.869   3.024  11.048  1.00  0.00     0.021 C 
BRANCH  25  26
ATOM     26  C   UNL     1      -4.311   3.419  11.351  1.00  0.00     0.116 C 
BRANCH  26  27
ATOM     27  N   UNL     1      -4.805   2.743  12.540  1.00  0.00    -0.352 N 
ATOM     28  C   UNL     1      -5.246   3.285  13.722  1.00  0.00     0.251 C 
ATOM     29  H   UNL     1      -4.826   1.760  12.491  1.00  0.00     0.163 HD
ATOM     30  O   UNL     1      -5.368   2.577  14.715  1.00  0.00    -0.269 OA
BRANCH  28  31
ATOM     31  C   UNL     1      -5.567   4.726  13.788  1.00  0.00     0.039 A 
ATOM     32  C   UNL     1      -5.133   5.472  14.886  1.00  0.00     0.014 A 
ATOM     33  C   UNL     1      -6.316   5.333  12.775  1.00  0.00     0.014 A 
ATOM     34  C   UNL     1      -5.408   6.840  14.944  1.00  0.00     0.010 A 
ATOM     35  C   UNL     1      -6.530   6.708  12.801  1.00  0.00     0.010 A 
ATOM     36  C   UNL     1      -6.086   7.473  13.890  1.00  0.00    -0.014 A 
BRANCH  36  37
ATOM     37  C   UNL     1      -6.350   8.934  13.909  1.00  0.00     0.031 A 
ATOM     38  C   UNL     1      -7.765   9.443  13.957  1.00  0.00     0.074 A 
ATOM     39  C   UNL     1      -5.320   9.797  13.812  1.00  0.00     0.049 A 
ATOM     40  N   UNL     1      -8.203  10.674  13.899  1.00  0.00    -0.248 NA
ATOM     41  C   UNL     1      -8.831   8.432  14.056  1.00  0.00     0.031 C 
ATOM     42  C   UNL     1      -3.908   9.422  13.711  1.00  0.00     0.029 A 
ATOM     43  N   UNL     1      -5.302  11.169  13.770  1.00  0.00    -0.354 N 
ATOM     44  C   UNL     1      -9.589  10.586  13.938  1.00  0.00     0.074 A 
ATOM     45  C   UNL     1      -9.922   9.178  13.972  1.00  0.00     0.031 C 
ATOM     46  C   UNL     1      -3.161  10.535  13.636  1.00  0.00     0.029 A 
ATOM     47  C   UNL     1      -4.040  11.700  13.648  1.00  0.00     0.049 A 
ATOM     48  H   UNL     1      -6.115  11.720  13.823  1.00  0.00     0.167 HD
ATOM     49  C   UNL     1     -10.501  11.587  13.964  1.00  0.00     0.037 A 
ATOM     50  C   UNL     1      -3.637  12.982  13.549  1.00  0.00     0.037 A 
ATOM     51  C   UNL     1     -10.159  12.986  13.958  1.00  0.00     0.049 A 
ATOM     52  C   UNL     1      -4.667  14.078  13.589  1.00  0.00     0.074 A 
ATOM     53  C   UNL     1     -11.004  14.079  14.040  1.00  0.00     0.029 A 
ATOM     54  N   UNL     1      -8.867  13.485  13.866  1.00  0.00    -0.354 N 
ATOM     55  N   UNL     1      -5.971  13.979  13.686  1.00  0.00    -0.248 NA
ATOM     56  C   UNL     1      -4.172  15.460  13.516  1.00  0.00     0.031 C 
ATOM     57  C   UNL     1     -10.226  15.239  13.958  1.00  0.00     0.029 A 
ATOM     58  C   UNL     1      -8.893  14.869  13.874  1.00  0.00     0.049 A 
ATOM     59  H   UNL     1      -8.053  12.935  13.804  1.00  0.00     0.167 HD
ATOM     60  C   UNL     1      -6.451  15.283  13.715  1.00  0.00     0.074 A 
ATOM     61  C   UNL     1      -5.296  16.154  13.633  1.00  0.00     0.031 C 
ATOM     62  C   UNL     1      -7.731  15.720  13.805  1.00  0.00     0.037 A 
BRANCH  49  63
ATOM     63  C   UNL     1     -11.956  11.206  14.007  1.00  0.00     0.058 A 
ATOM     64  C   UNL     1     -12.532  10.631  15.151  1.00  0.00     0.135 A 
ATOM     65  C   UNL     1     -12.792  11.448  12.905  1.00  0.00     0.135 A 
ATOM     66  F   UNL     1     -11.777  10.364  16.228  1.00  0.00    -0.206 F 
ATOM     67  C   UNL     1     -13.878  10.280  15.190  1.00  0.00     0.059 A 
ATOM     68  C   UNL     1     -14.147  11.132  12.933  1.00  0.00     0.059 A 
ATOM     69  F   UNL     1     -12.294  11.997  11.786  1.00  0.00    -0.206 F 
ATOM     70  C   UNL     1     -14.677  10.533  14.075  1.00  0.00     0.060 A 
BRANCH  70  71
ATOM     71  S   UNL     1     -16.422  10.074  14.142  1.00  0.00     0.124 S 
ATOM     72  O   UNL     1     -16.344   8.621  14.025  1.00  0.00    -0.237 OA
ATOM     73  O   UNL     1     -16.829  10.583  15.448  1.00  0.00    -0.237 OA
ATOM     74  O   UNL     1     -17.001  10.766  12.995  1.00  0.00    -0.744 OA
ENDBRANCH  70  71
ENDBRANCH  49  63
BRANCH  50  75
ATOM     75  C   UNL     1      -2.188  13.297  13.429  1.00  0.00     0.058 A 
ATOM     76  C   UNL     1      -1.489  13.886  14.492  1.00  0.00     0.135 A 
ATOM     77  C   UNL     1      -1.471  12.998  12.260  1.00  0.00     0.135 A 
ATOM     78  F   UNL     1      -2.133  14.194  15.629  1.00  0.00    -0.206 F 
ATOM     79  C   UNL     1      -0.134  14.184  14.398  1.00  0.00     0.059 A 
ATOM     80  C   UNL     1      -0.110  13.264  12.150  1.00  0.00     0.059 A 
ATOM     81  F   UNL     1      -2.090  12.416  11.221  1.00  0.00    -0.206 F 
ATOM     82  C   UNL     1       0.548  13.866  13.222  1.00  0.00     0.060 A 
BRANCH  82  83
ATOM     83  S   UNL     1       2.319  14.211  13.128  1.00  0.00     0.124 S 
ATOM     84  O   UNL     1       2.328  15.661  12.979  1.00  0.00    -0.237 OA
ATOM     85  O   UNL     1       2.800  13.696  14.406  1.00  0.00    -0.237 OA
ATOM     86  O   UNL     1       2.745  13.451  11.956  1.00  0.00    -0.744 OA
ENDBRANCH  82  83
ENDBRANCH  50  75
BRANCH  62  87
ATOM     87  C   UNL     1      -7.955  17.206  13.862  1.00  0.00     0.058 A 
ATOM     88  C   UNL     1      -7.810  18.018  12.727  1.00  0.00     0.135 A 
ATOM     89  C   UNL     1      -8.380  17.812  15.055  1.00  0.00     0.135 A 
ATOM     90  F   UNL     1      -7.400  17.489  11.564  1.00  0.00    -0.206 F 
ATOM     91  C   UNL     1      -8.063  19.385  12.778  1.00  0.00     0.059 A 
ATOM     92  C   UNL     1      -8.663  19.172  15.122  1.00  0.00     0.059 A 
ATOM     93  F   UNL     1      -8.542  17.076  16.167  1.00  0.00    -0.206 F 
ATOM     94  C   UNL     1      -8.493  19.952  13.980  1.00  0.00     0.060 A 
BRANCH  94  95
ATOM     95  S   UNL     1      -8.861  21.719  14.021  1.00  0.00     0.124 S 
ATOM     96  O   UNL     1      -7.521  22.299  14.008  1.00  0.00    -0.237 OA
ATOM     97  O   UNL     1      -9.643  21.905  12.803  1.00  0.00    -0.237 OA
ATOM     98  O   UNL     1      -9.604  21.883  15.267  1.00  0.00    -0.744 OA
ENDBRANCH  94  95
ENDBRANCH  62  87
ENDBRANCH  36  37
ENDBRANCH  28  31
ENDBRANCH  26  27
ENDBRANCH  25  26
ENDBRANCH  24  25
ENDBRANCH   1  24
TORSDOF 19
