REMARK SMILES CCC(CC)(NC(=O)CN1CCCCCC1=O)C(=O)NCCCCCCNC(=O)c1ccc(-c2c3nc(c(-c4c(F)cc(S(=O)(=O)[O-])cc4F)c4ccc([nH]4)c(-c4c(F)cc(S(=O)(=O)[O-])cc4F)c4nc(c(-c5c(F)cc(S(=O)(=O)[O-])cc5F)c5ccc2[nH]5)C=C4)C=C3)cc1
REMARK SMILES IDX 22 1 21 2 20 3 18 4 19 5 3 7 2 8 1 9 4 10 5 11 6 12 7 13
REMARK SMILES IDX 8 15 9 16 10 17 11 18 12 19 13 20 16 22 17 23 15 24 14 25
REMARK SMILES IDX 23 27 24 28 25 29 26 30 27 31 28 32 29 34 30 35 31 36 95 37
REMARK SMILES IDX 32 38 94 39 33 40 34 41 35 42 88 43 36 44 93 45 87 46 89 47
REMARK SMILES IDX 37 48 92 49 86 50 85 51 38 53 72 54 51 55 71 56 52 57 55 58
REMARK SMILES IDX 70 59 90 60 53 61 54 62 69 64 91 65 56 66 39 67 40 68 49 69
REMARK SMILES IDX 41 70 42 71 48 72 50 73 43 74 44 75 45 76 46 77 47 78 73 79
REMARK SMILES IDX 74 80 83 81 75 82 76 83 82 84 84 85 77 86 78 87 79 88 80 89
REMARK SMILES IDX 81 90 57 91 58 92 67 93 59 94 60 95 66 96 68 97 61 98 62 99
REMARK SMILES IDX 63 100 64 101 65 102
REMARK H PARENT 20 6 6 14 27 33 89 52 55 63
REMARK Flexibility Score: 90.00
ROOT
ATOM      1  C   UNL     1       3.059  -2.066  -5.773  1.00  0.00     0.021 C 
ENDROOT
BRANCH   1   2
ATOM      2  C   UNL     1       2.469  -2.561  -4.455  1.00  0.00     0.116 C 
BRANCH   2   3
ATOM      3  N   UNL     1       3.036  -1.917  -3.278  1.00  0.00    -0.354 N 
ATOM      4  C   UNL     1       2.466  -1.180  -2.277  1.00  0.00     0.245 C 
ATOM      5  O   UNL     1       3.168  -0.946  -1.289  1.00  0.00    -0.272 OA
ATOM      6  H   UNL     1       4.009  -2.035  -3.186  1.00  0.00     0.163 HD
BRANCH   4   7
ATOM      7  C   UNL     1       0.958  -0.794  -2.322  1.00  0.00     0.118 C 
BRANCH   7   8
ATOM      8  C   UNL     1       0.544   0.270  -1.271  1.00  0.00     0.035 C 
ATOM      9  C   UNL     1       0.787  -0.034   0.203  1.00  0.00     0.007 C 
ENDBRANCH   7   8
BRANCH   7  10
ATOM     10  C   UNL     1       0.180  -2.127  -2.043  1.00  0.00     0.035 C 
ATOM     11  C   UNL     1      -1.342  -2.038  -2.037  1.00  0.00     0.007 C 
ENDBRANCH   7  10
BRANCH   7  12
ATOM     12  N   UNL     1       0.609  -0.268  -3.672  1.00  0.00    -0.340 N 
ATOM     13  C   UNL     1       1.137   0.717  -4.454  1.00  0.00     0.240 C 
ATOM     14  H   UNL     1      -0.159  -0.725  -4.083  1.00  0.00     0.164 HD
ATOM     15  O   UNL     1       0.430   1.085  -5.401  1.00  0.00    -0.273 OA
BRANCH  13  16
ATOM     16  C   UNL     1       2.589   1.231  -4.354  1.00  0.00     0.219 C 
BRANCH  16  17
ATOM     17  N   UNL     1       3.062   1.874  -3.136  1.00  0.00    -0.333 N 
BRANCH  17  18
ATOM     18  C   UNL     1       2.307   3.020  -2.650  1.00  0.00     0.120 C 
BRANCH  18  19
ATOM     19  C   UNL     1       2.996   4.343  -2.949  1.00  0.00     0.022 C 
BRANCH  19  20
ATOM     20  C   UNL     1       4.018   4.701  -1.872  1.00  0.00     0.002 CG0
ATOM     21  G   UNL     1       5.211   3.749  -1.790  1.00  0.00     0.000 G0
ENDBRANCH  19  20
ENDBRANCH  18  19
ENDBRANCH  17  18
BRANCH  17  22
ATOM     22  C   UNL     1       4.344   1.566  -2.691  1.00  0.00     0.223 C 
ATOM     23  O   UNL     1       5.080   0.764  -3.268  1.00  0.00    -0.275 OA
BRANCH  22  24
ATOM     24  C   UNL     1       4.841   2.305  -1.467  1.00  0.00     0.100 C 
BRANCH  24  25
ATOM     25  C   UNL     1       5.211   3.749  -1.790  1.00  0.00     0.010 CG0
ATOM     26  G   UNL     1       4.018   4.701  -1.872  1.00  0.00     0.000 G0
ENDBRANCH  24  25
ENDBRANCH  22  24
ENDBRANCH  17  22
ENDBRANCH  16  17
ENDBRANCH  13  16
ENDBRANCH   7  12
ENDBRANCH   4   7
ENDBRANCH   2   3
ENDBRANCH   1   2
BRANCH   1  27
ATOM     27  C   UNL     1       4.587  -2.116  -5.846  1.00  0.00     0.002 C 
BRANCH  27  28
ATOM     28  C   UNL     1       5.177  -3.519  -5.687  1.00  0.00     0.002 C 
BRANCH  28  29
ATOM     29  C   UNL     1       4.571  -4.571  -6.617  1.00  0.00     0.021 C 
BRANCH  29  30
ATOM     30  C   UNL     1       4.589  -4.190  -8.092  1.00  0.00     0.116 C 
BRANCH  30  31
ATOM     31  N   UNL     1       5.940  -4.130  -8.620  1.00  0.00    -0.352 N 
ATOM     32  C   UNL     1       6.440  -4.766  -9.734  1.00  0.00     0.251 C 
ATOM     33  H   UNL     1       6.575  -3.568  -8.121  1.00  0.00     0.163 HD
ATOM     34  O   UNL     1       7.638  -4.793  -9.957  1.00  0.00    -0.269 OA
BRANCH  32  35
ATOM     35  C   UNL     1       5.485  -5.437 -10.642  1.00  0.00     0.039 A 
ATOM     36  C   UNL     1       5.690  -6.776 -10.977  1.00  0.00     0.014 A 
ATOM     37  C   UNL     1       4.362  -4.748 -11.110  1.00  0.00     0.014 A 
ATOM     38  C   UNL     1       4.736  -7.444 -11.747  1.00  0.00     0.010 A 
ATOM     39  C   UNL     1       3.381  -5.434 -11.817  1.00  0.00     0.010 A 
ATOM     40  C   UNL     1       3.561  -6.787 -12.149  1.00  0.00    -0.014 A 
BRANCH  40  41
ATOM     41  C   UNL     1       2.511  -7.484 -12.937  1.00  0.00     0.031 A 
ATOM     42  C   UNL     1       2.191  -7.008 -14.329  1.00  0.00     0.074 A 
ATOM     43  C   UNL     1       1.800  -8.484 -12.378  1.00  0.00     0.049 A 
ATOM     44  N   UNL     1       1.240  -7.401 -15.136  1.00  0.00    -0.248 NA
ATOM     45  C   UNL     1       3.032  -5.929 -14.875  1.00  0.00     0.031 C 
ATOM     46  C   UNL     1       1.991  -9.007 -11.022  1.00  0.00     0.029 A 
ATOM     47  N   UNL     1       0.759  -9.230 -12.873  1.00  0.00    -0.354 N 
ATOM     48  C   UNL     1       1.350  -6.600 -16.268  1.00  0.00     0.074 A 
ATOM     49  C   UNL     1       2.435  -5.675 -16.031  1.00  0.00     0.031 C 
ATOM     50  C   UNL     1       1.106  -9.994 -10.801  1.00  0.00     0.029 A 
ATOM     51  C   UNL     1       0.257 -10.147 -11.978  1.00  0.00     0.049 A 
ATOM     52  H   UNL     1       0.404  -9.119 -13.785  1.00  0.00     0.167 HD
ATOM     53  C   UNL     1       0.622  -6.646 -17.407  1.00  0.00     0.037 A 
ATOM     54  C   UNL     1      -0.781 -10.999 -12.088  1.00  0.00     0.037 A 
ATOM     55  C   UNL     1      -0.422  -7.605 -17.656  1.00  0.00     0.049 A 
ATOM     56  C   UNL     1      -1.569 -11.031 -13.373  1.00  0.00     0.074 A 
ATOM     57  C   UNL     1      -1.159  -7.788 -18.813  1.00  0.00     0.029 A 
ATOM     58  N   UNL     1      -0.875  -8.540 -16.739  1.00  0.00    -0.354 N 
ATOM     59  N   UNL     1      -1.400 -10.318 -14.462  1.00  0.00    -0.248 NA
ATOM     60  C   UNL     1      -2.686 -11.984 -13.449  1.00  0.00     0.031 C 
ATOM     61  C   UNL     1      -2.093  -8.800 -18.579  1.00  0.00     0.029 A 
ATOM     62  C   UNL     1      -1.899  -9.287 -17.296  1.00  0.00     0.049 A 
ATOM     63  H   UNL     1      -0.521  -8.657 -15.828  1.00  0.00     0.167 HD
ATOM     64  C   UNL     1      -2.361 -10.767 -15.362  1.00  0.00     0.074 A 
ATOM     65  C   UNL     1      -3.104 -11.814 -14.695  1.00  0.00     0.031 C 
ATOM     66  C   UNL     1      -2.605 -10.350 -16.629  1.00  0.00     0.037 A 
BRANCH  53  67
ATOM     67  C   UNL     1       0.921  -5.643 -18.485  1.00  0.00     0.058 A 
ATOM     68  C   UNL     1       2.084  -5.723 -19.267  1.00  0.00     0.135 A 
ATOM     69  C   UNL     1      -0.014  -4.644 -18.802  1.00  0.00     0.135 A 
ATOM     70  F   UNL     1       3.020  -6.646 -18.995  1.00  0.00    -0.206 F 
ATOM     71  C   UNL     1       2.312  -4.846 -20.322  1.00  0.00     0.059 A 
ATOM     72  C   UNL     1       0.180  -3.773 -19.870  1.00  0.00     0.059 A 
ATOM     73  F   UNL     1      -1.141  -4.521 -18.083  1.00  0.00    -0.206 F 
ATOM     74  C   UNL     1       1.348  -3.881 -20.622  1.00  0.00     0.060 A 
BRANCH  74  75
ATOM     75  S   UNL     1       1.633  -2.791 -22.033  1.00  0.00     0.124 S 
ATOM     76  O   UNL     1       2.698  -1.931 -21.527  1.00  0.00    -0.237 OA
ATOM     77  O   UNL     1       2.021  -3.731 -23.079  1.00  0.00    -0.237 OA
ATOM     78  O   UNL     1       0.341  -2.140 -22.227  1.00  0.00    -0.744 OA
ENDBRANCH  74  75
ENDBRANCH  53  67
BRANCH  54  79
ATOM     79  C   UNL     1      -1.148 -11.898 -10.959  1.00  0.00     0.058 A 
ATOM     80  C   UNL     1      -1.002 -13.290 -11.066  1.00  0.00     0.135 A 
ATOM     81  C   UNL     1      -1.694 -11.391  -9.770  1.00  0.00     0.135 A 
ATOM     82  F   UNL     1      -0.488 -13.826 -12.184  1.00  0.00    -0.206 F 
ATOM     83  C   UNL     1      -1.422 -14.149 -10.056  1.00  0.00     0.059 A 
ATOM     84  C   UNL     1      -2.095 -12.228  -8.733  1.00  0.00     0.059 A 
ATOM     85  F   UNL     1      -1.839 -10.067  -9.606  1.00  0.00    -0.206 F 
ATOM     86  C   UNL     1      -1.975 -13.607  -8.895  1.00  0.00     0.060 A 
BRANCH  86  87
ATOM     87  S   UNL     1      -2.526 -14.729  -7.590  1.00  0.00     0.124 S 
ATOM     88  O   UNL     1      -3.752 -15.268  -8.168  1.00  0.00    -0.237 OA
ATOM     89  O   UNL     1      -1.405 -15.657  -7.488  1.00  0.00    -0.237 OA
ATOM     90  O   UNL     1      -2.704 -13.844  -6.442  1.00  0.00    -0.744 OA
ENDBRANCH  86  87
ENDBRANCH  54  79
BRANCH  66  91
ATOM     91  C   UNL     1      -3.675 -11.063 -17.408  1.00  0.00     0.058 A 
ATOM     92  C   UNL     1      -5.039 -10.875 -17.138  1.00  0.00     0.135 A 
ATOM     93  C   UNL     1      -3.327 -11.885 -18.493  1.00  0.00     0.135 A 
ATOM     94  F   UNL     1      -5.424 -10.106 -16.108  1.00  0.00    -0.206 F 
ATOM     95  C   UNL     1      -6.021 -11.489 -17.909  1.00  0.00     0.059 A 
ATOM     96  C   UNL     1      -4.292 -12.484 -19.295  1.00  0.00     0.059 A 
ATOM     97  F   UNL     1      -2.035 -12.088 -18.800  1.00  0.00    -0.206 F 
ATOM     98  C   UNL     1      -5.638 -12.286 -18.989  1.00  0.00     0.060 A 
BRANCH  98  99
ATOM     99  S   UNL     1      -6.923 -13.030 -20.015  1.00  0.00     0.124 S 
ATOM    100  O   UNL     1      -7.424 -14.085 -19.140  1.00  0.00    -0.237 OA
ATOM    101  O   UNL     1      -7.831 -11.909 -20.239  1.00  0.00    -0.237 OA
ATOM    102  O   UNL     1      -6.196 -13.485 -21.196  1.00  0.00    -0.744 OA
ENDBRANCH  98  99
ENDBRANCH  66  91
ENDBRANCH  40  41
ENDBRANCH  32  35
ENDBRANCH  30  31
ENDBRANCH  29  30
ENDBRANCH  28  29
ENDBRANCH  27  28
ENDBRANCH   1  27
TORSDOF 21
