REMARK SMILES CC(C)[N@@H+](C)Cc1cc2c(cc1Cl)C=C(C(=O)NCCCCCCNC(=O)c1ccc(-c3c4nc(c(-c5c(F)cc(S(=O)(=O)[O-])cc5F)c5ccc([nH]5)c(-c5c(F)cc(S(=O)(=O)[O-])cc5F)c5nc(c(-c6c(F)cc(S(=O)(=O)[O-])cc6F)c6ccc3[nH]6)C=C5)C=C4)cc1)[C@@H](C(F)(F)F)O2
REMARK SMILES IDX 21 1 20 2 19 3 18 4 16 5 17 6 15 8 7 9 8 10 12 11 9 12 11 13
REMARK SMILES IDX 13 14 10 15 99 16 14 17 94 18 6 19 4 20 5 21 2 23 1 24 3 25
REMARK SMILES IDX 95 26 96 27 97 28 98 29 22 30 23 31 24 32 25 33 26 34 27 36
REMARK SMILES IDX 28 37 29 38 93 39 30 40 92 41 31 42 32 43 33 44 86 45 34 46
REMARK SMILES IDX 91 47 85 48 87 49 35 50 90 51 84 52 83 53 36 55 70 56 49 57
REMARK SMILES IDX 69 58 50 59 53 60 68 61 88 62 51 63 52 64 67 66 89 67 54 68
REMARK SMILES IDX 37 69 38 70 47 71 39 72 40 73 46 74 48 75 41 76 42 77 43 78
REMARK SMILES IDX 44 79 45 80 71 81 72 82 81 83 73 84 74 85 80 86 82 87 75 88
REMARK SMILES IDX 76 89 77 90 78 91 79 92 55 93 56 94 65 95 57 96 58 97 64 98
REMARK SMILES IDX 66 99 59 100 60 101 61 102 62 103 63 104
REMARK H PARENT 18 7 4 22 25 35 87 54 53 65
REMARK Flexibility Score: inf
ROOT
ATOM      1  C   UNL     1       0.301  11.158  -5.854  1.00  0.00     0.002 C 
ENDROOT
BRANCH   1   2
ATOM      2  C   UNL     1       0.162   9.994  -4.870  1.00  0.00     0.021 C 
BRANCH   2   3
ATOM      3  C   UNL     1      -0.832   8.922  -5.305  1.00  0.00     0.116 C 
BRANCH   3   4
ATOM      4  N   UNL     1      -0.230   7.946  -6.197  1.00  0.00    -0.352 N 
ATOM      5  C   UNL     1      -0.110   6.598  -6.256  1.00  0.00     0.251 C 
ATOM      6  O   UNL     1       0.470   6.163  -7.257  1.00  0.00    -0.270 OA
ATOM      7  H   UNL     1       0.207   8.380  -6.965  1.00  0.00     0.163 HD
BRANCH   5   8
ATOM      8  C   UNL     1      -0.605   5.639  -5.221  1.00  0.00     0.067 C 
ATOM      9  C   UNL     1      -1.221   1.562  -2.287  1.00  0.00     0.029 A 
ATOM     10  C   UNL     1      -1.644   2.896  -2.247  1.00  0.00     0.058 A 
ATOM     11  C   UNL     1      -0.576   1.124  -3.457  1.00  0.00     0.050 A 
ATOM     12  C   UNL     1      -1.303   3.792  -3.251  1.00  0.00     0.128 A 
ATOM     13  C   UNL     1      -0.264   2.026  -4.488  1.00  0.00     0.033 A 
ATOM     14  Cl  UNL     1      -0.113  -0.523  -3.699  1.00  0.00    -0.084 Cl
ATOM     15  C   UNL     1      -0.596   3.377  -4.370  1.00  0.00     0.019 A 
ATOM     16  O   UNL     1      -1.641   5.083  -3.006  1.00  0.00    -0.475 OA
ATOM     17  C   UNL     1      -0.179   4.368  -5.353  1.00  0.00     0.025 C 
ATOM     18  C   UNL     1      -1.538   6.020  -4.103  1.00  0.00     0.314 C 
BRANCH   9  19
ATOM     19  C   UNL     1      -1.460   0.695  -1.069  1.00  0.00     0.300 C 
BRANCH  19  20
ATOM     20  N   UNL     1      -0.818   1.103   0.193  1.00  0.00    -0.332 N 
ATOM     21  C   UNL     1      -1.436   2.231   0.881  1.00  0.00     0.333 C 
ATOM     22  H   UNL     1      -1.050   0.267   0.728  1.00  0.00     0.348 HD
BRANCH  20  23
ATOM     23  C   UNL     1       0.650   1.107   0.290  1.00  0.00     0.177 C 
ATOM     24  C   UNL     1       1.233  -0.288   0.052  1.00  0.00     0.075 C 
ATOM     25  C   UNL     1       1.393   2.144  -0.562  1.00  0.00     0.075 C 
ENDBRANCH  20  23
ENDBRANCH  19  20
ENDBRANCH   9  19
BRANCH  18  26
ATOM     26  C   UNL     1      -2.961   6.335  -4.587  1.00  0.00     0.429 C 
ATOM     27  F   UNL     1      -3.656   6.987  -3.623  1.00  0.00    -0.167 F 
ATOM     28  F   UNL     1      -2.979   7.132  -5.679  1.00  0.00    -0.167 F 
ATOM     29  F   UNL     1      -3.652   5.215  -4.903  1.00  0.00    -0.167 F 
ENDBRANCH  18  26
ENDBRANCH   5   8
ENDBRANCH   3   4
ENDBRANCH   2   3
ENDBRANCH   1   2
BRANCH   1  30
ATOM     30  C   UNL     1      -1.003  11.884  -6.210  1.00  0.00     0.002 C 
BRANCH  30  31
ATOM     31  C   UNL     1      -1.885  12.293  -5.027  1.00  0.00     0.021 C 
BRANCH  31  32
ATOM     32  C   UNL     1      -1.209  13.190  -3.996  1.00  0.00     0.116 C 
BRANCH  32  33
ATOM     33  N   UNL     1      -0.781  14.461  -4.556  1.00  0.00    -0.352 N 
ATOM     34  C   UNL     1      -1.005  15.734  -4.090  1.00  0.00     0.251 C 
ATOM     35  H   UNL     1      -0.257  14.402  -5.388  1.00  0.00     0.163 HD
ATOM     36  O   UNL     1      -0.694  16.703  -4.777  1.00  0.00    -0.269 OA
BRANCH  34  37
ATOM     37  C   UNL     1      -1.649  15.929  -2.773  1.00  0.00     0.039 A 
ATOM     38  C   UNL     1      -1.231  15.195  -1.660  1.00  0.00     0.014 A 
ATOM     39  C   UNL     1      -2.697  16.846  -2.658  1.00  0.00     0.014 A 
ATOM     40  C   UNL     1      -1.957  15.268  -0.476  1.00  0.00     0.010 A 
ATOM     41  C   UNL     1      -3.377  16.973  -1.443  1.00  0.00     0.010 A 
ATOM     42  C   UNL     1      -3.041  16.153  -0.354  1.00  0.00    -0.014 A 
BRANCH  42  43
ATOM     43  C   UNL     1      -3.810  16.199   0.916  1.00  0.00     0.031 A 
ATOM     44  C   UNL     1      -5.248  15.755   0.959  1.00  0.00     0.074 A 
ATOM     45  C   UNL     1      -3.189  16.586   2.047  1.00  0.00     0.049 A 
ATOM     46  N   UNL     1      -6.066  15.712   1.980  1.00  0.00    -0.248 NA
ATOM     47  C   UNL     1      -5.848  15.304  -0.307  1.00  0.00     0.031 C 
ATOM     48  C   UNL     1      -1.793  17.023   2.133  1.00  0.00     0.029 A 
ATOM     49  N   UNL     1      -3.636  16.650   3.342  1.00  0.00    -0.354 N 
ATOM     50  C   UNL     1      -7.276  15.243   1.481  1.00  0.00     0.074 A 
ATOM     51  C   UNL     1      -7.096  15.044   0.059  1.00  0.00     0.031 C 
ATOM     52  C   UNL     1      -1.483  17.253   3.417  1.00  0.00     0.029 A 
ATOM     53  C   UNL     1      -2.670  17.041   4.239  1.00  0.00     0.049 A 
ATOM     54  H   UNL     1      -4.561  16.436   3.604  1.00  0.00     0.167 HD
ATOM     55  C   UNL     1      -8.427  14.987   2.150  1.00  0.00     0.037 A 
ATOM     56  C   UNL     1      -2.733  17.219   5.572  1.00  0.00     0.037 A 
ATOM     57  C   UNL     1      -8.595  15.170   3.569  1.00  0.00     0.049 A 
ATOM     58  C   UNL     1      -4.033  16.974   6.283  1.00  0.00     0.074 A 
ATOM     59  C   UNL     1      -9.721  14.933   4.339  1.00  0.00     0.029 A 
ATOM     60  N   UNL     1      -7.611  15.630   4.432  1.00  0.00    -0.354 N 
ATOM     61  N   UNL     1      -5.170  16.543   5.791  1.00  0.00    -0.248 NA
ATOM     62  C   UNL     1      -4.064  17.253   7.724  1.00  0.00     0.031 C 
ATOM     63  C   UNL     1      -9.428  15.282   5.662  1.00  0.00     0.029 A 
ATOM     64  C   UNL     1      -8.108  15.699   5.723  1.00  0.00     0.049 A 
ATOM     65  H   UNL     1      -6.695  15.872   4.165  1.00  0.00     0.167 HD
ATOM     66  C   UNL     1      -6.052  16.494   6.864  1.00  0.00     0.074 A 
ATOM     67  C   UNL     1      -5.311  16.920   8.034  1.00  0.00     0.031 C 
ATOM     68  C   UNL     1      -7.359  16.134   6.876  1.00  0.00     0.037 A 
BRANCH  55  69
ATOM     69  C   UNL     1      -9.600  14.487   1.354  1.00  0.00     0.058 A 
ATOM     70  C   UNL     1      -9.646  13.175   0.858  1.00  0.00     0.135 A 
ATOM     71  C   UNL     1     -10.711  15.314   1.121  1.00  0.00     0.135 A 
ATOM     72  F   UNL     1      -8.604  12.347   1.038  1.00  0.00    -0.206 F 
ATOM     73  C   UNL     1     -10.742  12.706   0.140  1.00  0.00     0.059 A 
ATOM     74  C   UNL     1     -11.828  14.859   0.424  1.00  0.00     0.059 A 
ATOM     75  F   UNL     1     -10.720  16.578   1.573  1.00  0.00    -0.206 F 
ATOM     76  C   UNL     1     -11.828  13.557  -0.073  1.00  0.00     0.060 A 
BRANCH  76  77
ATOM     77  S   UNL     1     -13.241  12.932  -1.007  1.00  0.00     0.124 S 
ATOM     78  O   UNL     1     -12.696  12.882  -2.360  1.00  0.00    -0.237 OA
ATOM     79  O   UNL     1     -13.486  11.639  -0.375  1.00  0.00    -0.237 OA
ATOM     80  O   UNL     1     -14.271  13.941  -0.783  1.00  0.00    -0.744 OA
ENDBRANCH  76  77
ENDBRANCH  55  69
BRANCH  56  81
ATOM     81  C   UNL     1      -1.519  17.645   6.313  1.00  0.00     0.058 A 
ATOM     82  C   UNL     1      -0.838  16.753   7.152  1.00  0.00     0.135 A 
ATOM     83  C   UNL     1      -0.986  18.935   6.157  1.00  0.00     0.135 A 
ATOM     84  F   UNL     1      -1.314  15.512   7.338  1.00  0.00    -0.206 F 
ATOM     85  C   UNL     1       0.331  17.120   7.809  1.00  0.00     0.059 A 
ATOM     86  C   UNL     1       0.194  19.318   6.784  1.00  0.00     0.059 A 
ATOM     87  F   UNL     1      -1.595  19.821   5.353  1.00  0.00    -0.206 F 
ATOM     88  C   UNL     1       0.845  18.404   7.611  1.00  0.00     0.060 A 
BRANCH  88  89
ATOM     89  S   UNL     1       2.406  18.843   8.404  1.00  0.00     0.124 S 
ATOM     90  O   UNL     1       1.998  18.987   9.796  1.00  0.00    -0.237 OA
ATOM     91  O   UNL     1       3.240  17.684   8.100  1.00  0.00    -0.237 OA
ATOM     92  O   UNL     1       2.791  20.077   7.726  1.00  0.00    -0.744 OA
ENDBRANCH  88  89
ENDBRANCH  56  81
BRANCH  68  93
ATOM     93  C   UNL     1      -8.074  16.180   8.195  1.00  0.00     0.058 A 
ATOM     94  C   UNL     1      -8.476  17.398   8.765  1.00  0.00     0.135 A 
ATOM     95  C   UNL     1      -8.415  14.995   8.866  1.00  0.00     0.135 A 
ATOM     96  F   UNL     1      -8.166  18.558   8.167  1.00  0.00    -0.206 F 
ATOM     97  C   UNL     1      -9.181  17.439   9.963  1.00  0.00     0.059 A 
ATOM     98  C   UNL     1      -9.139  15.012  10.053  1.00  0.00     0.059 A 
ATOM     99  F   UNL     1      -8.059  13.804   8.357  1.00  0.00    -0.206 F 
ATOM    100  C   UNL     1      -9.512  16.241  10.598  1.00  0.00     0.060 A 
BRANCH 100 101
ATOM    101  S   UNL     1     -10.466  16.309  12.129  1.00  0.00     0.124 S 
ATOM    102  O   UNL     1      -9.466  16.786  13.078  1.00  0.00    -0.237 OA
ATOM    103  O   UNL     1     -11.525  17.256  11.794  1.00  0.00    -0.237 OA
ATOM    104  O   UNL     1     -10.905  14.930  12.318  1.00  0.00    -0.744 OA
ENDBRANCH 100 101
ENDBRANCH  68  93
ENDBRANCH  42  43
ENDBRANCH  34  37
ENDBRANCH  32  33
ENDBRANCH  31  32
ENDBRANCH  30  31
ENDBRANCH   1  30
TORSDOF 20
