REMARK SMILES CN1C(=O)C[C@@H](C(=O)NCCCCCCNC(=O)c2ccc(-c3c4nc(c(-c5c(F)cc(S(=O)(=O)[O-])cc5F)c5ccc([nH]5)c(-c5c(F)cc(S(=O)(=O)[O-])cc5F)c5nc(c(-c6c(F)cc(S(=O)(=O)[O-])cc6F)c6ccc3[nH]6)C=C5)C=C4)cc2)C12CCN(C(=O)c1cccc3ccccc13)CC2
REMARK SMILES IDX 13 1 12 2 11 3 10 4 9 5 7 6 8 7 6 9 1 10 2 11 3 12 85 13
REMARK SMILES IDX 4 14 5 15 86 16 102 17 87 18 101 19 88 20 89 21 90 22 91 23
REMARK SMILES IDX 92 24 100 25 93 26 95 27 99 28 94 29 96 30 98 31 97 32 14 33
REMARK SMILES IDX 15 34 16 35 17 36 18 38 19 39 20 40 84 41 21 42 83 43 22 44
REMARK SMILES IDX 23 45 24 46 77 47 25 48 82 49 76 50 78 51 26 52 81 53 75 54
REMARK SMILES IDX 74 55 27 57 61 58 40 59 60 60 41 61 44 62 59 63 79 64 42 65
REMARK SMILES IDX 43 66 58 68 80 69 45 70 28 71 29 72 38 73 30 74 31 75 37 76
REMARK SMILES IDX 39 77 32 78 33 79 34 80 35 81 36 82 62 83 63 84 72 85 64 86
REMARK SMILES IDX 65 87 71 88 73 89 66 90 67 91 68 92 69 93 70 94 46 95 47 96
REMARK SMILES IDX 56 97 48 98 49 99 55 100 57 101 50 102 51 103 52 104 53 105
REMARK SMILES IDX 54 106
REMARK H PARENT 9 8 16 37 78 56 44 67
REMARK Flexibility Score: inf
ROOT
ATOM      1  C   UNL     1      -3.083   3.697   3.336  1.00  0.00     0.002 C 
ENDROOT
BRANCH   1   2
ATOM      2  C   UNL     1      -3.472   2.577   2.375  1.00  0.00     0.002 C 
BRANCH   2   3
ATOM      3  C   UNL     1      -2.287   1.794   1.816  1.00  0.00     0.021 C 
BRANCH   3   4
ATOM      4  C   UNL     1      -1.436   1.075   2.869  1.00  0.00     0.116 C 
BRANCH   4   5
ATOM      5  N   UNL     1      -2.107  -0.063   3.475  1.00  0.00    -0.356 N 
ATOM      6  C   UNL     1      -1.809  -1.385   3.548  1.00  0.00     0.226 C 
ATOM      7  O   UNL     1      -2.604  -2.086   4.187  1.00  0.00    -0.275 OA
ATOM      8  H   UNL     1      -2.950   0.174   3.926  1.00  0.00     0.163 HD
BRANCH   6   9
ATOM      9  C   UNL     1      -0.602  -2.065   2.889  1.00  0.00     0.113 C 
ATOM     10  C   UNL     1       0.947  -0.281  -0.017  1.00  0.00     0.147 C 
ATOM     11  N   UNL     1       0.636  -0.995   1.209  1.00  0.00    -0.339 N 
ATOM     12  C   UNL     1       1.353  -0.782   2.378  1.00  0.00     0.223 C 
ATOM     13  C   UNL     1      -0.450  -1.978   1.350  1.00  0.00     0.058 C 
ATOM     14  O   UNL     1       2.310  -0.044   2.522  1.00  0.00    -0.275 OA
ATOM     15  C   UNL     1       0.723  -1.586   3.479  1.00  0.00     0.116 C 
ATOM     16  C   UNL     1      -1.750  -1.584   0.630  1.00  0.00     0.051 C 
ATOM     17  C   UNL     1       0.037  -3.321   0.728  1.00  0.00     0.051 C 
ATOM     18  C   UNL     1      -2.817  -2.674   0.696  1.00  0.00     0.122 C 
ATOM     19  C   UNL     1      -1.069  -4.373   0.576  1.00  0.00     0.122 C 
ATOM     20  N   UNL     1      -2.286  -3.812  -0.015  1.00  0.00    -0.338 N 
ATOM     21  C   UNL     1      -2.744  -4.271  -1.245  1.00  0.00     0.254 C 
ATOM     22  O   UNL     1      -2.090  -5.058  -1.930  1.00  0.00    -0.269 OA
BRANCH  21  23
ATOM     23  C   UNL     1      -4.126  -3.979  -1.727  1.00  0.00     0.047 A 
ATOM     24  C   UNL     1      -4.961  -5.111  -1.703  1.00  0.00     0.014 A 
ATOM     25  C   UNL     1      -4.547  -2.786  -2.387  1.00  0.00    -0.006 A 
ATOM     26  C   UNL     1      -6.170  -5.114  -2.387  1.00  0.00     0.001 A 
ATOM     27  C   UNL     1      -5.765  -2.831  -3.119  1.00  0.00    -0.018 A 
ATOM     28  C   UNL     1      -3.866  -1.545  -2.378  1.00  0.00     0.009 A 
ATOM     29  C   UNL     1      -6.544  -3.997  -3.125  1.00  0.00     0.009 A 
ATOM     30  C   UNL     1      -6.205  -1.712  -3.846  1.00  0.00     0.009 A 
ATOM     31  C   UNL     1      -4.377  -0.405  -3.010  1.00  0.00     0.001 A 
ATOM     32  C   UNL     1      -5.530  -0.498  -3.773  1.00  0.00     0.001 A 
ENDBRANCH  21  23
ENDBRANCH   6   9
ENDBRANCH   4   5
ENDBRANCH   3   4
ENDBRANCH   2   3
ENDBRANCH   1   2
BRANCH   1  33
ATOM     33  C   UNL     1      -1.998   4.639   2.809  1.00  0.00     0.021 C 
BRANCH  33  34
ATOM     34  C   UNL     1      -2.300   5.256   1.447  1.00  0.00     0.116 C 
BRANCH  34  35
ATOM     35  N   UNL     1      -3.509   6.061   1.479  1.00  0.00    -0.352 N 
ATOM     36  C   UNL     1      -3.659   7.389   1.169  1.00  0.00     0.251 C 
ATOM     37  H   UNL     1      -4.328   5.592   1.759  1.00  0.00     0.163 HD
ATOM     38  O   UNL     1      -4.688   7.984   1.468  1.00  0.00    -0.269 OA
BRANCH  36  39
ATOM     39  C   UNL     1      -2.557   8.091   0.482  1.00  0.00     0.039 A 
ATOM     40  C   UNL     1      -2.129   9.327   0.969  1.00  0.00     0.014 A 
ATOM     41  C   UNL     1      -1.938   7.512  -0.630  1.00  0.00     0.014 A 
ATOM     42  C   UNL     1      -1.043   9.964   0.365  1.00  0.00     0.010 A 
ATOM     43  C   UNL     1      -0.810   8.111  -1.180  1.00  0.00     0.010 A 
ATOM     44  C   UNL     1      -0.358   9.347  -0.696  1.00  0.00    -0.014 A 
BRANCH  44  45
ATOM     45  C   UNL     1       0.825   9.986  -1.327  1.00  0.00     0.031 A 
ATOM     46  C   UNL     1       0.775  10.386  -2.776  1.00  0.00     0.074 A 
ATOM     47  C   UNL     1       1.960  10.144  -0.616  1.00  0.00     0.049 A 
ATOM     48  N   UNL     1       1.724  10.872  -3.533  1.00  0.00    -0.248 NA
ATOM     49  C   UNL     1      -0.505  10.185  -3.476  1.00  0.00     0.031 C 
ATOM     50  C   UNL     1       2.142   9.758   0.785  1.00  0.00     0.029 A 
ATOM     51  N   UNL     1       3.179  10.658  -0.978  1.00  0.00    -0.354 N 
ATOM     52  C   UNL     1       1.163  11.022  -4.795  1.00  0.00     0.074 A 
ATOM     53  C   UNL     1      -0.192  10.522  -4.719  1.00  0.00     0.031 C 
ATOM     54  C   UNL     1       3.391  10.067   1.168  1.00  0.00     0.029 A 
ATOM     55  C   UNL     1       4.113  10.629   0.031  1.00  0.00     0.049 A 
ATOM     56  H   UNL     1       3.368  11.014  -1.876  1.00  0.00     0.167 HD
ATOM     57  C   UNL     1       1.719  11.551  -5.911  1.00  0.00     0.037 A 
ATOM     58  C   UNL     1       5.409  11.001   0.036  1.00  0.00     0.037 A 
ATOM     59  C   UNL     1       3.061  12.067  -5.971  1.00  0.00     0.049 A 
ATOM     60  C   UNL     1       6.010  11.571  -1.222  1.00  0.00     0.074 A 
ATOM     61  C   UNL     1       3.703  12.671  -7.037  1.00  0.00     0.029 A 
ATOM     62  N   UNL     1       3.970  12.037  -4.922  1.00  0.00    -0.354 N 
ATOM     63  N   UNL     1       5.447  11.761  -2.392  1.00  0.00    -0.248 NA
ATOM     64  C   UNL     1       7.419  11.982  -1.159  1.00  0.00     0.031 C 
ATOM     65  C   UNL     1       5.016  12.958  -6.651  1.00  0.00     0.029 A 
ATOM     66  C   UNL     1       5.174  12.591  -5.324  1.00  0.00     0.049 A 
ATOM     67  H   UNL     1       3.786  11.675  -4.025  1.00  0.00     0.167 HD
ATOM     68  C   UNL     1       6.422  12.346  -3.193  1.00  0.00     0.074 A 
ATOM     69  C   UNL     1       7.607  12.484  -2.372  1.00  0.00     0.031 C 
ATOM     70  C   UNL     1       6.341  12.736  -4.489  1.00  0.00     0.037 A 
BRANCH  57  71
ATOM     71  C   UNL     1       0.878  11.600  -7.158  1.00  0.00     0.058 A 
ATOM     72  C   UNL     1      -0.235  12.450  -7.268  1.00  0.00     0.135 A 
ATOM     73  C   UNL     1       1.210  10.814  -8.274  1.00  0.00     0.135 A 
ATOM     74  F   UNL     1      -0.609  13.212  -6.227  1.00  0.00    -0.206 F 
ATOM     75  C   UNL     1      -1.004  12.498  -8.426  1.00  0.00     0.059 A 
ATOM     76  C   UNL     1       0.474  10.870  -9.454  1.00  0.00     0.059 A 
ATOM     77  F   UNL     1       2.262   9.982  -8.226  1.00  0.00    -0.206 F 
ATOM     78  C   UNL     1      -0.640  11.705  -9.515  1.00  0.00     0.060 A 
BRANCH  78  79
ATOM     79  S   UNL     1      -1.645  11.787 -11.012  1.00  0.00     0.124 S 
ATOM     80  O   UNL     1      -2.862  11.105 -10.582  1.00  0.00    -0.237 OA
ATOM     81  O   UNL     1      -1.766  13.225 -11.227  1.00  0.00    -0.237 OA
ATOM     82  O   UNL     1      -0.843  11.073 -12.001  1.00  0.00    -0.744 OA
ENDBRANCH  78  79
ENDBRANCH  57  71
BRANCH  58  83
ATOM     83  C   UNL     1       6.220  10.861   1.276  1.00  0.00     0.058 A 
ATOM     84  C   UNL     1       6.658  11.990   1.984  1.00  0.00     0.135 A 
ATOM     85  C   UNL     1       6.566   9.598   1.783  1.00  0.00     0.135 A 
ATOM     86  F   UNL     1       6.358  13.219   1.538  1.00  0.00    -0.206 F 
ATOM     87  C   UNL     1       7.427  11.875   3.138  1.00  0.00     0.059 A 
ATOM     88  C   UNL     1       7.309   9.457   2.951  1.00  0.00     0.059 A 
ATOM     89  F   UNL     1       6.157   8.486   1.154  1.00  0.00    -0.206 F 
ATOM     90  C   UNL     1       7.745  10.602   3.615  1.00  0.00     0.060 A 
BRANCH  90  91
ATOM     91  S   UNL     1       8.709  10.466   5.136  1.00  0.00     0.124 S 
ATOM     92  O   UNL     1      10.025  10.907   4.690  1.00  0.00    -0.237 OA
ATOM     93  O   UNL     1       7.999  11.376   6.029  1.00  0.00    -0.237 OA
ATOM     94  O   UNL     1       8.599   9.051   5.478  1.00  0.00    -0.744 OA
ENDBRANCH  90  91
ENDBRANCH  58  83
BRANCH  70  95
ATOM     95  C   UNL     1       7.548  13.399  -5.096  1.00  0.00     0.058 A 
ATOM     96  C   UNL     1       8.709  12.678  -5.415  1.00  0.00     0.135 A 
ATOM     97  C   UNL     1       7.511  14.764  -5.428  1.00  0.00     0.135 A 
ATOM     98  F   UNL     1       8.800  11.374  -5.112  1.00  0.00    -0.206 F 
ATOM     99  C   UNL     1       9.798  13.291  -6.027  1.00  0.00     0.059 A 
ATOM    100  C   UNL     1       8.575  15.389  -6.069  1.00  0.00     0.059 A 
ATOM    101  F   UNL     1       6.421  15.497  -5.153  1.00  0.00    -0.206 F 
ATOM    102  C   UNL     1       9.719  14.646  -6.356  1.00  0.00     0.060 A 
BRANCH 102 103
ATOM    103  S   UNL     1      11.118  15.415  -7.198  1.00  0.00     0.124 S 
ATOM    104  O   UNL     1      12.105  15.485  -6.125  1.00  0.00    -0.237 OA
ATOM    105  O   UNL     1      11.406  14.458  -8.262  1.00  0.00    -0.237 OA
ATOM    106  O   UNL     1      10.585  16.698  -7.644  1.00  0.00    -0.744 OA
ENDBRANCH 102 103
ENDBRANCH  70  95
ENDBRANCH  44  45
ENDBRANCH  36  39
ENDBRANCH  34  35
ENDBRANCH  33  34
ENDBRANCH   1  33
TORSDOF 17
