REMARK SMILES COc1ccc(NS(=O)(=O)c2cc(C(=O)NCCCCCCNC(=O)c3ccc(-c4c5nc(c(-c6c(F)cc(S(=O)(=O)[O-])cc6F)c6ccc([nH]6)c(-c6c(F)cc(S(=O)(=O)[O-])cc6F)c6nc(c(-c7c(F)cc(S(=O)(=O)[O-])cc7F)c7ccc4[nH]7)C=C6)C=C5)cc3)cc(C)c2C)c(OC)c1
REMARK SMILES IDX 19 1 18 2 17 3 16 4 14 5 15 6 13 8 11 9 12 10 95 11 93 12
REMARK SMILES IDX 96 13 92 14 94 15 8 16 9 17 10 18 7 19 6 21 3 22 4 23 100 24
REMARK SMILES IDX 5 25 97 26 2 27 1 28 98 29 99 30 20 31 21 32 22 33 23 34
REMARK SMILES IDX 24 35 25 37 26 38 27 39 91 40 28 41 90 42 29 43 30 44 31 45
REMARK SMILES IDX 84 46 32 47 89 48 83 49 85 50 33 51 88 52 82 53 81 54 34 56
REMARK SMILES IDX 68 57 47 58 67 59 48 60 51 61 66 62 86 63 49 64 50 65 65 67
REMARK SMILES IDX 87 68 52 69 35 70 36 71 45 72 37 73 38 74 44 75 46 76 39 77
REMARK SMILES IDX 40 78 41 79 42 80 43 81 69 82 70 83 79 84 71 85 72 86 78 87
REMARK SMILES IDX 80 88 73 89 74 90 75 91 76 92 77 93 53 94 54 95 63 96 55 97
REMARK SMILES IDX 56 98 62 99 64 100 57 101 58 102 59 103 60 104 61 105
REMARK H PARENT 16 7 7 20 23 36 85 55 51 66
REMARK Flexibility Score: inf
ROOT
ATOM      1  C   UNL     1      -8.253   5.837  -0.379  1.00  0.00     0.002 C 
ENDROOT
BRANCH   1   2
ATOM      2  C   UNL     1      -6.862   5.285  -0.052  1.00  0.00     0.021 C 
BRANCH   2   3
ATOM      3  C   UNL     1      -5.773   5.521  -1.096  1.00  0.00     0.116 C 
BRANCH   3   4
ATOM      4  N   UNL     1      -5.483   6.924  -1.312  1.00  0.00    -0.352 N 
ATOM      5  C   UNL     1      -4.295   7.547  -1.598  1.00  0.00     0.251 C 
ATOM      6  O   UNL     1      -4.267   8.775  -1.656  1.00  0.00    -0.269 OA
ATOM      7  H   UNL     1      -6.261   7.524  -1.243  1.00  0.00     0.163 HD
BRANCH   5   8
ATOM      8  C   UNL     1      -3.036   6.790  -1.825  1.00  0.00     0.041 A 
ATOM      9  C   UNL     1      -0.606   6.721  -1.593  1.00  0.00     0.091 A 
ATOM     10  C   UNL     1      -1.848   7.336  -1.338  1.00  0.00     0.036 A 
ATOM     11  C   UNL     1      -0.537   5.568  -2.402  1.00  0.00    -0.028 A 
ATOM     12  C   UNL     1      -1.754   4.946  -2.777  1.00  0.00    -0.046 A 
ATOM     13  C   UNL     1       0.755   5.005  -2.926  1.00  0.00     0.046 C 
ATOM     14  C   UNL     1      -2.982   5.590  -2.530  1.00  0.00     0.017 A 
ATOM     15  C   UNL     1      -1.824   3.552  -3.352  1.00  0.00     0.044 C 
BRANCH   9  16
ATOM     16  S   UNL     1       0.775   7.431  -0.693  1.00  0.00     0.262 S 
ATOM     17  O   UNL     1       0.239   7.984   0.535  1.00  0.00    -0.201 OA
ATOM     18  O   UNL     1       1.497   8.270  -1.629  1.00  0.00    -0.201 OA
BRANCH  16  19
ATOM     19  N   UNL     1       1.833   6.222  -0.238  1.00  0.00    -0.276 N 
ATOM     20  H   UNL     1       2.795   6.431  -0.261  1.00  0.00     0.180 HD
BRANCH  19  21
ATOM     21  C   UNL     1       1.457   4.910   0.180  1.00  0.00     0.091 A 
ATOM     22  C   UNL     1       0.740   2.231   0.515  1.00  0.00     0.122 A 
ATOM     23  C   UNL     1      -0.147   3.257   0.856  1.00  0.00     0.049 A 
ATOM     24  C   UNL     1       2.035   2.546   0.107  1.00  0.00     0.095 A 
ATOM     25  C   UNL     1       0.219   4.598   0.728  1.00  0.00     0.034 A 
ATOM     26  C   UNL     1       2.404   3.888  -0.037  1.00  0.00     0.146 A 
BRANCH  22  27
ATOM     27  O   UNL     1       0.195   0.978   0.555  1.00  0.00    -0.497 OA
ATOM     28  C   UNL     1       1.085  -0.127   0.628  1.00  0.00     0.278 C 
ENDBRANCH  22  27
BRANCH  26  29
ATOM     29  O   UNL     1       3.630   4.295  -0.517  1.00  0.00    -0.494 OA
ATOM     30  C   UNL     1       4.729   3.460  -0.162  1.00  0.00     0.278 C 
ENDBRANCH  26  29
ENDBRANCH  19  21
ENDBRANCH  16  19
ENDBRANCH   9  16
ENDBRANCH   5   8
ENDBRANCH   3   4
ENDBRANCH   2   3
ENDBRANCH   1   2
BRANCH   1  31
ATOM     31  C   UNL     1      -8.861   5.432  -1.724  1.00  0.00     0.002 C 
BRANCH  31  32
ATOM     32  C   UNL     1      -8.894   3.936  -2.043  1.00  0.00     0.021 C 
BRANCH  32  33
ATOM     33  C   UNL     1      -9.509   3.024  -0.985  1.00  0.00     0.116 C 
BRANCH  33  34
ATOM     34  N   UNL     1     -10.893   3.338  -0.681  1.00  0.00    -0.352 N 
ATOM     35  C   UNL     1     -11.973   2.499  -0.543  1.00  0.00     0.251 C 
ATOM     36  H   UNL     1     -11.087   4.295  -0.556  1.00  0.00     0.163 HD
ATOM     37  O   UNL     1     -13.091   2.977  -0.365  1.00  0.00    -0.269 OA
BRANCH  35  38
ATOM     38  C   UNL     1     -11.810   1.028  -0.645  1.00  0.00     0.039 A 
ATOM     39  C   UNL     1     -12.734   0.308  -1.409  1.00  0.00     0.014 A 
ATOM     40  C   UNL     1     -10.774   0.354   0.009  1.00  0.00     0.014 A 
ATOM     41  C   UNL     1     -12.579  -1.071  -1.578  1.00  0.00     0.010 A 
ATOM     42  C   UNL     1     -10.588  -1.013  -0.205  1.00  0.00     0.010 A 
ATOM     43  C   UNL     1     -11.484  -1.738  -1.007  1.00  0.00    -0.014 A 
BRANCH  43  44
ATOM     44  C   UNL     1     -11.247  -3.183  -1.260  1.00  0.00     0.031 A 
ATOM     45  C   UNL     1     -11.347  -4.183  -0.142  1.00  0.00     0.074 A 
ATOM     46  C   UNL     1     -10.871  -3.588  -2.490  1.00  0.00     0.049 A 
ATOM     47  N   UNL     1     -11.102  -5.468  -0.159  1.00  0.00    -0.248 NA
ATOM     48  C   UNL     1     -11.755  -3.665   1.173  1.00  0.00     0.031 C 
ATOM     49  C   UNL     1     -10.691  -2.713  -3.650  1.00  0.00     0.029 A 
ATOM     50  N   UNL     1     -10.559  -4.837  -2.965  1.00  0.00    -0.354 N 
ATOM     51  C   UNL     1     -11.305  -5.911   1.142  1.00  0.00     0.074 A 
ATOM     52  C   UNL     1     -11.661  -4.749   1.930  1.00  0.00     0.031 C 
ATOM     53  C   UNL     1     -10.311  -3.453  -4.704  1.00  0.00     0.029 A 
ATOM     54  C   UNL     1     -10.193  -4.848  -4.290  1.00  0.00     0.049 A 
ATOM     55  H   UNL     1     -10.594  -5.649  -2.409  1.00  0.00     0.167 HD
ATOM     56  C   UNL     1     -11.218  -7.171   1.633  1.00  0.00     0.037 A 
ATOM     57  C   UNL     1      -9.798  -5.863  -5.082  1.00  0.00     0.037 A 
ATOM     58  C   UNL     1     -10.892  -8.331   0.843  1.00  0.00     0.049 A 
ATOM     59  C   UNL     1      -9.731  -7.256  -4.524  1.00  0.00     0.074 A 
ATOM     60  C   UNL     1     -10.845  -9.657   1.239  1.00  0.00     0.029 A 
ATOM     61  N   UNL     1     -10.557  -8.304  -0.502  1.00  0.00    -0.354 N 
ATOM     62  N   UNL     1      -9.979  -7.664  -3.303  1.00  0.00    -0.248 NA
ATOM     63  C   UNL     1      -9.334  -8.326  -5.449  1.00  0.00     0.031 C 
ATOM     64  C   UNL     1     -10.453 -10.429   0.138  1.00  0.00     0.029 A 
ATOM     65  C   UNL     1     -10.287  -9.587  -0.950  1.00  0.00     0.049 A 
ATOM     66  H   UNL     1     -10.518  -7.492  -1.058  1.00  0.00     0.167 HD
ATOM     67  C   UNL     1      -9.784  -9.040  -3.316  1.00  0.00     0.074 A 
ATOM     68  C   UNL     1      -9.406  -9.396  -4.669  1.00  0.00     0.031 C 
ATOM     69  C   UNL     1      -9.907  -9.927  -2.298  1.00  0.00     0.037 A 
BRANCH  56  70
ATOM     70  C   UNL     1     -11.479  -7.356   3.101  1.00  0.00     0.058 A 
ATOM     71  C   UNL     1     -12.774  -7.265   3.634  1.00  0.00     0.135 A 
ATOM     72  C   UNL     1     -10.423  -7.632   3.984  1.00  0.00     0.135 A 
ATOM     73  F   UNL     1     -13.816  -6.990   2.833  1.00  0.00    -0.206 F 
ATOM     74  C   UNL     1     -13.010  -7.404   4.997  1.00  0.00     0.059 A 
ATOM     75  C   UNL     1     -10.639  -7.796   5.349  1.00  0.00     0.059 A 
ATOM     76  F   UNL     1      -9.165  -7.730   3.526  1.00  0.00    -0.206 F 
ATOM     77  C   UNL     1     -11.934  -7.659   5.849  1.00  0.00     0.060 A 
BRANCH  77  78
ATOM     78  S   UNL     1     -12.246  -7.812   7.621  1.00  0.00     0.124 S 
ATOM     79  O   UNL     1     -12.367  -6.411   8.013  1.00  0.00    -0.237 OA
ATOM     80  O   UNL     1     -13.480  -8.589   7.660  1.00  0.00    -0.237 OA
ATOM     81  O   UNL     1     -11.058  -8.502   8.114  1.00  0.00    -0.744 OA
ENDBRANCH  77  78
ENDBRANCH  56  70
BRANCH  57  82
ATOM     82  C   UNL     1      -9.458  -5.592  -6.502  1.00  0.00     0.058 A 
ATOM     83  C   UNL     1     -10.344  -5.940  -7.531  1.00  0.00     0.135 A 
ATOM     84  C   UNL     1      -8.266  -4.940  -6.852  1.00  0.00     0.135 A 
ATOM     85  F   UNL     1     -11.492  -6.571  -7.242  1.00  0.00    -0.206 F 
ATOM     86  C   UNL     1     -10.062  -5.651  -8.862  1.00  0.00     0.059 A 
ATOM     87  C   UNL     1      -7.970  -4.625  -8.174  1.00  0.00     0.059 A 
ATOM     88  F   UNL     1      -7.394  -4.574  -5.900  1.00  0.00    -0.206 F 
ATOM     89  C   UNL     1      -8.874  -4.988  -9.173  1.00  0.00     0.060 A 
BRANCH  89  90
ATOM     90  S   UNL     1      -8.551  -4.541 -10.893  1.00  0.00     0.124 S 
ATOM     91  O   UNL     1      -8.119  -5.817 -11.451  1.00  0.00    -0.237 OA
ATOM     92  O   UNL     1      -9.855  -4.058 -11.337  1.00  0.00    -0.237 OA
ATOM     93  O   UNL     1      -7.518  -3.515 -10.782  1.00  0.00    -0.744 OA
ENDBRANCH  89  90
ENDBRANCH  57  82
BRANCH  69  94
ATOM     94  C   UNL     1      -9.642 -11.372  -2.610  1.00  0.00     0.058 A 
ATOM     95  C   UNL     1      -8.335 -11.860  -2.761  1.00  0.00     0.135 A 
ATOM     96  C   UNL     1     -10.703 -12.285  -2.717  1.00  0.00     0.135 A 
ATOM     97  F   UNL     1      -7.288 -11.024  -2.676  1.00  0.00    -0.206 F 
ATOM     98  C   UNL     1      -8.088 -13.203  -3.025  1.00  0.00     0.059 A 
ATOM     99  C   UNL     1     -10.478 -13.636  -2.962  1.00  0.00     0.059 A 
ATOM    100  F   UNL     1     -11.970 -11.868  -2.574  1.00  0.00    -0.206 F 
ATOM    101  C   UNL     1      -9.167 -14.084  -3.125  1.00  0.00     0.060 A 
BRANCH 101 102
ATOM    102  S   UNL     1      -8.837 -15.832  -3.434  1.00  0.00     0.124 S 
ATOM    103  O   UNL     1      -8.573 -15.831  -4.869  1.00  0.00    -0.237 OA
ATOM    104  O   UNL     1      -7.684 -16.093  -2.577  1.00  0.00    -0.237 OA
ATOM    105  O   UNL     1     -10.075 -16.487  -3.022  1.00  0.00    -0.744 OA
ENDBRANCH 101 102
ENDBRANCH  69  94
ENDBRANCH  43  44
ENDBRANCH  35  38
ENDBRANCH  33  34
ENDBRANCH  32  33
ENDBRANCH  31  32
ENDBRANCH   1  31
TORSDOF 21
