REMARK SMILES CC(C)(C)OC(=O)N[C@@H](Cc1c[nH]c2cccc(Cl)c12)C(=O)NCCCCCCNC(=O)c1ccc(-c2c3nc(c(-c4c(F)cc(S(=O)(=O)[O-])cc4F)c4ccc([nH]4)c(-c4c(F)cc(S(=O)(=O)[O-])cc4F)c4nc(c(-c5c(F)cc(S(=O)(=O)[O-])cc5F)c5ccc2[nH]5)C=C4)C=C3)cc1
REMARK SMILES IDX 26 1 25 2 24 3 23 4 21 5 22 6 9 8 8 9 6 10 7 11 5 13 2 14
REMARK SMILES IDX 1 15 3 16 4 17 10 18 11 19 12 20 20 21 13 22 14 23 18 24
REMARK SMILES IDX 15 26 17 27 19 28 16 29 27 30 28 31 29 32 30 33 31 34 32 36
REMARK SMILES IDX 33 37 34 38 98 39 35 40 97 41 36 42 37 43 38 44 91 45 39 46
REMARK SMILES IDX 96 47 90 48 92 49 40 50 95 51 89 52 88 53 41 55 75 56 54 57
REMARK SMILES IDX 74 58 55 59 58 60 73 61 93 62 56 63 57 64 72 66 94 67 59 68
REMARK SMILES IDX 42 69 43 70 52 71 44 72 45 73 51 74 53 75 46 76 47 77 48 78
REMARK SMILES IDX 49 79 50 80 76 81 77 82 86 83 78 84 79 85 85 86 87 87 80 88
REMARK SMILES IDX 81 89 82 90 83 91 84 92 60 93 61 94 70 95 62 96 63 97 69 98
REMARK SMILES IDX 71 99 64 100 65 101 66 102 67 103 68 104
REMARK H PARENT 23 7 8 12 13 25 30 35 92 54 58 65
REMARK Flexibility Score: inf
ROOT
ATOM      1  C   UNL     1      -1.042   9.255  -2.238  1.00  0.00     0.002 C 
ENDROOT
BRANCH   1   2
ATOM      2  C   UNL     1      -0.645   7.867  -2.746  1.00  0.00     0.021 C 
BRANCH   2   3
ATOM      3  C   UNL     1       0.653   7.330  -2.166  1.00  0.00     0.116 C 
BRANCH   3   4
ATOM      4  N   UNL     1       0.553   6.783  -0.831  1.00  0.00    -0.354 N 
ATOM      5  C   UNL     1       1.270   5.772  -0.249  1.00  0.00     0.243 C 
ATOM      6  O   UNL     1       1.296   5.754   0.988  1.00  0.00    -0.273 OA
ATOM      7  H   UNL     1      -0.130   7.198  -0.257  1.00  0.00     0.163 HD
BRANCH   5   8
ATOM      8  C   UNL     1       2.096   4.738  -1.056  1.00  0.00     0.179 C 
BRANCH   8   9
ATOM      9  N   UNL     1       1.355   4.193  -2.193  1.00  0.00    -0.309 N 
ATOM     10  C   UNL     1       0.715   2.996  -2.287  1.00  0.00     0.408 C 
ATOM     11  O   UNL     1       0.010   2.763  -3.254  1.00  0.00    -0.225 OA
ATOM     12  H   UNL     1       1.315   4.765  -2.993  1.00  0.00     0.167 HD
BRANCH  10  13
ATOM     13  O   UNL     1       0.991   2.142  -1.273  1.00  0.00    -0.444 OA
BRANCH  13  14
ATOM     14  C   UNL     1       0.491   0.778  -1.331  1.00  0.00     0.106 C 
ATOM     15  C   UNL     1       1.057   0.083  -0.083  1.00  0.00     0.056 C 
ATOM     16  C   UNL     1       1.024   0.041  -2.568  1.00  0.00     0.056 C 
ATOM     17  C   UNL     1      -1.040   0.736  -1.255  1.00  0.00     0.056 C 
ENDBRANCH  13  14
ENDBRANCH  10  13
ENDBRANCH   8   9
BRANCH   8  18
ATOM     18  C   UNL     1       3.537   5.166  -1.411  1.00  0.00     0.073 C 
BRANCH  18  19
ATOM     19  C   UNL     1       3.710   6.362  -2.309  1.00  0.00    -0.019 A 
ATOM     20  C   UNL     1       3.640   6.314  -3.691  1.00  0.00     0.087 A 
ATOM     21  C   UNL     1       3.954   7.746  -1.953  1.00  0.00     0.021 A 
ATOM     22  N   UNL     1       3.767   7.582  -4.184  1.00  0.00    -0.361 N 
ATOM     23  C   UNL     1       3.937   8.475  -3.153  1.00  0.00     0.047 A 
ATOM     24  C   UNL     1       4.118   8.506  -0.768  1.00  0.00     0.050 A 
ATOM     25  H   UNL     1       3.740   7.821  -5.138  1.00  0.00     0.166 HD
ATOM     26  C   UNL     1       4.038   9.875  -3.204  1.00  0.00     0.027 A 
ATOM     27  C   UNL     1       4.194   9.902  -0.792  1.00  0.00     0.021 A 
ATOM     28  Cl  UNL     1       4.195   7.684   0.727  1.00  0.00    -0.084 Cl
ATOM     29  C   UNL     1       4.140  10.579  -2.003  1.00  0.00     0.004 A 
ENDBRANCH  18  19
ENDBRANCH   8  18
ENDBRANCH   5   8
ENDBRANCH   3   4
ENDBRANCH   2   3
ENDBRANCH   1   2
BRANCH   1  30
ATOM     30  C   UNL     1       0.025  10.361  -2.332  1.00  0.00     0.002 C 
BRANCH  30  31
ATOM     31  C   UNL     1       0.725  10.548  -3.685  1.00  0.00     0.021 C 
BRANCH  31  32
ATOM     32  C   UNL     1      -0.201  10.877  -4.840  1.00  0.00     0.116 C 
BRANCH  32  33
ATOM     33  N   UNL     1      -0.881  12.150  -4.663  1.00  0.00    -0.352 N 
ATOM     34  C   UNL     1      -1.763  12.770  -5.521  1.00  0.00     0.251 C 
ATOM     35  H   UNL     1      -0.688  12.629  -3.825  1.00  0.00     0.163 HD
ATOM     36  O   UNL     1      -1.949  13.980  -5.433  1.00  0.00    -0.269 OA
BRANCH  34  37
ATOM     37  C   UNL     1      -2.469  11.971  -6.544  1.00  0.00     0.039 A 
ATOM     38  C   UNL     1      -2.769  12.524  -7.790  1.00  0.00     0.014 A 
ATOM     39  C   UNL     1      -2.861  10.665  -6.244  1.00  0.00     0.014 A 
ATOM     40  C   UNL     1      -3.411  11.733  -8.738  1.00  0.00     0.010 A 
ATOM     41  C   UNL     1      -3.365   9.840  -7.222  1.00  0.00     0.010 A 
ATOM     42  C   UNL     1      -3.689  10.382  -8.455  1.00  0.00    -0.014 A 
BRANCH  42  43
ATOM     43  C   UNL     1      -4.208   9.503  -9.497  1.00  0.00     0.031 A 
ATOM     44  C   UNL     1      -3.381   9.514 -10.728  1.00  0.00     0.074 A 
ATOM     45  C   UNL     1      -5.256   8.663  -9.353  1.00  0.00     0.049 A 
ATOM     46  N   UNL     1      -3.604  10.210 -11.791  1.00  0.00    -0.248 NA
ATOM     47  C   UNL     1      -2.064   8.862 -10.714  1.00  0.00     0.031 C 
ATOM     48  C   UNL     1      -6.004   8.336  -8.133  1.00  0.00     0.029 A 
ATOM     49  N   UNL     1      -5.854   7.872 -10.291  1.00  0.00    -0.354 N 
ATOM     50  C   UNL     1      -2.605   9.860 -12.690  1.00  0.00     0.074 A 
ATOM     51  C   UNL     1      -1.581   9.220 -11.908  1.00  0.00     0.031 C 
ATOM     52  C   UNL     1      -6.819   7.279  -8.362  1.00  0.00     0.029 A 
ATOM     53  C   UNL     1      -6.789   6.973  -9.781  1.00  0.00     0.049 A 
ATOM     54  H   UNL     1      -5.642   7.931 -11.250  1.00  0.00     0.167 HD
ATOM     55  C   UNL     1      -2.864   9.869 -14.028  1.00  0.00     0.037 A 
ATOM     56  C   UNL     1      -7.536   6.086 -10.486  1.00  0.00     0.037 A 
ATOM     57  C   UNL     1      -4.122  10.532 -14.285  1.00  0.00     0.049 A 
ATOM     58  C   UNL     1      -7.658   6.639 -11.855  1.00  0.00     0.074 A 
ATOM     59  C   UNL     1      -4.602  11.822 -14.239  1.00  0.00     0.029 A 
ATOM     60  N   UNL     1      -5.207   9.691 -14.248  1.00  0.00    -0.354 N 
ATOM     61  N   UNL     1      -8.295   7.745 -12.128  1.00  0.00    -0.248 NA
ATOM     62  C   UNL     1      -6.759   6.161 -12.897  1.00  0.00     0.031 C 
ATOM     63  C   UNL     1      -5.991  11.713 -13.928  1.00  0.00     0.029 A 
ATOM     64  C   UNL     1      -6.330  10.362 -13.846  1.00  0.00     0.049 A 
ATOM     65  H   UNL     1      -5.180   8.735 -14.480  1.00  0.00     0.167 HD
ATOM     66  C   UNL     1      -7.567   8.317 -13.153  1.00  0.00     0.074 A 
ATOM     67  C   UNL     1      -6.753   7.233 -13.693  1.00  0.00     0.031 C 
ATOM     68  C   UNL     1      -7.465   9.672 -13.266  1.00  0.00     0.037 A 
BRANCH  55  69
ATOM     69  C   UNL     1      -2.299   8.887 -15.037  1.00  0.00     0.058 A 
ATOM     70  C   UNL     1      -2.639   9.046 -16.400  1.00  0.00     0.135 A 
ATOM     71  C   UNL     1      -1.717   7.644 -14.703  1.00  0.00     0.135 A 
ATOM     72  F   UNL     1      -3.192  10.188 -16.839  1.00  0.00    -0.206 F 
ATOM     73  C   UNL     1      -2.496   8.020 -17.335  1.00  0.00     0.059 A 
ATOM     74  C   UNL     1      -1.523   6.625 -15.630  1.00  0.00     0.059 A 
ATOM     75  F   UNL     1      -1.393   7.315 -13.449  1.00  0.00    -0.206 F 
ATOM     76  C   UNL     1      -1.951   6.805 -16.934  1.00  0.00     0.060 A 
BRANCH  76  77
ATOM     77  S   UNL     1      -1.850   5.447 -18.112  1.00  0.00     0.124 S 
ATOM     78  O   UNL     1      -3.260   5.154 -18.343  1.00  0.00    -0.237 OA
ATOM     79  O   UNL     1      -1.133   6.067 -19.222  1.00  0.00    -0.237 OA
ATOM     80  O   UNL     1      -1.103   4.427 -17.383  1.00  0.00    -0.744 OA
ENDBRANCH  76  77
ENDBRANCH  55  69
BRANCH  56  81
ATOM     81  C   UNL     1      -7.917   4.685 -10.166  1.00  0.00     0.058 A 
ATOM     82  C   UNL     1      -8.866   3.996 -10.947  1.00  0.00     0.135 A 
ATOM     83  C   UNL     1      -7.120   3.894  -9.317  1.00  0.00     0.135 A 
ATOM     84  F   UNL     1      -9.667   4.670 -11.786  1.00  0.00    -0.206 F 
ATOM     85  C   UNL     1      -8.961   2.600 -10.951  1.00  0.00     0.059 A 
ATOM     86  C   UNL     1      -7.199   2.499  -9.303  1.00  0.00     0.059 A 
ATOM     87  F   UNL     1      -6.171   4.454  -8.552  1.00  0.00    -0.206 F 
ATOM     88  C   UNL     1      -8.098   1.857 -10.148  1.00  0.00     0.060 A 
BRANCH  88  89
ATOM     89  S   UNL     1      -8.081   0.052 -10.305  1.00  0.00     0.124 S 
ATOM     90  O   UNL     1      -9.392  -0.311  -9.778  1.00  0.00    -0.237 OA
ATOM     91  O   UNL     1      -7.900  -0.129 -11.741  1.00  0.00    -0.237 OA
ATOM     92  O   UNL     1      -6.944  -0.349  -9.481  1.00  0.00    -0.744 OA
ENDBRANCH  88  89
ENDBRANCH  56  81
BRANCH  68  93
ATOM     93  C   UNL     1      -8.539  10.507 -12.629  1.00  0.00     0.058 A 
ATOM     94  C   UNL     1      -8.745  10.654 -11.247  1.00  0.00     0.135 A 
ATOM     95  C   UNL     1      -9.342  11.277 -13.485  1.00  0.00     0.135 A 
ATOM     96  F   UNL     1      -7.973  10.009 -10.362  1.00  0.00    -0.206 F 
ATOM     97  C   UNL     1      -9.725  11.513 -10.742  1.00  0.00     0.059 A 
ATOM     98  C   UNL     1     -10.302  12.160 -13.004  1.00  0.00     0.059 A 
ATOM     99  F   UNL     1      -9.164  11.210 -14.815  1.00  0.00    -0.206 F 
ATOM    100  C   UNL     1     -10.495  12.266 -11.629  1.00  0.00     0.060 A 
BRANCH 100 101
ATOM    101  S   UNL     1     -11.711  13.432 -10.977  1.00  0.00     0.124 S 
ATOM    102  O   UNL     1     -12.716  12.542 -10.406  1.00  0.00    -0.237 OA
ATOM    103  O   UNL     1     -10.926  14.202 -10.017  1.00  0.00    -0.237 OA
ATOM    104  O   UNL     1     -12.139  14.177 -12.159  1.00  0.00    -0.744 OA
ENDBRANCH 100 101
ENDBRANCH  68  93
ENDBRANCH  42  43
ENDBRANCH  34  37
ENDBRANCH  32  33
ENDBRANCH  31  32
ENDBRANCH  30  31
ENDBRANCH   1  30
TORSDOF 21
