REMARK SMILES CN(c1ccc(C(N)=O)nn1)[C@H]1COC[C@@H]1C(=O)NCCCCCCNC(=O)c1ccc(-c2c3nc(c(-c4c(F)cc(S(=O)(=O)[O-])cc4F)c4ccc([nH]4)c(-c4c(F)cc(S(=O)(=O)[O-])cc4F)c4nc(c(-c5c(F)cc(S(=O)(=O)[O-])cc5F)c5ccc2[nH]5)C=C4)C=C3)cc1
REMARK SMILES IDX 22 1 21 2 20 3 19 4 17 5 18 6 16 8 12 9 13 10 14 11 15 12
REMARK SMILES IDX 2 13 1 14 3 15 4 16 11 17 5 18 10 19 6 20 7 21 8 22 9 23
REMARK SMILES IDX 23 26 24 27 25 28 26 29 27 30 28 32 29 33 30 34 94 35 31 36
REMARK SMILES IDX 93 37 32 38 33 39 34 40 87 41 35 42 92 43 86 44 88 45 36 46
REMARK SMILES IDX 91 47 85 48 84 49 37 51 71 52 50 53 70 54 51 55 54 56 69 57
REMARK SMILES IDX 89 58 52 59 53 60 68 62 90 63 55 64 38 65 39 66 48 67 40 68
REMARK SMILES IDX 41 69 47 70 49 71 42 72 43 73 44 74 45 75 46 76 72 77 73 78
REMARK SMILES IDX 82 79 74 80 75 81 81 82 83 83 76 84 77 85 78 86 79 87 80 88
REMARK SMILES IDX 56 89 57 90 66 91 58 92 59 93 65 94 67 95 60 96 61 97 62 98
REMARK SMILES IDX 63 99 64 100
REMARK H PARENT 19 7 8 24 8 25 26 31 88 50 54 61
REMARK Flexibility Score: inf
ROOT
ATOM      1  C   UNL     1       6.209   0.430   0.246  1.00  0.00     0.002 C 
ENDROOT
BRANCH   1   2
ATOM      2  C   UNL     1       5.252   0.519  -0.953  1.00  0.00     0.021 C 
BRANCH   2   3
ATOM      3  C   UNL     1       5.032  -0.815  -1.670  1.00  0.00     0.116 C 
BRANCH   3   4
ATOM      4  N   UNL     1       4.352  -1.747  -0.789  1.00  0.00    -0.356 N 
ATOM      5  C   UNL     1       3.050  -2.150  -0.791  1.00  0.00     0.227 C 
ATOM      6  O   UNL     1       2.615  -2.689   0.226  1.00  0.00    -0.275 OA
ATOM      7  H   UNL     1       4.914  -2.147  -0.087  1.00  0.00     0.163 HD
BRANCH   5   8
ATOM      8  C   UNL     1       2.222  -1.977  -2.052  1.00  0.00     0.129 C 
ATOM      9  C   UNL     1       0.730  -2.018  -1.756  1.00  0.00     0.124 C 
ATOM     10  C   UNL     1       0.441  -3.518  -1.766  1.00  0.00     0.186 C 
ATOM     11  O   UNL     1       1.406  -4.151  -2.627  1.00  0.00    -0.378 OA
ATOM     12  C   UNL     1       2.437  -3.199  -2.929  1.00  0.00     0.176 C 
BRANCH   9  13
ATOM     13  N   UNL     1      -0.007  -1.167  -2.735  1.00  0.00    -0.352 N 
ATOM     14  C   UNL     1      -0.257   0.215  -2.347  1.00  0.00     0.145 C 
BRANCH  13  15
ATOM     15  C   UNL     1      -0.297  -1.579  -4.021  1.00  0.00     0.151 A 
ATOM     16  C   UNL     1      -0.110  -0.751  -5.128  1.00  0.00     0.051 A 
ATOM     17  N   UNL     1      -0.801  -2.813  -4.229  1.00  0.00    -0.132 NA
ATOM     18  C   UNL     1      -0.444  -1.192  -6.412  1.00  0.00     0.040 A 
ATOM     19  N   UNL     1      -1.145  -3.268  -5.483  1.00  0.00    -0.143 NA
ATOM     20  C   UNL     1      -0.967  -2.461  -6.546  1.00  0.00     0.150 A 
BRANCH  20  21
ATOM     21  C   UNL     1      -1.379  -3.009  -7.866  1.00  0.00     0.269 C 
ATOM     22  N   UNL     1      -1.853  -4.294  -7.860  1.00  0.00    -0.364 N 
ATOM     23  O   UNL     1      -1.310  -2.353  -8.900  1.00  0.00    -0.268 OA
ATOM     24  H   UNL     1      -1.898  -4.798  -7.015  1.00  0.00     0.160 HD
ATOM     25  H   UNL     1      -2.149  -4.714  -8.700  1.00  0.00     0.160 HD
ENDBRANCH  20  21
ENDBRANCH  13  15
ENDBRANCH   9  13
ENDBRANCH   5   8
ENDBRANCH   3   4
ENDBRANCH   2   3
ENDBRANCH   1   2
BRANCH   1  26
ATOM     26  C   UNL     1       7.605  -0.111  -0.081  1.00  0.00     0.002 C 
BRANCH  26  27
ATOM     27  C   UNL     1       8.347   0.650  -1.181  1.00  0.00     0.021 C 
BRANCH  27  28
ATOM     28  C   UNL     1       8.575   2.127  -0.878  1.00  0.00     0.116 C 
BRANCH  28  29
ATOM     29  N   UNL     1       9.455   2.321   0.263  1.00  0.00    -0.352 N 
ATOM     30  C   UNL     1      10.603   3.071   0.350  1.00  0.00     0.251 C 
ATOM     31  H   UNL     1       9.193   1.850   1.087  1.00  0.00     0.163 HD
ATOM     32  O   UNL     1      11.334   2.968   1.330  1.00  0.00    -0.269 OA
BRANCH  30  33
ATOM     33  C   UNL     1      10.959   3.986  -0.755  1.00  0.00     0.039 A 
ATOM     34  C   UNL     1      12.271   4.000  -1.233  1.00  0.00     0.014 A 
ATOM     35  C   UNL     1       9.992   4.818  -1.327  1.00  0.00     0.014 A 
ATOM     36  C   UNL     1      12.599   4.806  -2.326  1.00  0.00     0.010 A 
ATOM     37  C   UNL     1      10.301   5.557  -2.464  1.00  0.00     0.010 A 
ATOM     38  C   UNL     1      11.609   5.565  -2.972  1.00  0.00    -0.014 A 
BRANCH  38  39
ATOM     39  C   UNL     1      11.917   6.385  -4.172  1.00  0.00     0.031 A 
ATOM     40  C   UNL     1      11.744   7.880  -4.123  1.00  0.00     0.074 A 
ATOM     41  C   UNL     1      12.285   5.784  -5.321  1.00  0.00     0.049 A 
ATOM     42  N   UNL     1      11.869   8.759  -5.083  1.00  0.00    -0.248 NA
ATOM     43  C   UNL     1      11.349   8.458  -2.828  1.00  0.00     0.031 C 
ATOM     44  C   UNL     1      12.456   4.341  -5.505  1.00  0.00     0.029 A 
ATOM     45  N   UNL     1      12.573   6.310  -6.556  1.00  0.00    -0.354 N 
ATOM     46  C   UNL     1      11.559   9.989  -4.514  1.00  0.00     0.074 A 
ATOM     47  C   UNL     1      11.177   9.734  -3.142  1.00  0.00     0.031 C 
ATOM     48  C   UNL     1      12.843   4.101  -6.768  1.00  0.00     0.029 A 
ATOM     49  C   UNL     1      12.903   5.364  -7.497  1.00  0.00     0.049 A 
ATOM     50  H   UNL     1      12.546   7.275  -6.749  1.00  0.00     0.167 HD
ATOM     51  C   UNL     1      11.614  11.221  -5.074  1.00  0.00     0.037 A 
ATOM     52  C   UNL     1      13.209   5.497  -8.803  1.00  0.00     0.037 A 
ATOM     53  C   UNL     1      12.010  11.467  -6.436  1.00  0.00     0.049 A 
ATOM     54  C   UNL     1      13.231   6.873  -9.413  1.00  0.00     0.074 A 
ATOM     55  C   UNL     1      12.136  12.681  -7.089  1.00  0.00     0.029 A 
ATOM     56  N   UNL     1      12.342  10.482  -7.356  1.00  0.00    -0.354 N 
ATOM     57  N   UNL     1      12.982   8.031  -8.848  1.00  0.00    -0.248 NA
ATOM     58  C   UNL     1      13.579   6.964 -10.838  1.00  0.00     0.031 C 
ATOM     59  C   UNL     1      12.493  12.427  -8.417  1.00  0.00     0.029 A 
ATOM     60  C   UNL     1      12.651  11.060  -8.577  1.00  0.00     0.049 A 
ATOM     61  H   UNL     1      12.356   9.516  -7.168  1.00  0.00     0.167 HD
ATOM     62  C   UNL     1      13.182   8.989  -9.836  1.00  0.00     0.074 A 
ATOM     63  C   UNL     1      13.576   8.275 -11.034  1.00  0.00     0.031 C 
ATOM     64  C   UNL     1      13.056  10.337  -9.758  1.00  0.00     0.037 A 
BRANCH  51  65
ATOM     65  C   UNL     1      11.234  12.395  -4.211  1.00  0.00     0.058 A 
ATOM     66  C   UNL     1      12.025  12.797  -3.121  1.00  0.00     0.135 A 
ATOM     67  C   UNL     1      10.077  13.142  -4.487  1.00  0.00     0.135 A 
ATOM     68  F   UNL     1      13.135  12.112  -2.801  1.00  0.00    -0.206 F 
ATOM     69  C   UNL     1      11.662  13.869  -2.313  1.00  0.00     0.059 A 
ATOM     70  C   UNL     1       9.713  14.239  -3.712  1.00  0.00     0.059 A 
ATOM     71  F   UNL     1       9.284  12.805  -5.516  1.00  0.00    -0.206 F 
ATOM     72  C   UNL     1      10.502  14.583  -2.616  1.00  0.00     0.060 A 
BRANCH  72  73
ATOM     73  S   UNL     1      10.040  15.965  -1.550  1.00  0.00     0.124 S 
ATOM     74  O   UNL     1       9.608  15.267  -0.342  1.00  0.00    -0.237 OA
ATOM     75  O   UNL     1      11.292  16.706  -1.440  1.00  0.00    -0.237 OA
ATOM     76  O   UNL     1       8.981  16.634  -2.299  1.00  0.00    -0.744 OA
ENDBRANCH  72  73
ENDBRANCH  51  65
BRANCH  52  77
ATOM     77  C   UNL     1      13.546   4.297  -9.616  1.00  0.00     0.058 A 
ATOM     78  C   UNL     1      14.853   4.087 -10.081  1.00  0.00     0.135 A 
ATOM     79  C   UNL     1      12.577   3.332  -9.935  1.00  0.00     0.135 A 
ATOM     80  F   UNL     1      15.813   4.984  -9.809  1.00  0.00    -0.206 F 
ATOM     81  C   UNL     1      15.185   2.975 -10.847  1.00  0.00     0.059 A 
ATOM     82  C   UNL     1      12.891   2.197 -10.675  1.00  0.00     0.059 A 
ATOM     83  F   UNL     1      11.315   3.476  -9.501  1.00  0.00    -0.206 F 
ATOM     84  C   UNL     1      14.197   2.032 -11.136  1.00  0.00     0.060 A 
BRANCH  84  85
ATOM     85  S   UNL     1      14.652   0.568 -12.091  1.00  0.00     0.124 S 
ATOM     86  O   UNL     1      14.864   1.136 -13.417  1.00  0.00    -0.237 OA
ATOM     87  O   UNL     1      15.849   0.110 -11.392  1.00  0.00    -0.237 OA
ATOM     88  O   UNL     1      13.484  -0.297 -11.953  1.00  0.00    -0.744 OA
ENDBRANCH  84  85
ENDBRANCH  52  77
BRANCH  64  89
ATOM     89  C   UNL     1      13.396  11.142 -10.983  1.00  0.00     0.058 A 
ATOM     90  C   UNL     1      12.572  11.154 -12.118  1.00  0.00     0.135 A 
ATOM     91  C   UNL     1      14.535  11.966 -10.992  1.00  0.00     0.135 A 
ATOM     92  F   UNL     1      11.475  10.380 -12.165  1.00  0.00    -0.206 F 
ATOM     93  C   UNL     1      12.873  11.938 -13.227  1.00  0.00     0.059 A 
ATOM     94  C   UNL     1      14.839  12.781 -12.077  1.00  0.00     0.059 A 
ATOM     95  F   UNL     1      15.354  12.000  -9.929  1.00  0.00    -0.206 F 
ATOM     96  C   UNL     1      14.007  12.753 -13.195  1.00  0.00     0.060 A 
BRANCH  96  97
ATOM     97  S   UNL     1      14.360  13.800 -14.622  1.00  0.00     0.124 S 
ATOM     98  O   UNL     1      14.799  12.818 -15.607  1.00  0.00    -0.237 OA
ATOM     99  O   UNL     1      13.064  14.422 -14.880  1.00  0.00    -0.237 OA
ATOM    100  O   UNL     1      15.396  14.705 -14.133  1.00  0.00    -0.744 OA
ENDBRANCH  96  97
ENDBRANCH  64  89
ENDBRANCH  38  39
ENDBRANCH  30  33
ENDBRANCH  28  29
ENDBRANCH  27  28
ENDBRANCH  26  27
ENDBRANCH   1  26
TORSDOF 19
