REMARK SMILES COc1ccc2cc([C@@H](C)C(=O)NCCCCCCNC(=O)c3ccc(-c4c5nc(c(-c6c(F)cc(S(=O)(=O)[O-])cc6F)c6ccc([nH]6)c(-c6c(F)cc(S(=O)(=O)[O-])cc6F)c6nc(c(-c7c(F)cc(S(=O)(=O)[O-])cc7F)c7ccc4[nH]7)C=C6)C=C5)cc3)ccc2c1
REMARK SMILES IDX 17 1 16 2 15 3 14 4 13 5 11 6 12 7 9 9 10 10 8 11 3 12 4 13
REMARK SMILES IDX 92 14 5 15 91 16 6 17 90 18 7 19 89 20 2 21 1 22 18 23 19 24
REMARK SMILES IDX 20 25 21 26 22 28 23 29 24 30 88 31 25 32 87 33 26 34 27 35
REMARK SMILES IDX 28 36 81 37 29 38 86 39 80 40 82 41 30 42 85 43 79 44 78 45
REMARK SMILES IDX 31 47 65 48 44 49 64 50 45 51 48 52 63 53 83 54 46 55 47 56
REMARK SMILES IDX 62 58 84 59 49 60 32 61 33 62 42 63 34 64 35 65 41 66 43 67
REMARK SMILES IDX 36 68 37 69 38 70 39 71 40 72 66 73 67 74 76 75 68 76 69 77
REMARK SMILES IDX 75 78 77 79 70 80 71 81 72 82 73 83 74 84 50 85 51 86 60 87
REMARK SMILES IDX 52 88 53 89 59 90 61 91 54 92 55 93 56 94 57 95 58 96
REMARK H PARENT 13 8 20 27 82 46 48 57
REMARK Flexibility Score: inf
ROOT
ATOM      1  C   UNL     1       6.774   6.648   3.558  1.00  0.00     0.002 C 
ENDROOT
BRANCH   1   2
ATOM      2  C   UNL     1       5.433   6.905   2.859  1.00  0.00     0.002 C 
BRANCH   2   3
ATOM      3  C   UNL     1       4.229   6.199   3.489  1.00  0.00     0.021 C 
BRANCH   3   4
ATOM      4  C   UNL     1       3.892   6.687   4.901  1.00  0.00     0.116 C 
BRANCH   4   5
ATOM      5  N   UNL     1       2.932   7.773   4.873  1.00  0.00    -0.356 N 
ATOM      6  C   UNL     1       1.588   7.807   5.081  1.00  0.00     0.227 C 
ATOM      7  O   UNL     1       1.033   8.896   4.881  1.00  0.00    -0.274 OA
ATOM      8  H   UNL     1       3.327   8.650   4.665  1.00  0.00     0.163 HD
BRANCH   6   9
ATOM      9  C   UNL     1       0.756   6.605   5.556  1.00  0.00     0.105 C 
ATOM     10  C   UNL     1       1.206   6.016   6.893  1.00  0.00     0.023 C 
BRANCH   9  11
ATOM     11  C   UNL     1       0.454   5.594   4.460  1.00  0.00    -0.035 A 
ATOM     12  C   UNL     1       0.647   2.028   0.834  1.00  0.00     0.119 A 
ATOM     13  C   UNL     1       1.867   1.978   1.503  1.00  0.00     0.047 A 
ATOM     14  C   UNL     1      -0.315   2.968   1.215  1.00  0.00     0.055 A 
ATOM     15  C   UNL     1       2.096   2.814   2.595  1.00  0.00     0.012 A 
ATOM     16  C   UNL     1      -0.087   3.836   2.296  1.00  0.00    -0.015 A 
ATOM     17  C   UNL     1       1.123   3.736   3.009  1.00  0.00    -0.018 A 
ATOM     18  C   UNL     1      -1.023   4.806   2.686  1.00  0.00     0.009 A 
ATOM     19  C   UNL     1       1.349   4.576   4.109  1.00  0.00     0.013 A 
ATOM     20  C   UNL     1      -0.744   5.688   3.737  1.00  0.00     0.005 A 
BRANCH  12  21
ATOM     21  O   UNL     1       0.312   1.227  -0.224  1.00  0.00    -0.497 OA
ATOM     22  C   UNL     1       0.881  -0.080  -0.180  1.00  0.00     0.278 C 
ENDBRANCH  12  21
ENDBRANCH   9  11
ENDBRANCH   6   9
ENDBRANCH   4   5
ENDBRANCH   3   4
ENDBRANCH   2   3
ENDBRANCH   1   2
BRANCH   1  23
ATOM     23  C   UNL     1       7.166   5.175   3.719  1.00  0.00     0.021 C 
BRANCH  23  24
ATOM     24  C   UNL     1       7.277   4.392   2.413  1.00  0.00     0.116 C 
BRANCH  24  25
ATOM     25  N   UNL     1       8.317   4.928   1.549  1.00  0.00    -0.352 N 
ATOM     26  C   UNL     1       9.460   4.332   1.077  1.00  0.00     0.251 C 
ATOM     27  H   UNL     1       8.182   5.860   1.260  1.00  0.00     0.163 HD
ATOM     28  O   UNL     1      10.336   5.018   0.560  1.00  0.00    -0.269 OA
BRANCH  26  29
ATOM     29  C   UNL     1       9.641   2.868   1.197  1.00  0.00     0.039 A 
ATOM     30  C   UNL     1      10.885   2.370   1.596  1.00  0.00     0.014 A 
ATOM     31  C   UNL     1       8.602   1.986   0.885  1.00  0.00     0.014 A 
ATOM     32  C   UNL     1      11.068   0.992   1.734  1.00  0.00     0.010 A 
ATOM     33  C   UNL     1       8.767   0.617   1.085  1.00  0.00     0.010 A 
ATOM     34  C   UNL     1      10.002   0.105   1.509  1.00  0.00    -0.014 A 
BRANCH  34  35
ATOM     35  C   UNL     1      10.164  -1.357   1.721  1.00  0.00     0.031 A 
ATOM     36  C   UNL     1      10.047  -2.312   0.563  1.00  0.00     0.074 A 
ATOM     37  C   UNL     1      10.358  -1.829   2.969  1.00  0.00     0.049 A 
ATOM     38  N   UNL     1      10.102  -3.619   0.563  1.00  0.00    -0.248 NA
ATOM     39  C   UNL     1       9.813  -1.723  -0.765  1.00  0.00     0.031 C 
ATOM     40  C   UNL     1      10.437  -1.008   4.180  1.00  0.00     0.029 A 
ATOM     41  N   UNL     1      10.514  -3.112   3.430  1.00  0.00    -0.354 N 
ATOM     42  C   UNL     1       9.898  -4.009  -0.755  1.00  0.00     0.074 A 
ATOM     43  C   UNL     1       9.670  -2.803  -1.521  1.00  0.00     0.031 C 
ATOM     44  C   UNL     1      10.646  -1.805   5.240  1.00  0.00     0.029 A 
ATOM     45  C   UNL     1      10.682  -3.193   4.793  1.00  0.00     0.049 A 
ATOM     46  H   UNL     1      10.507  -3.900   2.841  1.00  0.00     0.167 HD
ATOM     47  C   UNL     1       9.922  -5.257  -1.283  1.00  0.00     0.037 A 
ATOM     48  C   UNL     1      10.841  -4.266   5.593  1.00  0.00     0.037 A 
ATOM     49  C   UNL     1      10.182  -6.451  -0.521  1.00  0.00     0.049 A 
ATOM     50  C   UNL     1      10.876  -5.639   4.980  1.00  0.00     0.074 A 
ATOM     51  C   UNL     1      10.290  -7.754  -0.975  1.00  0.00     0.029 A 
ATOM     52  N   UNL     1      10.376  -6.489   0.852  1.00  0.00    -0.354 N 
ATOM     53  N   UNL     1      10.747  -5.982   3.720  1.00  0.00    -0.248 NA
ATOM     54  C   UNL     1      11.084  -6.771   5.894  1.00  0.00     0.031 C 
ATOM     55  C   UNL     1      10.509  -8.585   0.128  1.00  0.00     0.029 A 
ATOM     56  C   UNL     1      10.584  -7.795   1.264  1.00  0.00     0.049 A 
ATOM     57  H   UNL     1      10.367  -5.704   1.446  1.00  0.00     0.167 HD
ATOM     58  C   UNL     1      10.888  -7.365   3.687  1.00  0.00     0.074 A 
ATOM     59  C   UNL     1      11.122  -7.794   5.051  1.00  0.00     0.031 C 
ATOM     60  C   UNL     1      10.828  -8.205   2.624  1.00  0.00     0.037 A 
BRANCH  47  61
ATOM     61  C   UNL     1       9.671  -5.400  -2.759  1.00  0.00     0.058 A 
ATOM     62  C   UNL     1      10.618  -4.987  -3.710  1.00  0.00     0.135 A 
ATOM     63  C   UNL     1       8.496  -6.009  -3.229  1.00  0.00     0.135 A 
ATOM     64  F   UNL     1      11.752  -4.386  -3.317  1.00  0.00    -0.206 F 
ATOM     65  C   UNL     1      10.402  -5.155  -5.074  1.00  0.00     0.059 A 
ATOM     66  C   UNL     1       8.270  -6.211  -4.588  1.00  0.00     0.059 A 
ATOM     67  F   UNL     1       7.556  -6.422  -2.364  1.00  0.00    -0.206 F 
ATOM     68  C   UNL     1       9.225  -5.770  -5.503  1.00  0.00     0.060 A 
BRANCH  68  69
ATOM     69  S   UNL     1       8.969  -5.998  -7.275  1.00  0.00     0.124 S 
ATOM     70  O   UNL     1       8.679  -4.634  -7.705  1.00  0.00    -0.237 OA
ATOM     71  O   UNL     1      10.252  -6.540  -7.709  1.00  0.00    -0.237 OA
ATOM     72  O   UNL     1       7.845  -6.928  -7.340  1.00  0.00    -0.744 OA
ENDBRANCH  68  69
ENDBRANCH  47  61
BRANCH  48  73
ATOM     73  C   UNL     1      11.000  -4.084   7.061  1.00  0.00     0.058 A 
ATOM     74  C   UNL     1      12.229  -4.330   7.690  1.00  0.00     0.135 A 
ATOM     75  C   UNL     1       9.928  -3.662   7.863  1.00  0.00     0.135 A 
ATOM     76  F   UNL     1      13.283  -4.740   6.966  1.00  0.00    -0.206 F 
ATOM     77  C   UNL     1      12.386  -4.189   9.065  1.00  0.00     0.059 A 
ATOM     78  C   UNL     1      10.067  -3.488   9.236  1.00  0.00     0.059 A 
ATOM     79  F   UNL     1       8.736  -3.394   7.307  1.00  0.00    -0.206 F 
ATOM     80  C   UNL     1      11.297  -3.768   9.830  1.00  0.00     0.060 A 
BRANCH  80  81
ATOM     81  S   UNL     1      11.518  -3.554  11.610  1.00  0.00     0.124 S 
ATOM     82  O   UNL     1      11.543  -4.938  12.070  1.00  0.00    -0.237 OA
ATOM     83  O   UNL     1      12.786  -2.834  11.678  1.00  0.00    -0.237 OA
ATOM     84  O   UNL     1      10.344  -2.779  12.001  1.00  0.00    -0.744 OA
ENDBRANCH  80  81
ENDBRANCH  48  73
BRANCH  60  85
ATOM     85  C   UNL     1      11.054  -9.668   2.884  1.00  0.00     0.058 A 
ATOM     86  C   UNL     1      10.087 -10.462   3.519  1.00  0.00     0.135 A 
ATOM     87  C   UNL     1      12.233 -10.292   2.447  1.00  0.00     0.135 A 
ATOM     88  F   UNL     1       8.945  -9.913   3.962  1.00  0.00    -0.206 F 
ATOM     89  C   UNL     1      10.291 -11.822   3.733  1.00  0.00     0.059 A 
ATOM     90  C   UNL     1      12.447 -11.655   2.626  1.00  0.00     0.059 A 
ATOM     91  F   UNL     1      13.186  -9.579   1.825  1.00  0.00    -0.206 F 
ATOM     92  C   UNL     1      11.475 -12.409   3.281  1.00  0.00     0.060 A 
BRANCH  92  93
ATOM     93  S   UNL     1      11.713 -14.181   3.534  1.00  0.00     0.124 S 
ATOM     94  O   UNL     1      12.014 -14.236   4.961  1.00  0.00    -0.237 OA
ATOM     95  O   UNL     1      10.420 -14.731   3.137  1.00  0.00    -0.237 OA
ATOM     96  O   UNL     1      12.824 -14.504   2.644  1.00  0.00    -0.744 OA
ENDBRANCH  92  93
ENDBRANCH  60  85
ENDBRANCH  34  35
ENDBRANCH  26  29
ENDBRANCH  24  25
ENDBRANCH  23  24
ENDBRANCH   1  23
TORSDOF 18
