REMARK SMILES CCC(CC)([NH2+]CC(=O)Nc1ccc(C)cc1)C(=O)NCCCCCCNC(=O)c1ccc(-c2c3nc(c(-c4c(F)cc(S(=O)(=O)[O-])cc4F)c4ccc([nH]4)c(-c4c(F)cc(S(=O)(=O)[O-])cc4F)c4nc(c(-c5c(F)cc(S(=O)(=O)[O-])cc5F)c5ccc2[nH]5)C=C4)C=C3)cc1
REMARK SMILES IDX 23 1 22 2 21 3 20 4 18 5 19 6 3 8 2 9 1 10 4 11 5 12 6 13
REMARK SMILES IDX 7 16 8 17 9 18 10 19 11 21 12 22 17 23 13 24 16 25 14 26
REMARK SMILES IDX 15 27 24 28 25 29 26 30 27 31 28 32 29 34 30 35 31 36 95 37
REMARK SMILES IDX 32 38 94 39 33 40 34 41 35 42 88 43 36 44 93 45 87 46 89 47
REMARK SMILES IDX 37 48 92 49 86 50 85 51 38 53 72 54 51 55 71 56 52 57 55 58
REMARK SMILES IDX 70 59 90 60 53 61 54 62 69 64 91 65 56 66 39 67 40 68 49 69
REMARK SMILES IDX 41 70 42 71 48 72 50 73 43 74 44 75 45 76 46 77 47 78 73 79
REMARK SMILES IDX 74 80 83 81 75 82 76 83 82 84 84 85 77 86 78 87 79 88 80 89
REMARK SMILES IDX 81 90 57 91 58 92 67 93 59 94 60 95 66 96 68 97 61 98 62 99
REMARK SMILES IDX 63 100 64 101 65 102
REMARK H PARENT 20 7 6 14 6 15 10 20 27 33 89 52 55 63
REMARK Flexibility Score: inf
ROOT
ATOM      1  C   UNL     1       5.179   4.853  -3.917  1.00  0.00     0.002 C 
ENDROOT
BRANCH   1   2
ATOM      2  C   UNL     1       3.867   4.793  -3.107  1.00  0.00     0.021 C 
BRANCH   2   3
ATOM      3  C   UNL     1       3.468   3.412  -2.551  1.00  0.00     0.116 C 
BRANCH   3   4
ATOM      4  N   UNL     1       2.473   3.491  -1.451  1.00  0.00    -0.351 N 
ATOM      5  C   UNL     1       1.703   2.414  -0.997  1.00  0.00     0.281 C 
ATOM      6  O   UNL     1       2.252   1.628  -0.218  1.00  0.00    -0.268 OA
ATOM      7  H   UNL     1       2.347   4.362  -1.010  1.00  0.00     0.163 HD
BRANCH   5   8
ATOM      8  C   UNL     1       0.061   2.446  -1.178  1.00  0.00     0.175 C 
BRANCH   8   9
ATOM      9  C   UNL     1      -0.426   2.680   0.307  1.00  0.00     0.076 C 
ATOM     10  C   UNL     1      -0.402   1.404   1.192  1.00  0.00     0.011 C 
ENDBRANCH   8   9
BRANCH   8  11
ATOM     11  C   UNL     1      -0.833   1.245  -1.682  1.00  0.00     0.076 C 
ATOM     12  C   UNL     1      -2.361   1.441  -1.631  1.00  0.00     0.011 C 
ENDBRANCH   8  11
BRANCH   8  13
ATOM     13  N   UNL     1      -0.248   3.560  -2.090  1.00  0.00    -0.326 N 
ATOM     14  H   UNL     1       0.094   4.415  -1.653  1.00  0.00     0.347 HD
ATOM     15  H   UNL     1      -1.258   3.507  -2.226  1.00  0.00     0.347 HD
BRANCH  13  16
ATOM     16  C   UNL     1       0.316   3.509  -3.464  1.00  0.00     0.363 C 
BRANCH  16  17
ATOM     17  C   UNL     1       0.236   2.255  -4.383  1.00  0.00     0.279 C 
ATOM     18  O   UNL     1      -0.738   2.167  -5.150  1.00  0.00    -0.268 OA
ATOM     19  N   UNL     1       1.275   1.379  -4.643  1.00  0.00    -0.321 N 
ATOM     20  H   UNL     1       1.407   1.266  -5.612  1.00  0.00     0.170 HD
BRANCH  19  21
ATOM     21  C   UNL     1       2.206   0.594  -3.906  1.00  0.00     0.041 A 
ATOM     22  C   UNL     1       1.996   0.066  -2.645  1.00  0.00     0.026 A 
ATOM     23  C   UNL     1       3.399   0.204  -4.520  1.00  0.00     0.026 A 
ATOM     24  C   UNL     1       2.970  -0.638  -1.923  1.00  0.00     0.005 A 
ATOM     25  C   UNL     1       4.391  -0.522  -3.817  1.00  0.00     0.005 A 
ATOM     26  C   UNL     1       4.205  -0.895  -2.484  1.00  0.00    -0.051 A 
ATOM     27  C   UNL     1       5.247  -1.599  -1.669  1.00  0.00     0.044 C 
ENDBRANCH  19  21
ENDBRANCH  16  17
ENDBRANCH  13  16
ENDBRANCH   8  13
ENDBRANCH   5   8
ENDBRANCH   3   4
ENDBRANCH   2   3
ENDBRANCH   1   2
BRANCH   1  28
ATOM     28  C   UNL     1       5.372   3.892  -5.102  1.00  0.00     0.002 C 
BRANCH  28  29
ATOM     29  C   UNL     1       4.369   3.998  -6.251  1.00  0.00     0.021 C 
BRANCH  29  30
ATOM     30  C   UNL     1       4.474   5.273  -7.090  1.00  0.00     0.116 C 
BRANCH  30  31
ATOM     31  N   UNL     1       5.253   5.123  -8.316  1.00  0.00    -0.352 N 
ATOM     32  C   UNL     1       5.307   5.993  -9.405  1.00  0.00     0.251 C 
ATOM     33  H   UNL     1       5.805   4.311  -8.382  1.00  0.00     0.163 HD
ATOM     34  O   UNL     1       5.794   5.690 -10.466  1.00  0.00    -0.269 OA
BRANCH  32  35
ATOM     35  C   UNL     1       4.839   7.376  -9.154  1.00  0.00     0.039 A 
ATOM     36  C   UNL     1       5.826   8.360  -9.016  1.00  0.00     0.014 A 
ATOM     37  C   UNL     1       3.529   7.601  -8.746  1.00  0.00     0.014 A 
ATOM     38  C   UNL     1       5.553   9.496  -8.263  1.00  0.00     0.010 A 
ATOM     39  C   UNL     1       3.281   8.691  -7.936  1.00  0.00     0.010 A 
ATOM     40  C   UNL     1       4.312   9.598  -7.642  1.00  0.00    -0.014 A 
BRANCH  40  41
ATOM     41  C   UNL     1       4.010  10.566  -6.596  1.00  0.00     0.031 A 
ATOM     42  C   UNL     1       3.130  11.715  -6.894  1.00  0.00     0.074 A 
ATOM     43  C   UNL     1       4.429  10.333  -5.332  1.00  0.00     0.049 A 
ATOM     44  N   UNL     1       2.924  12.701  -6.090  1.00  0.00    -0.248 NA
ATOM     45  C   UNL     1       2.468  11.887  -8.187  1.00  0.00     0.031 C 
ATOM     46  C   UNL     1       3.899  10.916  -4.102  1.00  0.00     0.029 A 
ATOM     47  N   UNL     1       5.591   9.670  -4.927  1.00  0.00    -0.354 N 
ATOM     48  C   UNL     1       1.901  13.458  -6.610  1.00  0.00     0.074 A 
ATOM     49  C   UNL     1       1.759  12.999  -7.966  1.00  0.00     0.031 C 
ATOM     50  C   UNL     1       4.818  10.804  -3.132  1.00  0.00     0.029 A 
ATOM     51  C   UNL     1       6.033  10.306  -3.750  1.00  0.00     0.049 A 
ATOM     52  H   UNL     1       6.018   8.906  -5.377  1.00  0.00     0.167 HD
ATOM     53  C   UNL     1       1.208  14.277  -5.771  1.00  0.00     0.037 A 
ATOM     54  C   UNL     1       7.234  10.958  -3.705  1.00  0.00     0.037 A 
ATOM     55  C   UNL     1       1.964  14.491  -4.533  1.00  0.00     0.049 A 
ATOM     56  C   UNL     1       7.123  12.437  -3.406  1.00  0.00     0.074 A 
ATOM     57  C   UNL     1       1.834  14.021  -3.239  1.00  0.00     0.029 A 
ATOM     58  N   UNL     1       3.219  15.093  -4.609  1.00  0.00    -0.354 N 
ATOM     59  N   UNL     1       6.023  13.130  -3.530  1.00  0.00    -0.248 NA
ATOM     60  C   UNL     1       8.241  13.252  -2.939  1.00  0.00     0.031 C 
ATOM     61  C   UNL     1       3.071  14.243  -2.571  1.00  0.00     0.029 A 
ATOM     62  C   UNL     1       3.930  14.894  -3.442  1.00  0.00     0.049 A 
ATOM     63  H   UNL     1       3.554  15.592  -5.389  1.00  0.00     0.167 HD
ATOM     64  C   UNL     1       6.263  14.442  -3.209  1.00  0.00     0.074 A 
ATOM     65  C   UNL     1       7.660  14.459  -2.816  1.00  0.00     0.031 C 
ATOM     66  C   UNL     1       5.292  15.402  -3.303  1.00  0.00     0.037 A 
BRANCH  53  67
ATOM     67  C   UNL     1      -0.238  14.715  -5.968  1.00  0.00     0.058 A 
ATOM     68  C   UNL     1      -0.888  15.493  -4.981  1.00  0.00     0.135 A 
ATOM     69  C   UNL     1      -1.089  14.289  -7.014  1.00  0.00     0.135 A 
ATOM     70  F   UNL     1      -0.219  15.965  -3.919  1.00  0.00    -0.206 F 
ATOM     71  C   UNL     1      -2.258  15.790  -5.016  1.00  0.00     0.059 A 
ATOM     72  C   UNL     1      -2.446  14.608  -7.091  1.00  0.00     0.059 A 
ATOM     73  F   UNL     1      -0.679  13.482  -7.997  1.00  0.00    -0.206 F 
ATOM     74  C   UNL     1      -3.033  15.336  -6.074  1.00  0.00     0.060 A 
BRANCH  74  75
ATOM     75  S   UNL     1      -4.805  15.666  -6.104  1.00  0.00     0.124 S 
ATOM     76  O   UNL     1      -5.285  14.822  -5.014  1.00  0.00    -0.237 OA
ATOM     77  O   UNL     1      -4.860  17.104  -5.869  1.00  0.00    -0.237 OA
ATOM     78  O   UNL     1      -5.207  15.241  -7.442  1.00  0.00    -0.744 OA
ENDBRANCH  74  75
ENDBRANCH  53  67
BRANCH  54  79
ATOM     79  C   UNL     1       8.280  10.309  -4.542  1.00  0.00     0.058 A 
ATOM     80  C   UNL     1       8.739   9.042  -4.130  1.00  0.00     0.135 A 
ATOM     81  C   UNL     1       8.455  10.656  -5.889  1.00  0.00     0.135 A 
ATOM     82  F   UNL     1       8.614   8.668  -2.846  1.00  0.00    -0.206 F 
ATOM     83  C   UNL     1       9.180   8.092  -5.044  1.00  0.00     0.059 A 
ATOM     84  C   UNL     1       8.907   9.720  -6.823  1.00  0.00     0.059 A 
ATOM     85  F   UNL     1       8.046  11.852  -6.337  1.00  0.00    -0.206 F 
ATOM     86  C   UNL     1       9.190   8.421  -6.398  1.00  0.00     0.060 A 
BRANCH  86  87
ATOM     87  S   UNL     1       9.383   7.069  -7.586  1.00  0.00     0.124 S 
ATOM     88  O   UNL     1      10.696   6.540  -7.234  1.00  0.00    -0.237 OA
ATOM     89  O   UNL     1       8.247   6.214  -7.247  1.00  0.00    -0.237 OA
ATOM     90  O   UNL     1       9.300   7.744  -8.877  1.00  0.00    -0.744 OA
ENDBRANCH  86  87
ENDBRANCH  54  79
BRANCH  66  91
ATOM     91  C   UNL     1       5.508  16.901  -3.196  1.00  0.00     0.058 A 
ATOM     92  C   UNL     1       6.715  17.555  -3.502  1.00  0.00     0.135 A 
ATOM     93  C   UNL     1       4.419  17.759  -2.899  1.00  0.00     0.135 A 
ATOM     94  F   UNL     1       7.791  16.878  -3.926  1.00  0.00    -0.206 F 
ATOM     95  C   UNL     1       6.857  18.945  -3.438  1.00  0.00     0.059 A 
ATOM     96  C   UNL     1       4.523  19.149  -2.889  1.00  0.00     0.059 A 
ATOM     97  F   UNL     1       3.200  17.274  -2.621  1.00  0.00    -0.206 F 
ATOM     98  C   UNL     1       5.756  19.735  -3.129  1.00  0.00     0.060 A 
BRANCH  98  99
ATOM     99  S   UNL     1       5.913  21.531  -3.107  1.00  0.00     0.124 S 
ATOM    100  O   UNL     1       6.251  21.776  -1.708  1.00  0.00    -0.237 OA
ATOM    101  O   UNL     1       6.987  21.776  -4.065  1.00  0.00    -0.237 OA
ATOM    102  O   UNL     1       4.593  21.986  -3.529  1.00  0.00    -0.744 OA
ENDBRANCH  98  99
ENDBRANCH  66  91
ENDBRANCH  40  41
ENDBRANCH  32  35
ENDBRANCH  30  31
ENDBRANCH  29  30
ENDBRANCH  28  29
ENDBRANCH   1  28
TORSDOF 22
