REMARK SMILES CC1=C(C)C[C@@H](C(=O)NCCCCCCNC(=O)c2ccc(-c3c4nc(c(-c5c(F)cc(S(=O)(=O)[O-])cc5F)c5ccc([nH]5)c(-c5c(F)cc(S(=O)(=O)[O-])cc5F)c5nc(c(-c6c(F)cc(S(=O)(=O)[O-])cc6F)c6ccc3[nH]6)C=C5)C=C4)cc2)[C@@H](C(=O)N2CCN(c3cccc(C(F)(F)F)c3)CC2)C1
REMARK SMILES IDX 12 1 11 2 10 3 9 4 7 5 8 6 6 8 1 9 2 10 3 11 104 12 4 13
REMARK SMILES IDX 5 14 85 15 86 16 87 17 88 18 89 19 103 20 90 21 102 22 91 23
REMARK SMILES IDX 92 24 93 25 101 26 94 27 96 28 95 29 97 30 98 31 99 32
REMARK SMILES IDX 100 33 13 34 14 35 15 36 16 37 17 38 18 40 19 41 20 42 84 43
REMARK SMILES IDX 21 44 83 45 22 46 23 47 24 48 77 49 25 50 82 51 76 52 78 53
REMARK SMILES IDX 26 54 81 55 75 56 74 57 27 59 61 60 40 61 60 62 41 63 44 64
REMARK SMILES IDX 59 65 79 66 42 67 43 68 58 70 80 71 45 72 28 73 29 74 38 75
REMARK SMILES IDX 30 76 31 77 37 78 39 79 32 80 33 81 34 82 35 83 36 84 62 85
REMARK SMILES IDX 63 86 72 87 64 88 65 89 71 90 73 91 66 92 67 93 68 94 69 95
REMARK SMILES IDX 70 96 46 97 47 98 56 99 48 100 49 101 55 102 57 103 50 104
REMARK SMILES IDX 51 105 52 106 53 107 54 108
REMARK H PARENT 9 7 16 39 78 58 44 69
REMARK Flexibility Score: inf
ROOT
ATOM      1  C   UNL     1       4.848   0.081   4.136  1.00  0.00     0.002 C 
ENDROOT
BRANCH   1   2
ATOM      2  C   UNL     1       3.555  -0.180   3.360  1.00  0.00     0.021 C 
BRANCH   2   3
ATOM      3  C   UNL     1       3.035  -1.603   3.491  1.00  0.00     0.116 C 
BRANCH   3   4
ATOM      4  N   UNL     1       2.301  -1.805   4.722  1.00  0.00    -0.356 N 
ATOM      5  C   UNL     1       0.975  -1.781   5.009  1.00  0.00     0.224 C 
ATOM      6  O   UNL     1       0.653  -2.210   6.125  1.00  0.00    -0.275 OA
ATOM      7  H   UNL     1       2.873  -1.996   5.500  1.00  0.00     0.163 HD
BRANCH   5   8
ATOM      8  C   UNL     1      -0.121  -1.345   4.020  1.00  0.00     0.095 C 
ATOM      9  C   UNL     1       0.788  -0.197  -0.187  1.00  0.00     0.039 C 
ATOM     10  C   UNL     1       0.360  -0.680   1.179  1.00  0.00    -0.074 C 
ATOM     11  C   UNL     1       0.200  -1.971   1.517  1.00  0.00    -0.074 C 
ATOM     12  C   UNL     1       0.163   0.440   2.157  1.00  0.00     0.045 C 
ATOM     13  C   UNL     1       0.540  -3.131   0.614  1.00  0.00     0.039 C 
ATOM     14  C   UNL     1      -0.268  -2.378   2.892  1.00  0.00     0.045 C 
ATOM     15  C   UNL     1      -0.245   0.151   3.611  1.00  0.00     0.095 C 
BRANCH  15  16
ATOM     16  C   UNL     1       0.429   1.104   4.626  1.00  0.00     0.226 C 
ATOM     17  O   UNL     1       0.625   0.756   5.792  1.00  0.00    -0.275 OA
ATOM     18  N   UNL     1       0.842   2.360   4.227  1.00  0.00    -0.339 N 
ATOM     19  C   UNL     1       2.021   2.939   4.884  1.00  0.00     0.141 C 
ATOM     20  C   UNL     1       0.133   3.297   3.338  1.00  0.00     0.141 C 
ATOM     21  C   UNL     1       2.998   3.478   3.827  1.00  0.00     0.138 C 
ATOM     22  C   UNL     1       1.076   3.952   2.293  1.00  0.00     0.138 C 
ATOM     23  N   UNL     1       2.293   4.422   2.959  1.00  0.00    -0.368 N 
BRANCH  23  24
ATOM     24  C   UNL     1       3.026   5.469   2.451  1.00  0.00     0.037 A 
ATOM     25  C   UNL     1       3.955   5.328   1.419  1.00  0.00     0.026 A 
ATOM     26  C   UNL     1       2.900   6.712   3.076  1.00  0.00     0.039 A 
ATOM     27  C   UNL     1       4.754   6.410   1.035  1.00  0.00     0.003 A 
ATOM     28  C   UNL     1       3.700   7.802   2.716  1.00  0.00     0.058 A 
ATOM     29  C   UNL     1       4.636   7.638   1.688  1.00  0.00     0.013 A 
BRANCH  28  30
ATOM     30  C   UNL     1       3.572   9.109   3.451  1.00  0.00     0.416 C 
ATOM     31  F   UNL     1       4.711   9.445   4.118  1.00  0.00    -0.166 F 
ATOM     32  F   UNL     1       3.288  10.153   2.628  1.00  0.00    -0.166 F 
ATOM     33  F   UNL     1       2.585   9.104   4.395  1.00  0.00    -0.166 F 
ENDBRANCH  28  30
ENDBRANCH  23  24
ENDBRANCH  15  16
ENDBRANCH   5   8
ENDBRANCH   3   4
ENDBRANCH   2   3
ENDBRANCH   1   2
BRANCH   1  34
ATOM     34  C   UNL     1       6.111  -0.463   3.460  1.00  0.00     0.002 C 
BRANCH  34  35
ATOM     35  C   UNL     1       6.401   0.092   2.060  1.00  0.00     0.021 C 
BRANCH  35  36
ATOM     36  C   UNL     1       6.522   1.612   1.975  1.00  0.00     0.116 C 
BRANCH  36  37
ATOM     37  N   UNL     1       7.675   2.111   2.711  1.00  0.00    -0.352 N 
ATOM     38  C   UNL     1       8.792   2.755   2.244  1.00  0.00     0.251 C 
ATOM     39  H   UNL     1       7.648   1.965   3.685  1.00  0.00     0.163 HD
ATOM     40  O   UNL     1       9.769   2.903   2.984  1.00  0.00    -0.269 OA
BRANCH  38  41
ATOM     41  C   UNL     1       8.836   3.261   0.856  1.00  0.00     0.039 A 
ATOM     42  C   UNL     1       9.970   3.025   0.075  1.00  0.00     0.014 A 
ATOM     43  C   UNL     1       7.760   3.979   0.328  1.00  0.00     0.014 A 
ATOM     44  C   UNL     1       9.995   3.452  -1.257  1.00  0.00     0.010 A 
ATOM     45  C   UNL     1       7.760   4.346  -1.016  1.00  0.00     0.010 A 
ATOM     46  C   UNL     1       8.877   4.086  -1.823  1.00  0.00    -0.014 A 
BRANCH  46  47
ATOM     47  C   UNL     1       8.849   4.462  -3.261  1.00  0.00     0.031 A 
ATOM     48  C   UNL     1       8.775   5.907  -3.672  1.00  0.00     0.074 A 
ATOM     49  C   UNL     1       8.815   3.493  -4.197  1.00  0.00     0.049 A 
ATOM     50  N   UNL     1       8.691   6.420  -4.873  1.00  0.00    -0.248 NA
ATOM     51  C   UNL     1       8.767   6.907  -2.593  1.00  0.00     0.031 C 
ATOM     52  C   UNL     1       8.820   2.054  -3.924  1.00  0.00     0.029 A 
ATOM     53  N   UNL     1       8.758   3.569  -5.566  1.00  0.00    -0.354 N 
ATOM     54  C   UNL     1       8.613   7.796  -4.696  1.00  0.00     0.074 A 
ATOM     55  C   UNL     1       8.606   8.036  -3.269  1.00  0.00     0.031 C 
ATOM     56  C   UNL     1       8.788   1.385  -5.088  1.00  0.00     0.029 A 
ATOM     57  C   UNL     1       8.731   2.343  -6.188  1.00  0.00     0.049 A 
ATOM     58  H   UNL     1       8.739   4.422  -6.058  1.00  0.00     0.167 HD
ATOM     59  C   UNL     1       8.575   8.771  -5.636  1.00  0.00     0.037 A 
ATOM     60  C   UNL     1       8.665   2.024  -7.495  1.00  0.00     0.037 A 
ATOM     61  C   UNL     1       8.610   8.529  -7.056  1.00  0.00     0.049 A 
ATOM     62  C   UNL     1       8.633   3.124  -8.520  1.00  0.00     0.074 A 
ATOM     63  C   UNL     1       8.647   9.453  -8.086  1.00  0.00     0.029 A 
ATOM     64  N   UNL     1       8.608   7.274  -7.646  1.00  0.00    -0.354 N 
ATOM     65  N   UNL     1       8.637   4.423  -8.335  1.00  0.00    -0.248 NA
ATOM     66  C   UNL     1       8.597   2.718  -9.932  1.00  0.00     0.031 C 
ATOM     67  C   UNL     1       8.626   8.757  -9.300  1.00  0.00     0.029 A 
ATOM     68  C   UNL     1       8.622   7.399  -9.026  1.00  0.00     0.049 A 
ATOM     69  H   UNL     1       8.598   6.419  -7.157  1.00  0.00     0.167 HD
ATOM     70  C   UNL     1       8.632   4.988  -9.605  1.00  0.00     0.074 A 
ATOM     71  C   UNL     1       8.634   3.890 -10.551  1.00  0.00     0.031 C 
ATOM     72  C   UNL     1       8.628   6.298  -9.956  1.00  0.00     0.037 A 
BRANCH  59  73
ATOM     73  C   UNL     1       8.502  10.197  -5.161  1.00  0.00     0.058 A 
ATOM     74  C   UNL     1       9.598  10.823  -4.544  1.00  0.00     0.135 A 
ATOM     75  C   UNL     1       7.341  10.960  -5.362  1.00  0.00     0.135 A 
ATOM     76  F   UNL     1      10.728  10.136  -4.315  1.00  0.00    -0.206 F 
ATOM     77  C   UNL     1       9.534  12.145  -4.117  1.00  0.00     0.059 A 
ATOM     78  C   UNL     1       7.264  12.293  -4.967  1.00  0.00     0.059 A 
ATOM     79  F   UNL     1       6.265  10.412  -5.948  1.00  0.00    -0.206 F 
ATOM     80  C   UNL     1       8.362  12.872  -4.332  1.00  0.00     0.060 A 
BRANCH  80  81
ATOM     81  S   UNL     1       8.297  14.588  -3.774  1.00  0.00     0.124 S 
ATOM     82  O   UNL     1       8.179  14.418  -2.329  1.00  0.00    -0.237 OA
ATOM     83  O   UNL     1       9.572  15.119  -4.247  1.00  0.00    -0.237 OA
ATOM     84  O   UNL     1       7.114  15.118  -4.443  1.00  0.00    -0.744 OA
ENDBRANCH  80  81
ENDBRANCH  59  73
BRANCH  60  85
ATOM     85  C   UNL     1       8.657   0.596  -7.910  1.00  0.00     0.058 A 
ATOM     86  C   UNL     1       9.777   0.021  -8.528  1.00  0.00     0.135 A 
ATOM     87  C   UNL     1       7.542  -0.224  -7.681  1.00  0.00     0.135 A 
ATOM     88  F   UNL     1      10.865   0.768  -8.772  1.00  0.00    -0.206 F 
ATOM     89  C   UNL     1       9.789  -1.313  -8.919  1.00  0.00     0.059 A 
ATOM     90  C   UNL     1       7.538  -1.568  -8.042  1.00  0.00     0.059 A 
ATOM     91  F   UNL     1       6.453   0.274  -7.076  1.00  0.00    -0.206 F 
ATOM     92  C   UNL     1       8.664  -2.101  -8.669  1.00  0.00     0.060 A 
BRANCH  92  93
ATOM     93  S   UNL     1       8.707  -3.846  -9.131  1.00  0.00     0.124 S 
ATOM     94  O   UNL     1       8.566  -3.769 -10.580  1.00  0.00    -0.237 OA
ATOM     95  O   UNL     1      10.017  -4.262  -8.638  1.00  0.00    -0.237 OA
ATOM     96  O   UNL     1       7.568  -4.410  -8.413  1.00  0.00    -0.744 OA
ENDBRANCH  92  93
ENDBRANCH  60  85
BRANCH  72  97
ATOM     97  C   UNL     1       8.656   6.620 -11.425  1.00  0.00     0.058 A 
ATOM     98  C   UNL     1       7.529   6.439 -12.241  1.00  0.00     0.135 A 
ATOM     99  C   UNL     1       9.812   7.162 -12.011  1.00  0.00     0.135 A 
ATOM    100  F   UNL     1       6.402   5.917 -11.731  1.00  0.00    -0.206 F 
ATOM    101  C   UNL     1       7.553   6.764 -13.593  1.00  0.00     0.059 A 
ATOM    102  C   UNL     1       9.849   7.519 -13.355  1.00  0.00     0.059 A 
ATOM    103  F   UNL     1      10.914   7.364 -11.272  1.00  0.00    -0.206 F 
ATOM    104  C   UNL     1       8.718   7.304 -14.142  1.00  0.00     0.060 A 
BRANCH 104 105
ATOM    105  S   UNL     1       8.726   7.753 -15.890  1.00  0.00     0.124 S 
ATOM    106  O   UNL     1       8.818   6.444 -16.528  1.00  0.00    -0.237 OA
ATOM    107  O   UNL     1       7.448   8.443 -16.042  1.00  0.00    -0.237 OA
ATOM    108  O   UNL     1       9.908   8.600 -16.018  1.00  0.00    -0.744 OA
ENDBRANCH 104 105
ENDBRANCH  72  97
ENDBRANCH  46  47
ENDBRANCH  38  41
ENDBRANCH  36  37
ENDBRANCH  35  36
ENDBRANCH  34  35
ENDBRANCH   1  34
TORSDOF 19
