REMARK SMILES CC(C)N(CC1CC1)C(=O)NC1(CC(=O)NCCCCCCNC(=O)c2ccc(-c3c4nc(c(-c5c(F)cc(S(=O)(=O)[O-])cc5F)c5ccc([nH]5)c(-c5c(F)cc(S(=O)(=O)[O-])cc5F)c5nc(c(-c6c(F)cc(S(=O)(=O)[O-])cc6F)c6ccc3[nH]6)C=C5)C=C4)cc2)CCC1
REMARK SMILES IDX 18 1 17 2 16 3 14 4 15 5 13 7 12 8 92 9 94 10 93 11 11 12
REMARK SMILES IDX 9 13 10 14 4 16 2 17 1 18 3 19 5 20 6 21 7 22 8 23 19 24
REMARK SMILES IDX 20 25 21 26 22 27 23 28 24 29 25 31 26 32 27 33 91 34 28 35
REMARK SMILES IDX 90 36 29 37 30 38 31 39 84 40 32 41 89 42 83 43 85 44 33 45
REMARK SMILES IDX 88 46 82 47 81 48 34 50 68 51 47 52 67 53 48 54 51 55 66 56
REMARK SMILES IDX 86 57 49 58 50 59 65 61 87 62 52 63 35 64 36 65 45 66 37 67
REMARK SMILES IDX 38 68 44 69 46 70 39 71 40 72 41 73 42 74 43 75 69 76 70 77
REMARK SMILES IDX 79 78 71 79 72 80 78 81 80 82 73 83 74 84 75 85 76 86 77 87
REMARK SMILES IDX 53 88 54 89 63 90 55 91 56 92 62 93 64 94 57 95 58 96 59 97
REMARK SMILES IDX 60 98 61 99
REMARK H PARENT 16 6 11 15 23 30 85 49 51 60
REMARK Flexibility Score: inf
ROOT
ATOM      1  C   UNL     1      -4.581   2.815  -1.122  1.00  0.00     0.021 C 
ENDROOT
BRANCH   1   2
ATOM      2  C   UNL     1      -4.272   2.110  -2.438  1.00  0.00     0.116 C 
BRANCH   2   3
ATOM      3  N   UNL     1      -2.917   1.641  -2.398  1.00  0.00    -0.356 N 
ATOM      4  C   UNL     1      -2.497   0.456  -1.895  1.00  0.00     0.222 C 
ATOM      5  O   UNL     1      -1.341   0.414  -1.485  1.00  0.00    -0.275 OA
ATOM      6  H   UNL     1      -2.227   2.237  -2.772  1.00  0.00     0.163 HD
BRANCH   4   7
ATOM      7  C   UNL     1      -3.412  -0.742  -1.976  1.00  0.00     0.128 C 
BRANCH   7   8
ATOM      8  C   UNL     1      -3.897  -1.385  -0.680  1.00  0.00     0.051 C 
ATOM      9  C   UNL     1      -4.906  -2.595  -0.824  1.00  0.00     0.029 C 
ATOM     10  C   UNL     1      -5.159  -0.645  -0.065  1.00  0.00     0.029 C 
ATOM     11  C   UNL     1      -6.057  -1.584  -0.886  1.00  0.00     0.005 C 
BRANCH   8  12
ATOM     12  N   UNL     1      -2.876  -1.643   0.365  1.00  0.00    -0.332 N 
ATOM     13  C   UNL     1      -1.556  -1.897   0.504  1.00  0.00     0.318 C 
ATOM     14  O   UNL     1      -1.175  -1.841   1.682  1.00  0.00    -0.249 OA
ATOM     15  H   UNL     1      -3.302  -1.624   1.253  1.00  0.00     0.165 HD
BRANCH  13  16
ATOM     16  N   UNL     1      -0.681  -2.182  -0.502  1.00  0.00    -0.322 N 
BRANCH  16  17
ATOM     17  C   UNL     1       0.754  -1.858  -0.285  1.00  0.00     0.080 C 
ATOM     18  C   UNL     1       1.070  -0.488   0.337  1.00  0.00     0.031 C 
ATOM     19  C   UNL     1       1.470  -2.979   0.464  1.00  0.00     0.031 C 
ENDBRANCH  16  17
BRANCH  16  20
ATOM     20  C   UNL     1      -0.923  -2.804  -1.807  1.00  0.00     0.125 C 
BRANCH  20  21
ATOM     21  C   UNL     1      -2.048  -3.785  -1.911  1.00  0.00     0.009 C 
ATOM     22  C   UNL     1      -2.619  -4.024  -3.297  1.00  0.00     0.006 C 
ATOM     23  C   UNL     1      -1.910  -5.130  -2.584  1.00  0.00     0.006 C 
ENDBRANCH  20  21
ENDBRANCH  16  20
ENDBRANCH  13  16
ENDBRANCH   8  12
ENDBRANCH   7   8
ENDBRANCH   4   7
ENDBRANCH   2   3
ENDBRANCH   1   2
BRANCH   1  24
ATOM     24  C   UNL     1      -3.833   4.135  -0.927  1.00  0.00     0.002 C 
BRANCH  24  25
ATOM     25  C   UNL     1      -3.906   5.088  -2.119  1.00  0.00     0.002 C 
BRANCH  25  26
ATOM     26  C   UNL     1      -5.311   5.275  -2.693  1.00  0.00     0.021 C 
BRANCH  26  27
ATOM     27  C   UNL     1      -6.349   5.653  -1.652  1.00  0.00     0.116 C 
BRANCH  27  28
ATOM     28  N   UNL     1      -6.056   6.953  -1.084  1.00  0.00    -0.352 N 
ATOM     29  C   UNL     1      -6.802   8.098  -1.205  1.00  0.00     0.251 C 
ATOM     30  H   UNL     1      -5.231   7.022  -0.552  1.00  0.00     0.163 HD
ATOM     31  O   UNL     1      -6.313   9.192  -0.970  1.00  0.00    -0.269 OA
BRANCH  29  32
ATOM     32  C   UNL     1      -8.207   7.964  -1.639  1.00  0.00     0.039 A 
ATOM     33  C   UNL     1      -8.689   8.794  -2.649  1.00  0.00     0.014 A 
ATOM     34  C   UNL     1      -9.023   6.980  -1.067  1.00  0.00     0.014 A 
ATOM     35  C   UNL     1      -9.995   8.620  -3.104  1.00  0.00     0.010 A 
ATOM     36  C   UNL     1     -10.287   6.748  -1.589  1.00  0.00     0.010 A 
ATOM     37  C   UNL     1     -10.796   7.585  -2.592  1.00  0.00    -0.014 A 
BRANCH  37  38
ATOM     38  C   UNL     1     -12.187   7.387  -3.064  1.00  0.00     0.031 A 
ATOM     39  C   UNL     1     -13.330   7.554  -2.101  1.00  0.00     0.074 A 
ATOM     40  C   UNL     1     -12.413   7.017  -4.339  1.00  0.00     0.049 A 
ATOM     41  N   UNL     1     -14.612   7.393  -2.305  1.00  0.00    -0.248 NA
ATOM     42  C   UNL     1     -12.986   7.920  -0.716  1.00  0.00     0.031 C 
ATOM     43  C   UNL     1     -11.377   6.779  -5.347  1.00  0.00     0.029 A 
ATOM     44  N   UNL     1     -13.586   6.774  -5.005  1.00  0.00    -0.354 N 
ATOM     45  C   UNL     1     -15.222   7.627  -1.078  1.00  0.00     0.074 A 
ATOM     46  C   UNL     1     -14.167   7.872  -0.120  1.00  0.00     0.031 C 
ATOM     47  C   UNL     1     -11.963   6.457  -6.511  1.00  0.00     0.029 A 
ATOM     48  C   UNL     1     -13.410   6.426  -6.322  1.00  0.00     0.049 A 
ATOM     49  H   UNL     1     -14.471   6.842  -4.579  1.00  0.00     0.167 HD
ATOM     50  C   UNL     1     -16.543   7.664  -0.783  1.00  0.00     0.037 A 
ATOM     51  C   UNL     1     -14.315   6.113  -7.270  1.00  0.00     0.037 A 
ATOM     52  C   UNL     1     -17.582   7.436  -1.752  1.00  0.00     0.049 A 
ATOM     53  C   UNL     1     -15.777   6.148  -6.918  1.00  0.00     0.074 A 
ATOM     54  C   UNL     1     -18.952   7.502  -1.575  1.00  0.00     0.029 A 
ATOM     55  N   UNL     1     -17.366   7.091  -3.079  1.00  0.00    -0.354 N 
ATOM     56  N   UNL     1     -16.342   6.438  -5.770  1.00  0.00    -0.248 NA
ATOM     57  C   UNL     1     -16.726   5.821  -7.990  1.00  0.00     0.031 C 
ATOM     58  C   UNL     1     -19.564   7.142  -2.780  1.00  0.00     0.029 A 
ATOM     59  C   UNL     1     -18.577   6.913  -3.726  1.00  0.00     0.049 A 
ATOM     60  H   UNL     1     -16.481   6.988  -3.498  1.00  0.00     0.167 HD
ATOM     61  C   UNL     1     -17.713   6.356  -5.988  1.00  0.00     0.074 A 
ATOM     62  C   UNL     1     -17.890   6.000  -7.382  1.00  0.00     0.031 C 
ATOM     63  C   UNL     1     -18.733   6.559  -5.116  1.00  0.00     0.037 A 
BRANCH  50  64
ATOM     64  C   UNL     1     -16.929   7.956   0.642  1.00  0.00     0.058 A 
ATOM     65  C   UNL     1     -16.701   9.212   1.230  1.00  0.00     0.135 A 
ATOM     66  C   UNL     1     -17.543   6.969   1.431  1.00  0.00     0.135 A 
ATOM     67  F   UNL     1     -16.103  10.188   0.530  1.00  0.00    -0.206 F 
ATOM     68  C   UNL     1     -17.029   9.465   2.558  1.00  0.00     0.059 A 
ATOM     69  C   UNL     1     -17.910   7.212   2.752  1.00  0.00     0.059 A 
ATOM     70  F   UNL     1     -17.785   5.750   0.923  1.00  0.00    -0.206 F 
ATOM     71  C   UNL     1     -17.631   8.457   3.312  1.00  0.00     0.060 A 
BRANCH  71  72
ATOM     72  S   UNL     1     -18.037   8.798   5.037  1.00  0.00     0.124 S 
ATOM     73  O   UNL     1     -16.712   8.814   5.650  1.00  0.00    -0.237 OA
ATOM     74  O   UNL     1     -18.710  10.090   4.949  1.00  0.00    -0.237 OA
ATOM     75  O   UNL     1     -18.889   7.674   5.415  1.00  0.00    -0.744 OA
ENDBRANCH  71  72
ENDBRANCH  50  64
BRANCH  51  76
ATOM     76  C   UNL     1     -13.859   5.773  -8.644  1.00  0.00     0.058 A 
ATOM     77  C   UNL     1     -14.088   6.646  -9.717  1.00  0.00     0.135 A 
ATOM     78  C   UNL     1     -13.154   4.588  -8.905  1.00  0.00     0.135 A 
ATOM     79  F   UNL     1     -14.761   7.790  -9.519  1.00  0.00    -0.206 F 
ATOM     80  C   UNL     1     -13.645   6.354 -11.003  1.00  0.00     0.059 A 
ATOM     81  C   UNL     1     -12.678   4.285 -10.177  1.00  0.00     0.059 A 
ATOM     82  F   UNL     1     -12.893   3.727  -7.909  1.00  0.00    -0.206 F 
ATOM     83  C   UNL     1     -12.934   5.172 -11.221  1.00  0.00     0.060 A 
BRANCH  83  84
ATOM     84  S   UNL     1     -12.308   4.833 -12.881  1.00  0.00     0.124 S 
ATOM     85  O   UNL     1     -13.538   4.530 -13.603  1.00  0.00    -0.237 OA
ATOM     86  O   UNL     1     -11.659   6.094 -13.225  1.00  0.00    -0.237 OA
ATOM     87  O   UNL     1     -11.403   3.707 -12.674  1.00  0.00    -0.744 OA
ENDBRANCH  83  84
ENDBRANCH  51  76
BRANCH  63  88
ATOM     88  C   UNL     1     -20.134   6.434  -5.649  1.00  0.00     0.058 A 
ATOM     89  C   UNL     1     -20.688   5.191  -5.992  1.00  0.00     0.135 A 
ATOM     90  C   UNL     1     -20.952   7.570  -5.763  1.00  0.00     0.135 A 
ATOM     91  F   UNL     1     -19.947   4.074  -5.908  1.00  0.00    -0.206 F 
ATOM     92  C   UNL     1     -21.995   5.081  -6.453  1.00  0.00     0.059 A 
ATOM     93  C   UNL     1     -22.272   7.480  -6.191  1.00  0.00     0.059 A 
ATOM     94  F   UNL     1     -20.476   8.782  -5.437  1.00  0.00    -0.206 F 
ATOM     95  C   UNL     1     -22.781   6.232  -6.546  1.00  0.00     0.060 A 
BRANCH  95  96
ATOM     96  S   UNL     1     -24.487   6.069  -7.112  1.00  0.00     0.124 S 
ATOM     97  O   UNL     1     -24.301   5.794  -8.532  1.00  0.00    -0.237 OA
ATOM     98  O   UNL     1     -24.977   4.953  -6.308  1.00  0.00    -0.237 OA
ATOM     99  O   UNL     1     -25.076   7.367  -6.795  1.00  0.00    -0.744 OA
ENDBRANCH  95  96
ENDBRANCH  63  88
ENDBRANCH  37  38
ENDBRANCH  29  32
ENDBRANCH  27  28
ENDBRANCH  26  27
ENDBRANCH  25  26
ENDBRANCH  24  25
ENDBRANCH   1  24
TORSDOF 22
