REMARK SMILES CCN1C(=O)C[C@@H](C(=O)NCCCCCCNC(=O)c2ccc(-c3c4nc(c(-c5c(F)cc(S(=O)(=O)[O-])cc5F)c5ccc([nH]5)c(-c5c(F)cc(S(=O)(=O)[O-])cc5F)c5nc(c(-c6c(F)cc(S(=O)(=O)[O-])cc6F)c6ccc3[nH]6)C=C5)C=C4)cc2)[C@H]1c1ccccc1C1CC1
REMARK SMILES IDX 14 1 13 2 12 3 11 4 10 5 8 6 9 7 7 9 3 10 4 11 86 12 5 13
REMARK SMILES IDX 6 14 2 15 1 16 87 17 88 18 92 19 89 20 91 21 90 22 93 23
REMARK SMILES IDX 94 24 95 25 15 26 16 27 17 28 18 29 19 31 20 32 21 33 85 34
REMARK SMILES IDX 22 35 84 36 23 37 24 38 25 39 78 40 26 41 83 42 77 43 79 44
REMARK SMILES IDX 27 45 82 46 76 47 75 48 28 50 62 51 41 52 61 53 42 54 45 55
REMARK SMILES IDX 60 56 80 57 43 58 44 59 59 61 81 62 46 63 29 64 30 65 39 66
REMARK SMILES IDX 31 67 32 68 38 69 40 70 33 71 34 72 35 73 36 74 37 75 63 76
REMARK SMILES IDX 64 77 73 78 65 79 66 80 72 81 74 82 67 83 68 84 69 85 70 86
REMARK SMILES IDX 71 87 47 88 48 89 57 90 49 91 50 92 56 93 58 94 51 95 52 96
REMARK SMILES IDX 53 97 54 98 55 99
REMARK H PARENT 10 8 17 30 79 49 45 60
REMARK Flexibility Score: inf
ROOT
ATOM      1  C   UNL     1      -3.710   8.339  -1.343  1.00  0.00     0.002 C 
ENDROOT
BRANCH   1   2
ATOM      2  C   UNL     1      -2.583   8.311  -2.380  1.00  0.00     0.002 C 
BRANCH   2   3
ATOM      3  C   UNL     1      -1.188   8.052  -1.800  1.00  0.00     0.021 C 
BRANCH   3   4
ATOM      4  C   UNL     1      -1.071   6.713  -1.079  1.00  0.00     0.116 C 
BRANCH   4   5
ATOM      5  N   UNL     1      -1.221   5.622  -2.025  1.00  0.00    -0.356 N 
ATOM      6  C   UNL     1      -0.420   4.547  -2.253  1.00  0.00     0.226 C 
ATOM      7  O   UNL     1      -0.741   3.765  -3.148  1.00  0.00    -0.275 OA
ATOM      8  H   UNL     1      -2.028   5.667  -2.587  1.00  0.00     0.163 HD
BRANCH   6   9
ATOM      9  C   UNL     1       0.797   4.334  -1.376  1.00  0.00     0.115 C 
ATOM     10  N   UNL     1       0.825   2.153  -0.454  1.00  0.00    -0.335 N 
ATOM     11  C   UNL     1       1.621   2.094  -1.591  1.00  0.00     0.223 C 
ATOM     12  C   UNL     1       0.537   3.535  -0.085  1.00  0.00     0.128 C 
ATOM     13  O   UNL     1       2.156   1.108  -2.080  1.00  0.00    -0.275 OA
ATOM     14  C   UNL     1       1.839   3.492  -2.110  1.00  0.00     0.116 C 
BRANCH  10  15
ATOM     15  C   UNL     1       0.557   1.054   0.473  1.00  0.00     0.117 C 
ATOM     16  C   UNL     1       0.997  -0.333   0.039  1.00  0.00     0.027 C 
ENDBRANCH  10  15
BRANCH  12  17
ATOM     17  C   UNL     1      -0.776   3.747   0.660  1.00  0.00    -0.021 A 
ATOM     18  C   UNL     1      -1.959   3.303   0.004  1.00  0.00     0.006 A 
ATOM     19  C   UNL     1      -0.895   4.364   1.937  1.00  0.00    -0.040 A 
ATOM     20  C   UNL     1      -3.234   3.546   0.504  1.00  0.00     0.000 A 
ATOM     21  C   UNL     1      -2.222   4.599   2.398  1.00  0.00     0.004 A 
ATOM     22  C   UNL     1      -3.368   4.219   1.699  1.00  0.00     0.000 A 
BRANCH  19  23
ATOM     23  C   UNL     1       0.190   4.805   2.923  1.00  0.00     0.019 C 
ATOM     24  C   UNL     1       1.587   4.268   3.035  1.00  0.00     0.009 C 
ATOM     25  C   UNL     1       1.353   5.660   2.506  1.00  0.00     0.009 C 
ENDBRANCH  19  23
ENDBRANCH  12  17
ENDBRANCH   6   9
ENDBRANCH   4   5
ENDBRANCH   3   4
ENDBRANCH   2   3
ENDBRANCH   1   2
BRANCH   1  26
ATOM     26  C   UNL     1      -3.525   9.370  -0.227  1.00  0.00     0.021 C 
BRANCH  26  27
ATOM     27  C   UNL     1      -3.326  10.801  -0.718  1.00  0.00     0.116 C 
BRANCH  27  28
ATOM     28  N   UNL     1      -4.457  11.270  -1.502  1.00  0.00    -0.352 N 
ATOM     29  C   UNL     1      -5.186  12.425  -1.373  1.00  0.00     0.251 C 
ATOM     30  H   UNL     1      -4.741  10.672  -2.230  1.00  0.00     0.163 HD
ATOM     31  O   UNL     1      -6.235  12.558  -1.997  1.00  0.00    -0.269 OA
BRANCH  29  32
ATOM     32  C   UNL     1      -4.718  13.495  -0.466  1.00  0.00     0.039 A 
ATOM     33  C   UNL     1      -5.647  14.123   0.365  1.00  0.00     0.014 A 
ATOM     34  C   UNL     1      -3.373  13.878  -0.434  1.00  0.00     0.014 A 
ATOM     35  C   UNL     1      -5.216  15.095   1.269  1.00  0.00     0.010 A 
ATOM     36  C   UNL     1      -2.934  14.792   0.521  1.00  0.00     0.010 A 
ATOM     37  C   UNL     1      -3.851  15.411   1.382  1.00  0.00    -0.014 A 
BRANCH  37  38
ATOM     38  C   UNL     1      -3.378  16.362   2.421  1.00  0.00     0.031 A 
ATOM     39  C   UNL     1      -2.717  17.657   2.034  1.00  0.00     0.074 A 
ATOM     40  C   UNL     1      -3.511  16.033   3.722  1.00  0.00     0.049 A 
ATOM     41  N   UNL     1      -2.244  18.603   2.806  1.00  0.00    -0.248 NA
ATOM     42  C   UNL     1      -2.544  17.916   0.596  1.00  0.00     0.031 C 
ATOM     43  C   UNL     1      -4.081  14.778   4.220  1.00  0.00     0.029 A 
ATOM     44  N   UNL     1      -3.180  16.720   4.862  1.00  0.00    -0.354 N 
ATOM     45  C   UNL     1      -1.718  19.564   1.951  1.00  0.00     0.074 A 
ATOM     46  C   UNL     1      -1.875  19.060   0.604  1.00  0.00     0.031 C 
ATOM     47  C   UNL     1      -4.092  14.802   5.562  1.00  0.00     0.029 A 
ATOM     48  C   UNL     1      -3.494  16.051   6.021  1.00  0.00     0.049 A 
ATOM     49  H   UNL     1      -2.757  17.609   4.851  1.00  0.00     0.167 HD
ATOM     50  C   UNL     1      -1.175  20.767   2.260  1.00  0.00     0.037 A 
ATOM     51  C   UNL     1      -3.317  16.400   7.310  1.00  0.00     0.037 A 
ATOM     52  C   UNL     1      -1.031  21.265   3.605  1.00  0.00     0.049 A 
ATOM     53  C   UNL     1      -2.706  17.738   7.627  1.00  0.00     0.074 A 
ATOM     54  C   UNL     1      -0.546  22.493   4.020  1.00  0.00     0.029 A 
ATOM     55  N   UNL     1      -1.361  20.560   4.754  1.00  0.00    -0.354 N 
ATOM     56  N   UNL     1      -2.284  18.667   6.803  1.00  0.00    -0.248 NA
ATOM     57  C   UNL     1      -2.556  18.078   9.047  1.00  0.00     0.031 C 
ATOM     58  C   UNL     1      -0.530  22.509   5.419  1.00  0.00     0.029 A 
ATOM     59  C   UNL     1      -1.062  21.314   5.878  1.00  0.00     0.049 A 
ATOM     60  H   UNL     1      -1.751  19.656   4.769  1.00  0.00     0.167 HD
ATOM     61  C   UNL     1      -1.836  19.711   7.605  1.00  0.00     0.074 A 
ATOM     62  C   UNL     1      -2.065  19.307   8.978  1.00  0.00     0.031 C 
ATOM     63  C   UNL     1      -1.284  20.895   7.240  1.00  0.00     0.037 A 
BRANCH  50  64
ATOM     64  C   UNL     1      -0.695  21.631   1.124  1.00  0.00     0.058 A 
ATOM     65  C   UNL     1      -1.589  22.228   0.220  1.00  0.00     0.135 A 
ATOM     66  C   UNL     1       0.674  21.904   0.962  1.00  0.00     0.135 A 
ATOM     67  F   UNL     1      -2.907  21.992   0.316  1.00  0.00    -0.206 F 
ATOM     68  C   UNL     1      -1.143  23.038  -0.820  1.00  0.00     0.059 A 
ATOM     69  C   UNL     1       1.140  22.737  -0.052  1.00  0.00     0.059 A 
ATOM     70  F   UNL     1       1.575  21.360   1.796  1.00  0.00    -0.206 F 
ATOM     71  C   UNL     1       0.225  23.289  -0.946  1.00  0.00     0.060 A 
BRANCH  71  72
ATOM     72  S   UNL     1       0.784  24.351  -2.294  1.00  0.00     0.124 S 
ATOM     73  O   UNL     1       0.559  23.493  -3.453  1.00  0.00    -0.237 OA
ATOM     74  O   UNL     1      -0.106  25.501  -2.174  1.00  0.00    -0.237 OA
ATOM     75  O   UNL     1       2.184  24.607  -1.968  1.00  0.00    -0.744 OA
ENDBRANCH  71  72
ENDBRANCH  50  64
BRANCH  51  76
ATOM     76  C   UNL     1      -3.741  15.475   8.396  1.00  0.00     0.058 A 
ATOM     77  C   UNL     1      -4.824  15.786   9.232  1.00  0.00     0.135 A 
ATOM     78  C   UNL     1      -3.079  14.256   8.612  1.00  0.00     0.135 A 
ATOM     79  F   UNL     1      -5.486  16.942   9.070  1.00  0.00    -0.206 F 
ATOM     80  C   UNL     1      -5.224  14.932  10.254  1.00  0.00     0.059 A 
ATOM     81  C   UNL     1      -3.479  13.372   9.608  1.00  0.00     0.059 A 
ATOM     82  F   UNL     1      -2.048  13.902   7.829  1.00  0.00    -0.206 F 
ATOM     83  C   UNL     1      -4.547  13.724  10.432  1.00  0.00     0.060 A 
BRANCH  83  84
ATOM     84  S   UNL     1      -5.106  12.599  11.729  1.00  0.00     0.124 S 
ATOM     85  O   UNL     1      -4.671  13.299  12.932  1.00  0.00    -0.237 OA
ATOM     86  O   UNL     1      -6.547  12.559  11.498  1.00  0.00    -0.237 OA
ATOM     87  O   UNL     1      -4.396  11.360  11.427  1.00  0.00    -0.744 OA
ENDBRANCH  83  84
ENDBRANCH  51  76
BRANCH  63  88
ATOM     88  C   UNL     1      -0.906  21.846   8.345  1.00  0.00     0.058 A 
ATOM     89  C   UNL     1       0.163  21.579   9.217  1.00  0.00     0.135 A 
ATOM     90  C   UNL     1      -1.612  23.047   8.526  1.00  0.00     0.135 A 
ATOM     91  F   UNL     1       0.869  20.444   9.093  1.00  0.00    -0.206 F 
ATOM     92  C   UNL     1       0.490  22.447  10.254  1.00  0.00     0.059 A 
ATOM     93  C   UNL     1      -1.280  23.946   9.535  1.00  0.00     0.059 A 
ATOM     94  F   UNL     1      -2.634  23.360   7.714  1.00  0.00    -0.206 F 
ATOM     95  C   UNL     1      -0.240  23.627  10.406  1.00  0.00     0.060 A 
BRANCH  95  96
ATOM     96  S   UNL     1       0.196  24.744  11.755  1.00  0.00     0.124 S 
ATOM     97  O   UNL     1      -0.305  24.013  12.915  1.00  0.00    -0.237 OA
ATOM     98  O   UNL     1       1.649  24.825  11.636  1.00  0.00    -0.237 OA
ATOM     99  O   UNL     1      -0.523  25.971  11.427  1.00  0.00    -0.744 OA
ENDBRANCH  95  96
ENDBRANCH  63  88
ENDBRANCH  37  38
ENDBRANCH  29  32
ENDBRANCH  27  28
ENDBRANCH  26  27
ENDBRANCH   1  26
TORSDOF 19
