REMARK SMILES O=C(NCCCCCCNC(=O)c1cccn1C[C@@H]1C[N@@H+]2CCC[C@@H]2CO1)c1ccc(-c2c3nc(c(-c4c(F)cc(S(=O)(=O)[O-])cc4F)c4ccc([nH]4)c(-c4c(F)cc(S(=O)(=O)[O-])cc4F)c4nc(c(-c5c(F)cc(S(=O)(=O)[O-])cc5F)c5ccc2[nH]5)C=C4)C=C3)cc1
REMARK SMILES IDX 6 1 5 2 4 3 3 4 1 5 2 6 28 8 29 9 93 10 30 11 92 12 31 13
REMARK SMILES IDX 32 14 33 15 86 16 34 17 91 18 85 19 87 20 35 21 90 22 84 23
REMARK SMILES IDX 83 24 36 26 70 27 49 28 69 29 50 30 53 31 68 32 88 33 51 34
REMARK SMILES IDX 52 35 67 37 89 38 54 39 37 40 38 41 47 42 39 43 40 44 46 45
REMARK SMILES IDX 48 46 41 47 42 48 43 49 44 50 45 51 71 52 72 53 81 54 73 55
REMARK SMILES IDX 74 56 80 57 82 58 75 59 76 60 77 61 78 62 79 63 55 64 56 65
REMARK SMILES IDX 65 66 57 67 58 68 64 69 66 70 59 71 60 72 61 73 62 74 63 75
REMARK SMILES IDX 7 76 8 77 9 78 10 79 11 80 12 82 13 83 14 84 17 85 15 86
REMARK SMILES IDX 16 87 18 88 19 89 20 90 27 91 21 92 26 93 22 94 25 95 23 97
REMARK SMILES IDX 24 98
REMARK H PARENT 3 7 87 25 53 36 10 81 21 96
REMARK Flexibility Score: inf
ROOT
ATOM      1  C   UNL     1      17.268   3.977  10.351  1.00  0.00     0.002 C 
ENDROOT
BRANCH   1   2
ATOM      2  C   UNL     1      17.937   2.717   9.795  1.00  0.00     0.021 C 
BRANCH   2   3
ATOM      3  C   UNL     1      18.704   2.941   8.492  1.00  0.00     0.116 C 
BRANCH   3   4
ATOM      4  N   UNL     1      19.951   3.668   8.638  1.00  0.00    -0.352 N 
ATOM      5  O   UNL     1      22.078   4.145   9.130  1.00  0.00    -0.269 OA
ATOM      6  C   UNL     1      21.160   3.327   9.191  1.00  0.00     0.251 C 
ATOM      7  H   UNL     1      19.924   4.581   8.271  1.00  0.00     0.163 HD
BRANCH   6   8
ATOM      8  C   UNL     1      21.366   2.052   9.920  1.00  0.00     0.039 A 
ATOM      9  C   UNL     1      20.758   0.854   9.542  1.00  0.00     0.014 A 
ATOM     10  C   UNL     1      22.231   2.067  11.027  1.00  0.00     0.014 A 
ATOM     11  C   UNL     1      20.904  -0.282  10.324  1.00  0.00     0.010 A 
ATOM     12  C   UNL     1      22.428   0.914  11.787  1.00  0.00     0.010 A 
ATOM     13  C   UNL     1      21.751  -0.257  11.436  1.00  0.00    -0.014 A 
BRANCH  13  14
ATOM     14  C   UNL     1      22.069  -1.570  12.041  1.00  0.00     0.031 A 
ATOM     15  C   UNL     1      23.071  -2.353  11.147  1.00  0.00     0.074 A 
ATOM     16  C   UNL     1      21.364  -1.905  13.166  1.00  0.00     0.049 A 
ATOM     17  N   UNL     1      23.223  -3.631  10.963  1.00  0.00    -0.248 NA
ATOM     18  C   UNL     1      23.979  -1.585  10.242  1.00  0.00     0.031 C 
ATOM     19  C   UNL     1      20.449  -0.998  13.899  1.00  0.00     0.029 A 
ATOM     20  N   UNL     1      21.247  -3.057  13.918  1.00  0.00    -0.354 N 
ATOM     21  C   UNL     1      24.348  -3.817  10.118  1.00  0.00     0.074 A 
ATOM     22  C   UNL     1      24.688  -2.525   9.612  1.00  0.00     0.031 C 
ATOM     23  C   UNL     1      19.819  -1.647  14.905  1.00  0.00     0.029 A 
ATOM     24  C   UNL     1      20.260  -3.028  14.947  1.00  0.00     0.049 A 
ATOM     25  H   UNL     1      21.810  -3.848  13.755  1.00  0.00     0.167 HD
ATOM     26  C   UNL     1      24.997  -5.012   9.969  1.00  0.00     0.037 A 
ATOM     27  C   UNL     1      19.804  -4.058  15.732  1.00  0.00     0.037 A 
ATOM     28  C   UNL     1      24.348  -6.010  10.748  1.00  0.00     0.049 A 
ATOM     29  C   UNL     1      20.674  -5.192  15.389  1.00  0.00     0.074 A 
ATOM     30  C   UNL     1      23.192  -6.713  10.546  1.00  0.00     0.029 A 
ATOM     31  N   UNL     1      24.725  -6.121  12.064  1.00  0.00    -0.354 N 
ATOM     32  N   UNL     1      21.922  -5.298  15.731  1.00  0.00    -0.248 NA
ATOM     33  C   UNL     1      20.143  -6.241  14.510  1.00  0.00     0.031 C 
ATOM     34  C   UNL     1      22.651  -6.828  11.840  1.00  0.00     0.029 A 
ATOM     35  C   UNL     1      23.588  -6.394  12.787  1.00  0.00     0.049 A 
ATOM     36  H   UNL     1      25.637  -6.023  12.423  1.00  0.00     0.167 HD
ATOM     37  C   UNL     1      22.394  -6.233  14.844  1.00  0.00     0.074 A 
ATOM     38  C   UNL     1      21.244  -6.974  14.373  1.00  0.00     0.031 C 
ATOM     39  C   UNL     1      23.555  -6.009  14.180  1.00  0.00     0.037 A 
BRANCH  26  40
ATOM     40  C   UNL     1      26.299  -5.404   9.317  1.00  0.00     0.058 A 
ATOM     41  C   UNL     1      26.479  -6.761   8.940  1.00  0.00     0.135 A 
ATOM     42  C   UNL     1      27.459  -4.618   9.344  1.00  0.00     0.135 A 
ATOM     43  F   UNL     1      25.425  -7.585   8.808  1.00  0.00    -0.206 F 
ATOM     44  C   UNL     1      27.733  -7.331   8.745  1.00  0.00     0.059 A 
ATOM     45  C   UNL     1      28.730  -5.162   9.110  1.00  0.00     0.059 A 
ATOM     46  F   UNL     1      27.400  -3.319   9.669  1.00  0.00    -0.206 F 
ATOM     47  C   UNL     1      28.859  -6.530   8.867  1.00  0.00     0.060 A 
BRANCH  47  48
ATOM     48  S   UNL     1      30.479  -7.319   8.744  1.00  0.00     0.124 S 
ATOM     49  O   UNL     1      30.533  -8.089   9.982  1.00  0.00    -0.237 OA
ATOM     50  O   UNL     1      30.348  -8.103   7.519  1.00  0.00    -0.237 OA
ATOM     51  O   UNL     1      31.400  -6.189   8.659  1.00  0.00    -0.744 OA
ENDBRANCH  47  48
ENDBRANCH  26  40
BRANCH  27  52
ATOM     52  C   UNL     1      18.654  -4.373  16.681  1.00  0.00     0.058 A 
ATOM     53  C   UNL     1      17.665  -3.485  17.122  1.00  0.00     0.135 A 
ATOM     54  C   UNL     1      18.425  -5.726  17.080  1.00  0.00     0.135 A 
ATOM     55  F   UNL     1      17.805  -2.163  16.966  1.00  0.00    -0.206 F 
ATOM     56  C   UNL     1      16.471  -3.924  17.735  1.00  0.00     0.059 A 
ATOM     57  C   UNL     1      17.234  -6.193  17.631  1.00  0.00     0.059 A 
ATOM     58  F   UNL     1      19.352  -6.680  16.908  1.00  0.00    -0.206 F 
ATOM     59  C   UNL     1      16.237  -5.287  17.922  1.00  0.00     0.060 A 
BRANCH  59  60
ATOM     60  S   UNL     1      14.603  -5.897  18.398  1.00  0.00     0.124 S 
ATOM     61  O   UNL     1      14.637  -5.769  19.849  1.00  0.00    -0.237 OA
ATOM     62  O   UNL     1      13.710  -4.980  17.696  1.00  0.00    -0.237 OA
ATOM     63  O   UNL     1      14.596  -7.266  17.885  1.00  0.00    -0.744 OA
ENDBRANCH  59  60
ENDBRANCH  27  52
BRANCH  39  64
ATOM     64  C   UNL     1      24.513  -5.057  14.878  1.00  0.00     0.058 A 
ATOM     65  C   UNL     1      25.066  -5.407  16.120  1.00  0.00     0.135 A 
ATOM     66  C   UNL     1      24.842  -3.774  14.406  1.00  0.00     0.135 A 
ATOM     67  F   UNL     1      24.804  -6.611  16.652  1.00  0.00    -0.206 F 
ATOM     68  C   UNL     1      25.900  -4.543  16.839  1.00  0.00     0.059 A 
ATOM     69  C   UNL     1      25.680  -2.892  15.096  1.00  0.00     0.059 A 
ATOM     70  F   UNL     1      24.352  -3.332  13.251  1.00  0.00    -0.206 F 
ATOM     71  C   UNL     1      26.209  -3.288  16.316  1.00  0.00     0.060 A 
BRANCH  71  72
ATOM     72  S   UNL     1      27.331  -2.207  17.232  1.00  0.00     0.124 S 
ATOM     73  O   UNL     1      26.611  -1.997  18.484  1.00  0.00    -0.237 OA
ATOM     74  O   UNL     1      28.534  -3.027  17.325  1.00  0.00    -0.237 OA
ATOM     75  O   UNL     1      27.449  -1.026  16.380  1.00  0.00    -0.744 OA
ENDBRANCH  71  72
ENDBRANCH  39  64
ENDBRANCH  13  14
ENDBRANCH   6   8
ENDBRANCH   3   4
ENDBRANCH   2   3
ENDBRANCH   1   2
BRANCH   1  76
ATOM     76  C   UNL     1      16.336   4.703   9.375  1.00  0.00     0.002 C 
BRANCH  76  77
ATOM     77  C   UNL     1      15.253   3.829   8.729  1.00  0.00     0.021 C 
BRANCH  77  78
ATOM     78  C   UNL     1      14.278   3.188   9.716  1.00  0.00     0.116 C 
BRANCH  78  79
ATOM     79  N   UNL     1      13.503   4.199  10.409  1.00  0.00    -0.351 N 
ATOM     80  C   UNL     1      12.148   4.402  10.418  1.00  0.00     0.267 C 
ATOM     81  H   UNL     1      14.027   4.832  10.951  1.00  0.00     0.163 HD
ATOM     82  O   UNL     1      11.727   5.467  10.859  1.00  0.00    -0.268 OA
BRANCH  80  83
ATOM     83  C   UNL     1      11.280   3.354   9.926  1.00  0.00     0.107 A 
ATOM     84  C   UNL     1      11.295   2.004  10.255  1.00  0.00     0.033 A 
ATOM     85  N   UNL     1      10.205   3.538   9.073  1.00  0.00    -0.341 N 
ATOM     86  C   UNL     1      10.172   1.389   9.662  1.00  0.00     0.020 A 
ATOM     87  C   UNL     1       9.476   2.377   9.009  1.00  0.00     0.086 A 
BRANCH  85  88
ATOM     88  C   UNL     1       9.840   4.770   8.398  1.00  0.00     0.160 C 
BRANCH  88  89
ATOM     89  C   UNL     1      10.012   4.840   6.862  1.00  0.00     0.193 C 
ATOM     90  C   UNL     1       9.100   3.907   6.024  1.00  0.00     0.296 C 
ATOM     91  O   UNL     1      11.385   4.846   6.431  1.00  0.00    -0.364 OA
ATOM     92  N   UNL     1       9.706   2.727   5.452  1.00  0.00    -0.328 N 
ATOM     93  C   UNL     1      11.944   3.535   6.327  1.00  0.00     0.225 C 
ATOM     94  C   UNL     1       9.069   1.434   5.553  1.00  0.00     0.262 C 
ATOM     95  C   UNL     1      11.155   2.636   5.372  1.00  0.00     0.210 C 
ATOM     96  H   UNL     1       9.400   3.042   4.531  1.00  0.00     0.348 HD
ATOM     97  C   UNL     1      10.164   0.468   5.125  1.00  0.00     0.068 C 
ATOM     98  C   UNL     1      11.444   1.152   5.581  1.00  0.00     0.073 C 
ENDBRANCH  88  89
ENDBRANCH  85  88
ENDBRANCH  80  83
ENDBRANCH  78  79
ENDBRANCH  77  78
ENDBRANCH  76  77
ENDBRANCH   1  76
TORSDOF 18
