REMARK SMILES C[C@H](CC(=O)NCCCCCCNC(=O)c1ccc(-c2c3nc(c(-c4c(F)cc(S(=O)(=O)[O-])cc4F)c4ccc([nH]4)c(-c4c(F)cc(S(=O)(=O)[O-])cc4F)c4nc(c(-c5c(F)cc(S(=O)(=O)[O-])cc5F)c5ccc2[nH]5)C=C4)C=C3)cc1)NC(=O)Cc1cn2ccsc2n1
REMARK SMILES IDX 9 1 8 2 7 3 6 4 4 5 5 6 3 8 2 9 1 10 82 11 83 12 84 14 85 15
REMARK SMILES IDX 86 16 87 17 93 18 88 19 92 20 89 21 91 22 90 23 10 24 11 25
REMARK SMILES IDX 12 26 13 27 14 28 15 30 16 31 17 32 81 33 18 34 80 35 19 36
REMARK SMILES IDX 20 37 21 38 74 39 22 40 79 41 73 42 75 43 23 44 78 45 72 46
REMARK SMILES IDX 71 47 24 49 58 50 37 51 57 52 38 53 41 54 56 55 76 56 39 57
REMARK SMILES IDX 40 58 55 60 77 61 42 62 25 63 26 64 35 65 27 66 28 67 34 68
REMARK SMILES IDX 36 69 29 70 30 71 31 72 32 73 33 74 59 75 60 76 69 77 61 78
REMARK SMILES IDX 62 79 68 80 70 81 63 82 64 83 65 84 66 85 67 86 43 87 44 88
REMARK SMILES IDX 53 89 45 90 46 91 52 92 54 93 47 94 48 95 49 96 50 97 51 98
REMARK H PARENT 6 7 82 13 13 29 75 48 41 59
REMARK Flexibility Score: inf
ROOT
ATOM      1  C   UNL     1       4.230   3.191  -2.744  1.00  0.00     0.002 C 
ENDROOT
BRANCH   1   2
ATOM      2  C   UNL     1       2.886   2.480  -2.564  1.00  0.00     0.021 C 
BRANCH   2   3
ATOM      3  C   UNL     1       3.003   1.001  -2.187  1.00  0.00     0.116 C 
BRANCH   3   4
ATOM      4  N   UNL     1       3.094   0.856  -0.749  1.00  0.00    -0.356 N 
ATOM      5  C   UNL     1       2.124   0.574   0.164  1.00  0.00     0.222 C 
ATOM      6  O   UNL     1       2.442   0.623   1.354  1.00  0.00    -0.275 OA
ATOM      7  H   UNL     1       3.996   0.980  -0.374  1.00  0.00     0.163 HD
BRANCH   5   8
ATOM      8  C   UNL     1       0.716   0.192  -0.275  1.00  0.00     0.124 C 
BRANCH   8   9
ATOM      9  C   UNL     1      -0.183   1.403  -0.579  1.00  0.00     0.088 C 
ATOM     10  C   UNL     1      -0.492   1.547  -2.072  1.00  0.00     0.031 C 
BRANCH   9  11
ATOM     11  N   UNL     1      -1.494   1.283   0.067  1.00  0.00    -0.353 N 
ATOM     12  C   UNL     1      -2.100   2.125   0.957  1.00  0.00     0.226 C 
ATOM     13  H   UNL     1      -2.012   0.481  -0.174  1.00  0.00     0.163 HD
ATOM     14  O   UNL     1      -3.311   1.999   1.156  1.00  0.00    -0.275 OA
BRANCH  12  15
ATOM     15  C   UNL     1      -1.286   3.198   1.653  1.00  0.00     0.157 C 
BRANCH  15  16
ATOM     16  C   UNL     1      -0.368   2.617   2.674  1.00  0.00     0.070 A 
ATOM     17  C   UNL     1       0.734   3.212   3.282  1.00  0.00     0.118 A 
ATOM     18  N   UNL     1      -0.549   1.321   3.140  1.00  0.00    -0.223 NA
ATOM     19  N   UNL     1       1.244   2.239   4.088  1.00  0.00    -0.297 N 
ATOM     20  C   UNL     1       0.449   1.144   3.957  1.00  0.00     0.193 A 
ATOM     21  C   UNL     1       2.299   2.103   4.960  1.00  0.00     0.104 A 
ATOM     22  S   UNL     1       1.005  -0.165   4.949  1.00  0.00    -0.105 S 
ATOM     23  C   UNL     1       2.329   0.875   5.507  1.00  0.00     0.087 A 
ENDBRANCH  15  16
ENDBRANCH  12  15
ENDBRANCH   9  11
ENDBRANCH   8   9
ENDBRANCH   5   8
ENDBRANCH   3   4
ENDBRANCH   2   3
ENDBRANCH   1   2
BRANCH   1  24
ATOM     24  C   UNL     1       5.055   2.715  -3.946  1.00  0.00     0.002 C 
BRANCH  24  25
ATOM     25  C   UNL     1       4.314   2.684  -5.288  1.00  0.00     0.021 C 
BRANCH  25  26
ATOM     26  C   UNL     1       3.682   4.009  -5.709  1.00  0.00     0.116 C 
BRANCH  26  27
ATOM     27  N   UNL     1       4.683   5.042  -5.921  1.00  0.00    -0.352 N 
ATOM     28  C   UNL     1       5.007   5.714  -7.070  1.00  0.00     0.251 C 
ATOM     29  H   UNL     1       5.202   5.294  -5.124  1.00  0.00     0.163 HD
ATOM     30  O   UNL     1       6.042   6.384  -7.112  1.00  0.00    -0.269 OA
BRANCH  28  31
ATOM     31  C   UNL     1       4.131   5.635  -8.257  1.00  0.00     0.039 A 
ATOM     32  C   UNL     1       4.708   5.442  -9.515  1.00  0.00     0.014 A 
ATOM     33  C   UNL     1       2.746   5.788  -8.137  1.00  0.00     0.014 A 
ATOM     34  C   UNL     1       3.893   5.353 -10.647  1.00  0.00     0.010 A 
ATOM     35  C   UNL     1       1.931   5.640  -9.258  1.00  0.00     0.010 A 
ATOM     36  C   UNL     1       2.496   5.428 -10.525  1.00  0.00    -0.014 A 
BRANCH  36  37
ATOM     37  C   UNL     1       1.612   5.294 -11.710  1.00  0.00     0.031 A 
ATOM     38  C   UNL     1       0.776   6.459 -12.167  1.00  0.00     0.074 A 
ATOM     39  C   UNL     1       1.511   4.105 -12.335  1.00  0.00     0.049 A 
ATOM     40  N   UNL     1      -0.106   6.515 -13.132  1.00  0.00    -0.248 NA
ATOM     41  C   UNL     1       0.935   7.720 -11.425  1.00  0.00     0.031 C 
ATOM     42  C   UNL     1       2.232   2.888 -11.957  1.00  0.00     0.029 A 
ATOM     43  N   UNL     1       0.751   3.719 -13.411  1.00  0.00    -0.354 N 
ATOM     44  C   UNL     1      -0.621   7.806 -13.101  1.00  0.00     0.074 A 
ATOM     45  C   UNL     1       0.017   8.487 -11.995  1.00  0.00     0.031 C 
ATOM     46  C   UNL     1       1.890   1.895 -12.795  1.00  0.00     0.029 A 
ATOM     47  C   UNL     1       0.904   2.395 -13.749  1.00  0.00     0.049 A 
ATOM     48  H   UNL     1       0.153   4.332 -13.895  1.00  0.00     0.167 HD
ATOM     49  C   UNL     1      -1.528   8.377 -13.930  1.00  0.00     0.037 A 
ATOM     50  C   UNL     1       0.312   1.664 -14.713  1.00  0.00     0.037 A 
ATOM     51  C   UNL     1      -2.136   7.704 -15.047  1.00  0.00     0.049 A 
ATOM     52  C   UNL     1      -0.675   2.324 -15.635  1.00  0.00     0.074 A 
ATOM     53  C   UNL     1      -3.015   8.215 -15.986  1.00  0.00     0.029 A 
ATOM     54  N   UNL     1      -1.930   6.372 -15.378  1.00  0.00    -0.354 N 
ATOM     55  N   UNL     1      -1.103   3.564 -15.630  1.00  0.00    -0.248 NA
ATOM     56  C   UNL     1      -1.255   1.490 -16.696  1.00  0.00     0.031 C 
ATOM     57  C   UNL     1      -3.367   7.184 -16.864  1.00  0.00     0.029 A 
ATOM     58  C   UNL     1      -2.677   6.040 -16.496  1.00  0.00     0.049 A 
ATOM     59  H   UNL     1      -1.339   5.755 -14.889  1.00  0.00     0.167 HD
ATOM     60  C   UNL     1      -1.985   3.665 -16.700  1.00  0.00     0.074 A 
ATOM     61  C   UNL     1      -2.022   2.364 -17.336  1.00  0.00     0.031 C 
ATOM     62  C   UNL     1      -2.699   4.740 -17.119  1.00  0.00     0.037 A 
BRANCH  49  63
ATOM     63  C   UNL     1      -1.914   9.805 -13.657  1.00  0.00     0.058 A 
ATOM     64  C   UNL     1      -1.025  10.867 -13.893  1.00  0.00     0.135 A 
ATOM     65  C   UNL     1      -3.195  10.119 -13.175  1.00  0.00     0.135 A 
ATOM     66  F   UNL     1       0.216  10.622 -14.341  1.00  0.00    -0.206 F 
ATOM     67  C   UNL     1      -1.379  12.185 -13.626  1.00  0.00     0.059 A 
ATOM     68  C   UNL     1      -3.580  11.434 -12.926  1.00  0.00     0.059 A 
ATOM     69  F   UNL     1      -4.085   9.144 -12.934  1.00  0.00    -0.206 F 
ATOM     70  C   UNL     1      -2.658  12.458 -13.138  1.00  0.00     0.060 A 
BRANCH  70  71
ATOM     71  S   UNL     1      -3.100  14.173 -12.785  1.00  0.00     0.124 S 
ATOM     72  O   UNL     1      -2.379  14.407 -11.537  1.00  0.00    -0.237 OA
ATOM     73  O   UNL     1      -2.586  14.877 -13.955  1.00  0.00    -0.237 OA
ATOM     74  O   UNL     1      -4.554  14.132 -12.671  1.00  0.00    -0.744 OA
ENDBRANCH  70  71
ENDBRANCH  49  63
BRANCH  50  75
ATOM     75  C   UNL     1       0.664   0.228 -14.869  1.00  0.00     0.058 A 
ATOM     76  C   UNL     1       1.454  -0.207 -15.943  1.00  0.00     0.135 A 
ATOM     77  C   UNL     1       0.245  -0.730 -13.932  1.00  0.00     0.135 A 
ATOM     78  F   UNL     1       1.872   0.672 -16.866  1.00  0.00    -0.206 F 
ATOM     79  C   UNL     1       1.812  -1.543 -16.088  1.00  0.00     0.059 A 
ATOM     80  C   UNL     1       0.608  -2.068 -14.045  1.00  0.00     0.059 A 
ATOM     81  F   UNL     1      -0.498  -0.359 -12.878  1.00  0.00    -0.206 F 
ATOM     82  C   UNL     1       1.387  -2.466 -15.131  1.00  0.00     0.060 A 
BRANCH  82  83
ATOM     83  S   UNL     1       1.915  -4.186 -15.291  1.00  0.00     0.124 S 
ATOM     84  O   UNL     1       1.056  -4.657 -16.370  1.00  0.00    -0.237 OA
ATOM     85  O   UNL     1       3.331  -4.045 -15.616  1.00  0.00    -0.237 OA
ATOM     86  O   UNL     1       1.637  -4.744 -13.971  1.00  0.00    -0.744 OA
ENDBRANCH  82  83
ENDBRANCH  50  75
BRANCH  62  87
ATOM     87  C   UNL     1      -3.561   4.563 -18.337  1.00  0.00     0.058 A 
ATOM     88  C   UNL     1      -4.770   3.853 -18.285  1.00  0.00     0.135 A 
ATOM     89  C   UNL     1      -3.198   5.156 -19.556  1.00  0.00     0.135 A 
ATOM     90  F   UNL     1      -5.159   3.262 -17.144  1.00  0.00    -0.206 F 
ATOM     91  C   UNL     1      -5.581   3.719 -19.407  1.00  0.00     0.059 A 
ATOM     92  C   UNL     1      -4.005   5.055 -20.685  1.00  0.00     0.059 A 
ATOM     93  F   UNL     1      -2.055   5.854 -19.655  1.00  0.00    -0.206 F 
ATOM     94  C   UNL     1      -5.190   4.325 -20.604  1.00  0.00     0.060 A 
BRANCH  94  95
ATOM     95  S   UNL     1      -6.267   4.175 -22.045  1.00  0.00     0.124 S 
ATOM     96  O   UNL     1      -5.999   2.805 -22.470  1.00  0.00    -0.237 OA
ATOM     97  O   UNL     1      -7.589   4.415 -21.476  1.00  0.00    -0.237 OA
ATOM     98  O   UNL     1      -5.780   5.219 -22.942  1.00  0.00    -0.744 OA
ENDBRANCH  94  95
ENDBRANCH  62  87
ENDBRANCH  36  37
ENDBRANCH  28  31
ENDBRANCH  26  27
ENDBRANCH  25  26
ENDBRANCH  24  25
ENDBRANCH   1  24
TORSDOF 20
