REMARK SMILES C=CC[C@]1(C(=O)NCCCCCCNC(=O)c2ccc(-c3c4nc(c(-c5c(F)cc(S(=O)(=O)[O-])cc5F)c5ccc([nH]5)c(-c5c(F)cc(S(=O)(=O)[O-])cc5F)c5nc(c(-c6c(F)cc(S(=O)(=O)[O-])cc6F)c6ccc3[nH]6)C=C5)C=C4)cc2)c2ccccc2C(=O)N1Cc1ccc([N+](=O)[O-])cc1
REMARK SMILES IDX 10 1 9 2 8 3 7 4 5 5 6 6 4 8 83 9 91 10 84 11 88 12 89 13
REMARK SMILES IDX 85 14 87 15 90 16 86 17 3 18 2 19 1 20 92 21 93 22 94 23
REMARK SMILES IDX 101 24 95 25 100 26 96 27 97 28 98 29 99 30 11 31 12 32
REMARK SMILES IDX 13 33 14 34 15 35 16 37 17 38 18 39 82 40 19 41 81 42 20 43
REMARK SMILES IDX 21 44 22 45 75 46 23 47 80 48 74 49 76 50 24 51 79 52 73 53
REMARK SMILES IDX 72 54 25 56 59 57 38 58 58 59 39 60 42 61 57 62 77 63 40 64
REMARK SMILES IDX 41 65 56 67 78 68 43 69 26 70 27 71 36 72 28 73 29 74 35 75
REMARK SMILES IDX 37 76 30 77 31 78 32 79 33 80 34 81 60 82 61 83 70 84 62 85
REMARK SMILES IDX 63 86 69 87 71 88 64 89 65 90 66 91 67 92 68 93 44 94 45 95
REMARK SMILES IDX 54 96 46 97 47 98 53 99 55 100 48 101 49 102 50 103 51 104
REMARK SMILES IDX 52 105
REMARK H PARENT 7 7 14 36 76 55 42 66
REMARK Flexibility Score: inf
ROOT
ATOM      1  C   UNL     1       3.112  -0.047   0.345  1.00  0.00     0.002 C 
ENDROOT
BRANCH   1   2
ATOM      2  C   UNL     1       2.332   0.093  -0.965  1.00  0.00     0.021 C 
BRANCH   2   3
ATOM      3  C   UNL     1       1.303  -1.010  -1.183  1.00  0.00     0.116 C 
BRANCH   3   4
ATOM      4  N   UNL     1       0.150  -0.830  -0.320  1.00  0.00    -0.354 N 
ATOM      5  C   UNL     1      -1.183  -0.762  -0.607  1.00  0.00     0.251 C 
ATOM      6  O   UNL     1      -1.927  -0.470   0.340  1.00  0.00    -0.272 OA
ATOM      7  H   UNL     1       0.367  -0.742   0.636  1.00  0.00     0.163 HD
BRANCH   5   8
ATOM      8  C   UNL     1      -1.748  -0.913  -2.062  1.00  0.00     0.151 C 
ATOM      9  C   UNL     1      -1.266   0.259  -2.899  1.00  0.00     0.000 A 
ATOM     10  N   UNL     1      -1.208  -2.071  -2.817  1.00  0.00    -0.315 N 
ATOM     11  C   UNL     1      -1.357   1.621  -2.649  1.00  0.00     0.007 A 
ATOM     12  C   UNL     1      -0.623  -0.209  -4.045  1.00  0.00     0.046 A 
ATOM     13  C   UNL     1      -0.617  -1.680  -4.012  1.00  0.00     0.255 C 
ATOM     14  C   UNL     1      -0.773   2.500  -3.565  1.00  0.00     0.000 A 
ATOM     15  C   UNL     1      -0.037   0.643  -4.962  1.00  0.00     0.014 A 
ATOM     16  O   UNL     1      -0.142  -2.387  -4.880  1.00  0.00    -0.269 OA
ATOM     17  C   UNL     1      -0.116   2.015  -4.710  1.00  0.00     0.001 A 
BRANCH   8  18
ATOM     18  C   UNL     1      -3.312  -0.927  -2.022  1.00  0.00     0.070 C 
BRANCH  18  19
ATOM     19  C   UNL     1      -4.015  -0.866  -3.362  1.00  0.00    -0.031 C 
ATOM     20  C   UNL     1      -4.725  -1.862  -3.904  1.00  0.00     0.004 C 
ENDBRANCH  18  19
ENDBRANCH   8  18
BRANCH  10  21
ATOM     21  C   UNL     1      -1.463  -3.473  -2.492  1.00  0.00     0.157 C 
BRANCH  21  22
ATOM     22  C   UNL     1      -0.910  -3.937  -1.161  1.00  0.00    -0.028 A 
ATOM     23  C   UNL     1       0.339  -4.578  -1.090  1.00  0.00     0.012 A 
ATOM     24  C   UNL     1      -1.623  -3.722   0.030  1.00  0.00     0.012 A 
ATOM     25  C   UNL     1       0.885  -4.950   0.145  1.00  0.00     0.086 A 
ATOM     26  C   UNL     1      -1.071  -4.052   1.270  1.00  0.00     0.086 A 
ATOM     27  C   UNL     1       0.187  -4.660   1.322  1.00  0.00     0.269 A 
BRANCH  27  28
ATOM     28  N   UNL     1       0.779  -4.979   2.624  1.00  0.00     0.062 N 
ATOM     29  O   UNL     1       1.714  -5.791   2.650  1.00  0.00    -0.258 OA
ATOM     30  O   UNL     1       0.311  -4.411   3.623  1.00  0.00    -0.258 OA
ENDBRANCH  27  28
ENDBRANCH  21  22
ENDBRANCH  10  21
ENDBRANCH   5   8
ENDBRANCH   3   4
ENDBRANCH   2   3
ENDBRANCH   1   2
BRANCH   1  31
ATOM     31  C   UNL     1       3.893  -1.359   0.493  1.00  0.00     0.002 C 
BRANCH  31  32
ATOM     32  C   UNL     1       4.847  -1.683  -0.660  1.00  0.00     0.021 C 
BRANCH  32  33
ATOM     33  C   UNL     1       5.872  -0.595  -0.967  1.00  0.00     0.116 C 
BRANCH  33  34
ATOM     34  N   UNL     1       6.725  -0.310   0.175  1.00  0.00    -0.352 N 
ATOM     35  C   UNL     1       8.093  -0.229   0.235  1.00  0.00     0.251 C 
ATOM     36  H   UNL     1       6.254  -0.152   1.026  1.00  0.00     0.163 HD
ATOM     37  O   UNL     1       8.657  -0.159   1.323  1.00  0.00    -0.269 OA
BRANCH  35  38
ATOM     38  C   UNL     1       8.882  -0.246  -1.014  1.00  0.00     0.039 A 
ATOM     39  C   UNL     1      10.006  -1.071  -1.092  1.00  0.00     0.014 A 
ATOM     40  C   UNL     1       8.517   0.553  -2.102  1.00  0.00     0.014 A 
ATOM     41  C   UNL     1      10.735  -1.135  -2.281  1.00  0.00     0.010 A 
ATOM     42  C   UNL     1       9.206   0.439  -3.306  1.00  0.00     0.010 A 
ATOM     43  C   UNL     1      10.324  -0.402  -3.406  1.00  0.00    -0.014 A 
BRANCH  43  44
ATOM     44  C   UNL     1      11.053  -0.502  -4.696  1.00  0.00     0.031 A 
ATOM     45  C   UNL     1      11.758   0.701  -5.260  1.00  0.00     0.074 A 
ATOM     46  C   UNL     1      11.023  -1.658  -5.389  1.00  0.00     0.049 A 
ATOM     47  N   UNL     1      12.387   0.831  -6.399  1.00  0.00    -0.248 NA
ATOM     48  C   UNL     1      11.728   1.930  -4.449  1.00  0.00     0.031 C 
ATOM     49  C   UNL     1      10.331  -2.879  -4.968  1.00  0.00     0.029 A 
ATOM     50  N   UNL     1      11.577  -1.994  -6.598  1.00  0.00    -0.354 N 
ATOM     51  C   UNL     1      12.810   2.154  -6.452  1.00  0.00     0.074 A 
ATOM     52  C   UNL     1      12.328   2.799  -5.250  1.00  0.00     0.031 C 
ATOM     53  C   UNL     1      10.517  -3.833  -5.895  1.00  0.00     0.029 A 
ATOM     54  C   UNL     1      11.309  -3.284  -6.991  1.00  0.00     0.049 A 
ATOM     55  H   UNL     1      12.116  -1.369  -7.135  1.00  0.00     0.167 HD
ATOM     56  C   UNL     1      13.550   2.768  -7.405  1.00  0.00     0.037 A 
ATOM     57  C   UNL     1      11.656  -3.947  -8.111  1.00  0.00     0.037 A 
ATOM     58  C   UNL     1      14.056   2.109  -8.581  1.00  0.00     0.049 A 
ATOM     59  C   UNL     1      12.488  -3.244  -9.150  1.00  0.00     0.074 A 
ATOM     60  C   UNL     1      14.879   2.623  -9.567  1.00  0.00     0.029 A 
ATOM     61  N   UNL     1      13.787   0.794  -8.930  1.00  0.00    -0.354 N 
ATOM     62  N   UNL     1      12.943  -2.014  -9.147  1.00  0.00    -0.248 NA
ATOM     63  C   UNL     1      12.858  -4.020 -10.342  1.00  0.00     0.031 C 
ATOM     64  C   UNL     1      15.071   1.632 -10.536  1.00  0.00     0.029 A 
ATOM     65  C   UNL     1      14.408   0.486 -10.129  1.00  0.00     0.049 A 
ATOM     66  H   UNL     1      13.235   0.171  -8.403  1.00  0.00     0.167 HD
ATOM     67  C   UNL     1      13.677  -1.877 -10.320  1.00  0.00     0.074 A 
ATOM     68  C   UNL     1      13.614  -3.153 -11.003  1.00  0.00     0.031 C 
ATOM     69  C   UNL     1      14.344  -0.794 -10.790  1.00  0.00     0.037 A 
BRANCH  56  70
ATOM     70  C   UNL     1      13.861   4.228  -7.220  1.00  0.00     0.058 A 
ATOM     71  C   UNL     1      14.758   4.673  -6.236  1.00  0.00     0.135 A 
ATOM     72  C   UNL     1      13.288   5.192  -8.066  1.00  0.00     0.135 A 
ATOM     73  F   UNL     1      15.322   3.798  -5.389  1.00  0.00    -0.206 F 
ATOM     74  C   UNL     1      15.057   6.023  -6.081  1.00  0.00     0.059 A 
ATOM     75  C   UNL     1      13.595   6.544  -7.948  1.00  0.00     0.059 A 
ATOM     76  F   UNL     1      12.423   4.822  -9.024  1.00  0.00    -0.206 F 
ATOM     77  C   UNL     1      14.471   6.952  -6.943  1.00  0.00     0.060 A 
BRANCH  77  78
ATOM     78  S   UNL     1      14.879   8.698  -6.736  1.00  0.00     0.124 S 
ATOM     79  O   UNL     1      14.140   9.027  -5.521  1.00  0.00    -0.237 OA
ATOM     80  O   UNL     1      16.332   8.666  -6.605  1.00  0.00    -0.237 OA
ATOM     81  O   UNL     1      14.377   9.312  -7.962  1.00  0.00    -0.744 OA
ENDBRANCH  77  78
ENDBRANCH  56  70
BRANCH  57  82
ATOM     82  C   UNL     1      11.235  -5.361  -8.302  1.00  0.00     0.058 A 
ATOM     83  C   UNL     1      12.171  -6.404  -8.254  1.00  0.00     0.135 A 
ATOM     84  C   UNL     1       9.893  -5.698  -8.535  1.00  0.00     0.135 A 
ATOM     85  F   UNL     1      13.468  -6.132  -8.039  1.00  0.00    -0.206 F 
ATOM     86  C   UNL     1      11.798  -7.729  -8.453  1.00  0.00     0.059 A 
ATOM     87  C   UNL     1       9.490  -7.018  -8.711  1.00  0.00     0.059 A 
ATOM     88  F   UNL     1       8.955  -4.739  -8.572  1.00  0.00    -0.206 F 
ATOM     89  C   UNL     1      10.453  -8.026  -8.682  1.00  0.00     0.060 A 
BRANCH  89  90
ATOM     90  S   UNL     1       9.973  -9.753  -8.905  1.00  0.00     0.124 S 
ATOM     91  O   UNL     1      10.464 -10.022 -10.251  1.00  0.00    -0.237 OA
ATOM     92  O   UNL     1      10.689 -10.414  -7.819  1.00  0.00    -0.237 OA
ATOM     93  O   UNL     1       8.521  -9.717  -8.757  1.00  0.00    -0.744 OA
ENDBRANCH  89  90
ENDBRANCH  57  82
BRANCH  69  94
ATOM     94  C   UNL     1      15.092  -0.949 -12.084  1.00  0.00     0.058 A 
ATOM     95  C   UNL     1      14.426  -1.026 -13.317  1.00  0.00     0.135 A 
ATOM     96  C   UNL     1      16.497  -0.967 -12.094  1.00  0.00     0.135 A 
ATOM     97  F   UNL     1      13.085  -1.020 -13.362  1.00  0.00    -0.206 F 
ATOM     98  C   UNL     1      15.126  -1.136 -14.514  1.00  0.00     0.059 A 
ATOM     99  C   UNL     1      17.217  -1.049 -13.281  1.00  0.00     0.059 A 
ATOM    100  F   UNL     1      17.182  -0.885 -10.942  1.00  0.00    -0.206 F 
ATOM    101  C   UNL     1      16.522  -1.145 -14.486  1.00  0.00     0.060 A 
BRANCH 101 102
ATOM    102  S   UNL     1      17.420  -1.251 -16.048  1.00  0.00     0.124 S 
ATOM    103  O   UNL     1      17.232  -2.654 -16.400  1.00  0.00    -0.237 OA
ATOM    104  O   UNL     1      16.709  -0.287 -16.884  1.00  0.00    -0.237 OA
ATOM    105  O   UNL     1      18.782  -0.871 -15.684  1.00  0.00    -0.744 OA
ENDBRANCH 101 102
ENDBRANCH  69  94
ENDBRANCH  43  44
ENDBRANCH  35  38
ENDBRANCH  33  34
ENDBRANCH  32  33
ENDBRANCH  31  32
ENDBRANCH   1  31
TORSDOF 21
