REMARK SMILES O=C(NCCCCCCNC(=O)[C@H]1C[C@H]1c1ccc(C2CC2)cc1)c1ccc(-c2c3nc(c(-c4c(F)cc(S(=O)(=O)[O-])cc4F)c4ccc([nH]4)c(-c4c(F)cc(S(=O)(=O)[O-])cc4F)c4nc(c(-c5c(F)cc(S(=O)(=O)[O-])cc5F)c5ccc2[nH]5)C=C4)C=C3)cc1
REMARK SMILES IDX 6 1 5 2 4 3 3 4 1 5 2 6 25 8 26 9 90 10 27 11 89 12 28 13
REMARK SMILES IDX 29 14 30 15 83 16 31 17 88 18 82 19 84 20 32 21 87 22 81 23
REMARK SMILES IDX 80 24 33 26 67 27 46 28 66 29 47 30 50 31 65 32 85 33 48 34
REMARK SMILES IDX 49 35 64 37 86 38 51 39 34 40 35 41 44 42 36 43 37 44 43 45
REMARK SMILES IDX 45 46 38 47 39 48 40 49 41 50 42 51 68 52 69 53 78 54 70 55
REMARK SMILES IDX 71 56 77 57 79 58 72 59 73 60 74 61 75 62 76 63 52 64 53 65
REMARK SMILES IDX 62 66 54 67 55 68 61 69 63 70 56 71 57 72 58 73 59 74 60 75
REMARK SMILES IDX 7 76 8 77 9 78 10 79 11 80 12 82 13 83 14 84 15 85 16 86
REMARK SMILES IDX 17 87 24 88 18 89 23 90 19 91 20 92 21 93 22 94
REMARK H PARENT 3 7 84 25 50 36 10 81
REMARK Flexibility Score: inf
ROOT
ATOM      1  C   UNL     1      11.168  -2.221  -0.070  1.00  0.00     0.002 C 
ENDROOT
BRANCH   1   2
ATOM      2  C   UNL     1      12.142  -1.359  -0.874  1.00  0.00     0.021 C 
BRANCH   2   3
ATOM      3  C   UNL     1      11.725   0.088  -1.112  1.00  0.00     0.116 C 
BRANCH   3   4
ATOM      4  N   UNL     1      11.672   0.882   0.102  1.00  0.00    -0.352 N 
ATOM      5  O   UNL     1      12.188   2.555   1.521  1.00  0.00    -0.269 OA
ATOM      6  C   UNL     1      12.274   2.087   0.389  1.00  0.00     0.251 C 
ATOM      7  H   UNL     1      11.125   0.504   0.828  1.00  0.00     0.163 HD
BRANCH   6   8
ATOM      8  C   UNL     1      13.059   2.801  -0.648  1.00  0.00     0.039 A 
ATOM      9  C   UNL     1      12.584   2.938  -1.954  1.00  0.00     0.014 A 
ATOM     10  C   UNL     1      14.300   3.345  -0.301  1.00  0.00     0.014 A 
ATOM     11  C   UNL     1      13.412   3.469  -2.941  1.00  0.00     0.010 A 
ATOM     12  C   UNL     1      15.098   3.950  -1.279  1.00  0.00     0.010 A 
ATOM     13  C   UNL     1      14.681   3.976  -2.618  1.00  0.00    -0.014 A 
BRANCH  13  14
ATOM     14  C   UNL     1      15.542   4.535  -3.696  1.00  0.00     0.031 A 
ATOM     15  C   UNL     1      16.838   3.869  -4.080  1.00  0.00     0.074 A 
ATOM     16  C   UNL     1      15.126   5.628  -4.366  1.00  0.00     0.049 A 
ATOM     17  N   UNL     1      17.674   4.186  -5.037  1.00  0.00    -0.248 NA
ATOM     18  C   UNL     1      17.256   2.705  -3.284  1.00  0.00     0.031 C 
ATOM     19  C   UNL     1      13.902   6.378  -4.075  1.00  0.00     0.029 A 
ATOM     20  N   UNL     1      15.669   6.283  -5.441  1.00  0.00    -0.354 N 
ATOM     21  C   UNL     1      18.726   3.281  -4.943  1.00  0.00     0.074 A 
ATOM     22  C   UNL     1      18.432   2.413  -3.823  1.00  0.00     0.031 C 
ATOM     23  C   UNL     1      13.760   7.356  -4.983  1.00  0.00     0.029 A 
ATOM     24  C   UNL     1      14.901   7.329  -5.893  1.00  0.00     0.049 A 
ATOM     25  H   UNL     1      16.528   6.028  -5.851  1.00  0.00     0.167 HD
ATOM     26  C   UNL     1      19.830   3.178  -5.723  1.00  0.00     0.037 A 
ATOM     27  C   UNL     1      15.087   8.172  -6.927  1.00  0.00     0.037 A 
ATOM     28  C   UNL     1      20.108   4.021  -6.857  1.00  0.00     0.049 A 
ATOM     29  C   UNL     1      16.301   8.014  -7.796  1.00  0.00     0.074 A 
ATOM     30  C   UNL     1      21.181   3.966  -7.731  1.00  0.00     0.029 A 
ATOM     31  N   UNL     1      19.305   5.071  -7.279  1.00  0.00    -0.354 N 
ATOM     32  N   UNL     1      17.266   7.131  -7.709  1.00  0.00    -0.248 NA
ATOM     33  C   UNL     1      16.450   8.967  -8.904  1.00  0.00     0.031 C 
ATOM     34  C   UNL     1      21.040   4.998  -8.666  1.00  0.00     0.029 A 
ATOM     35  C   UNL     1      19.863   5.676  -8.394  1.00  0.00     0.049 A 
ATOM     36  H   UNL     1      18.463   5.345  -6.850  1.00  0.00     0.167 HD
ATOM     37  C   UNL     1      18.130   7.410  -8.761  1.00  0.00     0.074 A 
ATOM     38  C   UNL     1      17.565   8.536  -9.479  1.00  0.00     0.031 C 
ATOM     39  C   UNL     1      19.287   6.791  -9.101  1.00  0.00     0.037 A 
BRANCH  26  40
ATOM     40  C   UNL     1      20.835   2.117  -5.368  1.00  0.00     0.058 A 
ATOM     41  C   UNL     1      20.599   0.759  -5.633  1.00  0.00     0.135 A 
ATOM     42  C   UNL     1      22.064   2.467  -4.786  1.00  0.00     0.135 A 
ATOM     43  F   UNL     1      19.434   0.369  -6.175  1.00  0.00    -0.206 F 
ATOM     44  C   UNL     1      21.535  -0.218  -5.310  1.00  0.00     0.059 A 
ATOM     45  C   UNL     1      23.024   1.508  -4.473  1.00  0.00     0.059 A 
ATOM     46  F   UNL     1      22.341   3.751  -4.513  1.00  0.00    -0.206 F 
ATOM     47  C   UNL     1      22.743   0.166  -4.725  1.00  0.00     0.060 A 
BRANCH  47  48
ATOM     48  S   UNL     1      23.949  -1.111  -4.305  1.00  0.00     0.124 S 
ATOM     49  O   UNL     1      23.375  -1.659  -3.080  1.00  0.00    -0.237 OA
ATOM     50  O   UNL     1      23.902  -1.987  -5.471  1.00  0.00    -0.237 OA
ATOM     51  O   UNL     1      25.191  -0.363  -4.138  1.00  0.00    -0.744 OA
ENDBRANCH  47  48
ENDBRANCH  26  40
BRANCH  27  52
ATOM     52  C   UNL     1      14.076   9.221  -7.209  1.00  0.00     0.058 A 
ATOM     53  C   UNL     1      13.212   9.110  -8.308  1.00  0.00     0.135 A 
ATOM     54  C   UNL     1      13.931  10.335  -6.369  1.00  0.00     0.135 A 
ATOM     55  F   UNL     1      13.317   8.063  -9.141  1.00  0.00    -0.206 F 
ATOM     56  C   UNL     1      12.242  10.072  -8.570  1.00  0.00     0.059 A 
ATOM     57  C   UNL     1      12.954  11.298  -6.598  1.00  0.00     0.059 A 
ATOM     58  F   UNL     1      14.724  10.475  -5.295  1.00  0.00    -0.206 F 
ATOM     59  C   UNL     1      12.120  11.162  -7.707  1.00  0.00     0.060 A 
BRANCH  59  60
ATOM     60  S   UNL     1      10.814  12.372  -8.011  1.00  0.00     0.124 S 
ATOM     61  O   UNL     1      11.403  13.175  -9.076  1.00  0.00    -0.237 OA
ATOM     62  O   UNL     1       9.689  11.526  -8.397  1.00  0.00    -0.237 OA
ATOM     63  O   UNL     1      10.671  13.037  -6.719  1.00  0.00    -0.744 OA
ENDBRANCH  59  60
ENDBRANCH  27  52
BRANCH  39  64
ATOM     64  C   UNL     1      20.002   7.302 -10.318  1.00  0.00     0.058 A 
ATOM     65  C   UNL     1      20.733   8.499 -10.292  1.00  0.00     0.135 A 
ATOM     66  C   UNL     1      19.970   6.575 -11.518  1.00  0.00     0.135 A 
ATOM     67  F   UNL     1      20.787   9.233  -9.169  1.00  0.00    -0.206 F 
ATOM     68  C   UNL     1      21.387   8.974 -11.424  1.00  0.00     0.059 A 
ATOM     69  C   UNL     1      20.633   7.022 -12.657  1.00  0.00     0.059 A 
ATOM     70  F   UNL     1      19.291   5.420 -11.591  1.00  0.00    -0.206 F 
ATOM     71  C   UNL     1      21.326   8.231 -12.604  1.00  0.00     0.060 A 
BRANCH  71  72
ATOM     72  S   UNL     1      22.186   8.845 -14.068  1.00  0.00     0.124 S 
ATOM     73  O   UNL     1      21.245   9.846 -14.561  1.00  0.00    -0.237 OA
ATOM     74  O   UNL     1      23.431   9.366 -13.510  1.00  0.00    -0.237 OA
ATOM     75  O   UNL     1      22.331   7.653 -14.898  1.00  0.00    -0.744 OA
ENDBRANCH  71  72
ENDBRANCH  39  64
ENDBRANCH  13  14
ENDBRANCH   6   8
ENDBRANCH   3   4
ENDBRANCH   2   3
ENDBRANCH   1   2
BRANCH   1  76
ATOM     76  C   UNL     1       9.717  -2.260  -0.554  1.00  0.00     0.002 C 
BRANCH  76  77
ATOM     77  C   UNL     1       9.483  -2.543  -2.041  1.00  0.00     0.021 C 
BRANCH  77  78
ATOM     78  C   UNL     1      10.174  -3.772  -2.626  1.00  0.00     0.116 C 
BRANCH  78  79
ATOM     79  N   UNL     1       9.793  -5.009  -1.980  1.00  0.00    -0.356 N 
ATOM     80  C   UNL     1       9.327  -6.173  -2.527  1.00  0.00     0.223 C 
ATOM     81  H   UNL     1       9.882  -5.014  -1.000  1.00  0.00     0.163 HD
ATOM     82  O   UNL     1       9.037  -7.114  -1.791  1.00  0.00    -0.275 OA
BRANCH  80  83
ATOM     83  C   UNL     1       9.043  -6.264  -3.978  1.00  0.00     0.086 C 
ATOM     84  C   UNL     1       9.967  -5.821  -5.078  1.00  0.00     0.023 C 
ATOM     85  C   UNL     1       9.733  -7.294  -4.864  1.00  0.00     0.032 C 
BRANCH  85  86
ATOM     86  C   UNL     1      10.912  -8.146  -4.450  1.00  0.00    -0.044 A 
ATOM     87  C   UNL     1      12.168  -7.999  -5.056  1.00  0.00     0.004 A 
ATOM     88  C   UNL     1      10.788  -9.175  -3.509  1.00  0.00     0.004 A 
ATOM     89  C   UNL     1      13.242  -8.839  -4.739  1.00  0.00     0.004 A 
ATOM     90  C   UNL     1      11.866 -10.017  -3.191  1.00  0.00     0.004 A 
ATOM     91  C   UNL     1      13.117  -9.880  -3.808  1.00  0.00    -0.045 A 
BRANCH  91  92
ATOM     92  C   UNL     1      14.303 -10.786  -3.546  1.00  0.00     0.019 C 
ATOM     93  C   UNL     1      14.284 -11.960  -2.600  1.00  0.00     0.009 C 
ATOM     94  C   UNL     1      14.244 -12.201  -4.080  1.00  0.00     0.009 C 
ENDBRANCH  91  92
ENDBRANCH  85  86
ENDBRANCH  80  83
ENDBRANCH  78  79
ENDBRANCH  77  78
ENDBRANCH  76  77
ENDBRANCH   1  76
TORSDOF 18
