REMARK SMILES COc1ccc([C@@H]2[C@H](C(=O)NCCCCCCNC(=O)c3ccc(-c4c5nc(c(-c6c(F)cc(S(=O)(=O)[O-])cc6F)c6ccc([nH]6)c(-c6c(F)cc(S(=O)(=O)[O-])cc6F)c6nc(c(-c7c(F)cc(S(=O)(=O)[O-])cc7F)c7ccc4[nH]7)C=C6)C=C5)cc3)c3ccccc3C(=O)N2C2CC2)cc1
REMARK SMILES IDX 15 1 14 2 13 3 12 4 11 5 9 6 10 7 8 9 7 10 95 11 87 12 93 13
REMARK SMILES IDX 88 14 92 15 94 16 89 17 91 18 90 19 6 20 3 21 4 22 100 23
REMARK SMILES IDX 5 24 99 25 2 26 1 27 96 28 97 29 98 30 16 31 17 32 18 33
REMARK SMILES IDX 19 34 20 36 21 37 22 38 86 39 23 40 85 41 24 42 25 43 26 44
REMARK SMILES IDX 79 45 27 46 84 47 78 48 80 49 28 50 83 51 77 52 76 53 29 55
REMARK SMILES IDX 63 56 42 57 62 58 43 59 46 60 61 61 81 62 44 63 45 64 60 66
REMARK SMILES IDX 82 67 47 68 30 69 31 70 40 71 32 72 33 73 39 74 41 75 34 76
REMARK SMILES IDX 35 77 36 78 37 79 38 80 64 81 65 82 74 83 66 84 67 85 73 86
REMARK SMILES IDX 75 87 68 88 69 89 70 90 71 91 72 92 48 93 49 94 58 95 50 96
REMARK SMILES IDX 51 97 57 98 59 99 52 100 53 101 54 102 55 103 56 104
REMARK H PARENT 11 8 18 35 80 54 46 65
REMARK Flexibility Score: inf
ROOT
ATOM      1  C   UNL     1      -5.924   2.480  -8.101  1.00  0.00     0.002 C 
ENDROOT
BRANCH   1   2
ATOM      2  C   UNL     1      -4.892   1.531  -8.724  1.00  0.00     0.002 C 
BRANCH   2   3
ATOM      3  C   UNL     1      -3.419   1.922  -8.516  1.00  0.00     0.021 C 
BRANCH   3   4
ATOM      4  C   UNL     1      -2.999   2.010  -7.048  1.00  0.00     0.116 C 
BRANCH   4   5
ATOM      5  N   UNL     1      -2.870   0.695  -6.480  1.00  0.00    -0.355 N 
ATOM      6  C   UNL     1      -1.839  -0.149  -6.260  1.00  0.00     0.230 C 
ATOM      7  O   UNL     1      -2.236  -1.201  -5.747  1.00  0.00    -0.274 OA
ATOM      8  H   UNL     1      -3.733   0.324  -6.184  1.00  0.00     0.163 HD
BRANCH   6   9
ATOM      9  C   UNL     1      -0.338   0.167  -6.475  1.00  0.00     0.136 C 
ATOM     10  C   UNL     1       0.559  -1.038  -6.018  1.00  0.00     0.133 C 
ATOM     11  N   UNL     1       0.536  -2.136  -7.005  1.00  0.00    -0.327 N 
ATOM     12  C   UNL     1       0.124   0.501  -7.916  1.00  0.00    -0.020 A 
ATOM     13  C   UNL     1       1.177  -1.813  -8.206  1.00  0.00     0.254 C 
ATOM     14  C   UNL     1      -0.030   1.784  -8.458  1.00  0.00     0.005 A 
ATOM     15  C   UNL     1       0.828  -0.443  -8.711  1.00  0.00     0.044 A 
ATOM     16  O   UNL     1       1.861  -2.580  -8.851  1.00  0.00    -0.269 OA
ATOM     17  C   UNL     1       0.314   2.064  -9.786  1.00  0.00     0.000 A 
ATOM     18  C   UNL     1       1.205  -0.149 -10.030  1.00  0.00     0.014 A 
ATOM     19  C   UNL     1       0.912   1.093 -10.578  1.00  0.00     0.001 A 
BRANCH  10  20
ATOM     20  C   UNL     1       0.679  -1.375  -4.527  1.00  0.00    -0.024 A 
ATOM     21  C   UNL     1       0.890  -1.564  -1.711  1.00  0.00     0.118 A 
ATOM     22  C   UNL     1      -0.210  -2.098  -2.368  1.00  0.00     0.047 A 
ATOM     23  C   UNL     1       1.952  -1.056  -2.447  1.00  0.00     0.047 A 
ATOM     24  C   UNL     1      -0.309  -2.009  -3.763  1.00  0.00     0.010 A 
ATOM     25  C   UNL     1       1.842  -0.957  -3.838  1.00  0.00     0.010 A 
BRANCH  21  26
ATOM     26  O   UNL     1       0.878  -1.565  -0.344  1.00  0.00    -0.497 OA
ATOM     27  C   UNL     1       1.053  -0.242   0.172  1.00  0.00     0.278 C 
ENDBRANCH  21  26
ENDBRANCH  10  20
BRANCH  11  28
ATOM     28  C   UNL     1      -0.611  -3.029  -7.111  1.00  0.00     0.086 C 
ATOM     29  C   UNL     1      -1.687  -2.743  -8.154  1.00  0.00     0.027 C 
ATOM     30  C   UNL     1      -0.858  -3.980  -8.259  1.00  0.00     0.027 C 
ENDBRANCH  11  28
ENDBRANCH   6   9
ENDBRANCH   4   5
ENDBRANCH   3   4
ENDBRANCH   2   3
ENDBRANCH   1   2
BRANCH   1  31
ATOM     31  C   UNL     1      -5.744   3.960  -8.450  1.00  0.00     0.021 C 
BRANCH  31  32
ATOM     32  C   UNL     1      -5.885   4.281  -9.935  1.00  0.00     0.116 C 
BRANCH  32  33
ATOM     33  N   UNL     1      -7.256   4.130 -10.394  1.00  0.00    -0.352 N 
ATOM     34  C   UNL     1      -8.088   5.058 -10.972  1.00  0.00     0.251 C 
ATOM     35  H   UNL     1      -7.645   3.233 -10.273  1.00  0.00     0.163 HD
ATOM     36  O   UNL     1      -9.285   4.812 -11.097  1.00  0.00    -0.269 OA
BRANCH  34  37
ATOM     37  C   UNL     1      -7.547   6.358 -11.430  1.00  0.00     0.039 A 
ATOM     38  C   UNL     1      -8.258   7.528 -11.148  1.00  0.00     0.014 A 
ATOM     39  C   UNL     1      -6.354   6.422 -12.155  1.00  0.00     0.014 A 
ATOM     40  C   UNL     1      -7.743   8.767 -11.543  1.00  0.00     0.010 A 
ATOM     41  C   UNL     1      -5.810   7.661 -12.489  1.00  0.00     0.010 A 
ATOM     42  C   UNL     1      -6.501   8.846 -12.191  1.00  0.00    -0.014 A 
BRANCH  42  43
ATOM     43  C   UNL     1      -5.906  10.150 -12.586  1.00  0.00     0.031 A 
ATOM     44  C   UNL     1      -5.683  10.460 -14.043  1.00  0.00     0.074 A 
ATOM     45  C   UNL     1      -5.493  11.018 -11.640  1.00  0.00     0.049 A 
ATOM     46  N   UNL     1      -5.059  11.472 -14.587  1.00  0.00    -0.248 NA
ATOM     47  C   UNL     1      -6.208   9.487 -15.016  1.00  0.00     0.031 C 
ATOM     48  C   UNL     1      -5.623  10.821 -10.194  1.00  0.00     0.029 A 
ATOM     49  N   UNL     1      -4.861  12.232 -11.752  1.00  0.00    -0.354 N 
ATOM     50  C   UNL     1      -5.091  11.246 -15.959  1.00  0.00     0.074 A 
ATOM     51  C   UNL     1      -5.764   9.982 -16.162  1.00  0.00     0.031 C 
ATOM     52  C   UNL     1      -5.096  11.879  -9.556  1.00  0.00     0.029 A 
ATOM     53  C   UNL     1      -4.555  12.810 -10.542  1.00  0.00     0.049 A 
ATOM     54  H   UNL     1      -4.646  12.649 -12.617  1.00  0.00     0.167 HD
ATOM     55  C   UNL     1      -4.619  12.029 -16.957  1.00  0.00     0.037 A 
ATOM     56  C   UNL     1      -3.898  13.953 -10.258  1.00  0.00     0.037 A 
ATOM     57  C   UNL     1      -3.990  13.308 -16.751  1.00  0.00     0.049 A 
ATOM     58  C   UNL     1      -3.391  14.810 -11.388  1.00  0.00     0.074 A 
ATOM     59  C   UNL     1      -3.532  14.203 -17.702  1.00  0.00     0.029 A 
ATOM     60  N   UNL     1      -3.739  13.877 -15.512  1.00  0.00    -0.354 N 
ATOM     61  N   UNL     1      -3.472  14.601 -12.680  1.00  0.00    -0.248 NA
ATOM     62  C   UNL     1      -2.707  16.059 -11.023  1.00  0.00     0.031 C 
ATOM     63  C   UNL     1      -2.971  15.297 -17.038  1.00  0.00     0.029 A 
ATOM     64  C   UNL     1      -3.121  15.105 -15.674  1.00  0.00     0.049 A 
ATOM     65  H   UNL     1      -3.966  13.468 -14.646  1.00  0.00     0.167 HD
ATOM     66  C   UNL     1      -2.888  15.711 -13.281  1.00  0.00     0.074 A 
ATOM     67  C   UNL     1      -2.456  16.588 -12.213  1.00  0.00     0.031 C 
ATOM     68  C   UNL     1      -2.727  15.981 -14.600  1.00  0.00     0.037 A 
BRANCH  55  69
ATOM     69  C   UNL     1      -4.767  11.535 -18.369  1.00  0.00     0.058 A 
ATOM     70  C   UNL     1      -6.015  11.502 -19.011  1.00  0.00     0.135 A 
ATOM     71  C   UNL     1      -3.639  11.149 -19.111  1.00  0.00     0.135 A 
ATOM     72  F   UNL     1      -7.128  11.846 -18.344  1.00  0.00    -0.206 F 
ATOM     73  C   UNL     1      -6.142  11.086 -20.332  1.00  0.00     0.059 A 
ATOM     74  C   UNL     1      -3.739  10.754 -20.442  1.00  0.00     0.059 A 
ATOM     75  F   UNL     1      -2.421  11.160 -18.545  1.00  0.00    -0.206 F 
ATOM     76  C   UNL     1      -4.997  10.717 -21.041  1.00  0.00     0.060 A 
BRANCH  76  77
ATOM     77  S   UNL     1      -5.176  10.203 -22.762  1.00  0.00     0.124 S 
ATOM     78  O   UNL     1      -5.773   8.880 -22.609  1.00  0.00    -0.237 OA
ATOM     79  O   UNL     1      -6.054  11.234 -23.306  1.00  0.00    -0.237 OA
ATOM     80  O   UNL     1      -3.807  10.219 -23.266  1.00  0.00    -0.744 OA
ENDBRANCH  76  77
ENDBRANCH  55  69
BRANCH  56  81
ATOM     81  C   UNL     1      -3.690  14.367  -8.844  1.00  0.00     0.058 A 
ATOM     82  C   UNL     1      -4.366  15.475  -8.312  1.00  0.00     0.135 A 
ATOM     83  C   UNL     1      -2.804  13.676  -8.003  1.00  0.00     0.135 A 
ATOM     84  F   UNL     1      -5.219  16.172  -9.078  1.00  0.00    -0.206 F 
ATOM     85  C   UNL     1      -4.151  15.902  -7.005  1.00  0.00     0.059 A 
ATOM     86  C   UNL     1      -2.592  14.068  -6.685  1.00  0.00     0.059 A 
ATOM     87  F   UNL     1      -2.147  12.597  -8.458  1.00  0.00    -0.206 F 
ATOM     88  C   UNL     1      -3.259  15.193  -6.200  1.00  0.00     0.060 A 
BRANCH  88  89
ATOM     89  S   UNL     1      -3.003  15.739  -4.498  1.00  0.00     0.124 S 
ATOM     90  O   UNL     1      -2.171  16.921  -4.692  1.00  0.00    -0.237 OA
ATOM     91  O   UNL     1      -4.368  15.984  -4.044  1.00  0.00    -0.237 OA
ATOM     92  O   UNL     1      -2.341  14.595  -3.877  1.00  0.00    -0.744 OA
ENDBRANCH  88  89
ENDBRANCH  56  81
BRANCH  68  93
ATOM     93  C   UNL     1      -2.117  17.302 -14.974  1.00  0.00     0.058 A 
ATOM     94  C   UNL     1      -0.744  17.551 -14.831  1.00  0.00     0.135 A 
ATOM     95  C   UNL     1      -2.910  18.305 -15.557  1.00  0.00     0.135 A 
ATOM     96  F   UNL     1       0.056  16.629 -14.274  1.00  0.00    -0.206 F 
ATOM     97  C   UNL     1      -0.179  18.755 -15.242  1.00  0.00     0.059 A 
ATOM     98  C   UNL     1      -2.363  19.505 -15.997  1.00  0.00     0.059 A 
ATOM     99  F   UNL     1      -4.228  18.111 -15.724  1.00  0.00    -0.206 F 
ATOM    100  C   UNL     1      -0.996  19.724 -15.829  1.00  0.00     0.060 A 
BRANCH 100 101
ATOM    101  S   UNL     1      -0.242  21.258 -16.408  1.00  0.00     0.124 S 
ATOM    102  O   UNL     1      -0.003  21.961 -15.152  1.00  0.00    -0.237 OA
ATOM    103  O   UNL     1       0.948  20.779 -17.104  1.00  0.00    -0.237 OA
ATOM    104  O   UNL     1      -1.270  21.839 -17.267  1.00  0.00    -0.744 OA
ENDBRANCH 100 101
ENDBRANCH  68  93
ENDBRANCH  42  43
ENDBRANCH  34  37
ENDBRANCH  32  33
ENDBRANCH  31  32
ENDBRANCH   1  31
TORSDOF 19
