REMARK SMILES CC(C)[C@@H](NC(=O)[C@@H]1CC[C@H]2CCCC[C@@H]2[NH2+]1)C(=O)NCCCCCCNC(=O)c1ccc(-c2c3nc(c(-c4c(F)cc(S(=O)(=O)[O-])cc4F)c4ccc([nH]4)c(-c4c(F)cc(S(=O)(=O)[O-])cc4F)c4nc(c(-c5c(F)cc(S(=O)(=O)[O-])cc5F)c5ccc2[nH]5)C=C4)C=C3)cc1
REMARK SMILES IDX 24 1 23 2 22 3 21 4 20 5 18 6 19 7 4 9 2 10 1 11 3 12 5 13
REMARK SMILES IDX 6 14 7 16 8 17 9 18 17 19 10 20 16 21 11 24 15 25 12 26
REMARK SMILES IDX 14 27 13 28 25 29 26 30 27 31 28 32 29 34 30 35 31 36 95 37
REMARK SMILES IDX 32 38 94 39 33 40 34 41 35 42 88 43 36 44 93 45 87 46 89 47
REMARK SMILES IDX 37 48 92 49 86 50 85 51 38 53 72 54 51 55 71 56 52 57 55 58
REMARK SMILES IDX 70 59 90 60 53 61 54 62 69 64 91 65 56 66 39 67 40 68 49 69
REMARK SMILES IDX 41 70 42 71 48 72 50 73 43 74 44 75 45 76 46 77 47 78 73 79
REMARK SMILES IDX 74 80 83 81 75 82 76 83 82 84 84 85 77 86 78 87 79 88 80 89
REMARK SMILES IDX 81 90 57 91 58 92 67 93 59 94 60 95 66 96 68 97 61 98 62 99
REMARK SMILES IDX 63 100 64 101 65 102
REMARK H PARENT 20 8 5 15 17 22 17 23 27 33 89 52 55 63
REMARK Flexibility Score: inf
ROOT
ATOM      1  C   UNL     1       0.860   0.104   6.314  1.00  0.00     0.002 C 
ENDROOT
BRANCH   1   2
ATOM      2  C   UNL     1       0.962  -1.305   6.931  1.00  0.00     0.002 C 
BRANCH   2   3
ATOM      3  C   UNL     1      -0.239  -2.281   6.881  1.00  0.00     0.021 C 
BRANCH   3   4
ATOM      4  C   UNL     1      -0.515  -2.984   5.526  1.00  0.00     0.116 C 
BRANCH   4   5
ATOM      5  N   UNL     1      -1.659  -3.958   5.597  1.00  0.00    -0.354 N 
ATOM      6  C   UNL     1      -2.515  -4.337   4.567  1.00  0.00     0.242 C 
ATOM      7  O   UNL     1      -2.073  -5.101   3.702  1.00  0.00    -0.273 OA
ATOM      8  H   UNL     1      -1.821  -4.377   6.474  1.00  0.00     0.163 HD
BRANCH   6   9
ATOM      9  C   UNL     1      -4.091  -3.957   4.580  1.00  0.00     0.174 C 
BRANCH   9  10
ATOM     10  C   UNL     1      -4.794  -3.959   5.998  1.00  0.00     0.015 C 
ATOM     11  C   UNL     1      -6.321  -3.785   5.906  1.00  0.00     0.010 C 
ATOM     12  C   UNL     1      -4.517  -5.258   6.773  1.00  0.00     0.010 C 
ENDBRANCH   9  10
BRANCH   9  13
ATOM     13  N   UNL     1      -4.808  -3.083   3.537  1.00  0.00    -0.339 N 
ATOM     14  C   UNL     1      -4.869  -1.801   3.035  1.00  0.00     0.278 C 
ATOM     15  H   UNL     1      -5.457  -3.642   3.052  1.00  0.00     0.164 HD
ATOM     16  O   UNL     1      -5.973  -1.487   2.567  1.00  0.00    -0.268 OA
BRANCH  14  17
ATOM     17  C   UNL     1      -3.642  -0.855   2.841  1.00  0.00     0.272 C 
ATOM     18  C   UNL     1      -2.541  -1.266   3.752  1.00  0.00     0.076 C 
ATOM     19  N   UNL     1      -3.907   0.620   3.035  1.00  0.00    -0.333 N 
ATOM     20  C   UNL     1      -3.001  -1.054   5.197  1.00  0.00     0.016 C 
ATOM     21  C   UNL     1      -3.428   1.154   4.344  1.00  0.00     0.186 C 
ATOM     22  H   UNL     1      -4.913   0.775   2.974  1.00  0.00     0.347 HD
ATOM     23  H   UNL     1      -3.389   1.112   2.308  1.00  0.00     0.347 HD
ATOM     24  C   UNL     1      -3.889   0.163   5.400  1.00  0.00     0.048 C 
ATOM     25  C   UNL     1      -3.832   2.591   4.645  1.00  0.00     0.065 C 
ATOM     26  C   UNL     1      -3.859   0.579   6.869  1.00  0.00     0.010 C 
ATOM     27  C   UNL     1      -3.526   2.954   6.105  1.00  0.00     0.006 C 
ATOM     28  C   UNL     1      -4.244   2.028   7.081  1.00  0.00     0.001 C 
ENDBRANCH  14  17
ENDBRANCH   9  13
ENDBRANCH   6   9
ENDBRANCH   4   5
ENDBRANCH   3   4
ENDBRANCH   2   3
ENDBRANCH   1   2
BRANCH   1  29
ATOM     29  C   UNL     1      -0.029   1.164   6.987  1.00  0.00     0.021 C 
BRANCH  29  30
ATOM     30  C   UNL     1       0.129   1.425   8.489  1.00  0.00     0.116 C 
BRANCH  30  31
ATOM     31  N   UNL     1       1.422   1.996   8.824  1.00  0.00    -0.352 N 
ATOM     32  C   UNL     1       1.784   3.226   9.323  1.00  0.00     0.251 C 
ATOM     33  H   UNL     1       2.182   1.390   8.665  1.00  0.00     0.163 HD
ATOM     34  O   UNL     1       2.978   3.525   9.312  1.00  0.00    -0.269 OA
BRANCH  32  35
ATOM     35  C   UNL     1       0.804   4.206   9.867  1.00  0.00     0.039 A 
ATOM     36  C   UNL     1       1.049   5.572   9.658  1.00  0.00     0.014 A 
ATOM     37  C   UNL     1      -0.276   3.831  10.669  1.00  0.00     0.014 A 
ATOM     38  C   UNL     1       0.197   6.543  10.202  1.00  0.00     0.010 A 
ATOM     39  C   UNL     1      -1.159   4.801  11.169  1.00  0.00     0.010 A 
ATOM     40  C   UNL     1      -0.936   6.168  10.941  1.00  0.00    -0.014 A 
BRANCH  40  41
ATOM     41  C   UNL     1      -1.897   7.193  11.448  1.00  0.00     0.031 A 
ATOM     42  C   UNL     1      -2.102   7.406  12.927  1.00  0.00     0.074 A 
ATOM     43  C   UNL     1      -2.628   7.909  10.569  1.00  0.00     0.049 A 
ATOM     44  N   UNL     1      -2.937   8.209  13.540  1.00  0.00    -0.248 NA
ATOM     45  C   UNL     1      -1.274   6.600  13.836  1.00  0.00     0.031 C 
ATOM     46  C   UNL     1      -2.552   7.783   9.112  1.00  0.00     0.029 A 
ATOM     47  N   UNL     1      -3.587   8.874  10.766  1.00  0.00    -0.354 N 
ATOM     48  C   UNL     1      -2.747   7.997  14.901  1.00  0.00     0.074 A 
ATOM     49  C   UNL     1      -1.743   6.960  15.024  1.00  0.00     0.031 C 
ATOM     50  C   UNL     1      -3.413   8.645   8.548  1.00  0.00     0.029 A 
ATOM     51  C   UNL     1      -4.136   9.355   9.599  1.00  0.00     0.049 A 
ATOM     52  H   UNL     1      -3.855   9.192  11.658  1.00  0.00     0.167 HD
ATOM     53  C   UNL     1      -3.340   8.618  15.951  1.00  0.00     0.037 A 
ATOM     54  C   UNL     1      -5.123  10.251   9.391  1.00  0.00     0.037 A 
ATOM     55  C   UNL     1      -4.325   9.664  15.825  1.00  0.00     0.049 A 
ATOM     56  C   UNL     1      -5.787  10.905  10.572  1.00  0.00     0.074 A 
ATOM     57  C   UNL     1      -4.930  10.401  16.830  1.00  0.00     0.029 A 
ATOM     58  N   UNL     1      -4.860  10.114  14.627  1.00  0.00    -0.354 N 
ATOM     59  N   UNL     1      -5.540  10.742  11.850  1.00  0.00    -0.248 NA
ATOM     60  C   UNL     1      -6.864  11.863  10.285  1.00  0.00     0.031 C 
ATOM     61  C   UNL     1      -5.869  11.256  16.243  1.00  0.00     0.029 A 
ATOM     62  C   UNL     1      -5.815  11.090  14.869  1.00  0.00     0.049 A 
ATOM     63  H   UNL     1      -4.600   9.787  13.735  1.00  0.00     0.167 HD
ATOM     64  C   UNL     1      -6.424  11.583  12.518  1.00  0.00     0.074 A 
ATOM     65  C   UNL     1      -7.194  12.271  11.503  1.00  0.00     0.031 C 
ATOM     66  C   UNL     1      -6.585  11.763  13.852  1.00  0.00     0.037 A 
BRANCH  53  67
ATOM     67  C   UNL     1      -2.947   8.184  17.340  1.00  0.00     0.058 A 
ATOM     68  C   UNL     1      -1.683   8.475  17.876  1.00  0.00     0.135 A 
ATOM     69  C   UNL     1      -3.865   7.512  18.165  1.00  0.00     0.135 A 
ATOM     70  F   UNL     1      -0.762   9.109  17.132  1.00  0.00    -0.206 F 
ATOM     71  C   UNL     1      -1.330   8.088  19.166  1.00  0.00     0.059 A 
ATOM     72  C   UNL     1      -3.544   7.140  19.469  1.00  0.00     0.059 A 
ATOM     73  F   UNL     1      -5.091   7.212  17.709  1.00  0.00    -0.206 F 
ATOM     74  C   UNL     1      -2.268   7.419  19.954  1.00  0.00     0.060 A 
BRANCH  74  75
ATOM     75  S   UNL     1      -1.792   6.921  21.624  1.00  0.00     0.124 S 
ATOM     76  O   UNL     1      -0.869   5.824  21.348  1.00  0.00    -0.237 OA
ATOM     77  O   UNL     1      -1.187   8.140  22.153  1.00  0.00    -0.237 OA
ATOM     78  O   UNL     1      -3.058   6.535  22.239  1.00  0.00    -0.744 OA
ENDBRANCH  74  75
ENDBRANCH  53  67
BRANCH  54  79
ATOM     79  C   UNL     1      -5.545  10.577   8.002  1.00  0.00     0.058 A 
ATOM     80  C   UNL     1      -5.270  11.832   7.439  1.00  0.00     0.135 A 
ATOM     81  C   UNL     1      -6.211   9.634   7.202  1.00  0.00     0.135 A 
ATOM     82  F   UNL     1      -4.646  12.771   8.166  1.00  0.00    -0.206 F 
ATOM     83  C   UNL     1      -5.646  12.145   6.136  1.00  0.00     0.059 A 
ATOM     84  C   UNL     1      -6.572   9.914   5.888  1.00  0.00     0.059 A 
ATOM     85  F   UNL     1      -6.487   8.414   7.689  1.00  0.00    -0.206 F 
ATOM     86  C   UNL     1      -6.292  11.175   5.366  1.00  0.00     0.060 A 
BRANCH  86  87
ATOM     87  S   UNL     1      -6.717  11.574   3.657  1.00  0.00     0.124 S 
ATOM     88  O   UNL     1      -7.830  12.496   3.837  1.00  0.00    -0.237 OA
ATOM     89  O   UNL     1      -5.475  12.156   3.160  1.00  0.00    -0.237 OA
ATOM     90  O   UNL     1      -7.061  10.271   3.086  1.00  0.00    -0.744 OA
ENDBRANCH  86  87
ENDBRANCH  54  79
BRANCH  66  91
ATOM     91  C   UNL     1      -7.636  12.743  14.299  1.00  0.00     0.058 A 
ATOM     92  C   UNL     1      -9.004  12.444  14.201  1.00  0.00     0.135 A 
ATOM     93  C   UNL     1      -7.274  13.966  14.886  1.00  0.00     0.135 A 
ATOM     94  F   UNL     1      -9.406  11.292  13.640  1.00  0.00    -0.206 F 
ATOM     95  C   UNL     1      -9.977  13.329  14.656  1.00  0.00     0.059 A 
ATOM     96  C   UNL     1      -8.229  14.855  15.372  1.00  0.00     0.059 A 
ATOM     97  F   UNL     1      -5.979  14.300  15.010  1.00  0.00    -0.206 F 
ATOM     98  C   UNL     1      -9.579  14.530  15.246  1.00  0.00     0.060 A 
BRANCH  98  99
ATOM     99  S   UNL     1     -10.851  15.646  15.876  1.00  0.00     0.124 S 
ATOM    100  O   UNL     1     -11.422  16.171  14.640  1.00  0.00    -0.237 OA
ATOM    101  O   UNL     1     -11.709  14.742  16.637  1.00  0.00    -0.237 OA
ATOM    102  O   UNL     1     -10.097  16.605  16.677  1.00  0.00    -0.744 OA
ENDBRANCH  98  99
ENDBRANCH  66  91
ENDBRANCH  40  41
ENDBRANCH  32  35
ENDBRANCH  30  31
ENDBRANCH  29  30
ENDBRANCH   1  29
TORSDOF 19
