REMARK SMILES CN1C(=O)C[C@@H](C(=O)NCCCCCCNC(=O)c2ccc(-c3c4nc(c(-c5c(F)cc(S(=O)(=O)[O-])cc5F)c5ccc([nH]5)c(-c5c(F)cc(S(=O)(=O)[O-])cc5F)c5nc(c(-c6c(F)cc(S(=O)(=O)[O-])cc6F)c6ccc3[nH]6)C=C5)C=C4)cc2)C12CCN(C(=O)c1cc3ccccc3[nH]1)CC2
REMARK SMILES IDX 13 1 12 2 11 3 10 4 9 5 7 6 8 7 6 9 1 10 2 11 3 12 85 13
REMARK SMILES IDX 4 14 5 15 86 16 101 17 87 18 100 19 88 20 89 21 90 22 91 23
REMARK SMILES IDX 92 24 99 25 93 26 98 27 94 29 97 30 95 31 96 32 14 33 15 34
REMARK SMILES IDX 16 35 17 36 18 38 19 39 20 40 84 41 21 42 83 43 22 44 23 45
REMARK SMILES IDX 24 46 77 47 25 48 82 49 76 50 78 51 26 52 81 53 75 54 74 55
REMARK SMILES IDX 27 57 61 58 40 59 60 60 41 61 44 62 59 63 79 64 42 65 43 66
REMARK SMILES IDX 58 68 80 69 45 70 28 71 29 72 38 73 30 74 31 75 37 76 39 77
REMARK SMILES IDX 32 78 33 79 34 80 35 81 36 82 62 83 63 84 72 85 64 86 65 87
REMARK SMILES IDX 71 88 73 89 66 90 67 91 68 92 69 93 70 94 46 95 47 96 56 97
REMARK SMILES IDX 48 98 49 99 55 100 57 101 50 102 51 103 52 104 53 105 54 106
REMARK H PARENT 9 8 99 28 16 37 78 56 44 67
REMARK Flexibility Score: inf
ROOT
ATOM      1  C   UNL     1      -4.786  -2.321   2.366  1.00  0.00     0.002 C 
ENDROOT
BRANCH   1   2
ATOM      2  C   UNL     1      -3.369  -2.640   2.845  1.00  0.00     0.002 C 
BRANCH   2   3
ATOM      3  C   UNL     1      -2.251  -1.849   2.163  1.00  0.00     0.021 C 
BRANCH   3   4
ATOM      4  C   UNL     1      -2.318  -0.332   2.355  1.00  0.00     0.116 C 
BRANCH   4   5
ATOM      5  N   UNL     1      -1.968   0.077   3.704  1.00  0.00    -0.356 N 
ATOM      6  C   UNL     1      -0.983   0.857   4.210  1.00  0.00     0.226 C 
ATOM      7  O   UNL     1      -0.953   0.969   5.442  1.00  0.00    -0.275 OA
ATOM      8  H   UNL     1      -2.571  -0.287   4.392  1.00  0.00     0.163 HD
BRANCH   6   9
ATOM      9  C   UNL     1       0.096   1.571   3.391  1.00  0.00     0.113 C 
ATOM     10  C   UNL     1       1.151  -0.045   0.179  1.00  0.00     0.147 C 
ATOM     11  N   UNL     1       0.674   0.807   1.256  1.00  0.00    -0.339 N 
ATOM     12  C   UNL     1      -0.149   1.900   1.031  1.00  0.00     0.223 C 
ATOM     13  C   UNL     1       1.147   0.714   2.643  1.00  0.00     0.058 C 
ATOM     14  O   UNL     1      -0.579   2.285  -0.045  1.00  0.00    -0.275 OA
ATOM     15  C   UNL     1      -0.467   2.541   2.353  1.00  0.00     0.116 C 
ATOM     16  C   UNL     1       1.256  -0.735   3.171  1.00  0.00     0.051 C 
ATOM     17  C   UNL     1       2.544   1.408   2.709  1.00  0.00     0.051 C 
ATOM     18  C   UNL     1       1.986  -0.822   4.513  1.00  0.00     0.122 C 
ATOM     19  C   UNL     1       3.290   1.164   4.021  1.00  0.00     0.122 C 
ATOM     20  N   UNL     1       3.308  -0.242   4.386  1.00  0.00    -0.337 N 
ATOM     21  C   UNL     1       4.230  -1.063   3.735  1.00  0.00     0.270 C 
ATOM     22  O   UNL     1       4.279  -1.145   2.512  1.00  0.00    -0.267 OA
BRANCH  21  23
ATOM     23  C   UNL     1       5.129  -1.776   4.600  1.00  0.00     0.105 A 
ATOM     24  C   UNL     1       5.805  -2.951   4.332  1.00  0.00     0.042 A 
ATOM     25  N   UNL     1       5.594  -1.320   5.810  1.00  0.00    -0.351 N 
ATOM     26  C   UNL     1       6.915  -3.008   5.211  1.00  0.00     0.000 A 
ATOM     27  C   UNL     1       6.793  -1.937   6.095  1.00  0.00     0.046 A 
ATOM     28  H   UNL     1       5.143  -0.659   6.383  1.00  0.00     0.167 HD
ATOM     29  C   UNL     1       8.065  -3.815   5.266  1.00  0.00     0.010 A 
ATOM     30  C   UNL     1       7.788  -1.604   7.019  1.00  0.00     0.026 A 
ATOM     31  C   UNL     1       9.091  -3.468   6.149  1.00  0.00     0.001 A 
ATOM     32  C   UNL     1       8.957  -2.374   7.003  1.00  0.00     0.002 A 
ENDBRANCH  21  23
ENDBRANCH   6   9
ENDBRANCH   4   5
ENDBRANCH   3   4
ENDBRANCH   2   3
ENDBRANCH   1   2
BRANCH   1  33
ATOM     33  C   UNL     1      -4.995  -2.334   0.849  1.00  0.00     0.021 C 
BRANCH  33  34
ATOM     34  C   UNL     1      -4.548  -3.604   0.128  1.00  0.00     0.116 C 
BRANCH  34  35
ATOM     35  N   UNL     1      -5.268  -4.783   0.570  1.00  0.00    -0.352 N 
ATOM     36  C   UNL     1      -5.883  -5.753  -0.184  1.00  0.00     0.251 C 
ATOM     37  H   UNL     1      -5.325  -4.905   1.545  1.00  0.00     0.163 HD
ATOM     38  O   UNL     1      -6.562  -6.616   0.364  1.00  0.00    -0.269 OA
BRANCH  36  39
ATOM     39  C   UNL     1      -5.748  -5.739  -1.657  1.00  0.00     0.039 A 
ATOM     40  C   UNL     1      -6.902  -5.856  -2.437  1.00  0.00     0.014 A 
ATOM     41  C   UNL     1      -4.495  -5.624  -2.268  1.00  0.00     0.014 A 
ATOM     42  C   UNL     1      -6.807  -5.802  -3.829  1.00  0.00     0.010 A 
ATOM     43  C   UNL     1      -4.407  -5.526  -3.656  1.00  0.00     0.010 A 
ATOM     44  C   UNL     1      -5.561  -5.614  -4.449  1.00  0.00    -0.014 A 
BRANCH  44  45
ATOM     45  C   UNL     1      -5.451  -5.513  -5.925  1.00  0.00     0.031 A 
ATOM     46  C   UNL     1      -4.782  -6.608  -6.708  1.00  0.00     0.074 A 
ATOM     47  C   UNL     1      -5.900  -4.410  -6.554  1.00  0.00     0.049 A 
ATOM     48  N   UNL     1      -4.529  -6.670  -7.990  1.00  0.00    -0.248 NA
ATOM     49  C   UNL     1      -4.317  -7.777  -5.946  1.00  0.00     0.031 C 
ATOM     50  C   UNL     1      -6.527  -3.259  -5.900  1.00  0.00     0.029 A 
ATOM     51  N   UNL     1      -5.886  -4.070  -7.883  1.00  0.00    -0.354 N 
ATOM     52  C   UNL     1      -3.857  -7.870  -8.187  1.00  0.00     0.074 A 
ATOM     53  C   UNL     1      -3.717  -8.492  -6.887  1.00  0.00     0.031 C 
ATOM     54  C   UNL     1      -6.845  -2.345  -6.831  1.00  0.00     0.029 A 
ATOM     55  C   UNL     1      -6.425  -2.833  -8.142  1.00  0.00     0.049 A 
ATOM     56  H   UNL     1      -5.523  -4.657  -8.585  1.00  0.00     0.167 HD
ATOM     57  C   UNL     1      -3.411  -8.411  -9.345  1.00  0.00     0.037 A 
ATOM     58  C   UNL     1      -6.562  -2.165  -9.304  1.00  0.00     0.037 A 
ATOM     59  C   UNL     1      -3.583  -7.808 -10.641  1.00  0.00     0.049 A 
ATOM     60  C   UNL     1      -6.095  -2.803 -10.582  1.00  0.00     0.074 A 
ATOM     61  C   UNL     1      -3.219  -8.308 -11.879  1.00  0.00     0.029 A 
ATOM     62  N   UNL     1      -4.174  -6.574 -10.866  1.00  0.00    -0.354 N 
ATOM     63  N   UNL     1      -5.507  -3.962 -10.755  1.00  0.00    -0.248 NA
ATOM     64  C   UNL     1      -6.315  -2.046 -11.822  1.00  0.00     0.031 C 
ATOM     65  C   UNL     1      -3.573  -7.367 -12.853  1.00  0.00     0.029 A 
ATOM     66  C   UNL     1      -4.179  -6.292 -12.222  1.00  0.00     0.049 A 
ATOM     67  H   UNL     1      -4.537  -5.986 -10.165  1.00  0.00     0.167 HD
ATOM     68  C   UNL     1      -5.301  -4.082 -12.124  1.00  0.00     0.074 A 
ATOM     69  C   UNL     1      -5.836  -2.882 -12.735  1.00  0.00     0.031 C 
ATOM     70  C   UNL     1      -4.722  -5.096 -12.812  1.00  0.00     0.037 A 
BRANCH  57  71
ATOM     71  C   UNL     1      -2.694  -9.727  -9.259  1.00  0.00     0.058 A 
ATOM     72  C   UNL     1      -3.388 -10.925  -9.030  1.00  0.00     0.135 A 
ATOM     73  C   UNL     1      -1.301  -9.794  -9.420  1.00  0.00     0.135 A 
ATOM     74  F   UNL     1      -4.719 -10.912  -8.853  1.00  0.00    -0.206 F 
ATOM     75  C   UNL     1      -2.723 -12.142  -8.934  1.00  0.00     0.059 A 
ATOM     76  C   UNL     1      -0.617 -11.003  -9.348  1.00  0.00     0.059 A 
ATOM     77  F   UNL     1      -0.592  -8.676  -9.639  1.00  0.00    -0.206 F 
ATOM     78  C   UNL     1      -1.335 -12.170  -9.087  1.00  0.00     0.060 A 
BRANCH  78  79
ATOM     79  S   UNL     1      -0.477 -13.753  -8.950  1.00  0.00     0.124 S 
ATOM     80  O   UNL     1      -0.412 -13.922  -7.502  1.00  0.00    -0.237 OA
ATOM     81  O   UNL     1      -1.376 -14.664  -9.653  1.00  0.00    -0.237 OA
ATOM     82  O   UNL     1       0.799 -13.503  -9.613  1.00  0.00    -0.744 OA
ENDBRANCH  78  79
ENDBRANCH  57  71
BRANCH  58  83
ATOM     83  C   UNL     1      -7.197  -0.823  -9.311  1.00  0.00     0.058 A 
ATOM     84  C   UNL     1      -8.514  -0.656  -9.761  1.00  0.00     0.135 A 
ATOM     85  C   UNL     1      -6.513   0.308  -8.844  1.00  0.00     0.135 A 
ATOM     86  F   UNL     1      -9.204  -1.710 -10.222  1.00  0.00    -0.206 F 
ATOM     87  C   UNL     1      -9.131   0.590  -9.756  1.00  0.00     0.059 A 
ATOM     88  C   UNL     1      -7.114   1.562  -8.813  1.00  0.00     0.059 A 
ATOM     89  F   UNL     1      -5.255   0.193  -8.389  1.00  0.00    -0.206 F 
ATOM     90  C   UNL     1      -8.423   1.694  -9.278  1.00  0.00     0.060 A 
BRANCH  90  91
ATOM     91  S   UNL     1      -9.251   3.299  -9.211  1.00  0.00     0.124 S 
ATOM     92  O   UNL     1      -9.148   3.739 -10.598  1.00  0.00    -0.237 OA
ATOM     93  O   UNL     1     -10.589   2.940  -8.753  1.00  0.00    -0.237 OA
ATOM     94  O   UNL     1      -8.448   4.046  -8.247  1.00  0.00    -0.744 OA
ENDBRANCH  90  91
ENDBRANCH  58  83
BRANCH  70  95
ATOM     95  C   UNL     1      -4.656  -4.962 -14.305  1.00  0.00     0.058 A 
ATOM     96  C   UNL     1      -3.694  -4.149 -14.924  1.00  0.00     0.135 A 
ATOM     97  C   UNL     1      -5.530  -5.691 -15.125  1.00  0.00     0.135 A 
ATOM     98  F   UNL     1      -2.841  -3.427 -14.181  1.00  0.00    -0.206 F 
ATOM     99  C   UNL     1      -3.609  -4.054 -16.309  1.00  0.00     0.059 A 
ATOM    100  C   UNL     1      -5.453  -5.623 -16.513  1.00  0.00     0.059 A 
ATOM    101  F   UNL     1      -6.463  -6.487 -14.579  1.00  0.00    -0.206 F 
ATOM    102  C   UNL     1      -4.495  -4.794 -17.095  1.00  0.00     0.060 A 
BRANCH 102 103
ATOM    103  S   UNL     1      -4.356  -4.697 -18.893  1.00  0.00     0.124 S 
ATOM    104  O   UNL     1      -5.052  -3.446 -19.174  1.00  0.00    -0.237 OA
ATOM    105  O   UNL     1      -2.910  -4.678 -19.100  1.00  0.00    -0.237 OA
ATOM    106  O   UNL     1      -5.030  -5.909 -19.349  1.00  0.00    -0.744 OA
ENDBRANCH 102 103
ENDBRANCH  70  95
ENDBRANCH  44  45
ENDBRANCH  36  39
ENDBRANCH  34  35
ENDBRANCH  33  34
ENDBRANCH   1  33
TORSDOF 17
