REMARK SMILES CCCC[C@@H](C(=O)NCCCCCCNC(=O)c1ccc(-c2c3nc(c(-c4c(F)cc(S(=O)(=O)[O-])cc4F)c4ccc([nH]4)c(-c4c(F)cc(S(=O)(=O)[O-])cc4F)c4nc(c(-c5c(F)cc(S(=O)(=O)[O-])cc5F)c5ccc2[nH]5)C=C4)C=C3)cc1)[C@]1(O)COc2cc(O)ccc21
REMARK SMILES IDX 11 1 10 2 9 3 8 4 6 5 7 6 5 8 4 9 3 10 2 11 1 12 84 13 86 14
REMARK SMILES IDX 94 15 87 16 88 17 93 18 89 19 92 20 90 21 85 22 91 24 12 26
REMARK SMILES IDX 13 27 14 28 15 29 16 30 17 32 18 33 19 34 83 35 20 36 82 37
REMARK SMILES IDX 21 38 22 39 23 40 76 41 24 42 81 43 75 44 77 45 25 46 80 47
REMARK SMILES IDX 74 48 73 49 26 51 60 52 39 53 59 54 40 55 43 56 58 57 78 58
REMARK SMILES IDX 41 59 42 60 57 62 79 63 44 64 27 65 28 66 37 67 29 68 30 69
REMARK SMILES IDX 36 70 38 71 31 72 32 73 33 74 34 75 35 76 61 77 62 78 71 79
REMARK SMILES IDX 63 80 64 81 70 82 72 83 65 84 66 85 67 86 68 87 69 88 45 89
REMARK SMILES IDX 46 90 55 91 47 92 48 93 54 94 56 95 49 96 50 97 51 98 52 99
REMARK SMILES IDX 53 100
REMARK H PARENT 8 7 85 23 91 25 15 31 77 50 43 61
REMARK Flexibility Score: inf
ROOT
ATOM      1  C   UNL     1       0.042   5.711   2.064  1.00  0.00     0.002 C 
ENDROOT
BRANCH   1   2
ATOM      2  C   UNL     1       0.244   4.388   1.322  1.00  0.00     0.021 C 
BRANCH   2   3
ATOM      3  C   UNL     1      -1.071   3.707   0.921  1.00  0.00     0.116 C 
BRANCH   3   4
ATOM      4  N   UNL     1      -1.592   4.341  -0.275  1.00  0.00    -0.356 N 
ATOM      5  C   UNL     1      -1.168   4.039  -1.544  1.00  0.00     0.226 C 
ATOM      6  O   UNL     1      -0.802   4.960  -2.269  1.00  0.00    -0.275 OA
ATOM      7  H   UNL     1      -2.289   5.028  -0.170  1.00  0.00     0.163 HD
BRANCH   5   8
ATOM      8  C   UNL     1      -1.231   2.583  -2.004  1.00  0.00     0.118 C 
BRANCH   8   9
ATOM      9  C   UNL     1       0.183   1.985  -2.236  1.00  0.00     0.017 C 
BRANCH   9  10
ATOM     10  C   UNL     1       1.083   1.742  -1.019  1.00  0.00     0.001 C 
BRANCH  10  11
ATOM     11  C   UNL     1       0.626   0.644  -0.057  1.00  0.00    -0.003 C 
ATOM     12  C   UNL     1       1.217  -0.715  -0.393  1.00  0.00     0.004 C 
ENDBRANCH  10  11
ENDBRANCH   9  10
ENDBRANCH   8   9
BRANCH   8  13
ATOM     13  C   UNL     1      -2.116   2.453  -3.298  1.00  0.00     0.139 C 
ATOM     14  C   UNL     1      -1.414   2.758  -4.648  1.00  0.00     0.270 C 
ATOM     15  C   UNL     1      -3.244   3.436  -3.454  1.00  0.00     0.030 A 
ATOM     16  O   UNL     1      -1.687   4.119  -5.036  1.00  0.00    -0.490 OA
ATOM     17  C   UNL     1      -2.887   4.374  -4.425  1.00  0.00     0.129 A 
ATOM     18  C   UNL     1      -4.457   3.561  -2.794  1.00  0.00     0.014 A 
ATOM     19  C   UNL     1      -3.659   5.477  -4.722  1.00  0.00     0.093 A 
ATOM     20  C   UNL     1      -5.281   4.653  -3.110  1.00  0.00     0.047 A 
ATOM     21  C   UNL     1      -4.867   5.608  -4.051  1.00  0.00     0.119 A 
BRANCH  13  22
ATOM     22  O   UNL     1      -2.608   1.102  -3.341  1.00  0.00    -0.381 OA
ATOM     23  H   UNL     1      -1.867   0.485  -3.239  1.00  0.00     0.212 HD
ENDBRANCH  13  22
BRANCH  21  24
ATOM     24  O   UNL     1      -5.635   6.698  -4.342  1.00  0.00    -0.508 OA
ATOM     25  H   UNL     1      -5.340   7.324  -4.973  1.00  0.00     0.293 HD
ENDBRANCH  21  24
ENDBRANCH   8  13
ENDBRANCH   5   8
ENDBRANCH   3   4
ENDBRANCH   2   3
ENDBRANCH   1   2
BRANCH   1  26
ATOM     26  C   UNL     1      -0.575   5.559   3.456  1.00  0.00     0.002 C 
BRANCH  26  27
ATOM     27  C   UNL     1       0.201   4.641   4.406  1.00  0.00     0.021 C 
BRANCH  27  28
ATOM     28  C   UNL     1       1.667   5.022   4.602  1.00  0.00     0.116 C 
BRANCH  28  29
ATOM     29  N   UNL     1       1.803   6.379   5.105  1.00  0.00    -0.352 N 
ATOM     30  C   UNL     1       2.351   6.825   6.280  1.00  0.00     0.251 C 
ATOM     31  H   UNL     1       1.449   7.082   4.514  1.00  0.00     0.163 HD
ATOM     32  O   UNL     1       2.135   7.972   6.655  1.00  0.00    -0.269 OA
BRANCH  30  33
ATOM     33  C   UNL     1       3.196   5.924   7.091  1.00  0.00     0.039 A 
ATOM     34  C   UNL     1       3.038   5.922   8.479  1.00  0.00     0.014 A 
ATOM     35  C   UNL     1       4.167   5.115   6.492  1.00  0.00     0.014 A 
ATOM     36  C   UNL     1       3.825   5.076   9.261  1.00  0.00     0.010 A 
ATOM     37  C   UNL     1       4.905   4.223   7.268  1.00  0.00     0.010 A 
ATOM     38  C   UNL     1       4.748   4.202   8.660  1.00  0.00    -0.014 A 
BRANCH  38  39
ATOM     39  C   UNL     1       5.539   3.257   9.488  1.00  0.00     0.031 A 
ATOM     40  C   UNL     1       7.033   3.395   9.590  1.00  0.00     0.074 A 
ATOM     41  C   UNL     1       4.904   2.252  10.121  1.00  0.00     0.049 A 
ATOM     42  N   UNL     1       7.881   2.673  10.277  1.00  0.00    -0.248 NA
ATOM     43  C   UNL     1       7.661   4.465   8.799  1.00  0.00     0.031 C 
ATOM     44  C   UNL     1       3.467   1.977  10.041  1.00  0.00     0.029 A 
ATOM     45  N   UNL     1       5.382   1.274  10.956  1.00  0.00    -0.354 N 
ATOM     46  C   UNL     1       9.139   3.196   9.999  1.00  0.00     0.074 A 
ATOM     47  C   UNL     1       8.949   4.261   9.039  1.00  0.00     0.031 C 
ATOM     48  C   UNL     1       3.176   0.922  10.818  1.00  0.00     0.029 A 
ATOM     49  C   UNL     1       4.406   0.430  11.431  1.00  0.00     0.049 A 
ATOM     50  H   UNL     1       6.333   1.185  11.192  1.00  0.00     0.167 HD
ATOM     51  C   UNL     1      10.339   2.836  10.515  1.00  0.00     0.037 A 
ATOM     52  C   UNL     1       4.492  -0.619  12.271  1.00  0.00     0.037 A 
ATOM     53  C   UNL     1      10.516   1.788  11.488  1.00  0.00     0.049 A 
ATOM     54  C   UNL     1       5.830  -0.978  12.855  1.00  0.00     0.074 A 
ATOM     55  C   UNL     1      11.679   1.389  12.123  1.00  0.00     0.029 A 
ATOM     56  N   UNL     1       9.502   0.969  11.964  1.00  0.00    -0.354 N 
ATOM     57  N   UNL     1       6.999  -0.421  12.640  1.00  0.00    -0.248 NA
ATOM     58  C   UNL     1       5.859  -2.097  13.805  1.00  0.00     0.031 C 
ATOM     59  C   UNL     1      11.376   0.303  12.953  1.00  0.00     0.029 A 
ATOM     60  C   UNL     1      10.015   0.054  12.869  1.00  0.00     0.049 A 
ATOM     61  H   UNL     1       8.556   1.029  11.697  1.00  0.00     0.167 HD
ATOM     62  C   UNL     1       7.900  -1.113  13.441  1.00  0.00     0.074 A 
ATOM     63  C   UNL     1       7.135  -2.111  14.162  1.00  0.00     0.031 C 
ATOM     64  C   UNL     1       9.240  -0.941  13.567  1.00  0.00     0.037 A 
BRANCH  51  65
ATOM     65  C   UNL     1      11.555   3.588  10.045  1.00  0.00     0.058 A 
ATOM     66  C   UNL     1      11.784   4.924  10.413  1.00  0.00     0.135 A 
ATOM     67  C   UNL     1      12.523   2.956   9.248  1.00  0.00     0.135 A 
ATOM     68  F   UNL     1      10.885   5.582  11.162  1.00  0.00    -0.206 F 
ATOM     69  C   UNL     1      12.914   5.614   9.986  1.00  0.00     0.059 A 
ATOM     70  C   UNL     1      13.674   3.619   8.831  1.00  0.00     0.059 A 
ATOM     71  F   UNL     1      12.356   1.680   8.865  1.00  0.00    -0.206 F 
ATOM     72  C   UNL     1      13.854   4.953   9.194  1.00  0.00     0.060 A 
BRANCH  72  73
ATOM     73  S   UNL     1      15.319   5.860   8.656  1.00  0.00     0.124 S 
ATOM     74  O   UNL     1      14.758   6.739   7.635  1.00  0.00    -0.237 OA
ATOM     75  O   UNL     1      15.752   6.514   9.887  1.00  0.00    -0.237 OA
ATOM     76  O   UNL     1      16.206   4.811   8.162  1.00  0.00    -0.744 OA
ENDBRANCH  72  73
ENDBRANCH  51  65
BRANCH  52  77
ATOM     77  C   UNL     1       3.267  -1.380  12.633  1.00  0.00     0.058 A 
ATOM     78  C   UNL     1       2.710  -1.286  13.916  1.00  0.00     0.135 A 
ATOM     79  C   UNL     1       2.619  -2.200  11.697  1.00  0.00     0.135 A 
ATOM     80  F   UNL     1       3.296  -0.516  14.847  1.00  0.00    -0.206 F 
ATOM     81  C   UNL     1       1.563  -1.990  14.267  1.00  0.00     0.059 A 
ATOM     82  C   UNL     1       1.457  -2.896  12.015  1.00  0.00     0.059 A 
ATOM     83  F   UNL     1       3.101  -2.308  10.449  1.00  0.00    -0.206 F 
ATOM     84  C   UNL     1       0.942  -2.792  13.307  1.00  0.00     0.060 A 
BRANCH  84  85
ATOM     85  S   UNL     1      -0.577  -3.661  13.753  1.00  0.00     0.124 S 
ATOM     86  O   UNL     1      -0.062  -4.744  14.583  1.00  0.00    -0.237 OA
ATOM     87  O   UNL     1      -1.331  -2.624  14.450  1.00  0.00    -0.237 OA
ATOM     88  O   UNL     1      -1.125  -4.060  12.460  1.00  0.00    -0.744 OA
ENDBRANCH  84  85
ENDBRANCH  52  77
BRANCH  64  89
ATOM     89  C   UNL     1       9.954  -1.848  14.531  1.00  0.00     0.058 A 
ATOM     90  C   UNL     1      10.150  -3.210  14.252  1.00  0.00     0.135 A 
ATOM     91  C   UNL     1      10.453  -1.349  15.745  1.00  0.00     0.135 A 
ATOM     92  F   UNL     1       9.688  -3.738  13.107  1.00  0.00    -0.206 F 
ATOM     93  C   UNL     1      10.776  -4.056  15.161  1.00  0.00     0.059 A 
ATOM     94  C   UNL     1      11.108  -2.171  16.657  1.00  0.00     0.059 A 
ATOM     95  F   UNL     1      10.305  -0.052  16.055  1.00  0.00    -0.206 F 
ATOM     96  C   UNL     1      11.245  -3.527  16.365  1.00  0.00     0.060 A 
BRANCH  96  97
ATOM     97  S   UNL     1      12.048  -4.634  17.544  1.00  0.00     0.124 S 
ATOM     98  O   UNL     1      10.902  -5.332  18.116  1.00  0.00    -0.237 OA
ATOM     99  O   UNL     1      12.913  -5.436  16.684  1.00  0.00    -0.237 OA
ATOM    100  O   UNL     1      12.743  -3.722  18.446  1.00  0.00    -0.744 OA
ENDBRANCH  96  97
ENDBRANCH  64  89
ENDBRANCH  38  39
ENDBRANCH  30  33
ENDBRANCH  28  29
ENDBRANCH  27  28
ENDBRANCH  26  27
ENDBRANCH   1  26
TORSDOF 22
