REMARK SMILES Cc1noc(C)c1[C@@H](C)NC(=O)N(CC(=O)NCCCCCCNC(=O)c1ccc(-c2c3nc(c(-c4c(F)cc(S(=O)(=O)[O-])cc4F)c4ccc([nH]4)c(-c4c(F)cc(S(=O)(=O)[O-])cc4F)c4nc(c(-c5c(F)cc(S(=O)(=O)[O-])cc5F)c5ccc2[nH]5)C=C4)C=C3)cc1)C(C)C
REMARK SMILES IDX 20 1 19 2 18 3 17 4 15 5 16 6 14 8 13 9 11 10 10 11 12 13
REMARK SMILES IDX 8 14 9 15 7 16 1 17 2 18 3 19 4 20 5 21 6 22 93 23 94 24
REMARK SMILES IDX 95 25 21 26 22 27 23 28 24 29 25 30 26 32 27 33 28 34 92 35
REMARK SMILES IDX 29 36 91 37 30 38 31 39 32 40 85 41 33 42 90 43 84 44 86 45
REMARK SMILES IDX 34 46 89 47 83 48 82 49 35 51 69 52 48 53 68 54 49 55 52 56
REMARK SMILES IDX 67 57 87 58 50 59 51 60 66 62 88 63 53 64 36 65 37 66 46 67
REMARK SMILES IDX 38 68 39 69 45 70 47 71 40 72 41 73 42 74 43 75 44 76 70 77
REMARK SMILES IDX 71 78 80 79 72 80 73 81 79 82 81 83 74 84 75 85 76 86 77 87
REMARK SMILES IDX 78 88 54 89 55 90 64 91 56 92 57 93 63 94 65 95 58 96 59 97
REMARK SMILES IDX 60 98 61 99 62 100
REMARK H PARENT 17 7 10 12 24 31 86 50 52 61
REMARK Flexibility Score: inf
ROOT
ATOM      1  C   UNL     1      -0.037   8.503  -0.714  1.00  0.00     0.002 C 
ENDROOT
BRANCH   1   2
ATOM      2  C   UNL     1      -0.133   7.280   0.195  1.00  0.00     0.021 C 
BRANCH   2   3
ATOM      3  C   UNL     1       0.477   6.020  -0.403  1.00  0.00     0.116 C 
BRANCH   3   4
ATOM      4  N   UNL     1       1.919   6.056  -0.481  1.00  0.00    -0.355 N 
ATOM      5  C   UNL     1       2.859   5.211   0.021  1.00  0.00     0.239 C 
ATOM      6  O   UNL     1       4.014   5.361  -0.397  1.00  0.00    -0.273 OA
ATOM      7  H   UNL     1       2.283   6.821  -0.983  1.00  0.00     0.163 HD
BRANCH   5   8
ATOM      8  C   UNL     1       2.531   4.002   0.917  1.00  0.00     0.221 C 
BRANCH   8   9
ATOM      9  N   UNL     1       1.576   4.174   2.010  1.00  0.00    -0.313 N 
BRANCH   9  10
ATOM     10  C   UNL     1       0.297   3.693   2.102  1.00  0.00     0.318 C 
ATOM     11  N   UNL     1      -0.333   2.957   1.172  1.00  0.00    -0.331 N 
ATOM     12  H   UNL     1      -1.229   2.715   1.500  1.00  0.00     0.165 HD
ATOM     13  O   UNL     1      -0.411   3.938   3.086  1.00  0.00    -0.249 OA
BRANCH  11  14
ATOM     14  C   UNL     1      -0.138   2.393  -0.163  1.00  0.00     0.116 C 
ATOM     15  C   UNL     1      -1.214   2.885  -1.137  1.00  0.00     0.036 C 
BRANCH  14  16
ATOM     16  C   UNL     1      -0.102   0.902  -0.029  1.00  0.00     0.040 A 
ATOM     17  C   UNL     1      -2.641   0.190   0.097  1.00  0.00     0.071 C 
ATOM     18  C   UNL     1      -1.175  -0.039   0.077  1.00  0.00     0.086 A 
ATOM     19  N   UNL     1      -0.719  -1.294   0.161  1.00  0.00    -0.085 NA
ATOM     20  O   UNL     1       0.652  -1.203   0.134  1.00  0.00    -0.361 OA
ATOM     21  C   UNL     1       1.021   0.097   0.025  1.00  0.00     0.139 A 
ATOM     22  C   UNL     1       2.474   0.345  -0.002  1.00  0.00     0.091 C 
ENDBRANCH  14  16
ENDBRANCH  11  14
ENDBRANCH   9  10
BRANCH   9  23
ATOM     23  C   UNL     1       2.136   4.946   3.158  1.00  0.00     0.081 C 
ATOM     24  C   UNL     1       1.532   6.339   3.321  1.00  0.00     0.031 C 
ATOM     25  C   UNL     1       2.131   4.174   4.481  1.00  0.00     0.031 C 
ENDBRANCH   9  23
ENDBRANCH   8   9
ENDBRANCH   5   8
ENDBRANCH   3   4
ENDBRANCH   2   3
ENDBRANCH   1   2
BRANCH   1  26
ATOM     26  C   UNL     1      -0.825   8.380  -2.021  1.00  0.00     0.002 C 
BRANCH  26  27
ATOM     27  C   UNL     1      -2.316   8.073  -1.848  1.00  0.00     0.021 C 
BRANCH  27  28
ATOM     28  C   UNL     1      -3.063   9.047  -0.942  1.00  0.00     0.116 C 
BRANCH  28  29
ATOM     29  N   UNL     1      -2.987  10.412  -1.439  1.00  0.00    -0.352 N 
ATOM     30  C   UNL     1      -4.004  11.286  -1.727  1.00  0.00     0.251 C 
ATOM     31  H   UNL     1      -2.077  10.757  -1.590  1.00  0.00     0.163 HD
ATOM     32  O   UNL     1      -3.773  12.315  -2.351  1.00  0.00    -0.269 OA
BRANCH  30  33
ATOM     33  C   UNL     1      -5.380  10.968  -1.290  1.00  0.00     0.039 A 
ATOM     34  C   UNL     1      -6.434  11.144  -2.189  1.00  0.00     0.014 A 
ATOM     35  C   UNL     1      -5.624  10.496   0.003  1.00  0.00     0.014 A 
ATOM     36  C   UNL     1      -7.730  10.798  -1.805  1.00  0.00     0.010 A 
ATOM     37  C   UNL     1      -6.904  10.079   0.356  1.00  0.00     0.010 A 
ATOM     38  C   UNL     1      -7.971  10.234  -0.540  1.00  0.00    -0.014 A 
BRANCH  38  39
ATOM     39  C   UNL     1      -9.335   9.805  -0.138  1.00  0.00     0.031 A 
ATOM     40  C   UNL     1     -10.024  10.471   1.023  1.00  0.00     0.074 A 
ATOM     41  C   UNL     1      -9.928   8.781  -0.783  1.00  0.00     0.049 A 
ATOM     42  N   UNL     1     -11.187  10.201   1.557  1.00  0.00    -0.248 NA
ATOM     43  C   UNL     1      -9.300  11.567   1.687  1.00  0.00     0.031 C 
ATOM     44  C   UNL     1      -9.340   8.027  -1.892  1.00  0.00     0.029 A 
ATOM     45  N   UNL     1     -11.153   8.191  -0.594  1.00  0.00    -0.354 N 
ATOM     46  C   UNL     1     -11.329  11.082   2.623  1.00  0.00     0.074 A 
ATOM     47  C   UNL     1     -10.109  11.856   2.696  1.00  0.00     0.031 C 
ATOM     48  C   UNL     1     -10.213   7.091  -2.300  1.00  0.00     0.029 A 
ATOM     49  C   UNL     1     -11.403   7.149  -1.457  1.00  0.00     0.049 A 
ATOM     50  H   UNL     1     -11.792   8.485   0.094  1.00  0.00     0.167 HD
ATOM     51  C   UNL     1     -12.390  11.249   3.448  1.00  0.00     0.037 A 
ATOM     52  C   UNL     1     -12.466   6.327  -1.551  1.00  0.00     0.037 A 
ATOM     53  C   UNL     1     -13.607  10.486   3.356  1.00  0.00     0.049 A 
ATOM     54  C   UNL     1     -13.628   6.524  -0.615  1.00  0.00     0.074 A 
ATOM     55  C   UNL     1     -14.761  10.613   4.110  1.00  0.00     0.029 A 
ATOM     56  N   UNL     1     -13.829   9.450   2.460  1.00  0.00    -0.354 N 
ATOM     57  N   UNL     1     -13.773   7.407   0.344  1.00  0.00    -0.248 NA
ATOM     58  C   UNL     1     -14.774   5.619  -0.778  1.00  0.00     0.031 C 
ATOM     59  C   UNL     1     -15.659   9.620   3.707  1.00  0.00     0.029 A 
ATOM     60  C   UNL     1     -15.090   8.913   2.659  1.00  0.00     0.049 A 
ATOM     61  H   UNL     1     -13.184   9.141   1.783  1.00  0.00     0.167 HD
ATOM     62  C   UNL     1     -15.037   7.185   0.879  1.00  0.00     0.074 A 
ATOM     63  C   UNL     1     -15.620   6.092   0.127  1.00  0.00     0.031 C 
ATOM     64  C   UNL     1     -15.660   7.828   1.897  1.00  0.00     0.037 A 
BRANCH  51  65
ATOM     65  C   UNL     1     -12.282  12.298   4.523  1.00  0.00     0.058 A 
ATOM     66  C   UNL     1     -12.256  13.669   4.219  1.00  0.00     0.135 A 
ATOM     67  C   UNL     1     -12.242  11.930   5.878  1.00  0.00     0.135 A 
ATOM     68  F   UNL     1     -12.276  14.079   2.940  1.00  0.00    -0.206 F 
ATOM     69  C   UNL     1     -12.163  14.635   5.215  1.00  0.00     0.059 A 
ATOM     70  C   UNL     1     -12.182  12.881   6.894  1.00  0.00     0.059 A 
ATOM     71  F   UNL     1     -12.264  10.635   6.229  1.00  0.00    -0.206 F 
ATOM     72  C   UNL     1     -12.128  14.231   6.551  1.00  0.00     0.060 A 
BRANCH  72  73
ATOM     73  S   UNL     1     -12.016  15.499   7.830  1.00  0.00     0.124 S 
ATOM     74  O   UNL     1     -10.643  15.965   7.659  1.00  0.00    -0.237 OA
ATOM     75  O   UNL     1     -13.058  16.439   7.429  1.00  0.00    -0.237 OA
ATOM     76  O   UNL     1     -12.279  14.764   9.063  1.00  0.00    -0.744 OA
ENDBRANCH  72  73
ENDBRANCH  51  65
BRANCH  52  77
ATOM     77  C   UNL     1     -12.487   5.254  -2.583  1.00  0.00     0.058 A 
ATOM     78  C   UNL     1     -13.365   5.316  -3.675  1.00  0.00     0.135 A 
ATOM     79  C   UNL     1     -11.620   4.152  -2.504  1.00  0.00     0.135 A 
ATOM     80  F   UNL     1     -14.216   6.346  -3.793  1.00  0.00    -0.206 F 
ATOM     81  C   UNL     1     -13.398   4.317  -4.642  1.00  0.00     0.059 A 
ATOM     82  C   UNL     1     -11.615   3.155  -3.474  1.00  0.00     0.059 A 
ATOM     83  F   UNL     1     -10.747   4.053  -1.489  1.00  0.00    -0.206 F 
ATOM     84  C   UNL     1     -12.515   3.241  -4.535  1.00  0.00     0.060 A 
BRANCH  84  85
ATOM     85  S   UNL     1     -12.532   1.974  -5.822  1.00  0.00     0.124 S 
ATOM     86  O   UNL     1     -13.789   1.290  -5.544  1.00  0.00    -0.237 OA
ATOM     87  O   UNL     1     -12.496   2.777  -7.040  1.00  0.00    -0.237 OA
ATOM     88  O   UNL     1     -11.321   1.206  -5.552  1.00  0.00    -0.744 OA
ENDBRANCH  84  85
ENDBRANCH  52  77
BRANCH  64  89
ATOM     89  C   UNL     1     -17.062   7.398   2.237  1.00  0.00     0.058 A 
ATOM     90  C   UNL     1     -17.330   6.169   2.860  1.00  0.00     0.135 A 
ATOM     91  C   UNL     1     -18.146   8.254   1.982  1.00  0.00     0.135 A 
ATOM     92  F   UNL     1     -16.332   5.310   3.121  1.00  0.00    -0.206 F 
ATOM     93  C   UNL     1     -18.627   5.793   3.196  1.00  0.00     0.059 A 
ATOM     94  C   UNL     1     -19.447   7.912   2.338  1.00  0.00     0.059 A 
ATOM     95  F   UNL     1     -17.945   9.445   1.398  1.00  0.00    -0.206 F 
ATOM     96  C   UNL     1     -19.679   6.673   2.934  1.00  0.00     0.060 A 
BRANCH  96  97
ATOM     97  S   UNL     1     -21.352   6.186   3.405  1.00  0.00     0.124 S 
ATOM     98  O   UNL     1     -21.650   5.159   2.412  1.00  0.00    -0.237 OA
ATOM     99  O   UNL     1     -21.164   5.711   4.772  1.00  0.00    -0.237 OA
ATOM    100  O   UNL     1     -22.116   7.423   3.276  1.00  0.00    -0.744 OA
ENDBRANCH  96  97
ENDBRANCH  64  89
ENDBRANCH  38  39
ENDBRANCH  30  33
ENDBRANCH  28  29
ENDBRANCH  27  28
ENDBRANCH  26  27
ENDBRANCH   1  26
TORSDOF 21
