REMARK SMILES O=C(C[C@@H]1C(=O)NC(=S)N1c1ccccc1)NCCCCCCNC(=O)c1ccc(-c2c3nc(c(-c4c(F)cc(S(=O)(=O)[O-])cc4F)c4ccc([nH]4)c(-c4c(F)cc(S(=O)(=O)[O-])cc4F)c4nc(c(-c5c(F)cc(S(=O)(=O)[O-])cc5F)c5ccc2[nH]5)C=C4)C=C3)cc1
REMARK SMILES IDX 21 1 20 2 19 3 18 4 17 5 1 6 2 7 3 9 4 10 5 11 10 12 6 13
REMARK SMILES IDX 7 14 8 15 9 17 11 18 12 19 16 20 13 21 15 22 14 23 22 24
REMARK SMILES IDX 23 25 24 26 25 27 26 29 27 30 28 31 92 32 29 33 91 34 30 35
REMARK SMILES IDX 31 36 32 37 85 38 33 39 90 40 84 41 86 42 34 43 89 44 83 45
REMARK SMILES IDX 82 46 35 48 69 49 48 50 68 51 49 52 52 53 67 54 87 55 50 56
REMARK SMILES IDX 51 57 66 59 88 60 53 61 36 62 37 63 46 64 38 65 39 66 45 67
REMARK SMILES IDX 47 68 40 69 41 70 42 71 43 72 44 73 70 74 71 75 80 76 72 77
REMARK SMILES IDX 73 78 79 79 81 80 74 81 75 82 76 83 77 84 78 85 54 86 55 87
REMARK SMILES IDX 64 88 56 89 57 90 63 91 65 92 58 93 59 94 60 95 61 96 62 97
REMARK H PARENT 17 8 7 16 24 28 86 47 52 58
REMARK Flexibility Score: inf
ROOT
ATOM      1  C   UNL     1       4.710   0.113   4.298  1.00  0.00     0.002 C 
ENDROOT
BRANCH   1   2
ATOM      2  C   UNL     1       4.231  -1.108   3.506  1.00  0.00     0.002 C 
BRANCH   2   3
ATOM      3  C   UNL     1       2.725  -1.163   3.223  1.00  0.00     0.021 C 
BRANCH   3   4
ATOM      4  C   UNL     1       2.169   0.043   2.467  1.00  0.00     0.116 C 
BRANCH   4   5
ATOM      5  N   UNL     1       2.747   0.157   1.140  1.00  0.00    -0.356 N 
ATOM      6  O   UNL     1       0.736   0.362   0.062  1.00  0.00    -0.275 OA
ATOM      7  C   UNL     1       1.965   0.334   0.027  1.00  0.00     0.222 C 
ATOM      8  H   UNL     1       3.724   0.106   1.036  1.00  0.00     0.163 HD
BRANCH   7   9
ATOM      9  C   UNL     1       2.678   0.337  -1.307  1.00  0.00     0.135 C 
BRANCH   9  10
ATOM     10  C   UNL     1       3.928   1.183  -1.449  1.00  0.00     0.188 C 
ATOM     11  C   UNL     1       3.782   2.599  -0.889  1.00  0.00     0.249 C 
ATOM     12  N   UNL     1       4.319   1.497  -2.831  1.00  0.00    -0.306 N 
ATOM     13  O   UNL     1       3.503   2.895   0.261  1.00  0.00    -0.272 OA
ATOM     14  N   UNL     1       4.083   3.498  -1.863  1.00  0.00    -0.301 N 
ATOM     15  C   UNL     1       4.435   2.880  -3.023  1.00  0.00     0.180 C 
ATOM     16  H   UNL     1       4.052   4.474  -1.743  1.00  0.00     0.172 HD
ATOM     17  S   UNL     1       4.850   3.743  -4.379  1.00  0.00    -0.040 S 
BRANCH  12  18
ATOM     18  C   UNL     1       4.737   0.492  -3.734  1.00  0.00     0.044 A 
ATOM     19  C   UNL     1       6.046   0.475  -4.226  1.00  0.00     0.026 A 
ATOM     20  C   UNL     1       3.839  -0.490  -4.165  1.00  0.00     0.026 A 
ATOM     21  C   UNL     1       6.452  -0.518  -5.121  1.00  0.00     0.002 A 
ATOM     22  C   UNL     1       4.242  -1.477  -5.067  1.00  0.00     0.002 A 
ATOM     23  C   UNL     1       5.550  -1.494  -5.542  1.00  0.00     0.000 A 
ENDBRANCH  12  18
ENDBRANCH   9  10
ENDBRANCH   7   9
ENDBRANCH   4   5
ENDBRANCH   3   4
ENDBRANCH   2   3
ENDBRANCH   1   2
BRANCH   1  24
ATOM     24  C   UNL     1       4.024   0.331   5.649  1.00  0.00     0.021 C 
BRANCH  24  25
ATOM     25  C   UNL     1       4.130  -0.834   6.628  1.00  0.00     0.116 C 
BRANCH  25  26
ATOM     26  N   UNL     1       5.503  -1.114   7.017  1.00  0.00    -0.352 N 
ATOM     27  C   UNL     1       6.036  -1.280   8.272  1.00  0.00     0.251 C 
ATOM     28  H   UNL     1       6.143  -1.196   6.273  1.00  0.00     0.163 HD
ATOM     29  O   UNL     1       7.253  -1.354   8.413  1.00  0.00    -0.269 OA
BRANCH  27  30
ATOM     30  C   UNL     1       5.147  -1.344   9.455  1.00  0.00     0.039 A 
ATOM     31  C   UNL     1       5.486  -0.611  10.595  1.00  0.00     0.014 A 
ATOM     32  C   UNL     1       3.988  -2.126   9.444  1.00  0.00     0.014 A 
ATOM     33  C   UNL     1       4.630  -0.609  11.700  1.00  0.00     0.010 A 
ATOM     34  C   UNL     1       3.104  -2.071  10.520  1.00  0.00     0.010 A 
ATOM     35  C   UNL     1       3.415  -1.313  11.659  1.00  0.00    -0.014 A 
BRANCH  35  36
ATOM     36  C   UNL     1       2.454  -1.260  12.793  1.00  0.00     0.031 A 
ATOM     37  C   UNL     1       2.129  -2.507  13.570  1.00  0.00     0.074 A 
ATOM     38  C   UNL     1       1.825  -0.103  13.079  1.00  0.00     0.049 A 
ATOM     39  N   UNL     1       1.269  -2.675  14.541  1.00  0.00    -0.248 NA
ATOM     40  C   UNL     1       2.849  -3.733  13.188  1.00  0.00     0.031 C 
ATOM     41  C   UNL     1       2.019   1.164  12.371  1.00  0.00     0.029 A 
ATOM     42  N   UNL     1       0.885   0.193  14.035  1.00  0.00    -0.354 N 
ATOM     43  C   UNL     1       1.331  -4.023  14.875  1.00  0.00     0.074 A 
ATOM     44  C   UNL     1       2.278  -4.637  13.970  1.00  0.00     0.031 C 
ATOM     45  C   UNL     1       1.240   2.104  12.930  1.00  0.00     0.029 A 
ATOM     46  C   UNL     1       0.464   1.502  14.009  1.00  0.00     0.049 A 
ATOM     47  H   UNL     1       0.544  -0.469  14.678  1.00  0.00     0.167 HD
ATOM     48  C   UNL     1       0.675  -4.684  15.860  1.00  0.00     0.037 A 
ATOM     49  C   UNL     1      -0.449   2.143  14.765  1.00  0.00     0.037 A 
ATOM     50  C   UNL     1      -0.249  -4.062  16.773  1.00  0.00     0.049 A 
ATOM     51  C   UNL     1      -1.167   1.388  15.850  1.00  0.00     0.074 A 
ATOM     52  C   UNL     1      -0.918  -4.633  17.841  1.00  0.00     0.029 A 
ATOM     53  N   UNL     1      -0.635  -2.731  16.726  1.00  0.00    -0.354 N 
ATOM     54  N   UNL     1      -1.049   0.127  16.193  1.00  0.00    -0.248 NA
ATOM     55  C   UNL     1      -2.139   2.142  16.653  1.00  0.00     0.031 C 
ATOM     56  C   UNL     1      -1.741  -3.657  18.415  1.00  0.00     0.029 A 
ATOM     57  C   UNL     1      -1.549  -2.466  17.733  1.00  0.00     0.049 A 
ATOM     58  H   UNL     1      -0.308  -2.071  16.073  1.00  0.00     0.167 HD
ATOM     59  C   UNL     1      -1.910  -0.056  17.270  1.00  0.00     0.074 A 
ATOM     60  C   UNL     1      -2.535   1.225  17.527  1.00  0.00     0.031 C 
ATOM     61  C   UNL     1      -2.158  -1.183  17.982  1.00  0.00     0.037 A 
BRANCH  48  62
ATOM     62  C   UNL     1       0.937  -6.159  16.000  1.00  0.00     0.058 A 
ATOM     63  C   UNL     1       2.168  -6.647  16.468  1.00  0.00     0.135 A 
ATOM     64  C   UNL     1      -0.061  -7.096  15.685  1.00  0.00     0.135 A 
ATOM     65  F   UNL     1       3.162  -5.797  16.770  1.00  0.00    -0.206 F 
ATOM     66  C   UNL     1       2.413  -8.012  16.584  1.00  0.00     0.059 A 
ATOM     67  C   UNL     1       0.153  -8.465  15.821  1.00  0.00     0.059 A 
ATOM     68  F   UNL     1      -1.257  -6.685  15.236  1.00  0.00    -0.206 F 
ATOM     69  C   UNL     1       1.400  -8.913  16.254  1.00  0.00     0.060 A 
BRANCH  69  70
ATOM     70  S   UNL     1       1.736 -10.681  16.400  1.00  0.00     0.124 S 
ATOM     71  O   UNL     1       2.598 -10.908  15.244  1.00  0.00    -0.237 OA
ATOM     72  O   UNL     1       2.389 -10.769  17.703  1.00  0.00    -0.237 OA
ATOM     73  O   UNL     1       0.411 -11.287  16.325  1.00  0.00    -0.744 OA
ENDBRANCH  69  70
ENDBRANCH  48  62
BRANCH  49  74
ATOM     74  C   UNL     1      -0.716   3.589  14.539  1.00  0.00     0.058 A 
ATOM     75  C   UNL     1      -0.294   4.551  15.469  1.00  0.00     0.135 A 
ATOM     76  C   UNL     1      -1.385   4.039  13.390  1.00  0.00     0.135 A 
ATOM     77  F   UNL     1       0.343   4.169  16.586  1.00  0.00    -0.206 F 
ATOM     78  C   UNL     1      -0.537   5.907  15.276  1.00  0.00     0.059 A 
ATOM     79  C   UNL     1      -1.618   5.392  13.163  1.00  0.00     0.059 A 
ATOM     80  F   UNL     1      -1.795   3.160  12.463  1.00  0.00    -0.206 F 
ATOM     81  C   UNL     1      -1.199   6.318  14.118  1.00  0.00     0.060 A 
BRANCH  81  82
ATOM     82  S   UNL     1      -1.467   8.085  13.855  1.00  0.00     0.124 S 
ATOM     83  O   UNL     1      -2.538   8.364  14.804  1.00  0.00    -0.237 OA
ATOM     84  O   UNL     1      -0.160   8.645  14.182  1.00  0.00    -0.237 OA
ATOM     85  O   UNL     1      -1.836   8.160  12.444  1.00  0.00    -0.744 OA
ENDBRANCH  81  82
ENDBRANCH  49  74
BRANCH  61  86
ATOM     86  C   UNL     1      -3.120  -1.076  19.133  1.00  0.00     0.058 A 
ATOM     87  C   UNL     1      -4.503  -0.951  18.929  1.00  0.00     0.135 A 
ATOM     88  C   UNL     1      -2.655  -1.151  20.456  1.00  0.00     0.135 A 
ATOM     89  F   UNL     1      -4.998  -0.867  17.684  1.00  0.00    -0.206 F 
ATOM     90  C   UNL     1      -5.391  -0.882  19.998  1.00  0.00     0.059 A 
ATOM     91  C   UNL     1      -3.527  -1.110  21.539  1.00  0.00     0.059 A 
ATOM     92  F   UNL     1      -1.343  -1.281  20.705  1.00  0.00    -0.206 F 
ATOM     93  C   UNL     1      -4.893  -0.964  21.300  1.00  0.00     0.060 A 
BRANCH  93  94
ATOM     94  S   UNL     1      -6.058  -0.910  22.678  1.00  0.00     0.124 S 
ATOM     95  O   UNL     1      -6.411   0.505  22.710  1.00  0.00    -0.237 OA
ATOM     96  O   UNL     1      -7.112  -1.816  22.233  1.00  0.00    -0.237 OA
ATOM     97  O   UNL     1      -5.268  -1.386  23.810  1.00  0.00    -0.744 OA
ENDBRANCH  93  94
ENDBRANCH  61  86
ENDBRANCH  35  36
ENDBRANCH  27  30
ENDBRANCH  25  26
ENDBRANCH  24  25
ENDBRANCH   1  24
TORSDOF 18
