REMARK SMILES Cc1c(CCC(=O)N2CCC(C(=O)NCCCCCCNC(=O)c3ccc(-c4c5nc(c(-c6c(F)cc(S(=O)(=O)[O-])cc6F)c6ccc([nH]6)c(-c6c(F)cc(S(=O)(=O)[O-])cc6F)c6nc(c(-c7c(F)cc(S(=O)(=O)[O-])cc7F)c7ccc4[nH]7)C=C6)C=C5)cc3)CC2)c(=O)oc2cc3oc4c(c3cc12)CCCC4
REMARK SMILES IDX 17 1 16 2 15 3 14 4 12 5 13 6 11 8 6 9 7 10 8 11 9 12 91 13
REMARK SMILES IDX 10 14 90 15 5 16 4 17 3 18 1 19 2 20 103 21 92 22 95 23
REMARK SMILES IDX 102 24 93 25 94 26 96 27 101 28 97 29 100 30 98 31 99 32
REMARK SMILES IDX 104 33 107 34 105 35 106 36 18 37 19 38 20 39 21 40 22 41
REMARK SMILES IDX 23 43 24 44 25 45 89 46 26 47 88 48 27 49 28 50 29 51 82 52
REMARK SMILES IDX 30 53 87 54 81 55 83 56 31 57 86 58 80 59 79 60 32 62 66 63
REMARK SMILES IDX 45 64 65 65 46 66 49 67 64 68 84 69 47 70 48 71 63 73 85 74
REMARK SMILES IDX 50 75 33 76 34 77 43 78 35 79 36 80 42 81 44 82 37 83 38 84
REMARK SMILES IDX 39 85 40 86 41 87 67 88 68 89 77 90 69 91 70 92 76 93 78 94
REMARK SMILES IDX 71 95 72 96 73 97 74 98 75 99 51 100 52 101 61 102 53 103
REMARK SMILES IDX 54 104 60 105 62 106 55 107 56 108 57 109 58 110 59 111
REMARK H PARENT 14 7 21 42 83 61 49 72
REMARK Flexibility Score: inf
ROOT
ATOM      1  C   UNL     1      -1.239  -5.759  -0.904  1.00  0.00     0.002 C 
ENDROOT
BRANCH   1   2
ATOM      2  C   UNL     1       0.026  -4.886  -0.876  1.00  0.00     0.021 C 
BRANCH   2   3
ATOM      3  C   UNL     1      -0.261  -3.450  -0.471  1.00  0.00     0.116 C 
BRANCH   3   4
ATOM      4  N   UNL     1      -0.485  -3.435   0.958  1.00  0.00    -0.356 N 
ATOM      5  C   UNL     1       0.435  -3.283   1.946  1.00  0.00     0.223 C 
ATOM      6  O   UNL     1       0.184  -3.783   3.046  1.00  0.00    -0.275 OA
ATOM      7  H   UNL     1      -1.418  -3.550   1.250  1.00  0.00     0.163 HD
BRANCH   5   8
ATOM      8  C   UNL     1       1.641  -2.364   1.771  1.00  0.00     0.082 C 
ATOM      9  C   UNL     1       3.356   0.477  -0.510  1.00  0.00     0.222 C 
ATOM     10  O   UNL     1       3.694  -0.083  -1.553  1.00  0.00    -0.275 OA
ATOM     11  N   UNL     1       3.277  -0.238   0.692  1.00  0.00    -0.343 N 
ATOM     12  C   UNL     1       3.887  -1.577   0.863  1.00  0.00     0.120 C 
ATOM     13  C   UNL     1       2.188   0.021   1.599  1.00  0.00     0.120 C 
ATOM     14  C   UNL     1       2.869  -2.759   0.957  1.00  0.00     0.035 C 
ATOM     15  C   UNL     1       1.154  -1.032   1.238  1.00  0.00     0.035 C 
BRANCH   9  16
ATOM     16  C   UNL     1       3.123   2.014  -0.462  1.00  0.00     0.105 C 
BRANCH  16  17
ATOM     17  C   UNL     1       1.805   2.623  -1.015  1.00  0.00     0.053 C 
BRANCH  17  18
ATOM     18  C   UNL     1       0.739   2.884   0.039  1.00  0.00     0.042 A 
ATOM     19  C   UNL     1      -0.750   0.897  -0.505  1.00  0.00     0.046 C 
ATOM     20  C   UNL     1      -0.226   2.012   0.354  1.00  0.00    -0.030 A 
ATOM     21  C   UNL     1      -0.835   2.215   1.658  1.00  0.00     0.022 A 
ATOM     22  C   UNL     1       0.610   4.235   0.703  1.00  0.00     0.339 A 
ATOM     23  C   UNL     1      -1.318   3.460   1.962  1.00  0.00     0.142 A 
ATOM     24  C   UNL     1      -0.871   1.258   2.647  1.00  0.00     0.024 A 
ATOM     25  O   UNL     1       1.495   5.079   0.626  1.00  0.00    -0.246 OA
ATOM     26  O   UNL     1      -0.648   4.525   1.321  1.00  0.00    -0.422 OA
ATOM     27  C   UNL     1      -2.339   3.622   2.920  1.00  0.00     0.095 A 
ATOM     28  C   UNL     1      -1.904   1.304   3.558  1.00  0.00     0.025 A 
ATOM     29  C   UNL     1      -2.707   2.436   3.584  1.00  0.00     0.138 A 
ATOM     30  C   UNL     1      -2.488   0.302   4.349  1.00  0.00     0.001 A 
ATOM     31  O   UNL     1      -3.868   2.112   4.255  1.00  0.00    -0.461 OA
ATOM     32  C   UNL     1      -3.761   0.779   4.553  1.00  0.00     0.108 A 
ATOM     33  C   UNL     1      -2.166  -1.151   4.437  1.00  0.00     0.040 C 
ATOM     34  C   UNL     1      -4.936  -0.134   4.550  1.00  0.00     0.076 C 
ATOM     35  C   UNL     1      -3.265  -1.991   3.754  1.00  0.00     0.005 C 
ATOM     36  C   UNL     1      -4.609  -1.250   3.510  1.00  0.00     0.008 C 
ENDBRANCH  17  18
ENDBRANCH  16  17
ENDBRANCH   9  16
ENDBRANCH   5   8
ENDBRANCH   3   4
ENDBRANCH   2   3
ENDBRANCH   1   2
BRANCH   1  37
ATOM     37  C   UNL     1      -2.220  -5.448  -2.043  1.00  0.00     0.002 C 
BRANCH  37  38
ATOM     38  C   UNL     1      -1.571  -5.229  -3.410  1.00  0.00     0.021 C 
BRANCH  38  39
ATOM     39  C   UNL     1      -0.526  -6.287  -3.770  1.00  0.00     0.116 C 
BRANCH  39  40
ATOM     40  N   UNL     1      -1.056  -7.395  -4.534  1.00  0.00    -0.352 N 
ATOM     41  C   UNL     1      -1.113  -7.519  -5.906  1.00  0.00     0.251 C 
ATOM     42  H   UNL     1      -1.419  -8.149  -4.014  1.00  0.00     0.163 HD
ATOM     43  O   UNL     1      -1.574  -8.504  -6.441  1.00  0.00    -0.269 OA
BRANCH  41  44
ATOM     44  C   UNL     1      -0.627  -6.367  -6.692  1.00  0.00     0.039 A 
ATOM     45  C   UNL     1       0.725  -6.013  -6.639  1.00  0.00     0.014 A 
ATOM     46  C   UNL     1      -1.572  -5.554  -7.317  1.00  0.00     0.014 A 
ATOM     47  C   UNL     1       1.114  -4.765  -7.101  1.00  0.00     0.010 A 
ATOM     48  C   UNL     1      -1.169  -4.324  -7.823  1.00  0.00     0.010 A 
ATOM     49  C   UNL     1       0.164  -3.913  -7.677  1.00  0.00    -0.014 A 
BRANCH  49  50
ATOM     50  C   UNL     1       0.643  -2.630  -8.199  1.00  0.00     0.031 A 
ATOM     51  C   UNL     1       0.659  -2.568  -9.685  1.00  0.00     0.074 A 
ATOM     52  C   UNL     1       0.541  -1.473  -7.514  1.00  0.00     0.049 A 
ATOM     53  N   UNL     1      -0.432  -2.379 -10.366  1.00  0.00    -0.248 NA
ATOM     54  C   UNL     1       1.804  -2.985 -10.488  1.00  0.00     0.031 C 
ATOM     55  C   UNL     1      -0.442  -1.217  -6.453  1.00  0.00     0.029 A 
ATOM     56  N   UNL     1       1.101  -0.244  -7.761  1.00  0.00    -0.354 N 
ATOM     57  C   UNL     1      -0.151  -2.703 -11.675  1.00  0.00     0.074 A 
ATOM     58  C   UNL     1       1.252  -3.057 -11.710  1.00  0.00     0.031 C 
ATOM     59  C   UNL     1      -0.559   0.117  -6.292  1.00  0.00     0.029 A 
ATOM     60  C   UNL     1       0.452   0.791  -7.098  1.00  0.00     0.049 A 
ATOM     61  H   UNL     1       1.881  -0.111  -8.347  1.00  0.00     0.167 HD
ATOM     62  C   UNL     1      -1.093  -2.682 -12.650  1.00  0.00     0.037 A 
ATOM     63  C   UNL     1       0.363   2.073  -7.545  1.00  0.00     0.037 A 
ATOM     64  C   UNL     1      -2.403  -2.265 -12.243  1.00  0.00     0.049 A 
ATOM     65  C   UNL     1      -0.505   1.893  -8.769  1.00  0.00     0.074 A 
ATOM     66  C   UNL     1      -3.562  -2.870 -11.808  1.00  0.00     0.029 A 
ATOM     67  N   UNL     1      -2.645  -0.915 -12.133  1.00  0.00    -0.354 N 
ATOM     68  N   UNL     1      -1.807   1.763  -8.771  1.00  0.00    -0.248 NA
ATOM     69  C   UNL     1       0.144   1.495 -10.021  1.00  0.00     0.031 C 
ATOM     70  C   UNL     1      -4.255  -1.873 -11.051  1.00  0.00     0.029 A 
ATOM     71  C   UNL     1      -3.442  -0.741 -11.028  1.00  0.00     0.049 A 
ATOM     72  H   UNL     1      -2.311  -0.209 -12.732  1.00  0.00     0.167 HD
ATOM     73  C   UNL     1      -2.105   1.016  -9.914  1.00  0.00     0.074 A 
ATOM     74  C   UNL     1      -0.865   0.911 -10.653  1.00  0.00     0.031 C 
ATOM     75  C   UNL     1      -3.290   0.368 -10.110  1.00  0.00     0.037 A 
BRANCH  62  76
ATOM     76  C   UNL     1      -0.798  -2.912 -14.072  1.00  0.00     0.058 A 
ATOM     77  C   UNL     1      -0.636  -1.796 -14.904  1.00  0.00     0.135 A 
ATOM     78  C   UNL     1      -0.845  -4.182 -14.655  1.00  0.00     0.135 A 
ATOM     79  F   UNL     1      -0.590  -0.564 -14.371  1.00  0.00    -0.206 F 
ATOM     80  C   UNL     1      -0.575  -1.927 -16.282  1.00  0.00     0.059 A 
ATOM     81  C   UNL     1      -0.782  -4.339 -16.037  1.00  0.00     0.059 A 
ATOM     82  F   UNL     1      -0.997  -5.275 -13.889  1.00  0.00    -0.206 F 
ATOM     83  C   UNL     1      -0.672  -3.202 -16.841  1.00  0.00     0.060 A 
BRANCH  83  84
ATOM     84  S   UNL     1      -0.705  -3.331 -18.640  1.00  0.00     0.124 S 
ATOM     85  O   UNL     1      -1.933  -2.615 -18.968  1.00  0.00    -0.237 OA
ATOM     86  O   UNL     1       0.539  -2.665 -19.012  1.00  0.00    -0.237 OA
ATOM     87  O   UNL     1      -0.736  -4.771 -18.876  1.00  0.00    -0.744 OA
ENDBRANCH  83  84
ENDBRANCH  62  76
BRANCH  63  88
ATOM     88  C   UNL     1       1.676   2.803  -7.550  1.00  0.00     0.058 A 
ATOM     89  C   UNL     1       2.467   2.765  -6.379  1.00  0.00     0.135 A 
ATOM     90  C   UNL     1       2.220   3.510  -8.633  1.00  0.00     0.135 A 
ATOM     91  F   UNL     1       1.973   2.239  -5.245  1.00  0.00    -0.206 F 
ATOM     92  C   UNL     1       3.776   3.236  -6.343  1.00  0.00     0.059 A 
ATOM     93  C   UNL     1       3.537   3.974  -8.630  1.00  0.00     0.059 A 
ATOM     94  F   UNL     1       1.497   3.751  -9.735  1.00  0.00    -0.206 F 
ATOM     95  C   UNL     1       4.319   3.796  -7.493  1.00  0.00     0.060 A 
BRANCH  95  96
ATOM     96  S   UNL     1       6.072   4.228  -7.494  1.00  0.00     0.124 S 
ATOM     97  O   UNL     1       6.122   5.290  -6.496  1.00  0.00    -0.237 OA
ATOM     98  O   UNL     1       6.691   2.962  -7.111  1.00  0.00    -0.237 OA
ATOM     99  O   UNL     1       6.316   4.645  -8.871  1.00  0.00    -0.744 OA
ENDBRANCH  95  96
ENDBRANCH  63  88
BRANCH  75 100
ATOM    100  C   UNL     1      -4.379   0.685  -9.142  1.00  0.00     0.058 A 
ATOM    101  C   UNL     1      -5.064   1.904  -9.232  1.00  0.00     0.135 A 
ATOM    102  C   UNL     1      -4.805  -0.238  -8.173  1.00  0.00     0.135 A 
ATOM    103  F   UNL     1      -4.702   2.818 -10.148  1.00  0.00    -0.206 F 
ATOM    104  C   UNL     1      -6.158   2.185  -8.419  1.00  0.00     0.059 A 
ATOM    105  C   UNL     1      -5.910   0.013  -7.364  1.00  0.00     0.059 A 
ATOM    106  F   UNL     1      -4.177  -1.417  -8.025  1.00  0.00    -0.206 F 
ATOM    107  C   UNL     1      -6.585   1.226  -7.500  1.00  0.00     0.060 A 
BRANCH 107 108
ATOM    108  S   UNL     1      -8.080   1.551  -6.542  1.00  0.00     0.124 S 
ATOM    109  O   UNL     1      -7.628   2.581  -5.613  1.00  0.00    -0.237 OA
ATOM    110  O   UNL     1      -9.020   1.991  -7.569  1.00  0.00    -0.237 OA
ATOM    111  O   UNL     1      -8.388   0.257  -5.938  1.00  0.00    -0.744 OA
ENDBRANCH 107 108
ENDBRANCH  75 100
ENDBRANCH  49  50
ENDBRANCH  41  44
ENDBRANCH  39  40
ENDBRANCH  38  39
ENDBRANCH  37  38
ENDBRANCH   1  37
TORSDOF 19
