REMARK SMILES CC(=O)N[C@@H](C)C(=O)N1CCC[C@H]1C(=O)NCCCCCCNC(=O)c1ccc(-c2c3nc(c(-c4c(F)cc(S(=O)(=O)[O-])cc4F)c4ccc([nH]4)c(-c4c(F)cc(S(=O)(=O)[O-])cc4F)c4nc(c(-c5c(F)cc(S(=O)(=O)[O-])cc5F)c5ccc2[nH]5)C=C4)C=C3)cc1
REMARK SMILES IDX 19 1 18 2 17 3 16 4 14 5 15 6 13 8 9 9 10 10 11 11 12 12
REMARK SMILES IDX 7 13 8 14 5 15 6 16 4 17 1 18 2 19 3 20 20 22 21 23 22 24
REMARK SMILES IDX 23 25 24 26 25 28 26 29 27 30 91 31 28 32 90 33 29 34 30 35
REMARK SMILES IDX 31 36 84 37 32 38 89 39 83 40 85 41 33 42 88 43 82 44 81 45
REMARK SMILES IDX 34 47 68 48 47 49 67 50 48 51 51 52 66 53 86 54 49 55 50 56
REMARK SMILES IDX 65 58 87 59 52 60 35 61 36 62 45 63 37 64 38 65 44 66 46 67
REMARK SMILES IDX 39 68 40 69 41 70 42 71 43 72 69 73 70 74 79 75 71 76 72 77
REMARK SMILES IDX 78 78 80 79 73 80 74 81 75 82 76 83 77 84 53 85 54 86 63 87
REMARK SMILES IDX 55 88 56 89 62 90 64 91 57 92 58 93 59 94 60 95 61 96
REMARK H PARENT 16 7 4 21 23 27 85 46 51 57
REMARK Flexibility Score: inf
ROOT
ATOM      1  C   UNL     1       0.347   3.210  -6.995  1.00  0.00     0.002 C 
ENDROOT
BRANCH   1   2
ATOM      2  C   UNL     1       1.406   2.118  -6.811  1.00  0.00     0.021 C 
BRANCH   2   3
ATOM      3  C   UNL     1       0.937   0.882  -6.053  1.00  0.00     0.116 C 
BRANCH   3   4
ATOM      4  N   UNL     1      -0.134   0.168  -6.721  1.00  0.00    -0.354 N 
ATOM      5  C   UNL     1      -0.442  -1.165  -6.651  1.00  0.00     0.242 C 
ATOM      6  O   UNL     1      -1.540  -1.527  -7.078  1.00  0.00    -0.273 OA
ATOM      7  H   UNL     1      -0.715   0.712  -7.301  1.00  0.00     0.163 HD
BRANCH   5   8
ATOM      8  C   UNL     1       0.577  -2.146  -6.026  1.00  0.00     0.174 C 
ATOM      9  N   UNL     1       0.415  -2.365  -4.585  1.00  0.00    -0.329 N 
ATOM     10  C   UNL     1      -0.070  -3.694  -4.296  1.00  0.00     0.120 C 
ATOM     11  C   UNL     1       0.471  -4.519  -5.444  1.00  0.00     0.024 C 
ATOM     12  C   UNL     1       0.409  -3.560  -6.630  1.00  0.00     0.037 C 
BRANCH   9  13
ATOM     13  C   UNL     1       0.548  -1.379  -3.642  1.00  0.00     0.245 C 
ATOM     14  O   UNL     1      -0.236  -0.430  -3.594  1.00  0.00    -0.272 OA
BRANCH  13  15
ATOM     15  C   UNL     1       1.635  -1.561  -2.562  1.00  0.00     0.168 C 
ATOM     16  C   UNL     1       2.873  -2.305  -3.045  1.00  0.00     0.041 C 
BRANCH  15  17
ATOM     17  N   UNL     1       1.066  -2.176  -1.373  1.00  0.00    -0.345 N 
ATOM     18  C   UNL     1       0.940  -0.097  -0.047  1.00  0.00     0.114 C 
ATOM     19  C   UNL     1       0.627  -1.556  -0.241  1.00  0.00     0.217 C 
ATOM     20  O   UNL     1       0.017  -2.216   0.598  1.00  0.00    -0.275 OA
ATOM     21  H   UNL     1       0.987  -3.157  -1.388  1.00  0.00     0.164 HD
ENDBRANCH  15  17
ENDBRANCH  13  15
ENDBRANCH   9  13
ENDBRANCH   5   8
ENDBRANCH   3   4
ENDBRANCH   2   3
ENDBRANCH   1   2
BRANCH   1  22
ATOM     22  C   UNL     1      -0.398   3.655  -5.731  1.00  0.00     0.002 C 
BRANCH  22  23
ATOM     23  C   UNL     1       0.472   4.101  -4.553  1.00  0.00     0.021 C 
BRANCH  23  24
ATOM     24  C   UNL     1       1.504   5.179  -4.862  1.00  0.00     0.116 C 
BRANCH  24  25
ATOM     25  N   UNL     1       0.909   6.393  -5.388  1.00  0.00    -0.352 N 
ATOM     26  C   UNL     1       1.175   7.704  -5.083  1.00  0.00     0.251 C 
ATOM     27  H   UNL     1       0.209   6.255  -6.066  1.00  0.00     0.163 HD
ATOM     28  O   UNL     1       0.459   8.585  -5.549  1.00  0.00    -0.269 OA
BRANCH  26  29
ATOM     29  C   UNL     1       2.299   8.063  -4.186  1.00  0.00     0.039 A 
ATOM     30  C   UNL     1       2.110   9.103  -3.271  1.00  0.00     0.014 A 
ATOM     31  C   UNL     1       3.544   7.431  -4.270  1.00  0.00     0.014 A 
ATOM     32  C   UNL     1       3.155   9.490  -2.427  1.00  0.00     0.010 A 
ATOM     33  C   UNL     1       4.562   7.768  -3.378  1.00  0.00     0.010 A 
ATOM     34  C   UNL     1       4.386   8.817  -2.463  1.00  0.00    -0.014 A 
BRANCH  34  35
ATOM     35  C   UNL     1       5.507   9.239  -1.582  1.00  0.00     0.031 A 
ATOM     36  C   UNL     1       6.764   9.814  -2.181  1.00  0.00     0.074 A 
ATOM     37  C   UNL     1       5.402   9.089  -0.247  1.00  0.00     0.049 A 
ATOM     38  N   UNL     1       7.849  10.232  -1.581  1.00  0.00    -0.248 NA
ATOM     39  C   UNL     1       6.820   9.909  -3.649  1.00  0.00     0.031 C 
ATOM     40  C   UNL     1       4.258   8.496   0.450  1.00  0.00     0.029 A 
ATOM     41  N   UNL     1       6.269   9.422   0.762  1.00  0.00    -0.354 N 
ATOM     42  C   UNL     1       8.713  10.634  -2.593  1.00  0.00     0.074 A 
ATOM     43  C   UNL     1       8.053  10.349  -3.848  1.00  0.00     0.031 C 
ATOM     44  C   UNL     1       4.485   8.530   1.773  1.00  0.00     0.029 A 
ATOM     45  C   UNL     1       5.797   9.122   2.018  1.00  0.00     0.049 A 
ATOM     46  H   UNL     1       7.147   9.838   0.603  1.00  0.00     0.167 HD
ATOM     47  C   UNL     1       9.932  11.217  -2.489  1.00  0.00     0.037 A 
ATOM     48  C   UNL     1       6.356   9.306   3.230  1.00  0.00     0.037 A 
ATOM     49  C   UNL     1      10.574  11.524  -1.237  1.00  0.00     0.049 A 
ATOM     50  C   UNL     1       7.703   9.971   3.322  1.00  0.00     0.074 A 
ATOM     51  C   UNL     1      11.787  12.155  -1.023  1.00  0.00     0.029 A 
ATOM     52  N   UNL     1      10.053  11.227   0.013  1.00  0.00    -0.354 N 
ATOM     53  N   UNL     1       8.480  10.398   2.355  1.00  0.00    -0.248 NA
ATOM     54  C   UNL     1       8.244  10.191   4.670  1.00  0.00     0.031 C 
ATOM     55  C   UNL     1      12.015  12.208   0.357  1.00  0.00     0.029 A 
ATOM     56  C   UNL     1      10.925  11.649   1.003  1.00  0.00     0.049 A 
ATOM     57  H   UNL     1       9.190  10.781   0.174  1.00  0.00     0.167 HD
ATOM     58  C   UNL     1       9.592  10.954   2.978  1.00  0.00     0.074 A 
ATOM     59  C   UNL     1       9.376  10.828   4.405  1.00  0.00     0.031 C 
ATOM     60  C   UNL     1      10.694  11.514   2.420  1.00  0.00     0.037 A 
BRANCH  47  61
ATOM     61  C   UNL     1      10.642  11.576  -3.766  1.00  0.00     0.058 A 
ATOM     62  C   UNL     1      10.188  12.621  -4.588  1.00  0.00     0.135 A 
ATOM     63  C   UNL     1      11.802  10.892  -4.161  1.00  0.00     0.135 A 
ATOM     64  F   UNL     1       9.074  13.299  -4.267  1.00  0.00    -0.206 F 
ATOM     65  C   UNL     1      10.839  12.953  -5.771  1.00  0.00     0.059 A 
ATOM     66  C   UNL     1      12.487  11.225  -5.327  1.00  0.00     0.059 A 
ATOM     67  F   UNL     1      12.281   9.884  -3.414  1.00  0.00    -0.206 F 
ATOM     68  C   UNL     1      11.988  12.248  -6.133  1.00  0.00     0.060 A 
BRANCH  68  69
ATOM     69  S   UNL     1      12.822  12.691  -7.672  1.00  0.00     0.124 S 
ATOM     70  O   UNL     1      11.907  12.142  -8.667  1.00  0.00    -0.237 OA
ATOM     71  O   UNL     1      12.872  14.148  -7.592  1.00  0.00    -0.237 OA
ATOM     72  O   UNL     1      14.112  12.016  -7.566  1.00  0.00    -0.744 OA
ENDBRANCH  68  69
ENDBRANCH  47  61
BRANCH  48  73
ATOM     73  C   UNL     1       5.632   8.875   4.456  1.00  0.00     0.058 A 
ATOM     74  C   UNL     1       5.091   9.815   5.346  1.00  0.00     0.135 A 
ATOM     75  C   UNL     1       5.460   7.515   4.757  1.00  0.00     0.135 A 
ATOM     76  F   UNL     1       5.234  11.127   5.104  1.00  0.00    -0.206 F 
ATOM     77  C   UNL     1       4.423   9.424   6.502  1.00  0.00     0.059 A 
ATOM     78  C   UNL     1       4.774   7.099   5.893  1.00  0.00     0.059 A 
ATOM     79  F   UNL     1       5.943   6.577   3.928  1.00  0.00    -0.206 F 
ATOM     80  C   UNL     1       4.269   8.062   6.766  1.00  0.00     0.060 A 
BRANCH  80  81
ATOM     81  S   UNL     1       3.365   7.563   8.248  1.00  0.00     0.124 S 
ATOM     82  O   UNL     1       4.337   7.853   9.296  1.00  0.00    -0.237 OA
ATOM     83  O   UNL     1       2.195   8.435   8.202  1.00  0.00    -0.237 OA
ATOM     84  O   UNL     1       3.092   6.148   8.012  1.00  0.00    -0.744 OA
ENDBRANCH  80  81
ENDBRANCH  48  73
BRANCH  60  85
ATOM     85  C   UNL     1      11.742  12.049   3.357  1.00  0.00     0.058 A 
ATOM     86  C   UNL     1      12.572  11.193   4.097  1.00  0.00     0.135 A 
ATOM     87  C   UNL     1      11.941  13.432   3.490  1.00  0.00     0.135 A 
ATOM     88  F   UNL     1      12.420   9.862   4.009  1.00  0.00    -0.206 F 
ATOM     89  C   UNL     1      13.541  11.690   4.962  1.00  0.00     0.059 A 
ATOM     90  C   UNL     1      12.923  13.951   4.327  1.00  0.00     0.059 A 
ATOM     91  F   UNL     1      11.182  14.295   2.794  1.00  0.00    -0.206 F 
ATOM     92  C   UNL     1      13.708  13.072   5.072  1.00  0.00     0.060 A 
BRANCH  92  93
ATOM     93  S   UNL     1      14.981  13.705   6.184  1.00  0.00     0.124 S 
ATOM     94  O   UNL     1      14.360  13.498   7.488  1.00  0.00    -0.237 OA
ATOM     95  O   UNL     1      16.119  12.843   5.881  1.00  0.00    -0.237 OA
ATOM     96  O   UNL     1      15.130  15.097   5.772  1.00  0.00    -0.744 OA
ENDBRANCH  92  93
ENDBRANCH  60  85
ENDBRANCH  34  35
ENDBRANCH  26  29
ENDBRANCH  24  25
ENDBRANCH  23  24
ENDBRANCH  22  23
ENDBRANCH   1  22
TORSDOF 19
