REMARK SMILES CC[C@@H](C)CN(C)c1cccc(Cl)c1/C=C/C(=O)NCCCCCCNC(=O)c1ccc(-c2c3nc(c(-c4c(F)cc(S(=O)(=O)[O-])cc4F)c4ccc([nH]4)c(-c4c(F)cc(S(=O)(=O)[O-])cc4F)c4nc(c(-c5c(F)cc(S(=O)(=O)[O-])cc5F)c5ccc2[nH]5)C=C4)C=C3)cc1
REMARK SMILES IDX 21 1 20 2 19 3 17 4 18 5 16 7 15 8 14 9 8 10 9 11 10 12
REMARK SMILES IDX 12 13 11 14 13 15 6 16 7 17 5 18 3 19 4 20 2 21 1 22 22 23
REMARK SMILES IDX 23 24 24 25 25 26 26 27 27 28 28 30 29 31 30 32 94 33 31 34
REMARK SMILES IDX 93 35 32 36 33 37 34 38 87 39 35 40 92 41 86 42 88 43 36 44
REMARK SMILES IDX 91 45 85 46 84 47 37 49 71 50 50 51 70 52 51 53 54 54 69 55
REMARK SMILES IDX 89 56 52 57 53 58 68 60 90 61 55 62 38 63 39 64 48 65 40 66
REMARK SMILES IDX 41 67 47 68 49 69 42 70 43 71 44 72 45 73 46 74 72 75 73 76
REMARK SMILES IDX 82 77 74 78 75 79 81 80 83 81 76 82 77 83 78 84 79 85 80 86
REMARK SMILES IDX 56 87 57 88 66 89 58 90 59 91 65 92 67 93 60 94 61 95 62 96
REMARK SMILES IDX 63 97 64 98
REMARK H PARENT 19 6 26 29 88 48 54 59
REMARK Flexibility Score: inf
ROOT
ATOM      1  C   UNL     1       0.568  -2.688   9.682  1.00  0.00     0.021 C 
ENDROOT
BRANCH   1   2
ATOM      2  C   UNL     1      -0.547  -1.884   9.016  1.00  0.00     0.116 C 
BRANCH   2   3
ATOM      3  N   UNL     1      -0.203  -0.475   8.951  1.00  0.00    -0.353 N 
ATOM      4  C   UNL     1      -0.120   0.347   7.870  1.00  0.00     0.244 C 
ATOM      5  O   UNL     1       0.057   1.553   8.021  1.00  0.00    -0.270 OA
ATOM      6  H   UNL     1      -0.001  -0.051   9.817  1.00  0.00     0.163 HD
BRANCH   4   7
ATOM      7  C   UNL     1      -0.279  -0.205   6.509  1.00  0.00     0.072 C 
ATOM      8  C   UNL     1       0.439  -1.264   6.111  1.00  0.00     0.017 C 
BRANCH   8   9
ATOM      9  C   UNL     1       0.479  -1.810   4.746  1.00  0.00     0.017 A 
ATOM     10  C   UNL     1       1.121  -1.100   3.706  1.00  0.00     0.045 A 
ATOM     11  C   UNL     1       1.379  -1.783   2.507  1.00  0.00     0.026 A 
ATOM     12  C   UNL     1       0.901  -3.071   2.269  1.00  0.00     0.004 A 
ATOM     13  C   UNL     1      -0.009  -3.113   4.496  1.00  0.00     0.050 A 
ATOM     14  C   UNL     1       0.178  -3.725   3.256  1.00  0.00     0.021 A 
ATOM     15  Cl  UNL     1      -0.860  -4.026   5.698  1.00  0.00    -0.084 Cl
BRANCH  10  16
ATOM     16  N   UNL     1       1.478   0.243   3.792  1.00  0.00    -0.374 N 
ATOM     17  C   UNL     1       2.595   0.633   4.638  1.00  0.00     0.143 C 
BRANCH  16  18
ATOM     18  C   UNL     1       0.553   1.259   3.267  1.00  0.00     0.119 C 
BRANCH  18  19
ATOM     19  C   UNL     1       0.814   1.549   1.770  1.00  0.00     0.005 C 
ATOM     20  C   UNL     1       0.519   3.018   1.444  1.00  0.00     0.009 C 
BRANCH  19  21
ATOM     21  C   UNL     1      -0.042   0.651   0.846  1.00  0.00     0.002 C 
ATOM     22  C   UNL     1       0.689   0.288  -0.441  1.00  0.00     0.004 C 
ENDBRANCH  19  21
ENDBRANCH  18  19
ENDBRANCH  16  18
ENDBRANCH  10  16
ENDBRANCH   8   9
ENDBRANCH   4   7
ENDBRANCH   2   3
ENDBRANCH   1   2
BRANCH   1  23
ATOM     23  C   UNL     1       0.585  -2.545  11.208  1.00  0.00     0.002 C 
BRANCH  23  24
ATOM     24  C   UNL     1      -0.736  -2.912  11.895  1.00  0.00     0.002 C 
BRANCH  24  25
ATOM     25  C   UNL     1      -1.286  -4.291  11.523  1.00  0.00     0.021 C 
BRANCH  25  26
ATOM     26  C   UNL     1      -0.365  -5.440  11.913  1.00  0.00     0.116 C 
BRANCH  26  27
ATOM     27  N   UNL     1      -0.213  -5.526  13.358  1.00  0.00    -0.352 N 
ATOM     28  C   UNL     1      -0.471  -6.593  14.183  1.00  0.00     0.251 C 
ATOM     29  H   UNL     1       0.119  -4.713  13.802  1.00  0.00     0.163 HD
ATOM     30  O   UNL     1      -0.544  -6.443  15.394  1.00  0.00    -0.269 OA
BRANCH  28  31
ATOM     31  C   UNL     1      -0.666  -7.924  13.573  1.00  0.00     0.039 A 
ATOM     32  C   UNL     1      -1.758  -8.704  13.960  1.00  0.00     0.014 A 
ATOM     33  C   UNL     1       0.224  -8.376  12.595  1.00  0.00     0.014 A 
ATOM     34  C   UNL     1      -1.989  -9.923  13.319  1.00  0.00     0.010 A 
ATOM     35  C   UNL     1      -0.052  -9.549  11.907  1.00  0.00     0.010 A 
ATOM     36  C   UNL     1      -1.156 -10.338  12.267  1.00  0.00    -0.014 A 
BRANCH  36  37
ATOM     37  C   UNL     1      -1.393 -11.602  11.527  1.00  0.00     0.031 A 
ATOM     38  C   UNL     1      -0.350 -12.686  11.565  1.00  0.00     0.074 A 
ATOM     39  C   UNL     1      -2.486 -11.732  10.751  1.00  0.00     0.049 A 
ATOM     40  N   UNL     1      -0.280 -13.791  10.871  1.00  0.00    -0.248 NA
ATOM     41  C   UNL     1       0.782 -12.479  12.483  1.00  0.00     0.031 C 
ATOM     42  C   UNL     1      -3.551 -10.737  10.612  1.00  0.00     0.029 A 
ATOM     43  N   UNL     1      -2.871 -12.748   9.912  1.00  0.00    -0.354 N 
ATOM     44  C   UNL     1       0.910 -14.400  11.252  1.00  0.00     0.074 A 
ATOM     45  C   UNL     1       1.556 -13.515  12.196  1.00  0.00     0.031 C 
ATOM     46  C   UNL     1      -4.472 -11.196   9.749  1.00  0.00     0.029 A 
ATOM     47  C   UNL     1      -4.041 -12.492   9.235  1.00  0.00     0.049 A 
ATOM     48  H   UNL     1      -2.358 -13.581   9.804  1.00  0.00     0.167 HD
ATOM     49  C   UNL     1       1.408 -15.597  10.863  1.00  0.00     0.037 A 
ATOM     50  C   UNL     1      -4.680 -13.211   8.292  1.00  0.00     0.037 A 
ATOM     51  C   UNL     1       0.745 -16.477   9.936  1.00  0.00     0.049 A 
ATOM     52  C   UNL     1      -4.095 -14.528   7.856  1.00  0.00     0.074 A 
ATOM     53  C   UNL     1       1.140 -17.731   9.508  1.00  0.00     0.029 A 
ATOM     54  N   UNL     1      -0.452 -16.193   9.293  1.00  0.00    -0.354 N 
ATOM     55  N   UNL     1      -2.990 -15.112   8.256  1.00  0.00    -0.248 NA
ATOM     56  C   UNL     1      -4.843 -15.287   6.844  1.00  0.00     0.031 C 
ATOM     57  C   UNL     1       0.211 -18.184   8.567  1.00  0.00     0.029 A 
ATOM     58  C   UNL     1      -0.799 -17.241   8.457  1.00  0.00     0.049 A 
ATOM     59  H   UNL     1      -0.977 -15.368   9.413  1.00  0.00     0.167 HD
ATOM     60  C   UNL     1      -2.933 -16.325   7.577  1.00  0.00     0.074 A 
ATOM     61  C   UNL     1      -4.113 -16.390   6.740  1.00  0.00     0.031 C 
ATOM     62  C   UNL     1      -1.992 -17.299   7.647  1.00  0.00     0.037 A 
BRANCH  49  63
ATOM     63  C   UNL     1       2.733 -16.022  11.435  1.00  0.00     0.058 A 
ATOM     64  C   UNL     1       2.883 -16.349  12.793  1.00  0.00     0.135 A 
ATOM     65  C   UNL     1       3.865 -16.130  10.611  1.00  0.00     0.135 A 
ATOM     66  F   UNL     1       1.839 -16.249  13.632  1.00  0.00    -0.206 F 
ATOM     67  C   UNL     1       4.112 -16.733  13.319  1.00  0.00     0.059 A 
ATOM     68  C   UNL     1       5.097 -16.544  11.109  1.00  0.00     0.059 A 
ATOM     69  F   UNL     1       3.782 -15.829   9.305  1.00  0.00    -0.206 F 
ATOM     70  C   UNL     1       5.213 -16.828  12.468  1.00  0.00     0.060 A 
BRANCH  70  71
ATOM     71  S   UNL     1       6.800 -17.329  13.168  1.00  0.00     0.124 S 
ATOM     72  O   UNL     1       7.166 -16.143  13.937  1.00  0.00    -0.237 OA
ATOM     73  O   UNL     1       6.437 -18.505  13.952  1.00  0.00    -0.237 OA
ATOM     74  O   UNL     1       7.623 -17.592  11.992  1.00  0.00    -0.744 OA
ENDBRANCH  70  71
ENDBRANCH  49  63
BRANCH  50  75
ATOM     75  C   UNL     1      -5.954 -12.708   7.709  1.00  0.00     0.058 A 
ATOM     76  C   UNL     1      -7.173 -13.345   7.986  1.00  0.00     0.135 A 
ATOM     77  C   UNL     1      -5.983 -11.577   6.878  1.00  0.00     0.135 A 
ATOM     78  F   UNL     1      -7.197 -14.434   8.770  1.00  0.00    -0.206 F 
ATOM     79  C   UNL     1      -8.372 -12.891   7.448  1.00  0.00     0.059 A 
ATOM     80  C   UNL     1      -7.174 -11.087   6.351  1.00  0.00     0.059 A 
ATOM     81  F   UNL     1      -4.848 -10.920   6.594  1.00  0.00    -0.206 F 
ATOM     82  C   UNL     1      -8.363 -11.758   6.633  1.00  0.00     0.060 A 
BRANCH  82  83
ATOM     83  S   UNL     1      -9.933 -11.153   5.978  1.00  0.00     0.124 S 
ATOM     84  O   UNL     1     -10.255 -12.178   4.992  1.00  0.00    -0.237 OA
ATOM     85  O   UNL     1     -10.772 -11.127   7.171  1.00  0.00    -0.237 OA
ATOM     86  O   UNL     1      -9.587  -9.842   5.434  1.00  0.00    -0.744 OA
ENDBRANCH  82  83
ENDBRANCH  50  75
BRANCH  62  87
ATOM     87  C   UNL     1      -2.221 -18.553   6.849  1.00  0.00     0.058 A 
ATOM     88  C   UNL     1      -2.086 -18.584   5.453  1.00  0.00     0.135 A 
ATOM     89  C   UNL     1      -2.501 -19.762   7.508  1.00  0.00     0.135 A 
ATOM     90  F   UNL     1      -1.828 -17.456   4.773  1.00  0.00    -0.206 F 
ATOM     91  C   UNL     1      -2.233 -19.768   4.736  1.00  0.00     0.059 A 
ATOM     92  C   UNL     1      -2.621 -20.962   6.815  1.00  0.00     0.059 A 
ATOM     93  F   UNL     1      -2.631 -19.790   8.844  1.00  0.00    -0.206 F 
ATOM     94  C   UNL     1      -2.492 -20.953   5.428  1.00  0.00     0.060 A 
BRANCH  94  95
ATOM     95  S   UNL     1      -2.619 -22.491   4.490  1.00  0.00     0.124 S 
ATOM     96  O   UNL     1      -3.902 -22.320   3.816  1.00  0.00    -0.237 OA
ATOM     97  O   UNL     1      -1.439 -22.431   3.633  1.00  0.00    -0.237 OA
ATOM     98  O   UNL     1      -2.585 -23.523   5.522  1.00  0.00    -0.744 OA
ENDBRANCH  94  95
ENDBRANCH  62  87
ENDBRANCH  36  37
ENDBRANCH  28  31
ENDBRANCH  26  27
ENDBRANCH  25  26
ENDBRANCH  24  25
ENDBRANCH  23  24
ENDBRANCH   1  23
TORSDOF 21
