REMARK SMILES CCOc1cc(F)ccc1NC(=O)CC1(C(=O)NCCCCCCNC(=O)c2ccc(-c3c4nc(c(-c5c(F)cc(S(=O)(=O)[O-])cc5F)c5ccc([nH]5)c(-c5c(F)cc(S(=O)(=O)[O-])cc5F)c5nc(c(-c6c(F)cc(S(=O)(=O)[O-])cc6F)c6ccc3[nH]6)C=C5)C=C4)cc2)CCCCC1
REMARK SMILES IDX 20 1 19 2 18 3 16 4 17 5 15 7 94 8 98 9 95 10 97 11 96 12
REMARK SMILES IDX 14 13 12 14 11 15 13 17 10 18 4 19 5 20 6 21 9 22 7 23 8 24
REMARK SMILES IDX 3 25 2 26 1 27 21 28 22 29 23 30 24 31 25 32 26 33 27 35
REMARK SMILES IDX 28 36 29 37 93 38 30 39 92 40 31 41 32 42 33 43 86 44 34 45
REMARK SMILES IDX 91 46 85 47 87 48 35 49 90 50 84 51 83 52 36 54 70 55 49 56
REMARK SMILES IDX 69 57 50 58 53 59 68 60 88 61 51 62 52 63 67 65 89 66 54 67
REMARK SMILES IDX 37 68 38 69 47 70 39 71 40 72 46 73 48 74 41 75 42 76 43 77
REMARK SMILES IDX 44 78 45 79 71 80 72 81 81 82 73 83 74 84 80 85 82 86 75 87
REMARK SMILES IDX 76 88 77 89 78 90 79 91 55 92 56 93 65 94 57 95 58 96 64 97
REMARK SMILES IDX 66 98 59 99 60 100 61 101 62 102 63 103
REMARK H PARENT 18 6 11 16 25 34 87 53 53 64
REMARK Flexibility Score: inf
ROOT
ATOM      1  C   UNL     1       6.723  -5.460  -5.483  1.00  0.00     0.021 C 
ENDROOT
BRANCH   1   2
ATOM      2  C   UNL     1       5.659  -4.978  -4.508  1.00  0.00     0.116 C 
BRANCH   2   3
ATOM      3  N   UNL     1       4.780  -6.018  -4.054  1.00  0.00    -0.356 N 
ATOM      4  C   UNL     1       4.392  -6.379  -2.804  1.00  0.00     0.226 C 
ATOM      5  O   UNL     1       3.661  -7.373  -2.769  1.00  0.00    -0.274 OA
ATOM      6  H   UNL     1       4.391  -6.564  -4.774  1.00  0.00     0.163 HD
BRANCH   4   7
ATOM      7  C   UNL     1       4.880  -5.678  -1.494  1.00  0.00     0.058 C 
ATOM      8  C   UNL     1       4.718  -4.141  -1.505  1.00  0.00     0.017 C 
ATOM      9  C   UNL     1       6.338  -6.131  -1.171  1.00  0.00     0.017 C 
ATOM     10  C   UNL     1       5.906  -3.212  -1.755  1.00  0.00     0.001 C 
ATOM     11  C   UNL     1       7.484  -5.214  -1.584  1.00  0.00     0.001 C 
ATOM     12  C   UNL     1       7.236  -3.751  -1.252  1.00  0.00     0.000 C 
BRANCH   7  13
ATOM     13  C   UNL     1       3.992  -6.299  -0.319  1.00  0.00     0.117 C 
BRANCH  13  14
ATOM     14  C   UNL     1       2.508  -5.924  -0.211  1.00  0.00     0.225 C 
ATOM     15  N   UNL     1       2.055  -4.791   0.408  1.00  0.00    -0.323 N 
ATOM     16  H   UNL     1       1.077  -4.685   0.370  1.00  0.00     0.170 HD
ATOM     17  O   UNL     1       1.644  -6.648  -0.719  1.00  0.00    -0.275 OA
BRANCH  15  18
ATOM     18  C   UNL     1       2.708  -3.746   1.087  1.00  0.00     0.084 A 
ATOM     19  C   UNL     1       2.242  -2.437   0.832  1.00  0.00     0.145 A 
ATOM     20  C   UNL     1       3.031  -1.348   1.194  1.00  0.00     0.087 A 
ATOM     21  C   UNL     1       4.235  -1.563   1.857  1.00  0.00     0.127 A 
ATOM     22  C   UNL     1       3.852  -3.935   1.869  1.00  0.00     0.033 A 
ATOM     23  F   UNL     1       5.014  -0.517   2.159  1.00  0.00    -0.207 F 
ATOM     24  C   UNL     1       4.632  -2.839   2.234  1.00  0.00     0.041 A 
BRANCH  19  25
ATOM     25  O   UNL     1       0.996  -2.326   0.271  1.00  0.00    -0.492 OA
BRANCH  25  26
ATOM     26  C   UNL     1       0.819  -1.380  -0.787  1.00  0.00     0.226 C 
ATOM     27  C   UNL     1       0.504   0.025  -0.293  1.00  0.00     0.049 C 
ENDBRANCH  25  26
ENDBRANCH  19  25
ENDBRANCH  15  18
ENDBRANCH  13  14
ENDBRANCH   7  13
ENDBRANCH   4   7
ENDBRANCH   2   3
ENDBRANCH   1   2
BRANCH   1  28
ATOM     28  C   UNL     1       6.372  -5.237  -6.950  1.00  0.00     0.002 C 
BRANCH  28  29
ATOM     29  C   UNL     1       6.042  -3.789  -7.334  1.00  0.00     0.002 C 
BRANCH  29  30
ATOM     30  C   UNL     1       7.055  -2.727  -6.894  1.00  0.00     0.021 C 
BRANCH  30  31
ATOM     31  C   UNL     1       8.494  -2.973  -7.336  1.00  0.00     0.116 C 
BRANCH  31  32
ATOM     32  N   UNL     1       8.595  -3.199  -8.768  1.00  0.00    -0.352 N 
ATOM     33  C   UNL     1       9.357  -2.555  -9.703  1.00  0.00     0.251 C 
ATOM     34  H   UNL     1       8.029  -3.924  -9.117  1.00  0.00     0.163 HD
ATOM     35  O   UNL     1       9.148  -2.755 -10.901  1.00  0.00    -0.269 OA
BRANCH  33  36
ATOM     36  C   UNL     1      10.419  -1.620  -9.284  1.00  0.00     0.039 A 
ATOM     37  C   UNL     1      10.559  -0.409  -9.967  1.00  0.00     0.014 A 
ATOM     38  C   UNL     1      11.299  -1.951  -8.249  1.00  0.00     0.014 A 
ATOM     39  C   UNL     1      11.559   0.487  -9.587  1.00  0.00     0.010 A 
ATOM     40  C   UNL     1      12.253  -1.030  -7.828  1.00  0.00     0.010 A 
ATOM     41  C   UNL     1      12.401   0.192  -8.502  1.00  0.00    -0.014 A 
BRANCH  41  42
ATOM     42  C   UNL     1      13.464   1.136  -8.078  1.00  0.00     0.031 A 
ATOM     43  C   UNL     1      14.910   0.747  -8.219  1.00  0.00     0.074 A 
ATOM     44  C   UNL     1      13.126   2.322  -7.536  1.00  0.00     0.049 A 
ATOM     45  N   UNL     1      15.980   1.399  -7.844  1.00  0.00    -0.248 NA
ATOM     46  C   UNL     1      15.191  -0.557  -8.843  1.00  0.00     0.031 C 
ATOM     47  C   UNL     1      11.756   2.796  -7.329  1.00  0.00     0.029 A 
ATOM     48  N   UNL     1      13.906   3.345  -7.060  1.00  0.00    -0.354 N 
ATOM     49  C   UNL     1      17.055   0.586  -8.180  1.00  0.00     0.074 A 
ATOM     50  C   UNL     1      16.509  -0.632  -8.737  1.00  0.00     0.031 C 
ATOM     51  C   UNL     1      11.793   4.029  -6.798  1.00  0.00     0.029 A 
ATOM     52  C   UNL     1      13.185   4.417  -6.590  1.00  0.00     0.049 A 
ATOM     53  H   UNL     1      14.890   3.313  -7.054  1.00  0.00     0.167 HD
ATOM     54  C   UNL     1      18.379   0.844  -8.062  1.00  0.00     0.037 A 
ATOM     55  C   UNL     1      13.601   5.581  -6.054  1.00  0.00     0.037 A 
ATOM     56  C   UNL     1      18.914   2.071  -7.533  1.00  0.00     0.049 A 
ATOM     57  C   UNL     1      15.076   5.837  -5.916  1.00  0.00     0.074 A 
ATOM     58  C   UNL     1      20.240   2.440  -7.392  1.00  0.00     0.029 A 
ATOM     59  N   UNL     1      18.151   3.132  -7.067  1.00  0.00    -0.354 N 
ATOM     60  N   UNL     1      16.080   5.064  -6.255  1.00  0.00    -0.248 NA
ATOM     61  C   UNL     1      15.478   7.121  -5.325  1.00  0.00     0.031 C 
ATOM     62  C   UNL     1      20.279   3.712  -6.813  1.00  0.00     0.029 A 
ATOM     63  C   UNL     1      18.978   4.153  -6.632  1.00  0.00     0.049 A 
ATOM     64  H   UNL     1      17.167   3.155  -7.049  1.00  0.00     0.167 HD
ATOM     65  C   UNL     1      17.232   5.779  -5.945  1.00  0.00     0.074 A 
ATOM     66  C   UNL     1      16.800   7.048  -5.397  1.00  0.00     0.031 C 
ATOM     67  C   UNL     1      18.529   5.416  -6.102  1.00  0.00     0.037 A 
BRANCH  54  68
ATOM     68  C   UNL     1      19.344  -0.209  -8.533  1.00  0.00     0.058 A 
ATOM     69  C   UNL     1      20.139  -0.917  -7.618  1.00  0.00     0.135 A 
ATOM     70  C   UNL     1      19.522  -0.477  -9.900  1.00  0.00     0.135 A 
ATOM     71  F   UNL     1      20.005  -0.705  -6.300  1.00  0.00    -0.206 F 
ATOM     72  C   UNL     1      21.086  -1.843  -8.043  1.00  0.00     0.059 A 
ATOM     73  C   UNL     1      20.445  -1.419 -10.346  1.00  0.00     0.059 A 
ATOM     74  F   UNL     1      18.770   0.155 -10.816  1.00  0.00    -0.206 F 
ATOM     75  C   UNL     1      21.233  -2.086  -9.409  1.00  0.00     0.060 A 
BRANCH  75  76
ATOM     76  S   UNL     1      22.445  -3.314  -9.943  1.00  0.00     0.124 S 
ATOM     77  O   UNL     1      23.704  -2.635  -9.662  1.00  0.00    -0.237 OA
ATOM     78  O   UNL     1      22.128  -4.450  -9.082  1.00  0.00    -0.237 OA
ATOM     79  O   UNL     1      22.132  -3.505 -11.356  1.00  0.00    -0.744 OA
ENDBRANCH  75  76
ENDBRANCH  54  68
BRANCH  55  80
ATOM     80  C   UNL     1      12.602   6.605  -5.647  1.00  0.00     0.058 A 
ATOM     81  C   UNL     1      11.763   6.412  -4.540  1.00  0.00     0.135 A 
ATOM     82  C   UNL     1      12.447   7.788  -6.386  1.00  0.00     0.135 A 
ATOM     83  F   UNL     1      11.862   5.292  -3.806  1.00  0.00    -0.206 F 
ATOM     84  C   UNL     1      10.790   7.343  -4.193  1.00  0.00     0.059 A 
ATOM     85  C   UNL     1      11.498   8.746  -6.045  1.00  0.00     0.059 A 
ATOM     86  F   UNL     1      13.235   8.021  -7.447  1.00  0.00    -0.206 F 
ATOM     87  C   UNL     1      10.662   8.506  -4.955  1.00  0.00     0.060 A 
BRANCH  87  88
ATOM     88  S   UNL     1       9.386   9.697  -4.494  1.00  0.00     0.124 S 
ATOM     89  O   UNL     1       8.171   8.975  -4.856  1.00  0.00    -0.237 OA
ATOM     90  O   UNL     1       9.624   9.862  -3.064  1.00  0.00    -0.237 OA
ATOM     91  O   UNL     1       9.696  10.860  -5.318  1.00  0.00    -0.744 OA
ENDBRANCH  87  88
ENDBRANCH  55  80
BRANCH  67  92
ATOM     92  C   UNL     1      19.584   6.410  -5.706  1.00  0.00     0.058 A 
ATOM     93  C   UNL     1      20.358   7.050  -6.688  1.00  0.00     0.135 A 
ATOM     94  C   UNL     1      19.890   6.660  -4.360  1.00  0.00     0.135 A 
ATOM     95  F   UNL     1      20.108   6.840  -7.990  1.00  0.00    -0.206 F 
ATOM     96  C   UNL     1      21.413   7.888  -6.348  1.00  0.00     0.059 A 
ATOM     97  C   UNL     1      20.927   7.515  -3.997  1.00  0.00     0.059 A 
ATOM     98  F   UNL     1      19.172   6.080  -3.385  1.00  0.00    -0.206 F 
ATOM     99  C   UNL     1      21.694   8.109  -4.999  1.00  0.00     0.060 A 
BRANCH  99 100
ATOM    100  S   UNL     1      23.069   9.199  -4.574  1.00  0.00     0.124 S 
ATOM    101  O   UNL     1      24.221   8.382  -4.939  1.00  0.00    -0.237 OA
ATOM    102  O   UNL     1      22.818  10.359  -5.424  1.00  0.00    -0.237 OA
ATOM    103  O   UNL     1      22.889   9.429  -3.144  1.00  0.00    -0.744 OA
ENDBRANCH  99 100
ENDBRANCH  67  92
ENDBRANCH  41  42
ENDBRANCH  33  36
ENDBRANCH  31  32
ENDBRANCH  30  31
ENDBRANCH  29  30
ENDBRANCH  28  29
ENDBRANCH   1  28
TORSDOF 21
