REMARK SMILES O=C(COc1ccc(/C=N/NC(=O)c2cc3cc([N+](=O)[O-])ccc3o2)cc1)NCCCCCCNC(=O)c1ccc(-c2c3nc(c(-c4c(F)cc(S(=O)(=O)[O-])cc4F)c4ccc([nH]4)c(-c4c(F)cc(S(=O)(=O)[O-])cc4F)c4nc(c(-c5c(F)cc(S(=O)(=O)[O-])cc5F)c5ccc2[nH]5)C=C4)C=C3)cc1
REMARK SMILES IDX 30 1 29 2 28 3 1 4 2 5 3 7 4 8 5 9 6 10 27 11 7 12 26 13
REMARK SMILES IDX 8 14 9 15 10 16 11 17 12 18 13 20 14 21 15 22 25 23 16 24
REMARK SMILES IDX 24 25 17 26 23 27 18 28 22 29 19 30 20 31 21 32 31 33 32 34
REMARK SMILES IDX 33 35 34 36 35 37 36 38 37 40 38 41 39 42 103 43 40 44
REMARK SMILES IDX 102 45 41 46 42 47 43 48 96 49 44 50 101 51 95 52 97 53
REMARK SMILES IDX 45 54 100 55 94 56 93 57 46 59 80 60 59 61 79 62 60 63 63 64
REMARK SMILES IDX 78 65 98 66 61 67 62 68 77 70 99 71 64 72 47 73 48 74 57 75
REMARK SMILES IDX 49 76 50 77 56 78 58 79 51 80 52 81 53 82 54 83 55 84 81 85
REMARK SMILES IDX 82 86 91 87 83 88 84 89 90 90 92 91 85 92 86 93 87 94 88 95
REMARK SMILES IDX 89 96 65 97 66 98 75 99 67 100 68 101 74 102 76 103 69 104
REMARK SMILES IDX 70 105 71 106 72 107 73 108
REMARK H PARENT 28 6 11 19 35 39 97 58 63 69
REMARK Flexibility Score: inf
ROOT
ATOM      1  C   UNL     1       2.729   2.282  -2.557  1.00  0.00     0.021 C 
ENDROOT
BRANCH   1   2
ATOM      2  C   UNL     1       2.152   0.941  -2.125  1.00  0.00     0.116 C 
BRANCH   2   3
ATOM      3  N   UNL     1       2.804   0.414  -0.946  1.00  0.00    -0.353 N 
ATOM      4  O   UNL     1       1.059   0.761   0.516  1.00  0.00    -0.271 OA
ATOM      5  C   UNL     1       2.157   0.275   0.265  1.00  0.00     0.257 C 
ATOM      6  H   UNL     1       3.748   0.143  -1.010  1.00  0.00     0.163 HD
BRANCH   5   7
ATOM      7  C   UNL     1       2.926  -0.575   1.280  1.00  0.00     0.329 C 
BRANCH   7   8
ATOM      8  O   UNL     1       3.752  -1.602   0.727  1.00  0.00    -0.484 OA
BRANCH   8   9
ATOM      9  C   UNL     1       3.064  -2.731   0.364  1.00  0.00     0.120 A 
ATOM     10  C   UNL     1       3.485  -3.940   0.917  1.00  0.00     0.047 A 
ATOM     11  C   UNL     1       2.071  -2.729  -0.619  1.00  0.00     0.047 A 
ATOM     12  C   UNL     1       2.893  -5.138   0.504  1.00  0.00     0.013 A 
ATOM     13  C   UNL     1       1.489  -3.920  -1.047  1.00  0.00     0.013 A 
ATOM     14  C   UNL     1       1.901  -5.123  -0.485  1.00  0.00    -0.005 A 
BRANCH  14  15
ATOM     15  C   UNL     1       1.355  -6.373  -1.049  1.00  0.00     0.141 C 
ATOM     16  N   UNL     1       1.567  -7.497  -0.456  1.00  0.00    -0.180 NA
BRANCH  16  17
ATOM     17  N   UNL     1       1.250  -8.671  -1.052  1.00  0.00    -0.240 N 
ATOM     18  C   UNL     1       0.475  -9.042  -2.126  1.00  0.00     0.307 C 
ATOM     19  H   UNL     1       1.675  -9.442  -0.611  1.00  0.00     0.194 HD
ATOM     20  O   UNL     1       0.768 -10.119  -2.658  1.00  0.00    -0.264 OA
BRANCH  18  21
ATOM     21  C   UNL     1      -0.707  -8.324  -2.557  1.00  0.00     0.194 A 
ATOM     22  C   UNL     1      -0.910  -7.600  -3.727  1.00  0.00     0.065 A 
ATOM     23  O   UNL     1      -1.899  -8.905  -2.188  1.00  0.00    -0.451 OA
ATOM     24  C   UNL     1      -2.115  -8.123  -4.289  1.00  0.00     0.028 A 
ATOM     25  C   UNL     1      -2.681  -8.915  -3.300  1.00  0.00     0.135 A 
ATOM     26  C   UNL     1      -2.689  -8.130  -5.575  1.00  0.00     0.097 A 
ATOM     27  C   UNL     1      -3.801  -9.725  -3.474  1.00  0.00     0.055 A 
ATOM     28  C   UNL     1      -3.736  -9.045  -5.813  1.00  0.00     0.270 A 
ATOM     29  C   UNL     1      -4.294  -9.817  -4.780  1.00  0.00     0.089 A 
BRANCH  28  30
ATOM     30  N   UNL     1      -4.175  -9.282  -7.196  1.00  0.00     0.062 N 
ATOM     31  O   UNL     1      -3.779  -8.497  -8.067  1.00  0.00    -0.258 OA
ATOM     32  O   UNL     1      -4.892 -10.271  -7.408  1.00  0.00    -0.258 OA
ENDBRANCH  28  30
ENDBRANCH  18  21
ENDBRANCH  16  17
ENDBRANCH  14  15
ENDBRANCH   8   9
ENDBRANCH   7   8
ENDBRANCH   5   7
ENDBRANCH   2   3
ENDBRANCH   1   2
BRANCH   1  33
ATOM     33  C   UNL     1       4.223   2.245  -2.898  1.00  0.00     0.002 C 
BRANCH  33  34
ATOM     34  C   UNL     1       4.622   1.288  -4.026  1.00  0.00     0.002 C 
BRANCH  34  35
ATOM     35  C   UNL     1       3.918   1.520  -5.365  1.00  0.00     0.021 C 
BRANCH  35  36
ATOM     36  C   UNL     1       4.056   2.928  -5.935  1.00  0.00     0.116 C 
BRANCH  36  37
ATOM     37  N   UNL     1       5.437   3.282  -6.223  1.00  0.00    -0.352 N 
ATOM     38  C   UNL     1       5.979   3.804  -7.372  1.00  0.00     0.251 C 
ATOM     39  H   UNL     1       6.074   3.125  -5.489  1.00  0.00     0.163 HD
ATOM     40  O   UNL     1       7.200   3.891  -7.489  1.00  0.00    -0.269 OA
BRANCH  38  41
ATOM     41  C   UNL     1       5.095   4.234  -8.477  1.00  0.00     0.039 A 
ATOM     42  C   UNL     1       5.410   3.851  -9.784  1.00  0.00     0.014 A 
ATOM     43  C   UNL     1       3.955   5.003  -8.227  1.00  0.00     0.014 A 
ATOM     44  C   UNL     1       4.542   4.178 -10.829  1.00  0.00     0.010 A 
ATOM     45  C   UNL     1       3.056   5.266  -9.259  1.00  0.00     0.010 A 
ATOM     46  C   UNL     1       3.337   4.853 -10.570  1.00  0.00    -0.014 A 
BRANCH  46  47
ATOM     47  C   UNL     1       2.352   5.118 -11.651  1.00  0.00     0.031 A 
ATOM     48  C   UNL     1       2.004   6.532 -12.033  1.00  0.00     0.074 A 
ATOM     49  C   UNL     1       1.717   4.085 -12.240  1.00  0.00     0.049 A 
ATOM     50  N   UNL     1       1.115   6.960 -12.892  1.00  0.00    -0.248 NA
ATOM     51  C   UNL     1       2.735   7.605 -11.340  1.00  0.00     0.031 C 
ATOM     52  C   UNL     1       1.931   2.670 -11.926  1.00  0.00     0.029 A 
ATOM     53  N   UNL     1       0.751   4.063 -13.216  1.00  0.00    -0.354 N 
ATOM     54  C   UNL     1       1.169   8.348 -12.835  1.00  0.00     0.074 A 
ATOM     55  C   UNL     1       2.142   8.689 -11.819  1.00  0.00     0.031 C 
ATOM     56  C   UNL     1       1.136   1.920 -12.706  1.00  0.00     0.029 A 
ATOM     57  C   UNL     1       0.325   2.797 -13.544  1.00  0.00     0.049 A 
ATOM     58  H   UNL     1       0.397   4.877 -13.641  1.00  0.00     0.167 HD
ATOM     59  C   UNL     1       0.487   9.254 -13.576  1.00  0.00     0.037 A 
ATOM     60  C   UNL     1      -0.621   2.387 -14.412  1.00  0.00     0.037 A 
ATOM     61  C   UNL     1      -0.466   8.906 -14.599  1.00  0.00     0.049 A 
ATOM     62  C   UNL     1      -1.375   3.412 -15.215  1.00  0.00     0.074 A 
ATOM     63  C   UNL     1      -1.165   9.750 -15.444  1.00  0.00     0.029 A 
ATOM     64  N   UNL     1      -0.858   7.613 -14.913  1.00  0.00    -0.354 N 
ATOM     65  N   UNL     1      -1.263   4.719 -15.195  1.00  0.00    -0.248 NA
ATOM     66  C   UNL     1      -2.380   2.909 -16.162  1.00  0.00     0.031 C 
ATOM     67  C   UNL     1      -2.017   8.971 -16.234  1.00  0.00     0.029 A 
ATOM     68  C   UNL     1      -1.808   7.637 -15.921  1.00  0.00     0.049 A 
ATOM     69  H   UNL     1      -0.512   6.798 -14.483  1.00  0.00     0.167 HD
ATOM     70  C   UNL     1      -2.162   5.193 -16.144  1.00  0.00     0.074 A 
ATOM     71  C   UNL     1      -2.802   4.032 -16.729  1.00  0.00     0.031 C 
ATOM     72  C   UNL     1      -2.433   6.473 -16.500  1.00  0.00     0.037 A 
BRANCH  59  73
ATOM     73  C   UNL     1       0.747  10.712 -13.310  1.00  0.00     0.058 A 
ATOM     74  C   UNL     1       1.967  11.319 -13.649  1.00  0.00     0.135 A 
ATOM     75  C   UNL     1      -0.251  11.524 -12.745  1.00  0.00     0.135 A 
ATOM     76  F   UNL     1       2.961  10.588 -14.179  1.00  0.00    -0.206 F 
ATOM     77  C   UNL     1       2.200  12.669 -13.411  1.00  0.00     0.059 A 
ATOM     78  C   UNL     1      -0.050  12.884 -12.525  1.00  0.00     0.059 A 
ATOM     79  F   UNL     1      -1.437  10.998 -12.402  1.00  0.00    -0.206 F 
ATOM     80  C   UNL     1       1.185  13.444 -12.848  1.00  0.00     0.060 A 
BRANCH  80  81
ATOM     81  S   UNL     1       1.504  15.195 -12.549  1.00  0.00     0.124 S 
ATOM     82  O   UNL     1       2.425  15.134 -11.417  1.00  0.00    -0.237 OA
ATOM     83  O   UNL     1       2.086  15.627 -13.816  1.00  0.00    -0.237 OA
ATOM     84  O   UNL     1       0.182  15.737 -12.252  1.00  0.00    -0.744 OA
ENDBRANCH  80  81
ENDBRANCH  59  73
BRANCH  60  85
ATOM     85  C   UNL     1      -0.898   0.935 -14.577  1.00  0.00     0.058 A 
ATOM     86  C   UNL     1      -0.546   0.262 -15.757  1.00  0.00     0.135 A 
ATOM     87  C   UNL     1      -1.506   0.188 -13.556  1.00  0.00     0.135 A 
ATOM     88  F   UNL     1       0.030   0.934 -16.765  1.00  0.00    -0.206 F 
ATOM     89  C   UNL     1      -0.801  -1.095 -15.927  1.00  0.00     0.059 A 
ATOM     90  C   UNL     1      -1.746  -1.176 -13.691  1.00  0.00     0.059 A 
ATOM     91  F   UNL     1      -1.847   0.780 -12.400  1.00  0.00    -0.206 F 
ATOM     92  C   UNL     1      -1.398  -1.806 -14.885  1.00  0.00     0.060 A 
BRANCH  92  93
ATOM     93  S   UNL     1      -1.675  -3.578 -15.095  1.00  0.00     0.124 S 
ATOM     94  O   UNL     1      -2.785  -3.591 -16.040  1.00  0.00    -0.237 OA
ATOM     95  O   UNL     1      -0.387  -4.029 -15.613  1.00  0.00    -0.237 OA
ATOM     96  O   UNL     1      -1.990  -4.028 -13.742  1.00  0.00    -0.744 OA
ENDBRANCH  92  93
ENDBRANCH  60  85
BRANCH  72  97
ATOM     97  C   UNL     1      -3.440   6.693 -17.595  1.00  0.00     0.058 A 
ATOM     98  C   UNL     1      -4.813   6.488 -17.389  1.00  0.00     0.135 A 
ATOM     99  C   UNL     1      -3.031   7.172 -18.850  1.00  0.00     0.135 A 
ATOM    100  F   UNL     1      -5.258   6.023 -16.210  1.00  0.00    -0.206 F 
ATOM    101  C   UNL     1      -5.743   6.731 -18.394  1.00  0.00     0.059 A 
ATOM    102  C   UNL     1      -3.946   7.450 -19.861  1.00  0.00     0.059 A 
ATOM    103  F   UNL     1      -1.730   7.394 -19.098  1.00  0.00    -0.206 F 
ATOM    104  C   UNL     1      -5.300   7.217 -19.626  1.00  0.00     0.060 A 
BRANCH 104 105
ATOM    105  S   UNL     1      -6.522   7.570 -20.907  1.00  0.00     0.124 S 
ATOM    106  O   UNL     1      -6.907   6.226 -21.325  1.00  0.00    -0.237 OA
ATOM    107  O   UNL     1      -7.535   8.321 -20.173  1.00  0.00    -0.237 OA
ATOM    108  O   UNL     1      -5.769   8.341 -21.892  1.00  0.00    -0.744 OA
ENDBRANCH 104 105
ENDBRANCH  72  97
ENDBRANCH  46  47
ENDBRANCH  38  41
ENDBRANCH  36  37
ENDBRANCH  35  36
ENDBRANCH  34  35
ENDBRANCH  33  34
ENDBRANCH   1  33
TORSDOF 22
