REMARK SMILES CCC[NH2+][C@@]1(C(=O)NCCCCCCNC(=O)c2ccc(-c3c4nc(c(-c5c(F)cc(S(=O)(=O)[O-])cc5F)c5ccc([nH]5)c(-c5c(F)cc(S(=O)(=O)[O-])cc5F)c5nc(c(-c6c(F)cc(S(=O)(=O)[O-])cc6F)c6ccc3[nH]6)C=C5)C=C4)cc2)CC[C@@H](SC2CCCC2)C1
REMARK SMILES IDX 11 1 10 2 9 3 8 4 6 5 7 6 5 8 84 9 93 10 85 11 86 12 4 13
REMARK SMILES IDX 3 16 2 17 1 18 87 19 88 20 89 21 92 22 90 23 91 24 12 25
REMARK SMILES IDX 13 26 14 27 15 28 16 29 17 31 18 32 19 33 83 34 20 35 82 36
REMARK SMILES IDX 21 37 22 38 23 39 76 40 24 41 81 42 75 43 77 44 25 45 80 46
REMARK SMILES IDX 74 47 73 48 26 50 60 51 39 52 59 53 40 54 43 55 58 56 78 57
REMARK SMILES IDX 41 58 42 59 57 61 79 62 44 63 27 64 28 65 37 66 29 67 30 68
REMARK SMILES IDX 36 69 38 70 31 71 32 72 33 73 34 74 35 75 61 76 62 77 71 78
REMARK SMILES IDX 63 79 64 80 70 81 72 82 65 83 66 84 67 85 68 86 69 87 45 88
REMARK SMILES IDX 46 89 55 90 47 91 48 92 54 93 56 94 49 95 50 96 51 97 52 98
REMARK SMILES IDX 53 99
REMARK H PARENT 8 7 4 14 4 15 15 30 77 49 43 60
REMARK Flexibility Score: inf
ROOT
ATOM      1  C   UNL     1       0.023   4.260   8.600  1.00  0.00     0.002 C 
ENDROOT
BRANCH   1   2
ATOM      2  C   UNL     1       0.097   4.645   7.129  1.00  0.00     0.021 C 
BRANCH   2   3
ATOM      3  C   UNL     1       1.004   3.746   6.308  1.00  0.00     0.116 C 
BRANCH   3   4
ATOM      4  N   UNL     1       0.343   2.579   5.810  1.00  0.00    -0.351 N 
ATOM      5  C   UNL     1       0.174   2.140   4.535  1.00  0.00     0.281 C 
ATOM      6  O   UNL     1      -0.660   1.229   4.434  1.00  0.00    -0.268 OA
ATOM      7  H   UNL     1      -0.052   2.001   6.502  1.00  0.00     0.163 HD
BRANCH   5   8
ATOM      8  C   UNL     1       0.958   2.735   3.270  1.00  0.00     0.176 C 
ATOM      9  C   UNL     1       2.492   2.851   3.409  1.00  0.00     0.080 C 
ATOM     10  C   UNL     1       0.484   4.172   2.930  1.00  0.00     0.093 C 
ATOM     11  C   UNL     1       2.856   4.312   3.666  1.00  0.00     0.022 C 
ATOM     12  C   UNL     1       1.648   5.135   3.225  1.00  0.00     0.054 C 
BRANCH   8  13
ATOM     13  N   UNL     1       0.636   1.854   2.099  1.00  0.00    -0.334 N 
ATOM     14  H   UNL     1      -0.379   1.804   2.009  1.00  0.00     0.347 HD
ATOM     15  H   UNL     1       1.091   2.273   1.289  1.00  0.00     0.347 HD
BRANCH  13  16
ATOM     16  C   UNL     1       1.153   0.482   2.201  1.00  0.00     0.261 C 
BRANCH  16  17
ATOM     17  C   UNL     1       0.524  -0.431   1.144  1.00  0.00     0.058 C 
ATOM     18  C   UNL     1       0.945  -0.088  -0.276  1.00  0.00     0.010 C 
ENDBRANCH  16  17
ENDBRANCH  13  16
ENDBRANCH   8  13
BRANCH  12  19
ATOM     19  S   UNL     1       1.907   6.558   2.105  1.00  0.00    -0.155 SA
BRANCH  19  20
ATOM     20  C   UNL     1       2.705   5.955   0.587  1.00  0.00     0.047 C 
ATOM     21  C   UNL     1       3.996   5.161   0.687  1.00  0.00     0.014 C 
ATOM     22  C   UNL     1       1.834   5.119  -0.339  1.00  0.00     0.014 C 
ATOM     23  C   UNL     1       4.220   4.705  -0.746  1.00  0.00     0.001 C 
ATOM     24  C   UNL     1       2.818   4.429  -1.288  1.00  0.00     0.001 C 
ENDBRANCH  19  20
ENDBRANCH  12  19
ENDBRANCH   5   8
ENDBRANCH   3   4
ENDBRANCH   2   3
ENDBRANCH   1   2
BRANCH   1  25
ATOM     25  C   UNL     1       1.382   4.158   9.303  1.00  0.00     0.002 C 
BRANCH  25  26
ATOM     26  C   UNL     1       2.300   5.375   9.138  1.00  0.00     0.021 C 
BRANCH  26  27
ATOM     27  C   UNL     1       1.677   6.704   9.552  1.00  0.00     0.116 C 
BRANCH  27  28
ATOM     28  N   UNL     1       1.151   6.650  10.906  1.00  0.00    -0.352 N 
ATOM     29  C   UNL     1       1.451   7.435  11.984  1.00  0.00     0.251 C 
ATOM     30  H   UNL     1       0.482   5.946  11.070  1.00  0.00     0.163 HD
ATOM     31  O   UNL     1       1.094   7.092  13.112  1.00  0.00    -0.269 OA
BRANCH  29  32
ATOM     32  C   UNL     1       2.205   8.687  11.790  1.00  0.00     0.039 A 
ATOM     33  C   UNL     1       3.234   9.003  12.679  1.00  0.00     0.014 A 
ATOM     34  C   UNL     1       1.884   9.554  10.741  1.00  0.00     0.014 A 
ATOM     35  C   UNL     1       3.971  10.172  12.489  1.00  0.00     0.010 A 
ATOM     36  C   UNL     1       2.668  10.677  10.509  1.00  0.00     0.010 A 
ATOM     37  C   UNL     1       3.710  11.005  11.388  1.00  0.00    -0.014 A 
BRANCH  37  38
ATOM     38  C   UNL     1       4.504  12.236  11.150  1.00  0.00     0.031 A 
ATOM     39  C   UNL     1       3.834  13.582  11.200  1.00  0.00     0.074 A 
ATOM     40  C   UNL     1       5.809  12.134  10.831  1.00  0.00     0.049 A 
ATOM     41  N   UNL     1       4.336  14.763  10.950  1.00  0.00    -0.248 NA
ATOM     42  C   UNL     1       2.404  13.600  11.550  1.00  0.00     0.031 C 
ATOM     43  C   UNL     1       6.555  10.879  10.711  1.00  0.00     0.029 A 
ATOM     44  N   UNL     1       6.738  13.100  10.539  1.00  0.00    -0.354 N 
ATOM     45  C   UNL     1       3.284  15.660  11.099  1.00  0.00     0.074 A 
ATOM     46  C   UNL     1       2.104  14.882  11.405  1.00  0.00     0.031 C 
ATOM     47  C   UNL     1       7.830  11.154  10.393  1.00  0.00     0.029 A 
ATOM     48  C   UNL     1       7.983  12.597  10.243  1.00  0.00     0.049 A 
ATOM     49  H   UNL     1       6.532  14.063  10.541  1.00  0.00     0.167 HD
ATOM     50  C   UNL     1       3.307  17.011  11.014  1.00  0.00     0.037 A 
ATOM     51  C   UNL     1       9.117  13.229   9.882  1.00  0.00     0.037 A 
ATOM     52  C   UNL     1       4.493  17.777  10.730  1.00  0.00     0.049 A 
ATOM     53  C   UNL     1       9.114  14.731   9.782  1.00  0.00     0.074 A 
ATOM     54  C   UNL     1       4.636  19.151  10.672  1.00  0.00     0.029 A 
ATOM     55  N   UNL     1       5.739  17.233  10.453  1.00  0.00    -0.354 N 
ATOM     56  N   UNL     1       8.126  15.569   9.986  1.00  0.00    -0.248 NA
ATOM     57  C   UNL     1      10.381  15.374   9.411  1.00  0.00     0.031 C 
ATOM     58  C   UNL     1       5.956  19.438  10.310  1.00  0.00     0.029 A 
ATOM     59  C   UNL     1       6.652  18.244  10.201  1.00  0.00     0.049 A 
ATOM     60  H   UNL     1       5.945  16.270  10.437  1.00  0.00     0.167 HD
ATOM     61  C   UNL     1       8.659  16.840   9.800  1.00  0.00     0.074 A 
ATOM     62  C   UNL     1      10.059  16.659   9.476  1.00  0.00     0.031 C 
ATOM     63  C   UNL     1       8.046  18.046   9.890  1.00  0.00     0.037 A 
BRANCH  50  64
ATOM     64  C   UNL     1       2.012  17.748  11.232  1.00  0.00     0.058 A 
ATOM     65  C   UNL     1       1.396  17.802  12.493  1.00  0.00     0.135 A 
ATOM     66  C   UNL     1       1.396  18.437  10.175  1.00  0.00     0.135 A 
ATOM     67  F   UNL     1       1.931  17.148  13.536  1.00  0.00    -0.206 F 
ATOM     68  C   UNL     1       0.200  18.485  12.691  1.00  0.00     0.059 A 
ATOM     69  C   UNL     1       0.216  19.153  10.357  1.00  0.00     0.059 A 
ATOM     70  F   UNL     1       1.940  18.419   8.947  1.00  0.00    -0.206 F 
ATOM     71  C   UNL     1      -0.382  19.159  11.616  1.00  0.00     0.060 A 
BRANCH  71  72
ATOM     72  S   UNL     1      -1.930  20.045  11.893  1.00  0.00     0.124 S 
ATOM     73  O   UNL     1      -2.874  18.942  12.044  1.00  0.00    -0.237 OA
ATOM     74  O   UNL     1      -1.642  20.803  13.106  1.00  0.00    -0.237 OA
ATOM     75  O   UNL     1      -2.087  20.843  10.681  1.00  0.00    -0.744 OA
ENDBRANCH  71  72
ENDBRANCH  50  64
BRANCH  51  76
ATOM     76  C   UNL     1      10.350  12.444   9.608  1.00  0.00     0.058 A 
ATOM     77  C   UNL     1      11.453  12.507  10.473  1.00  0.00     0.135 A 
ATOM     78  C   UNL     1      10.448  11.606   8.486  1.00  0.00     0.135 A 
ATOM     79  F   UNL     1      11.411  13.297  11.556  1.00  0.00    -0.206 F 
ATOM     80  C   UNL     1      12.616  11.784  10.226  1.00  0.00     0.059 A 
ATOM     81  C   UNL     1      11.589  10.851   8.233  1.00  0.00     0.059 A 
ATOM     82  F   UNL     1       9.414  11.495   7.637  1.00  0.00    -0.206 F 
ATOM     83  C   UNL     1      12.672  10.955   9.104  1.00  0.00     0.060 A 
BRANCH  83  84
ATOM     84  S   UNL     1      14.169   9.987   8.818  1.00  0.00     0.124 S 
ATOM     85  O   UNL     1      15.113  11.019   8.406  1.00  0.00    -0.237 OA
ATOM     86  O   UNL     1      14.404   9.392  10.130  1.00  0.00    -0.237 OA
ATOM     87  O   UNL     1      13.766   9.047   7.776  1.00  0.00    -0.744 OA
ENDBRANCH  83  84
ENDBRANCH  51  76
BRANCH  63  88
ATOM     88  C   UNL     1       8.893  19.272   9.680  1.00  0.00     0.058 A 
ATOM     89  C   UNL     1       9.373  19.633   8.412  1.00  0.00     0.135 A 
ATOM     90  C   UNL     1       9.176  20.129  10.757  1.00  0.00     0.135 A 
ATOM     91  F   UNL     1       9.137  18.846   7.350  1.00  0.00    -0.206 F 
ATOM     92  C   UNL     1      10.125  20.788   8.223  1.00  0.00     0.059 A 
ATOM     93  C   UNL     1       9.899  21.304  10.585  1.00  0.00     0.059 A 
ATOM     94  F   UNL     1       8.731  19.836  11.990  1.00  0.00    -0.206 F 
ATOM     95  C   UNL     1      10.380  21.620   9.316  1.00  0.00     0.060 A 
BRANCH  95  96
ATOM     96  S   UNL     1      11.323  23.135   9.048  1.00  0.00     0.124 S 
ATOM     97  O   UNL     1      12.669  22.610   8.841  1.00  0.00    -0.237 OA
ATOM     98  O   UNL     1      10.675  23.701   7.869  1.00  0.00    -0.237 OA
ATOM     99  O   UNL     1      11.125  23.883  10.286  1.00  0.00    -0.744 OA
ENDBRANCH  95  96
ENDBRANCH  63  88
ENDBRANCH  37  38
ENDBRANCH  29  32
ENDBRANCH  27  28
ENDBRANCH  26  27
ENDBRANCH  25  26
ENDBRANCH   1  25
TORSDOF 21
