REMARK SMILES C[C@H]1CCCC[C@@]1(NC(=O)N[C@@H]1CCOC1)C(=O)NCCCCCCNC(=O)c1ccc(-c2c3nc(c(-c4c(F)cc(S(=O)(=O)[O-])cc4F)c4ccc([nH]4)c(-c4c(F)cc(S(=O)(=O)[O-])cc4F)c4nc(c(-c5c(F)cc(S(=O)(=O)[O-])cc5F)c5ccc2[nH]5)C=C4)C=C3)cc1
REMARK SMILES IDX 23 1 22 2 21 3 20 4 19 5 17 6 18 7 7 9 1 10 2 11 3 12 4 13
REMARK SMILES IDX 6 14 5 15 8 16 9 17 10 19 11 20 12 22 13 23 16 24 14 25
REMARK SMILES IDX 15 26 24 27 25 28 26 29 27 30 28 32 29 33 30 34 94 35 31 36
REMARK SMILES IDX 93 37 32 38 33 39 34 40 87 41 35 42 92 43 86 44 88 45 36 46
REMARK SMILES IDX 91 47 85 48 84 49 37 51 71 52 50 53 70 54 51 55 54 56 69 57
REMARK SMILES IDX 89 58 52 59 53 60 68 62 90 63 55 64 38 65 39 66 48 67 40 68
REMARK SMILES IDX 41 69 47 70 49 71 42 72 43 73 44 74 45 75 46 76 72 77 73 78
REMARK SMILES IDX 82 79 74 80 75 81 81 82 83 83 76 84 77 85 78 86 79 87 80 88
REMARK SMILES IDX 56 89 57 90 66 91 58 92 59 93 65 94 67 95 60 96 61 97 62 98
REMARK SMILES IDX 63 99 64 100
REMARK H PARENT 19 8 8 18 11 21 26 31 88 50 54 61
REMARK Flexibility Score: inf
ROOT
ATOM      1  C   UNL     1      -1.246   2.926  -4.545  1.00  0.00     0.002 C 
ENDROOT
BRANCH   1   2
ATOM      2  C   UNL     1       0.099   2.456  -3.983  1.00  0.00     0.002 C 
BRANCH   2   3
ATOM      3  C   UNL     1       0.164   2.289  -2.461  1.00  0.00     0.021 C 
BRANCH   3   4
ATOM      4  C   UNL     1      -1.000   1.530  -1.836  1.00  0.00     0.116 C 
BRANCH   4   5
ATOM      5  N   UNL     1      -0.973   0.111  -2.046  1.00  0.00    -0.354 N 
ATOM      6  C   UNL     1      -0.828  -0.923  -1.185  1.00  0.00     0.246 C 
ATOM      7  O   UNL     1      -1.515  -1.912  -1.494  1.00  0.00    -0.272 OA
ATOM      8  H   UNL     1      -1.079  -0.159  -2.987  1.00  0.00     0.163 HD
BRANCH   6   9
ATOM      9  C   UNL     1       0.086  -1.001   0.084  1.00  0.00     0.123 C 
ATOM     10  C   UNL     1       2.349   0.333  -0.056  1.00  0.00     0.011 C 
ATOM     11  C   UNL     1       1.036   0.078   0.685  1.00  0.00     0.021 C 
ATOM     12  C   UNL     1       0.392   1.389   1.163  1.00  0.00     0.006 C 
ATOM     13  C   UNL     1      -0.995   1.266   1.805  1.00  0.00     0.000 C 
ATOM     14  C   UNL     1      -0.988  -1.207   1.212  1.00  0.00     0.039 C 
ATOM     15  C   UNL     1      -1.830   0.052   1.410  1.00  0.00     0.003 C 
BRANCH   9  16
ATOM     16  N   UNL     1       0.861  -2.298  -0.024  1.00  0.00    -0.323 N 
ATOM     17  C   UNL     1       1.827  -2.820  -0.790  1.00  0.00     0.315 C 
ATOM     18  H   UNL     1       0.572  -2.939   0.665  1.00  0.00     0.166 HD
ATOM     19  O   UNL     1       2.552  -3.673  -0.265  1.00  0.00    -0.249 OA
ATOM     20  N   UNL     1       2.076  -2.531  -2.073  1.00  0.00    -0.333 N 
ATOM     21  H   UNL     1       2.953  -2.857  -2.381  1.00  0.00     0.165 HD
BRANCH  20  22
ATOM     22  C   UNL     1       1.325  -1.839  -3.110  1.00  0.00     0.112 C 
ATOM     23  C   UNL     1       0.172  -2.670  -3.635  1.00  0.00     0.056 C 
ATOM     24  C   UNL     1       2.120  -1.533  -4.379  1.00  0.00     0.185 C 
ATOM     25  C   UNL     1       0.652  -3.252  -4.941  1.00  0.00     0.162 C 
ATOM     26  O   UNL     1       1.744  -2.461  -5.404  1.00  0.00    -0.379 OA
ENDBRANCH  20  22
ENDBRANCH   9  16
ENDBRANCH   6   9
ENDBRANCH   4   5
ENDBRANCH   3   4
ENDBRANCH   2   3
ENDBRANCH   1   2
BRANCH   1  27
ATOM     27  C   UNL     1      -1.882   4.117  -3.824  1.00  0.00     0.021 C 
BRANCH  27  28
ATOM     28  C   UNL     1      -1.019   5.367  -3.798  1.00  0.00     0.116 C 
BRANCH  28  29
ATOM     29  N   UNL     1      -0.862   5.931  -5.126  1.00  0.00    -0.352 N 
ATOM     30  C   UNL     1      -1.260   7.169  -5.574  1.00  0.00     0.251 C 
ATOM     31  H   UNL     1      -0.415   5.356  -5.789  1.00  0.00     0.163 HD
ATOM     32  O   UNL     1      -1.297   7.421  -6.767  1.00  0.00    -0.269 OA
BRANCH  30  33
ATOM     33  C   UNL     1      -1.654   8.183  -4.572  1.00  0.00     0.039 A 
ATOM     34  C   UNL     1      -2.857   8.874  -4.728  1.00  0.00     0.014 A 
ATOM     35  C   UNL     1      -0.843   8.406  -3.456  1.00  0.00     0.014 A 
ATOM     36  C   UNL     1      -3.274   9.758  -3.730  1.00  0.00     0.010 A 
ATOM     37  C   UNL     1      -1.299   9.219  -2.429  1.00  0.00     0.010 A 
ATOM     38  C   UNL     1      -2.512   9.914  -2.560  1.00  0.00    -0.014 A 
BRANCH  38  39
ATOM     39  C   UNL     1      -2.925  10.821  -1.461  1.00  0.00     0.031 A 
ATOM     40  C   UNL     1      -2.036  11.979  -1.098  1.00  0.00     0.074 A 
ATOM     41  C   UNL     1      -4.019  10.544  -0.727  1.00  0.00     0.049 A 
ATOM     42  N   UNL     1      -2.100  12.781  -0.068  1.00  0.00    -0.248 NA
ATOM     43  C   UNL     1      -0.900  12.243  -1.996  1.00  0.00     0.031 C 
ATOM     44  C   UNL     1      -4.940   9.431  -0.965  1.00  0.00     0.029 A 
ATOM     45  N   UNL     1      -4.525  11.161   0.390  1.00  0.00    -0.354 N 
ATOM     46  C   UNL     1      -0.996  13.619  -0.176  1.00  0.00     0.074 A 
ATOM     47  C   UNL     1      -0.254  13.195  -1.342  1.00  0.00     0.031 C 
ATOM     48  C   UNL     1      -5.899   9.447  -0.025  1.00  0.00     0.029 A 
ATOM     49  C   UNL     1      -5.634  10.536   0.910  1.00  0.00     0.049 A 
ATOM     50  H   UNL     1      -4.131  11.973   0.782  1.00  0.00     0.167 HD
ATOM     51  C   UNL     1      -0.644  14.658   0.618  1.00  0.00     0.037 A 
ATOM     52  C   UNL     1      -6.341  10.796   2.028  1.00  0.00     0.037 A 
ATOM     53  C   UNL     1      -1.408  15.083   1.760  1.00  0.00     0.049 A 
ATOM     54  C   UNL     1      -5.933  11.952   2.901  1.00  0.00     0.074 A 
ATOM     55  C   UNL     1      -1.175  16.159   2.598  1.00  0.00     0.029 A 
ATOM     56  N   UNL     1      -2.551  14.450   2.229  1.00  0.00    -0.354 N 
ATOM     57  N   UNL     1      -4.915  12.768   2.761  1.00  0.00    -0.248 NA
ATOM     58  C   UNL     1      -6.767  12.229   4.078  1.00  0.00     0.031 C 
ATOM     59  C   UNL     1      -2.145  16.144   3.605  1.00  0.00     0.029 A 
ATOM     60  C   UNL     1      -3.022  15.100   3.356  1.00  0.00     0.049 A 
ATOM     61  H   UNL     1      -2.966  13.656   1.819  1.00  0.00     0.167 HD
ATOM     62  C   UNL     1      -5.009  13.678   3.808  1.00  0.00     0.074 A 
ATOM     63  C   UNL     1      -6.179  13.309   4.577  1.00  0.00     0.031 C 
ATOM     64  C   UNL     1      -4.204  14.731   4.098  1.00  0.00     0.037 A 
BRANCH  51  65
ATOM     65  C   UNL     1       0.628  15.389   0.285  1.00  0.00     0.058 A 
ATOM     66  C   UNL     1       0.759  16.161  -0.881  1.00  0.00     0.135 A 
ATOM     67  C   UNL     1       1.733  15.322   1.150  1.00  0.00     0.135 A 
ATOM     68  F   UNL     1      -0.259  16.250  -1.752  1.00  0.00    -0.206 F 
ATOM     69  C   UNL     1       1.953  16.800  -1.201  1.00  0.00     0.059 A 
ATOM     70  C   UNL     1       2.925  15.983   0.868  1.00  0.00     0.059 A 
ATOM     71  F   UNL     1       1.665  14.601   2.280  1.00  0.00    -0.206 F 
ATOM     72  C   UNL     1       3.032  16.702  -0.322  1.00  0.00     0.060 A 
BRANCH  72  73
ATOM     73  S   UNL     1       4.579  17.519  -0.761  1.00  0.00     0.124 S 
ATOM     74  O   UNL     1       5.064  16.662  -1.839  1.00  0.00    -0.237 OA
ATOM     75  O   UNL     1       4.127  18.847  -1.163  1.00  0.00    -0.237 OA
ATOM     76  O   UNL     1       5.354  17.470   0.475  1.00  0.00    -0.744 OA
ENDBRANCH  72  73
ENDBRANCH  51  65
BRANCH  52  77
ATOM     77  C   UNL     1      -7.516   9.949   2.367  1.00  0.00     0.058 A 
ATOM     78  C   UNL     1      -8.822  10.447   2.250  1.00  0.00     0.135 A 
ATOM     79  C   UNL     1      -7.361   8.612   2.768  1.00  0.00     0.135 A 
ATOM     80  F   UNL     1      -9.023  11.720   1.877  1.00  0.00    -0.206 F 
ATOM     81  C   UNL     1      -9.932   9.653   2.519  1.00  0.00     0.059 A 
ATOM     82  C   UNL     1      -8.456   7.791   3.018  1.00  0.00     0.059 A 
ATOM     83  F   UNL     1      -6.133   8.082   2.879  1.00  0.00    -0.206 F 
ATOM     84  C   UNL     1      -9.738   8.322   2.894  1.00  0.00     0.060 A 
BRANCH  84  85
ATOM     85  S   UNL     1     -11.189   7.280   3.165  1.00  0.00     0.124 S 
ATOM     86  O   UNL     1     -11.715   7.827   4.410  1.00  0.00    -0.237 OA
ATOM     87  O   UNL     1     -11.979   7.542   1.966  1.00  0.00    -0.237 OA
ATOM     88  O   UNL     1     -10.625   5.937   3.253  1.00  0.00    -0.744 OA
ENDBRANCH  84  85
ENDBRANCH  52  77
BRANCH  64  89
ATOM     89  C   UNL     1      -4.583  15.610   5.258  1.00  0.00     0.058 A 
ATOM     90  C   UNL     1      -4.407  15.203   6.589  1.00  0.00     0.135 A 
ATOM     91  C   UNL     1      -5.026  16.923   5.025  1.00  0.00     0.135 A 
ATOM     92  F   UNL     1      -3.994  13.957   6.867  1.00  0.00    -0.206 F 
ATOM     93  C   UNL     1      -4.659  16.069   7.649  1.00  0.00     0.059 A 
ATOM     94  C   UNL     1      -5.256  17.813   6.068  1.00  0.00     0.059 A 
ATOM     95  F   UNL     1      -5.203  17.363   3.769  1.00  0.00    -0.206 F 
ATOM     96  C   UNL     1      -5.071  17.375   7.378  1.00  0.00     0.060 A 
BRANCH  96  97
ATOM     97  S   UNL     1      -5.316  18.510   8.761  1.00  0.00     0.124 S 
ATOM     98  O   UNL     1      -6.543  17.990   9.355  1.00  0.00    -0.237 OA
ATOM     99  O   UNL     1      -4.099  18.315   9.542  1.00  0.00    -0.237 OA
ATOM    100  O   UNL     1      -5.436  19.814   8.114  1.00  0.00    -0.744 OA
ENDBRANCH  96  97
ENDBRANCH  64  89
ENDBRANCH  38  39
ENDBRANCH  30  33
ENDBRANCH  28  29
ENDBRANCH  27  28
ENDBRANCH   1  27
TORSDOF 18
