REMARK SMILES CCC[N@@H+]1CC2(CCN(C(=O)Cn3nnnc3C)CC2)C[C@H]1C(=O)NCCCCCCNC(=O)c1ccc(-c2c3nc(c(-c4c(F)cc(S(=O)(=O)[O-])cc4F)c4ccc([nH]4)c(-c4c(F)cc(S(=O)(=O)[O-])cc4F)c4nc(c(-c5c(F)cc(S(=O)(=O)[O-])cc5F)c5ccc2[nH]5)C=C4)C=C3)cc1
REMARK SMILES IDX 29 1 28 2 27 3 26 4 25 5 23 6 24 7 22 9 4 10 5 11 6 13 21 14
REMARK SMILES IDX 7 15 20 16 8 17 19 18 9 19 10 20 11 21 3 22 2 23 1 24 12 25
REMARK SMILES IDX 13 26 14 27 17 28 15 29 16 30 18 31 30 32 31 33 32 34 33 35
REMARK SMILES IDX 34 37 35 38 36 39 100 40 37 41 99 42 38 43 39 44 40 45 93 46
REMARK SMILES IDX 41 47 98 48 92 49 94 50 42 51 97 52 91 53 90 54 43 56 77 57
REMARK SMILES IDX 56 58 76 59 57 60 60 61 75 62 95 63 58 64 59 65 74 67 96 68
REMARK SMILES IDX 61 69 44 70 45 71 54 72 46 73 47 74 53 75 55 76 48 77 49 78
REMARK SMILES IDX 50 79 51 80 52 81 78 82 79 83 88 84 80 85 81 86 87 87 89 88
REMARK SMILES IDX 82 89 83 90 84 91 85 92 86 93 62 94 63 95 72 96 64 97 65 98
REMARK SMILES IDX 71 99 73 100 66 101 67 102 68 103 69 104 70 105
REMARK H PARENT 25 8 4 12 32 36 94 55 60 66
REMARK Flexibility Score: inf
ROOT
ATOM      1  C   UNL     1      -2.325  -2.805  -7.427  1.00  0.00     0.002 C 
ENDROOT
BRANCH   1   2
ATOM      2  C   UNL     1      -0.945  -2.124  -7.421  1.00  0.00     0.002 C 
BRANCH   2   3
ATOM      3  C   UNL     1      -0.721  -1.074  -6.337  1.00  0.00     0.021 C 
BRANCH   3   4
ATOM      4  C   UNL     1      -1.053  -1.556  -4.938  1.00  0.00     0.116 C 
BRANCH   4   5
ATOM      5  N   UNL     1       0.006  -2.198  -4.225  1.00  0.00    -0.351 N 
ATOM      6  C   UNL     1       0.496  -1.945  -2.982  1.00  0.00     0.278 C 
ATOM      7  O   UNL     1       1.309  -2.785  -2.562  1.00  0.00    -0.268 OA
ATOM      8  H   UNL     1       0.447  -2.935  -4.706  1.00  0.00     0.163 HD
BRANCH   6   9
ATOM      9  C   UNL     1       0.107  -0.743  -2.062  1.00  0.00     0.274 C 
ATOM     10  N   UNL     1       0.380   0.570  -2.656  1.00  0.00    -0.324 N 
ATOM     11  C   UNL     1      -0.904   1.213  -2.981  1.00  0.00     0.270 C 
ATOM     12  H   UNL     1       0.911   0.440  -3.517  1.00  0.00     0.348 HD
ATOM     13  C   UNL     1      -2.027   0.519  -2.163  1.00  0.00     0.029 C 
ATOM     14  C   UNL     1      -1.288  -0.633  -1.440  1.00  0.00     0.088 C 
ATOM     15  C   UNL     1      -3.223  -0.144  -2.888  1.00  0.00     0.034 C 
ATOM     16  C   UNL     1      -2.700   1.619  -1.289  1.00  0.00     0.034 C 
ATOM     17  C   UNL     1      -3.968   0.809  -3.789  1.00  0.00     0.120 C 
ATOM     18  C   UNL     1      -3.542   2.596  -2.156  1.00  0.00     0.120 C 
ATOM     19  N   UNL     1      -4.522   1.884  -2.984  1.00  0.00    -0.341 N 
ATOM     20  C   UNL     1      -5.846   2.311  -3.013  1.00  0.00     0.244 C 
ATOM     21  O   UNL     1      -6.229   3.256  -2.317  1.00  0.00    -0.273 OA
BRANCH  10  22
ATOM     22  C   UNL     1       1.264   1.416  -1.818  1.00  0.00     0.262 C 
BRANCH  22  23
ATOM     23  C   UNL     1       0.984   1.608  -0.306  1.00  0.00     0.058 C 
ATOM     24  C   UNL     1       1.527   0.534   0.634  1.00  0.00     0.010 C 
ENDBRANCH  22  23
ENDBRANCH  10  22
BRANCH  20  25
ATOM     25  C   UNL     1      -6.881   1.493  -3.762  1.00  0.00     0.248 C 
BRANCH  25  26
ATOM     26  N   UNL     1      -6.697   1.418  -5.192  1.00  0.00    -0.220 N 
ATOM     27  N   UNL     1      -6.520   2.526  -5.925  1.00  0.00    -0.044 NA
ATOM     28  C   UNL     1      -6.700   0.318  -6.016  1.00  0.00     0.148 A 
ATOM     29  N   UNL     1      -6.386   2.106  -7.173  1.00  0.00    -0.024 NA
ATOM     30  N   UNL     1      -6.493   0.742  -7.245  1.00  0.00    -0.114 NA
ATOM     31  C   UNL     1      -6.838  -1.095  -5.600  1.00  0.00     0.091 C 
ENDBRANCH  25  26
ENDBRANCH  20  25
ENDBRANCH   6   9
ENDBRANCH   4   5
ENDBRANCH   3   4
ENDBRANCH   2   3
ENDBRANCH   1   2
BRANCH   1  32
ATOM     32  C   UNL     1      -3.559  -1.889  -7.396  1.00  0.00     0.021 C 
BRANCH  32  33
ATOM     33  C   UNL     1      -3.708  -1.021  -8.633  1.00  0.00     0.116 C 
BRANCH  33  34
ATOM     34  N   UNL     1      -3.889  -1.824  -9.845  1.00  0.00    -0.352 N 
ATOM     35  C   UNL     1      -3.981  -1.389 -11.149  1.00  0.00     0.251 C 
ATOM     36  H   UNL     1      -3.953  -2.797  -9.711  1.00  0.00     0.163 HD
ATOM     37  O   UNL     1      -4.489  -2.110 -12.014  1.00  0.00    -0.269 OA
BRANCH  35  38
ATOM     38  C   UNL     1      -3.451  -0.064 -11.492  1.00  0.00     0.039 A 
ATOM     39  C   UNL     1      -4.095   0.786 -12.394  1.00  0.00     0.014 A 
ATOM     40  C   UNL     1      -2.286   0.335 -10.845  1.00  0.00     0.014 A 
ATOM     41  C   UNL     1      -3.586   2.070 -12.579  1.00  0.00     0.010 A 
ATOM     42  C   UNL     1      -1.921   1.650 -10.864  1.00  0.00     0.010 A 
ATOM     43  C   UNL     1      -2.504   2.497 -11.794  1.00  0.00    -0.014 A 
BRANCH  43  44
ATOM     44  C   UNL     1      -2.010   3.867 -11.845  1.00  0.00     0.031 A 
ATOM     45  C   UNL     1      -3.053   4.893 -11.573  1.00  0.00     0.074 A 
ATOM     46  C   UNL     1      -0.688   4.149 -11.887  1.00  0.00     0.049 A 
ATOM     47  N   UNL     1      -3.554   5.747 -12.401  1.00  0.00    -0.248 NA
ATOM     48  C   UNL     1      -3.750   4.851 -10.274  1.00  0.00     0.031 C 
ATOM     49  C   UNL     1       0.447   3.214 -11.832  1.00  0.00     0.029 A 
ATOM     50  N   UNL     1      -0.063   5.356 -11.872  1.00  0.00    -0.354 N 
ATOM     51  C   UNL     1      -4.440   6.521 -11.657  1.00  0.00     0.074 A 
ATOM     52  C   UNL     1      -4.683   5.790 -10.442  1.00  0.00     0.031 C 
ATOM     53  C   UNL     1       1.581   3.886 -11.538  1.00  0.00     0.029 A 
ATOM     54  C   UNL     1       1.296   5.306 -11.566  1.00  0.00     0.049 A 
ATOM     55  H   UNL     1      -0.533   6.199 -12.062  1.00  0.00     0.167 HD
ATOM     56  C   UNL     1      -4.677   7.822 -11.985  1.00  0.00     0.037 A 
ATOM     57  C   UNL     1       2.116   6.362 -11.330  1.00  0.00     0.037 A 
ATOM     58  C   UNL     1      -4.205   8.106 -13.320  1.00  0.00     0.049 A 
ATOM     59  C   UNL     1       1.451   7.553 -11.921  1.00  0.00     0.074 A 
ATOM     60  C   UNL     1      -4.489   7.612 -14.578  1.00  0.00     0.029 A 
ATOM     61  N   UNL     1      -2.998   8.754 -13.433  1.00  0.00    -0.354 N 
ATOM     62  N   UNL     1       1.242   7.703 -13.203  1.00  0.00    -0.248 NA
ATOM     63  C   UNL     1       0.584   8.335 -11.054  1.00  0.00     0.031 C 
ATOM     64  C   UNL     1      -3.232   7.571 -15.250  1.00  0.00     0.029 A 
ATOM     65  C   UNL     1      -2.266   8.114 -14.401  1.00  0.00     0.049 A 
ATOM     66  H   UNL     1      -2.709   9.538 -12.912  1.00  0.00     0.167 HD
ATOM     67  C   UNL     1      -0.035   8.242 -13.295  1.00  0.00     0.074 A 
ATOM     68  C   UNL     1      -0.357   8.682 -11.937  1.00  0.00     0.031 C 
ATOM     69  C   UNL     1      -0.821   8.017 -14.390  1.00  0.00     0.037 A 
BRANCH  56  70
ATOM     70  C   UNL     1      -4.952   8.927 -10.987  1.00  0.00     0.058 A 
ATOM     71  C   UNL     1      -5.290  10.210 -11.468  1.00  0.00     0.135 A 
ATOM     72  C   UNL     1      -4.616   8.864  -9.617  1.00  0.00     0.135 A 
ATOM     73  F   UNL     1      -5.630  10.392 -12.754  1.00  0.00    -0.206 F 
ATOM     74  C   UNL     1      -5.208  11.353 -10.672  1.00  0.00     0.059 A 
ATOM     75  C   UNL     1      -4.582   9.983  -8.792  1.00  0.00     0.059 A 
ATOM     76  F   UNL     1      -4.205   7.737  -9.026  1.00  0.00    -0.206 F 
ATOM     77  C   UNL     1      -4.835  11.230  -9.338  1.00  0.00     0.060 A 
BRANCH  77  78
ATOM     78  S   UNL     1      -4.620  12.712  -8.339  1.00  0.00     0.124 S 
ATOM     79  O   UNL     1      -3.441  13.309  -8.956  1.00  0.00    -0.237 OA
ATOM     80  O   UNL     1      -5.882  13.410  -8.561  1.00  0.00    -0.237 OA
ATOM     81  O   UNL     1      -4.430  12.184  -6.992  1.00  0.00    -0.744 OA
ENDBRANCH  77  78
ENDBRANCH  56  70
BRANCH  57  82
ATOM     82  C   UNL     1       3.219   6.463 -10.334  1.00  0.00     0.058 A 
ATOM     83  C   UNL     1       4.134   7.532 -10.355  1.00  0.00     0.135 A 
ATOM     84  C   UNL     1       3.229   5.668  -9.168  1.00  0.00     0.135 A 
ATOM     85  F   UNL     1       4.182   8.355 -11.414  1.00  0.00    -0.206 F 
ATOM     86  C   UNL     1       4.972   7.824  -9.270  1.00  0.00     0.059 A 
ATOM     87  C   UNL     1       4.060   5.935  -8.079  1.00  0.00     0.059 A 
ATOM     88  F   UNL     1       2.362   4.655  -9.015  1.00  0.00    -0.206 F 
ATOM     89  C   UNL     1       4.912   7.030  -8.126  1.00  0.00     0.060 A 
BRANCH  89  90
ATOM     90  S   UNL     1       5.862   7.501  -6.657  1.00  0.00     0.124 S 
ATOM     91  O   UNL     1       7.232   7.238  -7.085  1.00  0.00    -0.237 OA
ATOM     92  O   UNL     1       5.504   8.905  -6.493  1.00  0.00    -0.237 OA
ATOM     93  O   UNL     1       5.351   6.606  -5.622  1.00  0.00    -0.744 OA
ENDBRANCH  89  90
ENDBRANCH  57  82
BRANCH  69  94
ATOM     94  C   UNL     1      -0.181   7.428 -15.625  1.00  0.00     0.058 A 
ATOM     95  C   UNL     1       0.361   6.132 -15.711  1.00  0.00     0.135 A 
ATOM     96  C   UNL     1      -0.281   8.156 -16.820  1.00  0.00     0.135 A 
ATOM     97  F   UNL     1       0.407   5.331 -14.639  1.00  0.00    -0.206 F 
ATOM     98  C   UNL     1       0.809   5.599 -16.923  1.00  0.00     0.059 A 
ATOM     99  C   UNL     1       0.131   7.635 -18.043  1.00  0.00     0.059 A 
ATOM    100  F   UNL     1      -0.843   9.376 -16.817  1.00  0.00    -0.206 F 
ATOM    101  C   UNL     1       0.686   6.359 -18.087  1.00  0.00     0.060 A 
BRANCH 101 102
ATOM    102  S   UNL     1       1.192   5.645 -19.667  1.00  0.00     0.124 S 
ATOM    103  O   UNL     1       2.644   5.611 -19.538  1.00  0.00    -0.237 OA
ATOM    104  O   UNL     1       0.523   4.347 -19.660  1.00  0.00    -0.237 OA
ATOM    105  O   UNL     1       0.676   6.595 -20.651  1.00  0.00    -0.744 OA
ENDBRANCH 101 102
ENDBRANCH  69  94
ENDBRANCH  43  44
ENDBRANCH  35  38
ENDBRANCH  33  34
ENDBRANCH  32  33
ENDBRANCH   1  32
TORSDOF 20
