REMARK SMILES Cc1ccc(-c2nn(-c3ccccc3)cc2[C@@H]2[NH2+][C@H](C(=O)NCCCCCCNC(=O)c3ccc(-c4c5nc(c(-c6c(F)cc(S(=O)(=O)[O-])cc6F)c6ccc([nH]6)c(-c6c(F)cc(S(=O)(=O)[O-])cc6F)c6nc(c(-c7c(F)cc(S(=O)(=O)[O-])cc7F)c7ccc4[nH]7)C=C6)C=C5)cc3)CS2)cc1
REMARK SMILES IDX 26 1 25 2 24 3 23 4 22 5 20 6 21 7 19 9 17 10 18 11 99 12
REMARK SMILES IDX 98 15 16 16 6 17 7 18 8 19 15 20 5 21 1 22 2 23 3 24 101 25
REMARK SMILES IDX 4 26 100 27 9 28 10 29 14 30 11 31 13 32 12 33 27 34 28 35
REMARK SMILES IDX 29 36 30 37 31 39 32 40 33 41 97 42 34 43 96 44 35 45 36 46
REMARK SMILES IDX 37 47 90 48 38 49 95 50 89 51 91 52 39 53 94 54 88 55 87 56
REMARK SMILES IDX 40 58 74 59 53 60 73 61 54 62 57 63 72 64 92 65 55 66 56 67
REMARK SMILES IDX 71 69 93 70 58 71 41 72 42 73 51 74 43 75 44 76 50 77 52 78
REMARK SMILES IDX 45 79 46 80 47 81 48 82 49 83 75 84 76 85 85 86 77 87 78 88
REMARK SMILES IDX 84 89 86 90 79 91 80 92 81 93 82 94 83 95 59 96 60 97 69 98
REMARK SMILES IDX 61 99 62 100 68 101 70 102 63 103 64 104 65 105 66 106
REMARK SMILES IDX 67 107
REMARK H PARENT 22 8 18 13 18 14 29 38 91 57 57 68
REMARK Flexibility Score: inf
ROOT
ATOM      1  C   UNL     1      -5.794  -0.232  -3.634  1.00  0.00     0.002 C 
ENDROOT
BRANCH   1   2
ATOM      2  C   UNL     1      -4.691  -1.296  -3.511  1.00  0.00     0.002 C 
BRANCH   2   3
ATOM      3  C   UNL     1      -4.307  -2.064  -2.212  1.00  0.00     0.021 C 
BRANCH   3   4
ATOM      4  C   UNL     1      -4.926  -1.799  -0.838  1.00  0.00     0.116 C 
BRANCH   4   5
ATOM      5  N   UNL     1      -5.843  -2.812  -0.320  1.00  0.00    -0.351 N 
ATOM      6  C   UNL     1      -6.139  -3.230   0.949  1.00  0.00     0.279 C 
ATOM      7  O   UNL     1      -7.152  -3.945   1.046  1.00  0.00    -0.268 OA
ATOM      8  H   UNL     1      -6.345  -3.287  -1.020  1.00  0.00     0.163 HD
BRANCH   6   9
ATOM      9  C   UNL     1      -5.349  -2.957   2.261  1.00  0.00     0.283 C 
ATOM     10  C   UNL     1      -4.063  -0.994   2.874  1.00  0.00     0.278 C 
ATOM     11  N   UNL     1      -4.047  -2.265   2.143  1.00  0.00    -0.320 N 
ATOM     12  S   UNL     1      -5.147  -1.258   4.293  1.00  0.00    -0.087 SA
ATOM     13  H   UNL     1      -3.315  -2.862   2.527  1.00  0.00     0.348 HD
ATOM     14  H   UNL     1      -3.868  -2.072   1.157  1.00  0.00     0.348 HD
ATOM     15  C   UNL     1      -6.246  -2.331   3.338  1.00  0.00     0.151 C 
BRANCH  10  16
ATOM     16  C   UNL     1      -4.522   0.078   1.941  1.00  0.00     0.067 A 
ATOM     17  C   UNL     1      -3.748   0.806   0.962  1.00  0.00     0.103 A 
ATOM     18  N   UNL     1      -4.535   1.702   0.320  1.00  0.00    -0.167 NA
ATOM     19  N   UNL     1      -5.798   1.397   0.708  1.00  0.00    -0.240 N 
ATOM     20  C   UNL     1      -5.808   0.551   1.773  1.00  0.00     0.126 A 
BRANCH  17  21
ATOM     21  C   UNL     1      -2.311   0.638   0.621  1.00  0.00     0.003 A 
ATOM     22  C   UNL     1       1.935   0.132  -0.200  1.00  0.00     0.044 C 
ATOM     23  C   UNL     1       0.468   0.322   0.059  1.00  0.00    -0.051 A 
ATOM     24  C   UNL     1      -0.335  -0.789   0.294  1.00  0.00     0.004 A 
ATOM     25  C   UNL     1      -0.132   1.587   0.055  1.00  0.00     0.004 A 
ATOM     26  C   UNL     1      -1.698  -0.627   0.572  1.00  0.00     0.011 A 
ATOM     27  C   UNL     1      -1.505   1.742   0.325  1.00  0.00     0.011 A 
ENDBRANCH  17  21
BRANCH  19  28
ATOM     28  C   UNL     1      -6.956   1.728  -0.037  1.00  0.00     0.065 A 
ATOM     29  C   UNL     1      -7.728   0.697  -0.604  1.00  0.00     0.028 A 
ATOM     30  C   UNL     1      -7.338   3.057  -0.191  1.00  0.00     0.028 A 
ATOM     31  C   UNL     1      -8.822   1.004  -1.414  1.00  0.00     0.002 A 
ATOM     32  C   UNL     1      -8.491   3.349  -0.929  1.00  0.00     0.002 A 
ATOM     33  C   UNL     1      -9.210   2.331  -1.566  1.00  0.00     0.000 A 
ENDBRANCH  19  28
ENDBRANCH  10  16
ENDBRANCH   6   9
ENDBRANCH   4   5
ENDBRANCH   3   4
ENDBRANCH   2   3
ENDBRANCH   1   2
BRANCH   1  34
ATOM     34  C   UNL     1      -5.511   1.185  -3.120  1.00  0.00     0.021 C 
BRANCH  34  35
ATOM     35  C   UNL     1      -4.604   2.088  -3.963  1.00  0.00     0.116 C 
BRANCH  35  36
ATOM     36  N   UNL     1      -5.274   3.277  -4.517  1.00  0.00    -0.352 N 
ATOM     37  C   UNL     1      -4.684   4.411  -5.077  1.00  0.00     0.251 C 
ATOM     38  H   UNL     1      -6.258   3.272  -4.488  1.00  0.00     0.163 HD
ATOM     39  O   UNL     1      -5.292   5.407  -5.394  1.00  0.00    -0.269 OA
BRANCH  37  40
ATOM     40  C   UNL     1      -3.235   4.295  -5.349  1.00  0.00     0.039 A 
ATOM     41  C   UNL     1      -2.887   3.839  -6.627  1.00  0.00     0.014 A 
ATOM     42  C   UNL     1      -2.384   4.160  -4.258  1.00  0.00     0.014 A 
ATOM     43  C   UNL     1      -1.788   3.002  -6.762  1.00  0.00     0.010 A 
ATOM     44  C   UNL     1      -1.333   3.272  -4.383  1.00  0.00     0.010 A 
ATOM     45  C   UNL     1      -1.092   2.632  -5.614  1.00  0.00    -0.014 A 
BRANCH  45  46
ATOM     46  C   UNL     1      -0.158   1.514  -5.563  1.00  0.00     0.031 A 
ATOM     47  C   UNL     1       1.286   1.790  -5.421  1.00  0.00     0.074 A 
ATOM     48  C   UNL     1      -0.595   0.235  -5.577  1.00  0.00     0.049 A 
ATOM     49  N   UNL     1       2.212   0.903  -5.554  1.00  0.00    -0.248 NA
ATOM     50  C   UNL     1       1.808   3.139  -5.217  1.00  0.00     0.031 C 
ATOM     51  C   UNL     1       0.146  -0.951  -5.157  1.00  0.00     0.029 A 
ATOM     52  N   UNL     1      -1.738  -0.276  -6.188  1.00  0.00    -0.354 N 
ATOM     53  C   UNL     1       3.404   1.482  -5.193  1.00  0.00     0.074 A 
ATOM     54  C   UNL     1       3.118   2.892  -5.132  1.00  0.00     0.031 C 
ATOM     55  C   UNL     1      -0.414  -2.038  -5.707  1.00  0.00     0.029 A 
ATOM     56  C   UNL     1      -1.444  -1.585  -6.622  1.00  0.00     0.049 A 
ATOM     57  H   UNL     1      -2.597   0.193  -6.298  1.00  0.00     0.167 HD
ATOM     58  C   UNL     1       4.451   0.670  -4.876  1.00  0.00     0.037 A 
ATOM     59  C   UNL     1      -1.502  -1.911  -7.949  1.00  0.00     0.037 A 
ATOM     60  C   UNL     1       4.217  -0.691  -5.373  1.00  0.00     0.049 A 
ATOM     61  C   UNL     1      -0.166  -2.269  -8.574  1.00  0.00     0.074 A 
ATOM     62  C   UNL     1       3.857  -1.903  -4.812  1.00  0.00     0.029 A 
ATOM     63  N   UNL     1       4.113  -0.864  -6.744  1.00  0.00    -0.354 N 
ATOM     64  N   UNL     1       0.965  -2.328  -7.925  1.00  0.00    -0.248 NA
ATOM     65  C   UNL     1       0.010  -2.511 -10.009  1.00  0.00     0.031 C 
ATOM     66  C   UNL     1       3.462  -2.779  -5.872  1.00  0.00     0.029 A 
ATOM     67  C   UNL     1       3.607  -2.105  -7.072  1.00  0.00     0.049 A 
ATOM     68  H   UNL     1       4.370  -0.181  -7.406  1.00  0.00     0.167 HD
ATOM     69  C   UNL     1       1.993  -2.476  -8.819  1.00  0.00     0.074 A 
ATOM     70  C   UNL     1       1.345  -2.632 -10.108  1.00  0.00     0.031 C 
ATOM     71  C   UNL     1       3.307  -2.390  -8.467  1.00  0.00     0.037 A 
BRANCH  58  72
ATOM     72  C   UNL     1       5.622   1.053  -3.987  1.00  0.00     0.058 A 
ATOM     73  C   UNL     1       6.569   0.074  -3.606  1.00  0.00     0.135 A 
ATOM     74  C   UNL     1       5.812   2.308  -3.363  1.00  0.00     0.135 A 
ATOM     75  F   UNL     1       6.529  -1.167  -4.112  1.00  0.00    -0.206 F 
ATOM     76  C   UNL     1       7.573   0.306  -2.658  1.00  0.00     0.059 A 
ATOM     77  C   UNL     1       6.826   2.572  -2.443  1.00  0.00     0.059 A 
ATOM     78  F   UNL     1       5.000   3.348  -3.558  1.00  0.00    -0.206 F 
ATOM     79  C   UNL     1       7.686   1.558  -2.070  1.00  0.00     0.060 A 
BRANCH  79  80
ATOM     80  S   UNL     1       8.918   1.840  -0.789  1.00  0.00     0.124 S 
ATOM     81  O   UNL     1       8.439   0.971   0.281  1.00  0.00    -0.237 OA
ATOM     82  O   UNL     1      10.151   1.425  -1.447  1.00  0.00    -0.237 OA
ATOM     83  O   UNL     1       8.808   3.272  -0.520  1.00  0.00    -0.744 OA
ENDBRANCH  79  80
ENDBRANCH  58  72
BRANCH  59  84
ATOM     84  C   UNL     1      -2.627  -1.230  -8.644  1.00  0.00     0.058 A 
ATOM     85  C   UNL     1      -3.935  -1.605  -8.277  1.00  0.00     0.135 A 
ATOM     86  C   UNL     1      -2.451   0.021  -9.250  1.00  0.00     0.135 A 
ATOM     87  F   UNL     1      -4.157  -2.801  -7.708  1.00  0.00    -0.206 F 
ATOM     88  C   UNL     1      -4.992  -0.707  -8.341  1.00  0.00     0.059 A 
ATOM     89  C   UNL     1      -3.501   0.934  -9.332  1.00  0.00     0.059 A 
ATOM     90  F   UNL     1      -1.228   0.425  -9.624  1.00  0.00    -0.206 F 
ATOM     91  C   UNL     1      -4.747   0.583  -8.808  1.00  0.00     0.060 A 
BRANCH  91  92
ATOM     92  S   UNL     1      -6.022   1.834  -8.528  1.00  0.00     0.124 S 
ATOM     93  O   UNL     1      -7.114   1.340  -9.358  1.00  0.00    -0.237 OA
ATOM     94  O   UNL     1      -6.226   1.728  -7.085  1.00  0.00    -0.237 OA
ATOM     95  O   UNL     1      -5.386   3.064  -8.985  1.00  0.00    -0.744 OA
ENDBRANCH  91  92
ENDBRANCH  59  84
BRANCH  71  96
ATOM     96  C   UNL     1       4.420  -2.546  -9.461  1.00  0.00     0.058 A 
ATOM     97  C   UNL     1       4.536  -3.693 -10.262  1.00  0.00     0.135 A 
ATOM     98  C   UNL     1       5.473  -1.613  -9.540  1.00  0.00     0.135 A 
ATOM     99  F   UNL     1       3.582  -4.638 -10.240  1.00  0.00    -0.206 F 
ATOM    100  C   UNL     1       5.635  -3.905 -11.094  1.00  0.00     0.059 A 
ATOM    101  C   UNL     1       6.600  -1.823 -10.330  1.00  0.00     0.059 A 
ATOM    102  F   UNL     1       5.422  -0.455  -8.863  1.00  0.00    -0.206 F 
ATOM    103  C   UNL     1       6.668  -2.968 -11.114  1.00  0.00     0.060 A 
BRANCH 103 104
ATOM    104  S   UNL     1       8.123  -3.266 -12.138  1.00  0.00     0.124 S 
ATOM    105  O   UNL     1       8.256  -4.720 -12.095  1.00  0.00    -0.237 OA
ATOM    106  O   UNL     1       7.697  -2.710 -13.418  1.00  0.00    -0.237 OA
ATOM    107  O   UNL     1       9.176  -2.528 -11.447  1.00  0.00    -0.744 OA
ENDBRANCH 103 104
ENDBRANCH  71  96
ENDBRANCH  45  46
ENDBRANCH  37  40
ENDBRANCH  35  36
ENDBRANCH  34  35
ENDBRANCH   1  34
TORSDOF 19
