REMARK SMILES CC(=O)Nc1cnc(N2CC=C(c3ccccc3C)CC2)c(C(=O)NCCCCCCNC(=O)c2ccc(-c3c4nc(c(-c5c(F)cc(S(=O)(=O)[O-])cc5F)c5ccc([nH]5)c(-c5c(F)cc(S(=O)(=O)[O-])cc5F)c5nc(c(-c6c(F)cc(S(=O)(=O)[O-])cc6F)c6ccc3[nH]6)C=C5)C=C4)cc2)c1
REMARK SMILES IDX 29 1 28 2 27 3 26 4 25 5 23 6 24 7 22 9 5 10 6 11 101 12
REMARK SMILES IDX 7 13 8 14 4 15 1 16 2 17 3 18 9 20 10 21 21 22 11 23 20 24
REMARK SMILES IDX 12 25 13 26 14 27 18 28 15 29 17 30 19 31 16 32 30 33 31 34
REMARK SMILES IDX 32 35 33 36 34 38 35 39 36 40 100 41 37 42 99 43 38 44 39 45
REMARK SMILES IDX 40 46 93 47 41 48 98 49 92 50 94 51 42 52 97 53 91 54 90 55
REMARK SMILES IDX 43 57 77 58 56 59 76 60 57 61 60 62 75 63 95 64 58 65 59 66
REMARK SMILES IDX 74 68 96 69 61 70 44 71 45 72 54 73 46 74 47 75 53 76 55 77
REMARK SMILES IDX 48 78 49 79 50 80 51 81 52 82 78 83 79 84 88 85 80 86 81 87
REMARK SMILES IDX 87 88 89 89 82 90 83 91 84 92 85 93 86 94 62 95 63 96 72 97
REMARK SMILES IDX 64 98 65 99 71 100 73 101 66 102 67 103 68 104 69 105 70 106
REMARK H PARENT 25 8 4 19 32 37 94 56 60 67
REMARK Flexibility Score: inf
ROOT
ATOM      1  C   UNL     1       6.424   0.492   2.648  1.00  0.00     0.002 C 
ENDROOT
BRANCH   1   2
ATOM      2  C   UNL     1       6.690  -0.377   1.405  1.00  0.00     0.002 C 
BRANCH   2   3
ATOM      3  C   UNL     1       5.467  -0.723   0.543  1.00  0.00     0.021 C 
BRANCH   3   4
ATOM      4  C   UNL     1       4.614   0.483   0.160  1.00  0.00     0.116 C 
BRANCH   4   5
ATOM      5  N   UNL     1       5.111   1.162  -1.016  1.00  0.00    -0.352 N 
ATOM      6  C   UNL     1       4.645   1.452  -2.272  1.00  0.00     0.255 C 
ATOM      7  O   UNL     1       5.241   2.401  -2.784  1.00  0.00    -0.269 OA
ATOM      8  H   UNL     1       6.023   1.506  -0.878  1.00  0.00     0.163 HD
BRANCH   6   9
ATOM      9  C   UNL     1       3.507   0.774  -2.992  1.00  0.00     0.084 A 
ATOM     10  C   UNL     1       1.481  -0.594  -2.954  1.00  0.00     0.060 A 
ATOM     11  C   UNL     1       1.252  -0.212  -4.256  1.00  0.00     0.139 A 
ATOM     12  C   UNL     1       2.659  -0.148  -2.357  1.00  0.00     0.045 A 
ATOM     13  N   UNL     1       2.064   0.619  -4.934  1.00  0.00    -0.236 NA
ATOM     14  C   UNL     1       3.187   1.107  -4.329  1.00  0.00     0.141 A 
BRANCH  10  15
ATOM     15  N   UNL     1       0.544  -1.413  -2.303  1.00  0.00    -0.325 N 
ATOM     16  C   UNL     1       0.556  -0.288  -0.081  1.00  0.00     0.114 C 
ATOM     17  C   UNL     1       0.152  -1.418  -0.992  1.00  0.00     0.221 C 
ATOM     18  O   UNL     1      -0.602  -2.308  -0.596  1.00  0.00    -0.275 OA
ATOM     19  H   UNL     1       0.105  -2.083  -2.875  1.00  0.00     0.169 HD
ENDBRANCH  10  15
BRANCH  14  20
ATOM     20  N   UNL     1       3.938   1.881  -5.175  1.00  0.00    -0.352 N 
ATOM     21  C   UNL     1       3.355   3.125  -5.641  1.00  0.00     0.146 C 
ATOM     22  C   UNL     1       5.349   1.631  -5.434  1.00  0.00     0.123 C 
ATOM     23  C   UNL     1       3.952   3.532  -6.960  1.00  0.00    -0.002 C 
ATOM     24  C   UNL     1       5.599   1.670  -6.946  1.00  0.00     0.057 C 
ATOM     25  C   UNL     1       4.957   2.882  -7.579  1.00  0.00    -0.041 C 
BRANCH  25  26
ATOM     26  C   UNL     1       5.464   3.361  -8.879  1.00  0.00    -0.020 A 
ATOM     27  C   UNL     1       5.983   4.668  -8.943  1.00  0.00     0.008 A 
ATOM     28  C   UNL     1       5.437   2.578 -10.051  1.00  0.00    -0.044 A 
ATOM     29  C   UNL     1       6.468   5.194 -10.140  1.00  0.00     0.001 A 
ATOM     30  C   UNL     1       5.945   3.117 -11.246  1.00  0.00     0.004 A 
ATOM     31  C   UNL     1       4.903   1.172 -10.073  1.00  0.00     0.045 C 
ATOM     32  C   UNL     1       6.449   4.417 -11.292  1.00  0.00     0.000 A 
ENDBRANCH  25  26
ENDBRANCH  14  20
ENDBRANCH   6   9
ENDBRANCH   4   5
ENDBRANCH   3   4
ENDBRANCH   2   3
ENDBRANCH   1   2
BRANCH   1  33
ATOM     33  C   UNL     1       5.213   0.102   3.501  1.00  0.00     0.021 C 
BRANCH  33  34
ATOM     34  C   UNL     1       5.371  -1.249   4.184  1.00  0.00     0.116 C 
BRANCH  34  35
ATOM     35  N   UNL     1       5.418  -1.151   5.633  1.00  0.00    -0.352 N 
ATOM     36  C   UNL     1       5.435  -2.195   6.541  1.00  0.00     0.251 C 
ATOM     37  H   UNL     1       5.440  -0.242   6.011  1.00  0.00     0.163 HD
ATOM     38  O   UNL     1       5.212  -2.047   7.727  1.00  0.00    -0.269 OA
BRANCH  36  39
ATOM     39  C   UNL     1       5.892  -3.499   6.017  1.00  0.00     0.039 A 
ATOM     40  C   UNL     1       7.175  -3.916   6.391  1.00  0.00     0.014 A 
ATOM     41  C   UNL     1       5.198  -4.122   4.983  1.00  0.00     0.014 A 
ATOM     42  C   UNL     1       7.829  -4.876   5.625  1.00  0.00     0.010 A 
ATOM     43  C   UNL     1       5.880  -5.015   4.177  1.00  0.00     0.010 A 
ATOM     44  C   UNL     1       7.204  -5.366   4.477  1.00  0.00    -0.014 A 
BRANCH  44  45
ATOM     45  C   UNL     1       7.886  -6.199   3.495  1.00  0.00     0.031 A 
ATOM     46  C   UNL     1       7.627  -7.655   3.450  1.00  0.00     0.074 A 
ATOM     47  C   UNL     1       8.743  -5.649   2.607  1.00  0.00     0.049 A 
ATOM     48  N   UNL     1       8.484  -8.527   3.032  1.00  0.00    -0.248 NA
ATOM     49  C   UNL     1       6.377  -8.251   3.913  1.00  0.00     0.031 C 
ATOM     50  C   UNL     1       9.303  -6.285   1.417  1.00  0.00     0.029 A 
ATOM     51  N   UNL     1       9.438  -4.447   2.716  1.00  0.00    -0.354 N 
ATOM     52  C   UNL     1       7.830  -9.731   2.921  1.00  0.00     0.074 A 
ATOM     53  C   UNL     1       6.538  -9.524   3.537  1.00  0.00     0.031 C 
ATOM     54  C   UNL     1      10.397  -5.609   1.036  1.00  0.00     0.029 A 
ATOM     55  C   UNL     1      10.664  -4.601   2.048  1.00  0.00     0.049 A 
ATOM     56  H   UNL     1       9.126  -3.635   3.177  1.00  0.00     0.167 HD
ATOM     57  C   UNL     1       8.382 -10.746   2.199  1.00  0.00     0.037 A 
ATOM     58  C   UNL     1      11.853  -4.459   2.704  1.00  0.00     0.037 A 
ATOM     59  C   UNL     1       9.670 -10.366   1.633  1.00  0.00     0.049 A 
ATOM     60  C   UNL     1      12.700  -5.712   2.711  1.00  0.00     0.074 A 
ATOM     61  C   UNL     1      10.023  -9.858   0.393  1.00  0.00     0.029 A 
ATOM     62  N   UNL     1      10.767 -10.171   2.465  1.00  0.00    -0.354 N 
ATOM     63  N   UNL     1      12.241  -6.907   2.458  1.00  0.00    -0.248 NA
ATOM     64  C   UNL     1      14.128  -5.720   3.016  1.00  0.00     0.031 C 
ATOM     65  C   UNL     1      11.322  -9.311   0.492  1.00  0.00     0.029 A 
ATOM     66  C   UNL     1      11.769  -9.499   1.788  1.00  0.00     0.049 A 
ATOM     67  H   UNL     1      10.823 -10.468   3.402  1.00  0.00     0.167 HD
ATOM     68  C   UNL     1      13.251  -7.828   2.594  1.00  0.00     0.074 A 
ATOM     69  C   UNL     1      14.418  -7.029   2.915  1.00  0.00     0.031 C 
ATOM     70  C   UNL     1      13.032  -9.169   2.433  1.00  0.00     0.037 A 
BRANCH  57  71
ATOM     71  C   UNL     1       7.572 -11.942   1.761  1.00  0.00     0.058 A 
ATOM     72  C   UNL     1       7.667 -12.449   0.449  1.00  0.00     0.135 A 
ATOM     73  C   UNL     1       6.632 -12.590   2.587  1.00  0.00     0.135 A 
ATOM     74  F   UNL     1       8.564 -11.974  -0.425  1.00  0.00    -0.206 F 
ATOM     75  C   UNL     1       6.822 -13.444  -0.041  1.00  0.00     0.059 A 
ATOM     76  C   UNL     1       5.741 -13.557   2.107  1.00  0.00     0.059 A 
ATOM     77  F   UNL     1       6.551 -12.296   3.895  1.00  0.00    -0.206 F 
ATOM     78  C   UNL     1       5.837 -13.969   0.784  1.00  0.00     0.060 A 
BRANCH  78  79
ATOM     79  S   UNL     1       4.673 -15.157   0.085  1.00  0.00     0.124 S 
ATOM     80  O   UNL     1       4.251 -14.491  -1.145  1.00  0.00    -0.237 OA
ATOM     81  O   UNL     1       5.513 -16.336  -0.090  1.00  0.00    -0.237 OA
ATOM     82  O   UNL     1       3.641 -15.264   1.112  1.00  0.00    -0.744 OA
ENDBRANCH  78  79
ENDBRANCH  57  71
BRANCH  58  83
ATOM     83  C   UNL     1      11.804  -3.446   3.795  1.00  0.00     0.058 A 
ATOM     84  C   UNL     1      11.629  -2.096   3.433  1.00  0.00     0.135 A 
ATOM     85  C   UNL     1      11.504  -3.807   5.115  1.00  0.00     0.135 A 
ATOM     86  F   UNL     1      11.915  -1.694   2.183  1.00  0.00    -0.206 F 
ATOM     87  C   UNL     1      11.036  -1.177   4.292  1.00  0.00     0.059 A 
ATOM     88  C   UNL     1      10.914  -2.899   5.997  1.00  0.00     0.059 A 
ATOM     89  F   UNL     1      11.652  -5.077   5.519  1.00  0.00    -0.206 F 
ATOM     90  C   UNL     1      10.625  -1.607   5.552  1.00  0.00     0.060 A 
BRANCH  90  91
ATOM     91  S   UNL     1       9.579  -0.499   6.527  1.00  0.00     0.124 S 
ATOM     92  O   UNL     1      10.450   0.657   6.710  1.00  0.00    -0.237 OA
ATOM     93  O   UNL     1       8.440  -0.293   5.634  1.00  0.00    -0.237 OA
ATOM     94  O   UNL     1       9.296  -1.275   7.729  1.00  0.00    -0.744 OA
ENDBRANCH  90  91
ENDBRANCH  58  83
BRANCH  70  95
ATOM     95  C   UNL     1      14.002 -10.290   2.745  1.00  0.00     0.058 A 
ATOM     96  C   UNL     1      15.025 -10.210   3.705  1.00  0.00     0.135 A 
ATOM     97  C   UNL     1      13.833 -11.567   2.151  1.00  0.00     0.135 A 
ATOM     98  F   UNL     1      15.220  -9.098   4.427  1.00  0.00    -0.206 F 
ATOM     99  C   UNL     1      15.862 -11.289   4.004  1.00  0.00     0.059 A 
ATOM    100  C   UNL     1      14.618 -12.671   2.476  1.00  0.00     0.059 A 
ATOM    101  F   UNL     1      12.879 -11.796   1.235  1.00  0.00    -0.206 F 
ATOM    102  C   UNL     1      15.651 -12.517   3.385  1.00  0.00     0.060 A 
BRANCH 102 103
ATOM    103  S   UNL     1      16.680 -13.933   3.813  1.00  0.00     0.124 S 
ATOM    104  O   UNL     1      17.745 -13.830   2.820  1.00  0.00    -0.237 OA
ATOM    105  O   UNL     1      17.073 -13.646   5.190  1.00  0.00    -0.237 OA
ATOM    106  O   UNL     1      15.771 -15.064   3.653  1.00  0.00    -0.744 OA
ENDBRANCH 102 103
ENDBRANCH  70  95
ENDBRANCH  44  45
ENDBRANCH  36  39
ENDBRANCH  34  35
ENDBRANCH  33  34
ENDBRANCH   1  33
TORSDOF 19
