REMARK SMILES CC(C)=CCc1cccc2c(C(=O)NCCCCCCNC(=O)c3ccc(-c4c5nc(c(-c6c(F)cc(S(=O)(=O)[O-])cc6F)c6ccc([nH]6)c(-c6c(F)cc(S(=O)(=O)[O-])cc6F)c6nc(c(-c7c(F)cc(S(=O)(=O)[O-])cc7F)c7ccc4[nH]7)C=C6)C=C5)cc3)c[nH]c12
REMARK SMILES IDX 18 1 17 2 16 3 15 4 14 5 12 6 13 7 11 9 6 10 7 11 92 12 8 13
REMARK SMILES IDX 10 14 91 15 9 16 90 17 5 19 4 20 1 21 2 22 3 23 19 24 20 25
REMARK SMILES IDX 21 26 22 27 23 29 24 30 25 31 89 32 26 33 88 34 27 35 28 36
REMARK SMILES IDX 29 37 82 38 30 39 87 40 81 41 83 42 31 43 86 44 80 45 79 46
REMARK SMILES IDX 32 48 66 49 45 50 65 51 46 52 49 53 64 54 84 55 47 56 48 57
REMARK SMILES IDX 63 59 85 60 50 61 33 62 34 63 43 64 35 65 36 66 42 67 44 68
REMARK SMILES IDX 37 69 38 70 39 71 40 72 41 73 67 74 68 75 77 76 69 77 70 78
REMARK SMILES IDX 76 79 78 80 71 81 72 82 73 83 74 84 75 85 51 86 52 87 61 88
REMARK SMILES IDX 53 89 54 90 60 91 62 92 55 93 56 94 57 95 58 96 59 97
REMARK H PARENT 14 8 91 18 21 28 83 47 49 58
REMARK Flexibility Score: inf
ROOT
ATOM      1  C   UNL     1       9.414  -4.881   5.564  1.00  0.00     0.002 C 
ENDROOT
BRANCH   1   2
ATOM      2  C   UNL     1       8.273  -5.505   6.373  1.00  0.00     0.002 C 
BRANCH   2   3
ATOM      3  C   UNL     1       6.851  -5.065   6.019  1.00  0.00     0.021 C 
BRANCH   3   4
ATOM      4  C   UNL     1       6.468  -5.137   4.548  1.00  0.00     0.116 C 
BRANCH   4   5
ATOM      5  N   UNL     1       6.360  -6.465   3.995  1.00  0.00    -0.352 N 
ATOM      6  C   UNL     1       5.555  -6.927   2.978  1.00  0.00     0.253 C 
ATOM      7  O   UNL     1       5.655  -8.123   2.693  1.00  0.00    -0.269 OA
ATOM      8  H   UNL     1       6.948  -7.139   4.405  1.00  0.00     0.163 HD
BRANCH   6   9
ATOM      9  C   UNL     1       4.550  -6.076   2.329  1.00  0.00     0.065 A 
ATOM     10  C   UNL     1       2.728  -3.097   1.230  1.00  0.00    -0.020 A 
ATOM     11  C   UNL     1       3.636  -2.045   1.463  1.00  0.00     0.006 A 
ATOM     12  C   UNL     1       3.195  -4.397   1.524  1.00  0.00     0.050 A 
ATOM     13  C   UNL     1       4.944  -2.279   1.858  1.00  0.00     0.001 A 
ATOM     14  C   UNL     1       4.485  -4.670   2.003  1.00  0.00     0.012 A 
ATOM     15  N   UNL     1       2.565  -5.612   1.391  1.00  0.00    -0.360 N 
ATOM     16  C   UNL     1       5.386  -3.583   2.070  1.00  0.00     0.011 A 
ATOM     17  C   UNL     1       3.359  -6.616   1.861  1.00  0.00     0.097 A 
ATOM     18  H   UNL     1       1.667  -5.740   1.009  1.00  0.00     0.166 HD
BRANCH  10  19
ATOM     19  C   UNL     1       1.368  -2.789   0.642  1.00  0.00     0.065 C 
BRANCH  19  20
ATOM     20  C   UNL     1       0.564  -1.822   1.470  1.00  0.00    -0.024 C 
ATOM     21  C   UNL     1       0.766   0.132  -0.095  1.00  0.00     0.039 C 
ATOM     22  C   UNL     1       0.285  -0.538   1.163  1.00  0.00    -0.080 C 
ATOM     23  C   UNL     1      -0.502   0.308   2.126  1.00  0.00     0.039 C 
ENDBRANCH  19  20
ENDBRANCH  10  19
ENDBRANCH   6   9
ENDBRANCH   4   5
ENDBRANCH   3   4
ENDBRANCH   2   3
ENDBRANCH   1   2
BRANCH   1  24
ATOM     24  C   UNL     1       9.441  -3.352   5.470  1.00  0.00     0.021 C 
BRANCH  24  25
ATOM     25  C   UNL     1       9.384  -2.597   6.793  1.00  0.00     0.116 C 
BRANCH  25  26
ATOM     26  N   UNL     1      10.454  -2.967   7.703  1.00  0.00    -0.352 N 
ATOM     27  C   UNL     1      11.342  -2.172   8.384  1.00  0.00     0.251 C 
ATOM     28  H   UNL     1      10.559  -3.935   7.854  1.00  0.00     0.163 HD
ATOM     29  O   UNL     1      12.276  -2.690   8.996  1.00  0.00    -0.269 OA
BRANCH  27  30
ATOM     30  C   UNL     1      11.198  -0.700   8.365  1.00  0.00     0.039 A 
ATOM     31  C   UNL     1      12.339   0.085   8.177  1.00  0.00     0.014 A 
ATOM     32  C   UNL     1       9.952  -0.091   8.540  1.00  0.00     0.014 A 
ATOM     33  C   UNL     1      12.221   1.475   8.099  1.00  0.00     0.010 A 
ATOM     34  C   UNL     1       9.826   1.289   8.390  1.00  0.00     0.010 A 
ATOM     35  C   UNL     1      10.958   2.087   8.166  1.00  0.00    -0.014 A 
BRANCH  35  36
ATOM     36  C   UNL     1      10.804   3.555   7.986  1.00  0.00     0.031 A 
ATOM     37  C   UNL     1      10.267   4.408   9.103  1.00  0.00     0.074 A 
ATOM     38  C   UNL     1      11.088   4.110   6.790  1.00  0.00     0.049 A 
ATOM     39  N   UNL     1      10.003   5.690   9.110  1.00  0.00    -0.248 NA
ATOM     40  C   UNL     1       9.963   3.728  10.372  1.00  0.00     0.031 C 
ATOM     41  C   UNL     1      11.573   3.382   5.615  1.00  0.00     0.029 A 
ATOM     42  N   UNL     1      11.002   5.411   6.359  1.00  0.00    -0.354 N 
ATOM     43  C   UNL     1       9.494   5.967  10.374  1.00  0.00     0.074 A 
ATOM     44  C   UNL     1       9.435   4.710  11.088  1.00  0.00     0.031 C 
ATOM     45  C   UNL     1      11.762   4.247   4.607  1.00  0.00     0.029 A 
ATOM     46  C   UNL     1      11.372   5.583   5.045  1.00  0.00     0.049 A 
ATOM     47  H   UNL     1      10.704   6.150   6.937  1.00  0.00     0.167 HD
ATOM     48  C   UNL     1       9.130   7.162  10.898  1.00  0.00     0.037 A 
ATOM     49  C   UNL     1      11.384   6.689   4.276  1.00  0.00     0.037 A 
ATOM     50  C   UNL     1       9.205   8.411  10.184  1.00  0.00     0.049 A 
ATOM     51  C   UNL     1      10.960   8.003   4.875  1.00  0.00     0.074 A 
ATOM     52  C   UNL     1       8.911   9.683  10.643  1.00  0.00     0.029 A 
ATOM     53  N   UNL     1       9.596   8.547   8.859  1.00  0.00    -0.354 N 
ATOM     54  N   UNL     1      10.542   8.257   6.093  1.00  0.00    -0.248 NA
ATOM     55  C   UNL     1      11.014   9.182   4.000  1.00  0.00     0.031 C 
ATOM     56  C   UNL     1       9.070  10.580   9.582  1.00  0.00     0.029 A 
ATOM     57  C   UNL     1       9.525   9.877   8.477  1.00  0.00     0.049 A 
ATOM     58  H   UNL     1       9.882   7.807   8.276  1.00  0.00     0.167 HD
ATOM     59  C   UNL     1      10.313   9.628   6.138  1.00  0.00     0.074 A 
ATOM     60  C   UNL     1      10.650  10.150   4.830  1.00  0.00     0.031 C 
ATOM     61  C   UNL     1       9.868  10.386   7.171  1.00  0.00     0.037 A 
BRANCH  48  62
ATOM     62  C   UNL     1       8.613   7.179  12.312  1.00  0.00     0.058 A 
ATOM     63  C   UNL     1       9.449   6.914  13.409  1.00  0.00     0.135 A 
ATOM     64  C   UNL     1       7.272   7.503  12.579  1.00  0.00     0.135 A 
ATOM     65  F   UNL     1      10.737   6.586  13.214  1.00  0.00    -0.206 F 
ATOM     66  C   UNL     1       8.969   6.936  14.715  1.00  0.00     0.059 A 
ATOM     67  C   UNL     1       6.778   7.563  13.880  1.00  0.00     0.059 A 
ATOM     68  F   UNL     1       6.426   7.767  11.571  1.00  0.00    -0.206 F 
ATOM     69  C   UNL     1       7.631   7.263  14.940  1.00  0.00     0.060 A 
BRANCH  69  70
ATOM     70  S   UNL     1       7.027   7.290  16.641  1.00  0.00     0.124 S 
ATOM     71  O   UNL     1       7.008   5.867  16.966  1.00  0.00    -0.237 OA
ATOM     72  O   UNL     1       8.046   8.083  17.321  1.00  0.00    -0.237 OA
ATOM     73  O   UNL     1       5.716   7.924  16.527  1.00  0.00    -0.744 OA
ENDBRANCH  69  70
ENDBRANCH  48  62
BRANCH  49  74
ATOM     74  C   UNL     1      11.829   6.603   2.858  1.00  0.00     0.058 A 
ATOM     75  C   UNL     1      13.035   7.186   2.442  1.00  0.00     0.135 A 
ATOM     76  C   UNL     1      11.067   5.923   1.895  1.00  0.00     0.135 A 
ATOM     77  F   UNL     1      13.796   7.853   3.324  1.00  0.00    -0.206 F 
ATOM     78  C   UNL     1      13.464   7.113   1.121  1.00  0.00     0.059 A 
ATOM     79  C   UNL     1      11.488   5.812   0.573  1.00  0.00     0.059 A 
ATOM     80  F   UNL     1       9.913   5.333   2.243  1.00  0.00    -0.206 F 
ATOM     81  C   UNL     1      12.684   6.419   0.194  1.00  0.00     0.060 A 
BRANCH  81  82
ATOM     82  S   UNL     1      13.274   6.289  -1.508  1.00  0.00     0.124 S 
ATOM     83  O   UNL     1      13.081   7.651  -1.991  1.00  0.00    -0.237 OA
ATOM     84  O   UNL     1      14.659   5.867  -1.319  1.00  0.00    -0.237 OA
ATOM     85  O   UNL     1      12.394   5.281  -2.092  1.00  0.00    -0.744 OA
ENDBRANCH  81  82
ENDBRANCH  49  74
BRANCH  61  86
ATOM     86  C   UNL     1       9.754  11.870   6.946  1.00  0.00     0.058 A 
ATOM     87  C   UNL     1       8.757  12.421   6.125  1.00  0.00     0.135 A 
ATOM     88  C   UNL     1      10.623  12.755   7.605  1.00  0.00     0.135 A 
ATOM     89  F   UNL     1       7.904  11.620   5.467  1.00  0.00    -0.206 F 
ATOM     90  C   UNL     1       8.642  13.796   5.947  1.00  0.00     0.059 A 
ATOM     91  C   UNL     1      10.506  14.134   7.466  1.00  0.00     0.059 A 
ATOM     92  F   UNL     1      11.588  12.282   8.410  1.00  0.00    -0.206 F 
ATOM     93  C   UNL     1       9.519  14.645   6.624  1.00  0.00     0.060 A 
BRANCH  93  94
ATOM     94  S   UNL     1       9.335  16.428   6.410  1.00  0.00     0.124 S 
ATOM     95  O   UNL     1       9.829  16.614   5.050  1.00  0.00    -0.237 OA
ATOM     96  O   UNL     1       7.899  16.617   6.594  1.00  0.00    -0.237 OA
ATOM     97  O   UNL     1      10.175  16.986   7.466  1.00  0.00    -0.744 OA
ENDBRANCH  93  94
ENDBRANCH  61  86
ENDBRANCH  35  36
ENDBRANCH  27  30
ENDBRANCH  25  26
ENDBRANCH  24  25
ENDBRANCH   1  24
TORSDOF 18
