REMARK SMILES CC(=O)Nc1ccc(/C(=C\c2ccc(S(C)(=O)=O)cc2)C(=O)NCCCCCCNC(=O)c2ccc(-c3c4nc(c(-c5c(F)cc(S(=O)(=O)[O-])cc5F)c5ccc([nH]5)c(-c5c(F)cc(S(=O)(=O)[O-])cc5F)c5nc(c(-c6c(F)cc(S(=O)(=O)[O-])cc6F)c6ccc3[nH]6)C=C5)C=C4)cc2)cc1
REMARK SMILES IDX 27 1 26 2 25 3 24 4 23 5 21 6 22 7 9 9 10 10 8 11 5 12 6 13
REMARK SMILES IDX 100 14 7 15 99 16 4 17 1 18 2 19 3 20 11 22 12 23 20 24
REMARK SMILES IDX 13 25 19 26 14 27 15 28 16 29 17 30 18 31 28 32 29 33 30 34
REMARK SMILES IDX 31 35 32 37 33 38 34 39 98 40 35 41 97 42 36 43 37 44 38 45
REMARK SMILES IDX 91 46 39 47 96 48 90 49 92 50 40 51 95 52 89 53 88 54 41 56
REMARK SMILES IDX 75 57 54 58 74 59 55 60 58 61 73 62 93 63 56 64 57 65 72 67
REMARK SMILES IDX 94 68 59 69 42 70 43 71 52 72 44 73 45 74 51 75 53 76 46 77
REMARK SMILES IDX 47 78 48 79 49 80 50 81 76 82 77 83 86 84 78 85 79 86 85 87
REMARK SMILES IDX 87 88 80 89 81 90 82 91 83 92 84 93 60 94 61 95 70 96 62 97
REMARK SMILES IDX 63 98 69 99 71 100 64 101 65 102 66 103 67 104 68 105
REMARK H PARENT 23 8 4 21 30 36 92 55 58 66
REMARK Flexibility Score: inf
ROOT
ATOM      1  C   UNL     1       8.508   0.140   8.967  1.00  0.00     0.002 C 
ENDROOT
BRANCH   1   2
ATOM      2  C   UNL     1       7.187  -0.467   8.480  1.00  0.00     0.002 C 
BRANCH   2   3
ATOM      3  C   UNL     1       6.033   0.536   8.325  1.00  0.00     0.021 C 
BRANCH   3   4
ATOM      4  C   UNL     1       6.350   1.686   7.363  1.00  0.00     0.116 C 
BRANCH   4   5
ATOM      5  N   UNL     1       6.316   1.209   5.996  1.00  0.00    -0.352 N 
ATOM      6  C   UNL     1       5.448   1.275   4.957  1.00  0.00     0.251 C 
ATOM      7  O   UNL     1       5.861   0.700   3.945  1.00  0.00    -0.269 OA
ATOM      8  H   UNL     1       7.132   0.710   5.762  1.00  0.00     0.163 HD
BRANCH   6   9
ATOM      9  C   UNL     1       4.119   2.032   4.957  1.00  0.00     0.047 C 
ATOM     10  C   UNL     1       3.512   2.297   6.139  1.00  0.00     0.022 C 
BRANCH   9  11
ATOM     11  C   UNL     1       3.422   2.294   3.641  1.00  0.00    -0.013 A 
ATOM     12  C   UNL     1       1.761   2.424   1.316  1.00  0.00     0.041 A 
ATOM     13  C   UNL     1       1.771   3.461   2.251  1.00  0.00     0.027 A 
ATOM     14  C   UNL     1       2.696   1.414   1.464  1.00  0.00     0.027 A 
ATOM     15  C   UNL     1       2.615   3.411   3.377  1.00  0.00     0.011 A 
ATOM     16  C   UNL     1       3.476   1.331   2.621  1.00  0.00     0.011 A 
BRANCH  12  17
ATOM     17  N   UNL     1       0.811   2.467   0.283  1.00  0.00    -0.326 N 
ATOM     18  C   UNL     1       0.695   0.050  -0.371  1.00  0.00     0.114 C 
ATOM     19  C   UNL     1       0.334   1.500  -0.558  1.00  0.00     0.221 C 
ATOM     20  O   UNL     1      -0.443   1.831  -1.459  1.00  0.00    -0.275 OA
ATOM     21  H   UNL     1       0.415   3.357   0.137  1.00  0.00     0.169 HD
ENDBRANCH  12  17
ENDBRANCH   9  11
BRANCH  10  22
ATOM     22  C   UNL     1       2.357   3.161   6.426  1.00  0.00    -0.025 A 
ATOM     23  C   UNL     1       2.611   4.450   6.927  1.00  0.00     0.009 A 
ATOM     24  C   UNL     1       1.041   2.769   6.167  1.00  0.00     0.009 A 
ATOM     25  C   UNL     1       1.569   5.360   7.114  1.00  0.00     0.021 A 
ATOM     26  C   UNL     1      -0.007   3.676   6.350  1.00  0.00     0.021 A 
ATOM     27  C   UNL     1       0.263   4.968   6.814  1.00  0.00     0.067 A 
BRANCH  27  28
ATOM     28  S   UNL     1      -1.043   6.172   6.914  1.00  0.00     0.175 S 
ATOM     29  C   UNL     1      -1.369   6.312   8.650  1.00  0.00     0.163 C 
ATOM     30  O   UNL     1      -0.496   7.431   6.446  1.00  0.00    -0.224 OA
ATOM     31  O   UNL     1      -2.216   5.597   6.282  1.00  0.00    -0.224 OA
ENDBRANCH  27  28
ENDBRANCH  10  22
ENDBRANCH   6   9
ENDBRANCH   4   5
ENDBRANCH   3   4
ENDBRANCH   2   3
ENDBRANCH   1   2
BRANCH   1  32
ATOM     32  C   UNL     1       8.396   0.981  10.243  1.00  0.00     0.021 C 
BRANCH  32  33
ATOM     33  C   UNL     1       7.892   0.210  11.459  1.00  0.00     0.116 C 
BRANCH  33  34
ATOM     34  N   UNL     1       8.810  -0.852  11.830  1.00  0.00    -0.352 N 
ATOM     35  C   UNL     1       9.437  -1.085  13.026  1.00  0.00     0.251 C 
ATOM     36  H   UNL     1       9.012  -1.501  11.117  1.00  0.00     0.163 HD
ATOM     37  O   UNL     1      10.377  -1.874  13.071  1.00  0.00    -0.269 OA
BRANCH  35  38
ATOM     38  C   UNL     1       8.989  -0.394  14.255  1.00  0.00     0.039 A 
ATOM     39  C   UNL     1       9.953   0.028  15.174  1.00  0.00     0.014 A 
ATOM     40  C   UNL     1       7.630  -0.206  14.531  1.00  0.00     0.014 A 
ATOM     41  C   UNL     1       9.555   0.658  16.354  1.00  0.00     0.010 A 
ATOM     42  C   UNL     1       7.239   0.492  15.672  1.00  0.00     0.010 A 
ATOM     43  C   UNL     1       8.196   0.914  16.605  1.00  0.00    -0.014 A 
BRANCH  43  44
ATOM     44  C   UNL     1       7.783   1.618  17.846  1.00  0.00     0.031 A 
ATOM     45  C   UNL     1       6.941   0.920  18.881  1.00  0.00     0.074 A 
ATOM     46  C   UNL     1       8.152   2.901  18.027  1.00  0.00     0.049 A 
ATOM     47  N   UNL     1       6.526   1.363  20.040  1.00  0.00    -0.248 NA
ATOM     48  C   UNL     1       6.483  -0.442  18.563  1.00  0.00     0.031 C 
ATOM     49  C   UNL     1       8.903   3.706  17.061  1.00  0.00     0.029 A 
ATOM     50  N   UNL     1       7.949   3.753  19.082  1.00  0.00    -0.354 N 
ATOM     51  C   UNL     1       5.754   0.343  20.584  1.00  0.00     0.074 A 
ATOM     52  C   UNL     1       5.710  -0.719  19.603  1.00  0.00     0.031 C 
ATOM     53  C   UNL     1       9.128   4.922  17.582  1.00  0.00     0.029 A 
ATOM     54  C   UNL     1       8.513   4.994  18.904  1.00  0.00     0.049 A 
ATOM     55  H   UNL     1       7.447   3.500  19.890  1.00  0.00     0.167 HD
ATOM     56  C   UNL     1       5.157   0.287  21.800  1.00  0.00     0.037 A 
ATOM     57  C   UNL     1       8.539   6.068  19.717  1.00  0.00     0.037 A 
ATOM     58  C   UNL     1       5.226   1.343  22.778  1.00  0.00     0.049 A 
ATOM     59  C   UNL     1       7.908   5.968  21.077  1.00  0.00     0.074 A 
ATOM     60  C   UNL     1       4.718   1.358  24.066  1.00  0.00     0.029 A 
ATOM     61  N   UNL     1       5.833   2.574  22.575  1.00  0.00    -0.354 N 
ATOM     62  N   UNL     1       7.257   4.961  21.612  1.00  0.00    -0.248 NA
ATOM     63  C   UNL     1       8.031   7.140  21.953  1.00  0.00     0.031 C 
ATOM     64  C   UNL     1       4.973   2.617  24.622  1.00  0.00     0.029 A 
ATOM     65  C   UNL     1       5.691   3.366  23.703  1.00  0.00     0.049 A 
ATOM     66  H   UNL     1       6.296   2.846  21.750  1.00  0.00     0.167 HD
ATOM     67  C   UNL     1       6.912   5.371  22.895  1.00  0.00     0.074 A 
ATOM     68  C   UNL     1       7.446   6.708  23.061  1.00  0.00     0.031 C 
ATOM     69  C   UNL     1       6.219   4.701  23.850  1.00  0.00     0.037 A 
BRANCH  56  70
ATOM     70  C   UNL     1       4.375  -0.955  22.138  1.00  0.00     0.058 A 
ATOM     71  C   UNL     1       5.002  -2.195  22.347  1.00  0.00     0.135 A 
ATOM     72  C   UNL     1       2.978  -0.900  22.283  1.00  0.00     0.135 A 
ATOM     73  F   UNL     1       6.332  -2.312  22.209  1.00  0.00    -0.206 F 
ATOM     74  C   UNL     1       4.272  -3.340  22.650  1.00  0.00     0.059 A 
ATOM     75  C   UNL     1       2.231  -2.026  22.617  1.00  0.00     0.059 A 
ATOM     76  F   UNL     1       2.324   0.257  22.097  1.00  0.00    -0.206 F 
ATOM     77  C   UNL     1       2.886  -3.246  22.782  1.00  0.00     0.060 A 
BRANCH  77  78
ATOM     78  S   UNL     1       1.952  -4.741  23.171  1.00  0.00     0.124 S 
ATOM     79  O   UNL     1       2.022  -5.465  21.904  1.00  0.00    -0.237 OA
ATOM     80  O   UNL     1       2.722  -5.313  24.270  1.00  0.00    -0.237 OA
ATOM     81  O   UNL     1       0.631  -4.234  23.530  1.00  0.00    -0.744 OA
ENDBRANCH  77  78
ENDBRANCH  56  70
BRANCH  57  82
ATOM     82  C   UNL     1       9.218   7.313  19.268  1.00  0.00     0.058 A 
ATOM     83  C   UNL     1      10.431   7.726  19.837  1.00  0.00     0.135 A 
ATOM     84  C   UNL     1       8.681   8.095  18.234  1.00  0.00     0.135 A 
ATOM     85  F   UNL     1      10.983   7.014  20.831  1.00  0.00    -0.206 F 
ATOM     86  C   UNL     1      11.084   8.877  19.406  1.00  0.00     0.059 A 
ATOM     87  C   UNL     1       9.328   9.234  17.767  1.00  0.00     0.059 A 
ATOM     88  F   UNL     1       7.532   7.731  17.642  1.00  0.00    -0.206 F 
ATOM     89  C   UNL     1      10.526   9.622  18.365  1.00  0.00     0.060 A 
BRANCH  89  90
ATOM     90  S   UNL     1      11.412  11.077  17.767  1.00  0.00     0.124 S 
ATOM     91  O   UNL     1      11.189  12.024  18.854  1.00  0.00    -0.237 OA
ATOM     92  O   UNL     1      12.774  10.570  17.630  1.00  0.00    -0.237 OA
ATOM     93  O   UNL     1      10.737  11.386  16.510  1.00  0.00    -0.744 OA
ENDBRANCH  89  90
ENDBRANCH  57  82
BRANCH  69  94
ATOM     94  C   UNL     1       6.022   5.398  25.169  1.00  0.00     0.058 A 
ATOM     95  C   UNL     1       5.174   6.510  25.301  1.00  0.00     0.135 A 
ATOM     96  C   UNL     1       6.683   4.940  26.320  1.00  0.00     0.135 A 
ATOM     97  F   UNL     1       4.519   6.990  24.232  1.00  0.00    -0.206 F 
ATOM     98  C   UNL     1       5.026   7.171  26.516  1.00  0.00     0.059 A 
ATOM     99  C   UNL     1       6.525   5.566  27.552  1.00  0.00     0.059 A 
ATOM    100  F   UNL     1       7.494   3.871  26.255  1.00  0.00    -0.206 F 
ATOM    101  C   UNL     1       5.711   6.694  27.635  1.00  0.00     0.060 A 
BRANCH 101 102
ATOM    102  S   UNL     1       5.521   7.567  29.204  1.00  0.00     0.124 S 
ATOM    103  O   UNL     1       6.330   8.759  28.975  1.00  0.00    -0.237 OA
ATOM    104  O   UNL     1       4.079   7.782  29.270  1.00  0.00    -0.237 OA
ATOM    105  O   UNL     1       6.054   6.624  30.183  1.00  0.00    -0.744 OA
ENDBRANCH 101 102
ENDBRANCH  69  94
ENDBRANCH  43  44
ENDBRANCH  35  38
ENDBRANCH  33  34
ENDBRANCH  32  33
ENDBRANCH   1  32
TORSDOF 20
