REMARK SMILES Cc1ccc(N2CCC[C@@H](Cn3cc(C(=O)NCCCCCCNC(=O)c4ccc(-c5c6nc(c(-c7c(F)cc(S(=O)(=O)[O-])cc7F)c7ccc([nH]7)c(-c7c(F)cc(S(=O)(=O)[O-])cc7F)c7nc(c(-c8c(F)cc(S(=O)(=O)[O-])cc8F)c8ccc5[nH]8)C=C7)C=C6)cc4)nn3)C2)nn1
REMARK SMILES IDX 20 1 19 2 18 3 17 4 15 5 16 6 14 8 12 9 13 10 94 11 93 12
REMARK SMILES IDX 11 13 10 14 6 15 7 16 95 17 8 18 9 19 5 20 1 21 2 22 3 23
REMARK SMILES IDX 97 24 4 25 96 26 21 27 22 28 23 29 24 30 25 31 26 33 27 34
REMARK SMILES IDX 28 35 92 36 29 37 91 38 30 39 31 40 32 41 85 42 33 43 90 44
REMARK SMILES IDX 84 45 86 46 34 47 89 48 83 49 82 50 35 52 69 53 48 54 68 55
REMARK SMILES IDX 49 56 52 57 67 58 87 59 50 60 51 61 66 63 88 64 53 65 36 66
REMARK SMILES IDX 37 67 46 68 38 69 39 70 45 71 47 72 40 73 41 74 42 75 43 76
REMARK SMILES IDX 44 77 70 78 71 79 80 80 72 81 73 82 79 83 81 84 74 85 75 86
REMARK SMILES IDX 76 87 77 88 78 89 54 90 55 91 64 92 56 93 57 94 63 95 65 96
REMARK SMILES IDX 58 97 59 98 60 99 61 100 62 101
REMARK H PARENT 17 7 24 32 86 51 52 62
REMARK Flexibility Score: inf
ROOT
ATOM      1  C   UNL     1      -2.617   4.951  -7.478  1.00  0.00     0.002 C 
ENDROOT
BRANCH   1   2
ATOM      2  C   UNL     1      -1.626   3.810  -7.731  1.00  0.00     0.021 C 
BRANCH   2   3
ATOM      3  C   UNL     1      -2.298   2.445  -7.833  1.00  0.00     0.116 C 
BRANCH   3   4
ATOM      4  N   UNL     1      -2.975   2.294  -9.106  1.00  0.00    -0.351 N 
ATOM      5  C   UNL     1      -2.752   1.450 -10.169  1.00  0.00     0.273 C 
ATOM      6  O   UNL     1      -3.565   1.491 -11.093  1.00  0.00    -0.267 OA
ATOM      7  H   UNL     1      -3.734   2.909  -9.233  1.00  0.00     0.163 HD
BRANCH   5   8
ATOM      8  C   UNL     1      -1.650   0.495 -10.149  1.00  0.00     0.170 A 
ATOM      9  N   UNL     1       0.027  -0.745  -9.602  1.00  0.00    -0.251 N 
ATOM     10  C   UNL     1      -0.421   0.539  -9.518  1.00  0.00     0.145 A 
ATOM     11  N   UNL     1      -0.690  -1.452 -10.487  1.00  0.00    -0.067 NA
ATOM     12  N   UNL     1      -1.742  -0.713 -10.810  1.00  0.00    -0.125 NA
BRANCH   9  13
ATOM     13  C   UNL     1       0.955  -1.414  -8.716  1.00  0.00     0.151 C 
BRANCH  13  14
ATOM     14  C   UNL     1       0.309  -1.980  -7.431  1.00  0.00     0.030 C 
ATOM     15  N   UNL     1      -0.713  -1.520  -5.293  1.00  0.00    -0.355 N 
ATOM     16  C   UNL     1      -1.891  -2.342  -5.493  1.00  0.00     0.118 C 
ATOM     17  C   UNL     1      -0.139  -0.871  -6.456  1.00  0.00     0.123 C 
ATOM     18  C   UNL     1      -1.506  -3.486  -6.426  1.00  0.00     0.022 C 
ATOM     19  C   UNL     1      -0.858  -2.958  -7.712  1.00  0.00     0.009 C 
BRANCH  15  20
ATOM     20  C   UNL     1      -0.342  -1.122  -4.029  1.00  0.00     0.151 A 
ATOM     21  C   UNL     1       1.046   0.132  -0.225  1.00  0.00     0.069 C 
ATOM     22  C   UNL     1       0.529  -0.344  -1.544  1.00  0.00     0.060 A 
ATOM     23  C   UNL     1       0.492  -1.693  -1.845  1.00  0.00     0.029 A 
ATOM     24  N   UNL     1       0.157   0.580  -2.454  1.00  0.00    -0.154 NA
ATOM     25  C   UNL     1       0.029  -2.081  -3.096  1.00  0.00     0.051 A 
ATOM     26  N   UNL     1      -0.260   0.185  -3.709  1.00  0.00    -0.133 NA
ENDBRANCH  15  20
ENDBRANCH  13  14
ENDBRANCH   9  13
ENDBRANCH   5   8
ENDBRANCH   3   4
ENDBRANCH   2   3
ENDBRANCH   1   2
BRANCH   1  27
ATOM     27  C   UNL     1      -3.491   4.789  -6.224  1.00  0.00     0.002 C 
BRANCH  27  28
ATOM     28  C   UNL     1      -2.731   4.534  -4.913  1.00  0.00     0.021 C 
BRANCH  28  29
ATOM     29  C   UNL     1      -1.901   5.729  -4.471  1.00  0.00     0.116 C 
BRANCH  29  30
ATOM     30  N   UNL     1      -2.755   6.851  -4.098  1.00  0.00    -0.352 N 
ATOM     31  C   UNL     1      -2.396   8.050  -3.525  1.00  0.00     0.251 C 
ATOM     32  H   UNL     1      -3.715   6.735  -4.279  1.00  0.00     0.163 HD
ATOM     33  O   UNL     1      -3.227   8.730  -2.945  1.00  0.00    -0.269 OA
BRANCH  31  34
ATOM     34  C   UNL     1      -1.001   8.510  -3.646  1.00  0.00     0.039 A 
ATOM     35  C   UNL     1      -0.389   9.193  -2.589  1.00  0.00     0.014 A 
ATOM     36  C   UNL     1      -0.326   8.302  -4.850  1.00  0.00     0.014 A 
ATOM     37  C   UNL     1       0.921   9.633  -2.741  1.00  0.00     0.010 A 
ATOM     38  C   UNL     1       0.998   8.642  -4.964  1.00  0.00     0.010 A 
ATOM     39  C   UNL     1       1.602   9.353  -3.934  1.00  0.00    -0.014 A 
BRANCH  39  40
ATOM     40  C   UNL     1       3.006   9.703  -4.087  1.00  0.00     0.031 A 
ATOM     41  C   UNL     1       3.908   8.951  -3.173  1.00  0.00     0.074 A 
ATOM     42  C   UNL     1       3.448  10.444  -5.126  1.00  0.00     0.049 A 
ATOM     43  N   UNL     1       4.575   9.400  -2.162  1.00  0.00    -0.248 NA
ATOM     44  C   UNL     1       3.939   7.481  -3.291  1.00  0.00     0.031 C 
ATOM     45  C   UNL     1       2.672  10.938  -6.273  1.00  0.00     0.029 A 
ATOM     46  N   UNL     1       4.714  10.826  -5.439  1.00  0.00    -0.354 N 
ATOM     47  C   UNL     1       5.308   8.316  -1.682  1.00  0.00     0.074 A 
ATOM     48  C   UNL     1       4.713   7.141  -2.258  1.00  0.00     0.031 C 
ATOM     49  C   UNL     1       3.514  11.348  -7.249  1.00  0.00     0.029 A 
ATOM     50  C   UNL     1       4.872  11.306  -6.739  1.00  0.00     0.049 A 
ATOM     51  H   UNL     1       5.460  10.770  -4.800  1.00  0.00     0.167 HD
ATOM     52  C   UNL     1       6.523   8.494  -1.092  1.00  0.00     0.037 A 
ATOM     53  C   UNL     1       6.047  11.620  -7.341  1.00  0.00     0.037 A 
ATOM     54  C   UNL     1       6.737   9.883  -0.781  1.00  0.00     0.049 A 
ATOM     55  C   UNL     1       7.024  11.851  -6.249  1.00  0.00     0.074 A 
ATOM     56  C   UNL     1       6.210  10.798   0.104  1.00  0.00     0.029 A 
ATOM     57  N   UNL     1       7.357  10.593  -1.777  1.00  0.00    -0.354 N 
ATOM     58  N   UNL     1       6.931  12.824  -5.384  1.00  0.00    -0.248 NA
ATOM     59  C   UNL     1       7.926  10.770  -5.878  1.00  0.00     0.031 C 
ATOM     60  C   UNL     1       6.277  12.059  -0.560  1.00  0.00     0.029 A 
ATOM     61  C   UNL     1       6.894  11.881  -1.800  1.00  0.00     0.049 A 
ATOM     62  H   UNL     1       8.037  10.228  -2.388  1.00  0.00     0.167 HD
ATOM     63  C   UNL     1       7.417  12.290  -4.204  1.00  0.00     0.074 A 
ATOM     64  C   UNL     1       8.157  11.098  -4.604  1.00  0.00     0.031 C 
ATOM     65  C   UNL     1       6.920  12.696  -2.999  1.00  0.00     0.037 A 
BRANCH  52  66
ATOM     66  C   UNL     1       7.688   7.531  -1.215  1.00  0.00     0.058 A 
ATOM     67  C   UNL     1       8.841   7.731  -0.426  1.00  0.00     0.135 A 
ATOM     68  C   UNL     1       7.833   6.598  -2.267  1.00  0.00     0.135 A 
ATOM     69  F   UNL     1       8.833   8.620   0.581  1.00  0.00    -0.206 F 
ATOM     70  C   UNL     1      10.050   7.079  -0.684  1.00  0.00     0.059 A 
ATOM     71  C   UNL     1       9.011   5.898  -2.507  1.00  0.00     0.059 A 
ATOM     72  F   UNL     1       6.874   6.392  -3.177  1.00  0.00    -0.206 F 
ATOM     73  C   UNL     1      10.124   6.164  -1.730  1.00  0.00     0.060 A 
BRANCH  73  74
ATOM     74  S   UNL     1      11.693   5.357  -2.098  1.00  0.00     0.124 S 
ATOM     75  O   UNL     1      12.499   6.477  -2.565  1.00  0.00    -0.237 OA
ATOM     76  O   UNL     1      12.057   4.803  -0.797  1.00  0.00    -0.237 OA
ATOM     77  O   UNL     1      11.332   4.370  -3.111  1.00  0.00    -0.744 OA
ENDBRANCH  73  74
ENDBRANCH  52  66
BRANCH  53  78
ATOM     78  C   UNL     1       6.490  11.385  -8.744  1.00  0.00     0.058 A 
ATOM     79  C   UNL     1       7.714  11.915  -9.198  1.00  0.00     0.135 A 
ATOM     80  C   UNL     1       5.922  10.369  -9.535  1.00  0.00     0.135 A 
ATOM     81  F   UNL     1       8.322  12.893  -8.511  1.00  0.00    -0.206 F 
ATOM     82  C   UNL     1       8.391  11.392 -10.305  1.00  0.00     0.059 A 
ATOM     83  C   UNL     1       6.575   9.837 -10.650  1.00  0.00     0.059 A 
ATOM     84  F   UNL     1       4.764   9.788  -9.188  1.00  0.00    -0.206 F 
ATOM     85  C   UNL     1       7.830  10.324 -11.002  1.00  0.00     0.060 A 
BRANCH  85  86
ATOM     86  S   UNL     1       8.811   9.488 -12.272  1.00  0.00     0.124 S 
ATOM     87  O   UNL     1       8.902  10.511 -13.307  1.00  0.00    -0.237 OA
ATOM     88  O   UNL     1      10.048   9.193 -11.556  1.00  0.00    -0.237 OA
ATOM     89  O   UNL     1       8.000   8.323 -12.614  1.00  0.00    -0.744 OA
ENDBRANCH  85  86
ENDBRANCH  53  78
BRANCH  65  90
ATOM     90  C   UNL     1       6.216  14.026  -2.946  1.00  0.00     0.058 A 
ATOM     91  C   UNL     1       4.977  14.316  -3.545  1.00  0.00     0.135 A 
ATOM     92  C   UNL     1       6.790  15.024  -2.146  1.00  0.00     0.135 A 
ATOM     93  F   UNL     1       4.323  13.391  -4.262  1.00  0.00    -0.206 F 
ATOM     94  C   UNL     1       4.353  15.555  -3.375  1.00  0.00     0.059 A 
ATOM     95  C   UNL     1       6.172  16.252  -1.937  1.00  0.00     0.059 A 
ATOM     96  F   UNL     1       7.950  14.791  -1.511  1.00  0.00    -0.206 F 
ATOM     97  C   UNL     1       4.957  16.515  -2.563  1.00  0.00     0.060 A 
BRANCH  97  98
ATOM     98  S   UNL     1       4.120  18.091  -2.283  1.00  0.00     0.124 S 
ATOM     99  O   UNL     1       4.186  18.715  -3.600  1.00  0.00    -0.237 OA
ATOM    100  O   UNL     1       2.792  17.670  -1.846  1.00  0.00    -0.237 OA
ATOM    101  O   UNL     1       4.932  18.731  -1.250  1.00  0.00    -0.744 OA
ENDBRANCH  97  98
ENDBRANCH  65  90
ENDBRANCH  39  40
ENDBRANCH  31  34
ENDBRANCH  29  30
ENDBRANCH  28  29
ENDBRANCH  27  28
ENDBRANCH   1  27
TORSDOF 19
