REMARK SMILES Cc1cc(-c2ccc(/C=C/C(=O)NCCCCCCNC(=O)c3ccc(-c4c5nc(c(-c6c(F)cc(S(=O)(=O)[O-])cc6F)c6ccc([nH]6)c(-c6c(F)cc(S(=O)(=O)[O-])cc6F)c6nc(c(-c7c(F)cc(S(=O)(=O)[O-])cc7F)c7ccc4[nH]7)C=C6)C=C5)cc3)o2)c(C)cc1Br
REMARK SMILES IDX 17 1 16 2 15 3 14 4 13 5 11 6 12 7 10 9 9 10 8 11 5 12 6 13
REMARK SMILES IDX 89 14 7 15 4 16 1 17 2 18 3 19 93 20 92 21 94 22 90 23 91 24
REMARK SMILES IDX 18 25 19 26 20 27 21 28 22 30 23 31 24 32 88 33 25 34 87 35
REMARK SMILES IDX 26 36 27 37 28 38 81 39 29 40 86 41 80 42 82 43 30 44 85 45
REMARK SMILES IDX 79 46 78 47 31 49 65 50 44 51 64 52 45 53 48 54 63 55 83 56
REMARK SMILES IDX 46 57 47 58 62 60 84 61 49 62 32 63 33 64 42 65 34 66 35 67
REMARK SMILES IDX 41 68 43 69 36 70 37 71 38 72 39 73 40 74 66 75 67 76 76 77
REMARK SMILES IDX 68 78 69 79 75 80 77 81 70 82 71 83 72 84 73 85 74 86 50 87
REMARK SMILES IDX 51 88 60 89 52 90 53 91 59 92 61 93 54 94 55 95 56 96 57 97
REMARK SMILES IDX 58 98
REMARK H PARENT 13 8 20 29 82 48 48 59
REMARK Flexibility Score: inf
ROOT
ATOM      1  C   UNL     1       6.127 -12.799   1.986  1.00  0.00     0.002 C 
ENDROOT
BRANCH   1   2
ATOM      2  C   UNL     1       4.968 -12.578   1.004  1.00  0.00     0.002 C 
BRANCH   2   3
ATOM      3  C   UNL     1       4.223 -11.245   1.162  1.00  0.00     0.021 C 
BRANCH   3   4
ATOM      4  C   UNL     1       5.101 -10.020   0.902  1.00  0.00     0.116 C 
BRANCH   4   5
ATOM      5  N   UNL     1       5.242  -9.790  -0.525  1.00  0.00    -0.353 N 
ATOM      6  C   UNL     1       4.744  -8.818  -1.332  1.00  0.00     0.244 C 
ATOM      7  O   UNL     1       5.068  -8.800  -2.518  1.00  0.00    -0.270 OA
ATOM      8  H   UNL     1       5.797 -10.458  -0.990  1.00  0.00     0.163 HD
BRANCH   6   9
ATOM      9  C   UNL     1       3.898  -7.728  -0.802  1.00  0.00     0.075 C 
ATOM     10  C   UNL     1       2.917  -7.863   0.100  1.00  0.00     0.053 C 
BRANCH  10  11
ATOM     11  C   UNL     1       2.190  -6.724   0.531  1.00  0.00     0.127 A 
ATOM     12  C   UNL     1       1.137  -4.772   0.413  1.00  0.00     0.135 A 
ATOM     13  C   UNL     1       1.025  -5.184   1.720  1.00  0.00     0.051 A 
ATOM     14  O   UNL     1       1.873  -5.671  -0.293  1.00  0.00    -0.457 OA
ATOM     15  C   UNL     1       1.669  -6.444   1.788  1.00  0.00     0.051 A 
BRANCH  12  16
ATOM     16  C   UNL     1       0.647  -3.628  -0.340  1.00  0.00     0.020 A 
ATOM     17  C   UNL     1       0.826   0.152   0.042  1.00  0.00     0.045 C 
ATOM     18  C   UNL     1       0.465  -1.183  -0.546  1.00  0.00    -0.036 A 
ATOM     19  C   UNL     1       0.915  -2.332   0.133  1.00  0.00     0.016 A 
ATOM     20  C   UNL     1      -0.284  -1.357  -1.716  1.00  0.00     0.021 A 
ATOM     21  C   UNL     1      -0.561  -2.643  -2.196  1.00  0.00     0.020 A 
ATOM     22  Br  UNL     1      -0.978   0.097  -2.724  1.00  0.00    -0.051 Br
ATOM     23  C   UNL     1      -0.107  -3.786  -1.519  1.00  0.00    -0.039 A 
ATOM     24  C   UNL     1      -0.431  -5.144  -2.083  1.00  0.00     0.045 C 
ENDBRANCH  12  16
ENDBRANCH  10  11
ENDBRANCH   6   9
ENDBRANCH   4   5
ENDBRANCH   3   4
ENDBRANCH   2   3
ENDBRANCH   1   2
BRANCH   1  25
ATOM     25  C   UNL     1       5.773 -12.618   3.463  1.00  0.00     0.021 C 
BRANCH  25  26
ATOM     26  C   UNL     1       4.695 -13.565   3.977  1.00  0.00     0.116 C 
BRANCH  26  27
ATOM     27  N   UNL     1       5.142 -14.949   4.002  1.00  0.00    -0.352 N 
ATOM     28  C   UNL     1       5.118 -15.852   5.042  1.00  0.00     0.251 C 
ATOM     29  H   UNL     1       5.515 -15.289   3.156  1.00  0.00     0.163 HD
ATOM     30  O   UNL     1       5.702 -16.922   4.942  1.00  0.00    -0.269 OA
BRANCH  28  31
ATOM     31  C   UNL     1       4.402 -15.504   6.291  1.00  0.00     0.039 A 
ATOM     32  C   UNL     1       3.134 -14.924   6.240  1.00  0.00     0.014 A 
ATOM     33  C   UNL     1       5.017 -15.741   7.524  1.00  0.00     0.014 A 
ATOM     34  C   UNL     1       2.555 -14.432   7.404  1.00  0.00     0.010 A 
ATOM     35  C   UNL     1       4.391 -15.323   8.704  1.00  0.00     0.010 A 
ATOM     36  C   UNL     1       3.177 -14.622   8.650  1.00  0.00    -0.014 A 
BRANCH  36  37
ATOM     37  C   UNL     1       2.527 -14.070   9.870  1.00  0.00     0.031 A 
ATOM     38  C   UNL     1       3.178 -12.966  10.661  1.00  0.00     0.074 A 
ATOM     39  C   UNL     1       1.300 -14.511  10.210  1.00  0.00     0.049 A 
ATOM     40  N   UNL     1       2.710 -12.308  11.692  1.00  0.00    -0.248 NA
ATOM     41  C   UNL     1       4.527 -12.544  10.249  1.00  0.00     0.031 C 
ATOM     42  C   UNL     1       0.569 -15.576   9.518  1.00  0.00     0.029 A 
ATOM     43  N   UNL     1       0.432 -14.098  11.189  1.00  0.00    -0.354 N 
ATOM     44  C   UNL     1       3.703 -11.406  12.055  1.00  0.00     0.074 A 
ATOM     45  C   UNL     1       4.817 -11.623  11.158  1.00  0.00     0.031 C 
ATOM     46  C   UNL     1      -0.660 -15.680  10.044  1.00  0.00     0.029 A 
ATOM     47  C   UNL     1      -0.786 -14.734  11.148  1.00  0.00     0.049 A 
ATOM     48  H   UNL     1       0.660 -13.411  11.857  1.00  0.00     0.167 HD
ATOM     49  C   UNL     1       3.680 -10.470  13.034  1.00  0.00     0.037 A 
ATOM     50  C   UNL     1      -1.886 -14.576  11.911  1.00  0.00     0.037 A 
ATOM     51  C   UNL     1       2.561 -10.243  13.910  1.00  0.00     0.049 A 
ATOM     52  C   UNL     1      -1.872 -13.555  13.012  1.00  0.00     0.074 A 
ATOM     53  C   UNL     1       2.439  -9.308  14.924  1.00  0.00     0.029 A 
ATOM     54  N   UNL     1       1.370 -10.954  13.878  1.00  0.00    -0.354 N 
ATOM     55  N   UNL     1      -0.926 -12.704  13.331  1.00  0.00    -0.248 NA
ATOM     56  C   UNL     1      -3.064 -13.480  13.867  1.00  0.00     0.031 C 
ATOM     57  C   UNL     1       1.190  -9.478  15.528  1.00  0.00     0.029 A 
ATOM     58  C   UNL     1       0.516 -10.491  14.864  1.00  0.00     0.049 A 
ATOM     59  H   UNL     1       1.163 -11.681  13.247  1.00  0.00     0.167 HD
ATOM     60  C   UNL     1      -1.413 -11.985  14.415  1.00  0.00     0.074 A 
ATOM     61  C   UNL     1      -2.743 -12.489  14.690  1.00  0.00     0.031 C 
ATOM     62  C   UNL     1      -0.808 -10.999  15.121  1.00  0.00     0.037 A 
BRANCH  49  63
ATOM     63  C   UNL     1       4.901  -9.610  13.214  1.00  0.00     0.058 A 
ATOM     64  C   UNL     1       5.218  -8.588  12.306  1.00  0.00     0.135 A 
ATOM     65  C   UNL     1       5.726  -9.764  14.341  1.00  0.00     0.135 A 
ATOM     66  F   UNL     1       4.472  -8.406  11.205  1.00  0.00    -0.206 F 
ATOM     67  C   UNL     1       6.320  -7.760  12.499  1.00  0.00     0.059 A 
ATOM     68  C   UNL     1       6.820  -8.933  14.566  1.00  0.00     0.059 A 
ATOM     69  F   UNL     1       5.467 -10.726  15.241  1.00  0.00    -0.206 F 
ATOM     70  C   UNL     1       7.114  -7.939  13.633  1.00  0.00     0.060 A 
BRANCH  70  71
ATOM     71  S   UNL     1       8.531  -6.846  13.871  1.00  0.00     0.124 S 
ATOM     72  O   UNL     1       9.439  -7.318  12.830  1.00  0.00    -0.237 OA
ATOM     73  O   UNL     1       7.947  -5.527  13.650  1.00  0.00    -0.237 OA
ATOM     74  O   UNL     1       8.950  -7.123  15.241  1.00  0.00    -0.744 OA
ENDBRANCH  70  71
ENDBRANCH  49  63
BRANCH  50  75
ATOM     75  C   UNL     1      -3.093 -15.399  11.639  1.00  0.00     0.058 A 
ATOM     76  C   UNL     1      -4.248 -14.825  11.091  1.00  0.00     0.135 A 
ATOM     77  C   UNL     1      -3.099 -16.783  11.879  1.00  0.00     0.135 A 
ATOM     78  F   UNL     1      -4.292 -13.506  10.849  1.00  0.00    -0.206 F 
ATOM     79  C   UNL     1      -5.368 -15.592  10.788  1.00  0.00     0.059 A 
ATOM     80  C   UNL     1      -4.197 -17.574  11.562  1.00  0.00     0.059 A 
ATOM     81  F   UNL     1      -2.012 -17.381  12.390  1.00  0.00    -0.206 F 
ATOM     82  C   UNL     1      -5.330 -16.968  11.021  1.00  0.00     0.060 A 
BRANCH  82  83
ATOM     83  S   UNL     1      -6.764 -17.964  10.560  1.00  0.00     0.124 S 
ATOM     84  O   UNL     1      -7.725 -17.589  11.591  1.00  0.00    -0.237 OA
ATOM     85  O   UNL     1      -7.051 -17.481   9.213  1.00  0.00    -0.237 OA
ATOM     86  O   UNL     1      -6.260 -19.332  10.633  1.00  0.00    -0.744 OA
ENDBRANCH  82  83
ENDBRANCH  50  75
BRANCH  62  87
ATOM     87  C   UNL     1      -1.573 -10.383  16.257  1.00  0.00     0.058 A 
ATOM     88  C   UNL     1      -1.709 -11.045  17.486  1.00  0.00     0.135 A 
ATOM     89  C   UNL     1      -2.079  -9.078  16.150  1.00  0.00     0.135 A 
ATOM     90  F   UNL     1      -1.250 -12.297  17.635  1.00  0.00    -0.206 F 
ATOM     91  C   UNL     1      -2.318 -10.430  18.575  1.00  0.00     0.059 A 
ATOM     92  C   UNL     1      -2.673  -8.437  17.232  1.00  0.00     0.059 A 
ATOM     93  F   UNL     1      -1.967  -8.403  14.995  1.00  0.00    -0.206 F 
ATOM     94  C   UNL     1      -2.787  -9.121  18.441  1.00  0.00     0.060 A 
BRANCH  94  95
ATOM     95  S   UNL     1      -3.500  -8.309  19.887  1.00  0.00     0.124 S 
ATOM     96  O   UNL     1      -4.774  -9.009  20.020  1.00  0.00    -0.237 OA
ATOM     97  O   UNL     1      -2.511  -8.592  20.922  1.00  0.00    -0.237 OA
ATOM     98  O   UNL     1      -3.592  -6.910  19.482  1.00  0.00    -0.744 OA
ENDBRANCH  94  95
ENDBRANCH  62  87
ENDBRANCH  36  37
ENDBRANCH  28  31
ENDBRANCH  26  27
ENDBRANCH  25  26
ENDBRANCH   1  25
TORSDOF 18
