REMARK SMILES C/C(=N/N=c1\[nH]c(O)c(C(=O)NCCCCCCNC(=O)c2ccc(-c3c4nc(c(-c5c(F)cc(S(=O)(=O)[O-])cc5F)c5ccc([nH]5)c(-c5c(F)cc(S(=O)(=O)[O-])cc5F)c5nc(c(-c6c(F)cc(S(=O)(=O)[O-])cc6F)c6ccc3[nH]6)C=C5)C=C4)cc2)s1)c1ccc2c(c1)OCO2
REMARK SMILES IDX 16 1 15 2 14 3 13 4 12 5 10 6 11 7 9 9 4 10 5 11 6 12 88 13
REMARK SMILES IDX 7 14 3 16 1 17 2 18 89 19 90 20 94 21 91 22 93 23 92 24
REMARK SMILES IDX 95 25 97 26 96 27 8 28 17 30 18 31 19 32 20 33 21 35 22 36
REMARK SMILES IDX 23 37 87 38 24 39 86 40 25 41 26 42 27 43 80 44 28 45 85 46
REMARK SMILES IDX 79 47 81 48 29 49 84 50 78 51 77 52 30 54 64 55 43 56 63 57
REMARK SMILES IDX 44 58 47 59 62 60 82 61 45 62 46 63 61 65 83 66 48 67 31 68
REMARK SMILES IDX 32 69 41 70 33 71 34 72 40 73 42 74 35 75 36 76 37 77 38 78
REMARK SMILES IDX 39 79 65 80 66 81 75 82 67 83 68 84 74 85 76 86 69 87 70 88
REMARK SMILES IDX 71 89 72 90 73 91 49 92 50 93 59 94 51 95 52 96 58 97 60 98
REMARK SMILES IDX 53 99 54 100 55 101 56 102 57 103
REMARK H PARENT 12 8 6 15 8 29 19 34 81 53 47 64
REMARK Flexibility Score: inf
ROOT
ATOM      1  C   UNL     1      -3.976 -10.202  -1.500  1.00  0.00     0.002 C 
ENDROOT
BRANCH   1   2
ATOM      2  C   UNL     1      -3.002 -10.030  -0.324  1.00  0.00     0.002 C 
BRANCH   2   3
ATOM      3  C   UNL     1      -2.339  -8.650  -0.214  1.00  0.00     0.021 C 
BRANCH   3   4
ATOM      4  C   UNL     1      -3.345  -7.502  -0.095  1.00  0.00     0.116 C 
BRANCH   4   5
ATOM      5  N   UNL     1      -3.872  -7.404   1.258  1.00  0.00    -0.351 N 
ATOM      6  C   UNL     1      -3.630  -6.542   2.291  1.00  0.00     0.266 C 
ATOM      7  O   UNL     1      -4.282  -6.717   3.322  1.00  0.00    -0.268 OA
ATOM      8  H   UNL     1      -4.536  -8.098   1.472  1.00  0.00     0.163 HD
BRANCH   6   9
ATOM      9  C   UNL     1      -2.673  -5.412   2.176  1.00  0.00     0.155 A 
ATOM     10  N   UNL     1      -0.282  -3.080   0.551  1.00  0.00    -0.121 NA
ATOM     11  C   UNL     1      -1.028  -3.711   1.382  1.00  0.00     0.211 A 
ATOM     12  N   UNL     1      -1.818  -3.306   2.423  1.00  0.00    -0.300 N 
ATOM     13  S   UNL     1      -1.247  -5.452   1.160  1.00  0.00    -0.086 S 
ATOM     14  C   UNL     1      -2.750  -4.231   2.827  1.00  0.00     0.214 A 
ATOM     15  H   UNL     1      -1.726  -2.423   2.849  1.00  0.00     0.172 HD
BRANCH  10  16
ATOM     16  N   UNL     1      -0.207  -1.708   0.761  1.00  0.00    -0.152 NA
ATOM     17  C   UNL     1       0.849   0.331  -0.038  1.00  0.00     0.069 C 
ATOM     18  C   UNL     1       0.514  -1.134  -0.160  1.00  0.00     0.067 C 
BRANCH  18  19
ATOM     19  C   UNL     1       1.067  -1.809  -1.360  1.00  0.00     0.001 A 
ATOM     20  C   UNL     1       0.211  -2.155  -2.428  1.00  0.00     0.014 A 
ATOM     21  C   UNL     1       2.447  -1.996  -1.440  1.00  0.00     0.060 A 
ATOM     22  C   UNL     1       0.749  -2.656  -3.618  1.00  0.00     0.051 A 
ATOM     23  C   UNL     1       2.942  -2.456  -2.636  1.00  0.00     0.166 A 
ATOM     24  C   UNL     1       2.122  -2.764  -3.699  1.00  0.00     0.165 A 
ATOM     25  O   UNL     1       4.259  -2.603  -2.938  1.00  0.00    -0.454 OA
ATOM     26  O   UNL     1       2.831  -3.132  -4.801  1.00  0.00    -0.454 OA
ATOM     27  C   UNL     1       4.177  -2.840  -4.358  1.00  0.00     0.468 C 
ENDBRANCH  18  19
ENDBRANCH  10  16
BRANCH  14  28
ATOM     28  O   UNL     1      -3.684  -3.873   3.750  1.00  0.00    -0.493 OA
ATOM     29  H   UNL     1      -3.651  -3.025   4.146  1.00  0.00     0.295 HD
ENDBRANCH  14  28
ENDBRANCH   6   9
ENDBRANCH   4   5
ENDBRANCH   3   4
ENDBRANCH   2   3
ENDBRANCH   1   2
BRANCH   1  30
ATOM     30  C   UNL     1      -3.434  -9.813  -2.884  1.00  0.00     0.021 C 
BRANCH  30  31
ATOM     31  C   UNL     1      -2.302 -10.707  -3.371  1.00  0.00     0.116 C 
BRANCH  31  32
ATOM     32  N   UNL     1      -2.762 -12.069  -3.622  1.00  0.00    -0.352 N 
ATOM     33  C   UNL     1      -2.027 -13.172  -4.002  1.00  0.00     0.251 C 
ATOM     34  H   UNL     1      -3.727 -12.221  -3.503  1.00  0.00     0.163 HD
ATOM     35  O   UNL     1      -2.578 -14.119  -4.541  1.00  0.00    -0.269 OA
BRANCH  33  36
ATOM     36  C   UNL     1      -0.571 -13.189  -3.758  1.00  0.00     0.039 A 
ATOM     37  C   UNL     1       0.291 -13.725  -4.716  1.00  0.00     0.014 A 
ATOM     38  C   UNL     1      -0.068 -12.667  -2.565  1.00  0.00     0.014 A 
ATOM     39  C   UNL     1       1.665 -13.648  -4.502  1.00  0.00     0.010 A 
ATOM     40  C   UNL     1       1.290 -12.492  -2.403  1.00  0.00     0.010 A 
ATOM     41  C   UNL     1       2.165 -12.996  -3.359  1.00  0.00    -0.014 A 
BRANCH  41  42
ATOM     42  C   UNL     1       3.591 -12.661  -3.285  1.00  0.00     0.031 A 
ATOM     43  C   UNL     1       4.064 -11.937  -4.496  1.00  0.00     0.074 A 
ATOM     44  C   UNL     1       4.373 -12.788  -2.188  1.00  0.00     0.049 A 
ATOM     45  N   UNL     1       4.764 -12.419  -5.469  1.00  0.00    -0.248 NA
ATOM     46  C   UNL     1       3.532 -10.589  -4.768  1.00  0.00     0.031 C 
ATOM     47  C   UNL     1       3.948 -13.181  -0.840  1.00  0.00     0.029 A 
ATOM     48  N   UNL     1       5.701 -12.505  -2.010  1.00  0.00    -0.354 N 
ATOM     49  C   UNL     1       5.031 -11.334  -6.299  1.00  0.00     0.074 A 
ATOM     50  C   UNL     1       4.051 -10.336  -5.973  1.00  0.00     0.031 C 
ATOM     51  C   UNL     1       4.923 -12.889   0.051  1.00  0.00     0.029 A 
ATOM     52  C   UNL     1       6.107 -12.465  -0.674  1.00  0.00     0.049 A 
ATOM     53  H   UNL     1       6.318 -12.343  -2.760  1.00  0.00     0.167 HD
ATOM     54  C   UNL     1       6.254 -11.225  -6.891  1.00  0.00     0.037 A 
ATOM     55  C   UNL     1       7.331 -12.138  -0.183  1.00  0.00     0.037 A 
ATOM     56  C   UNL     1       6.973 -12.470  -6.783  1.00  0.00     0.049 A 
ATOM     57  C   UNL     1       8.313 -12.364  -1.266  1.00  0.00     0.074 A 
ATOM     58  C   UNL     1       6.924 -13.723  -7.354  1.00  0.00     0.029 A 
ATOM     59  N   UNL     1       7.689 -12.578  -5.622  1.00  0.00    -0.354 N 
ATOM     60  N   UNL     1       8.599 -13.547  -1.736  1.00  0.00    -0.248 NA
ATOM     61  C   UNL     1       8.751 -11.240  -2.087  1.00  0.00     0.031 C 
ATOM     62  C   UNL     1       7.541 -14.612  -6.423  1.00  0.00     0.029 A 
ATOM     63  C   UNL     1       7.994 -13.877  -5.331  1.00  0.00     0.049 A 
ATOM     64  H   UNL     1       7.952 -11.811  -5.064  1.00  0.00     0.167 HD
ATOM     65  C   UNL     1       8.837 -13.326  -3.075  1.00  0.00     0.074 A 
ATOM     66  C   UNL     1       9.098 -11.898  -3.196  1.00  0.00     0.031 C 
ATOM     67  C   UNL     1       8.451 -14.241  -4.009  1.00  0.00     0.037 A 
BRANCH  54  68
ATOM     68  C   UNL     1       7.026  -9.925  -7.066  1.00  0.00     0.058 A 
ATOM     69  C   UNL     1       8.269  -9.961  -7.740  1.00  0.00     0.135 A 
ATOM     70  C   UNL     1       6.772  -8.737  -6.345  1.00  0.00     0.135 A 
ATOM     71  F   UNL     1       8.626 -11.040  -8.455  1.00  0.00    -0.206 F 
ATOM     72  C   UNL     1       9.209  -8.932  -7.645  1.00  0.00     0.059 A 
ATOM     73  C   UNL     1       7.674  -7.681  -6.276  1.00  0.00     0.059 A 
ATOM     74  F   UNL     1       5.681  -8.568  -5.591  1.00  0.00    -0.206 F 
ATOM     75  C   UNL     1       8.904  -7.799  -6.899  1.00  0.00     0.060 A 
BRANCH  75  76
ATOM     76  S   UNL     1      10.128  -6.490  -6.721  1.00  0.00     0.124 S 
ATOM     77  O   UNL     1      11.128  -7.136  -5.881  1.00  0.00    -0.237 OA
ATOM     78  O   UNL     1      10.512  -6.246  -8.107  1.00  0.00    -0.237 OA
ATOM     79  O   UNL     1       9.371  -5.411  -6.090  1.00  0.00    -0.744 OA
ENDBRANCH  75  76
ENDBRANCH  54  68
BRANCH  55  80
ATOM     80  C   UNL     1       7.728 -11.509   1.104  1.00  0.00     0.058 A 
ATOM     81  C   UNL     1       9.052 -11.578   1.580  1.00  0.00     0.135 A 
ATOM     82  C   UNL     1       6.891 -10.569   1.734  1.00  0.00     0.135 A 
ATOM     83  F   UNL     1       9.923 -12.438   1.032  1.00  0.00    -0.206 F 
ATOM     84  C   UNL     1       9.536 -10.721   2.575  1.00  0.00     0.059 A 
ATOM     85  C   UNL     1       7.350  -9.705   2.731  1.00  0.00     0.059 A 
ATOM     86  F   UNL     1       5.623 -10.401   1.325  1.00  0.00    -0.206 F 
ATOM     87  C   UNL     1       8.683  -9.767   3.127  1.00  0.00     0.060 A 
BRANCH  87  88
ATOM     88  S   UNL     1       9.355  -8.537   4.273  1.00  0.00     0.124 S 
ATOM     89  O   UNL     1       9.647  -9.347   5.451  1.00  0.00    -0.237 OA
ATOM     90  O   UNL     1      10.514  -8.034   3.544  1.00  0.00    -0.237 OA
ATOM     91  O   UNL     1       8.259  -7.584   4.428  1.00  0.00    -0.744 OA
ENDBRANCH  87  88
ENDBRANCH  55  80
BRANCH  67  92
ATOM     92  C   UNL     1       8.393 -15.678  -3.599  1.00  0.00     0.058 A 
ATOM     93  C   UNL     1       7.471 -16.237  -2.700  1.00  0.00     0.135 A 
ATOM     94  C   UNL     1       9.298 -16.549  -4.225  1.00  0.00     0.135 A 
ATOM     95  F   UNL     1       6.530 -15.480  -2.115  1.00  0.00    -0.206 F 
ATOM     96  C   UNL     1       7.470 -17.605  -2.418  1.00  0.00     0.059 A 
ATOM     97  C   UNL     1       9.296 -17.915  -3.982  1.00  0.00     0.059 A 
ATOM     98  F   UNL     1      10.179 -16.073  -5.121  1.00  0.00    -0.206 F 
ATOM     99  C   UNL     1       8.386 -18.436  -3.067  1.00  0.00     0.060 A 
BRANCH  99 100
ATOM    100  S   UNL     1       8.348 -20.214  -2.758  1.00  0.00     0.124 S 
ATOM    101  O   UNL     1       8.856 -20.300  -1.393  1.00  0.00    -0.237 OA
ATOM    102  O   UNL     1       6.934 -20.535  -2.932  1.00  0.00    -0.237 OA
ATOM    103  O   UNL     1       9.231 -20.759  -3.787  1.00  0.00    -0.744 OA
ENDBRANCH  99 100
ENDBRANCH  67  92
ENDBRANCH  41  42
ENDBRANCH  33  36
ENDBRANCH  31  32
ENDBRANCH  30  31
ENDBRANCH   1  30
TORSDOF 19
