REMARK SMILES Cc1ccc([C@H](C)NC(=O)[C@H]2[C@@H]3CC[C@@H](C3)[C@@H]2C(=O)NCCCCCCNC(=O)c2ccc(-c3c4nc(c(-c5c(F)cc(S(=O)(=O)[O-])cc5F)c5ccc([nH]5)c(-c5c(F)cc(S(=O)(=O)[O-])cc5F)c5nc(c(-c6c(F)cc(S(=O)(=O)[O-])cc6F)c6ccc3[nH]6)C=C5)C=C4)cc2)cc1
REMARK SMILES IDX 23 1 22 2 21 3 20 4 18 5 19 6 17 8 11 9 12 10 13 11 16 12
REMARK SMILES IDX 15 13 14 14 9 15 8 16 10 18 6 19 7 20 5 21 1 22 2 23 3 24
REMARK SMILES IDX 97 25 4 26 96 27 24 28 25 29 26 30 27 31 28 32 29 34 30 35
REMARK SMILES IDX 31 36 95 37 32 38 94 39 33 40 34 41 35 42 88 43 36 44 93 45
REMARK SMILES IDX 87 46 89 47 37 48 92 49 86 50 85 51 38 53 72 54 51 55 71 56
REMARK SMILES IDX 52 57 55 58 70 59 90 60 53 61 54 62 69 64 91 65 56 66 39 67
REMARK SMILES IDX 40 68 49 69 41 70 42 71 48 72 50 73 43 74 44 75 45 76 46 77
REMARK SMILES IDX 47 78 73 79 74 80 83 81 75 82 76 83 82 84 84 85 77 86 78 87
REMARK SMILES IDX 79 88 80 89 81 90 57 91 58 92 67 93 59 94 60 95 66 96 68 97
REMARK SMILES IDX 61 98 62 99 63 100 64 101 65 102
REMARK H PARENT 20 7 8 17 27 33 89 52 55 63
REMARK Flexibility Score: inf
ROOT
ATOM      1  C   UNL     1      -9.930   0.276   1.715  1.00  0.00     0.002 C 
ENDROOT
BRANCH   1   2
ATOM      2  C   UNL     1      -8.417   0.245   1.987  1.00  0.00     0.021 C 
BRANCH   2   3
ATOM      3  C   UNL     1      -7.551   0.178   0.728  1.00  0.00     0.116 C 
BRANCH   3   4
ATOM      4  N   UNL     1      -7.531   1.451   0.034  1.00  0.00    -0.356 N 
ATOM      5  C   UNL     1      -6.574   2.398  -0.121  1.00  0.00     0.224 C 
ATOM      6  O   UNL     1      -6.874   3.368  -0.828  1.00  0.00    -0.275 OA
ATOM      7  H   UNL     1      -8.381   1.671  -0.413  1.00  0.00     0.163 HD
BRANCH   5   8
ATOM      8  C   UNL     1      -5.138   2.227   0.379  1.00  0.00     0.094 C 
ATOM      9  C   UNL     1      -4.865   1.679   1.785  1.00  0.00     0.094 C 
ATOM     10  C   UNL     1      -3.943   2.746   2.434  1.00  0.00     0.002 C 
ATOM     11  C   UNL     1      -4.806   3.972   2.788  1.00  0.00     0.005 C 
ATOM     12  C   UNL     1      -3.146   3.292   1.256  1.00  0.00     0.009 C 
ATOM     13  C   UNL     1      -4.399   3.604   0.437  1.00  0.00     0.002 C 
ATOM     14  C   UNL     1      -5.117   4.572   1.408  1.00  0.00     0.005 C 
BRANCH   9  15
ATOM     15  C   UNL     1      -4.290   0.269   1.947  1.00  0.00     0.224 C 
ATOM     16  N   UNL     1      -3.434  -0.373   1.123  1.00  0.00    -0.349 N 
ATOM     17  H   UNL     1      -3.234  -1.283   1.443  1.00  0.00     0.164 HD
ATOM     18  O   UNL     1      -4.605  -0.372   2.961  1.00  0.00    -0.275 OA
BRANCH  16  19
ATOM     19  C   UNL     1      -2.730  -0.068  -0.117  1.00  0.00     0.109 C 
ATOM     20  C   UNL     1      -1.240  -0.381   0.047  1.00  0.00     0.036 C 
BRANCH  19  21
ATOM     21  C   UNL     1      -3.313  -0.820  -1.303  1.00  0.00    -0.026 A 
ATOM     22  C   UNL     1      -4.775  -2.869  -4.826  1.00  0.00     0.044 C 
ATOM     23  C   UNL     1      -4.281  -2.170  -3.595  1.00  0.00    -0.051 A 
ATOM     24  C   UNL     1      -4.273  -0.774  -3.545  1.00  0.00     0.004 A 
ATOM     25  C   UNL     1      -3.826  -2.888  -2.485  1.00  0.00     0.004 A 
ATOM     26  C   UNL     1      -3.788  -0.108  -2.417  1.00  0.00     0.006 A 
ATOM     27  C   UNL     1      -3.351  -2.221  -1.350  1.00  0.00     0.006 A 
ENDBRANCH  19  21
ENDBRANCH  16  19
ENDBRANCH   9  15
ENDBRANCH   5   8
ENDBRANCH   3   4
ENDBRANCH   2   3
ENDBRANCH   1   2
BRANCH   1  28
ATOM     28  C   UNL     1     -10.510  -0.927   0.948  1.00  0.00     0.002 C 
BRANCH  28  29
ATOM     29  C   UNL     1     -10.124  -2.309   1.483  1.00  0.00     0.021 C 
BRANCH  29  30
ATOM     30  C   UNL     1     -10.643  -2.583   2.888  1.00  0.00     0.116 C 
BRANCH  30  31
ATOM     31  N   UNL     1     -11.842  -3.415   2.926  1.00  0.00    -0.352 N 
ATOM     32  C   UNL     1     -12.386  -3.997   4.044  1.00  0.00     0.251 C 
ATOM     33  H   UNL     1     -12.304  -3.573   2.071  1.00  0.00     0.163 HD
ATOM     34  O   UNL     1     -12.994  -5.053   4.020  1.00  0.00    -0.269 OA
BRANCH  32  35
ATOM     35  C   UNL     1     -12.361  -3.177   5.280  1.00  0.00     0.039 A 
ATOM     36  C   UNL     1     -13.566  -2.599   5.701  1.00  0.00     0.014 A 
ATOM     37  C   UNL     1     -11.147  -2.789   5.846  1.00  0.00     0.014 A 
ATOM     38  C   UNL     1     -13.544  -1.532   6.597  1.00  0.00     0.010 A 
ATOM     39  C   UNL     1     -11.125  -1.676   6.666  1.00  0.00     0.010 A 
ATOM     40  C   UNL     1     -12.315  -1.021   7.021  1.00  0.00    -0.014 A 
BRANCH  40  41
ATOM     41  C   UNL     1     -12.159   0.247   7.736  1.00  0.00     0.031 A 
ATOM     42  C   UNL     1     -11.711   0.285   9.154  1.00  0.00     0.074 A 
ATOM     43  C   UNL     1     -12.325   1.427   7.093  1.00  0.00     0.049 A 
ATOM     44  N   UNL     1     -11.952   1.266   9.965  1.00  0.00    -0.248 NA
ATOM     45  C   UNL     1     -10.975  -0.804   9.786  1.00  0.00     0.031 C 
ATOM     46  C   UNL     1     -11.849   2.729   7.548  1.00  0.00     0.029 A 
ATOM     47  N   UNL     1     -13.135   1.733   5.997  1.00  0.00    -0.354 N 
ATOM     48  C   UNL     1     -11.182   1.082  11.094  1.00  0.00     0.074 A 
ATOM     49  C   UNL     1     -10.644  -0.254  10.959  1.00  0.00     0.031 C 
ATOM     50  C   UNL     1     -12.590   3.685   6.972  1.00  0.00     0.029 A 
ATOM     51  C   UNL     1     -13.643   3.023   6.223  1.00  0.00     0.049 A 
ATOM     52  H   UNL     1     -13.316   1.157   5.220  1.00  0.00     0.167 HD
ATOM     53  C   UNL     1     -10.964   2.119  11.955  1.00  0.00     0.037 A 
ATOM     54  C   UNL     1     -14.960   3.377   6.236  1.00  0.00     0.037 A 
ATOM     55  C   UNL     1     -11.621   3.342  11.505  1.00  0.00     0.049 A 
ATOM     56  C   UNL     1     -15.377   4.124   7.481  1.00  0.00     0.074 A 
ATOM     57  C   UNL     1     -11.154   4.443  10.806  1.00  0.00     0.029 A 
ATOM     58  N   UNL     1     -13.003   3.458  11.549  1.00  0.00    -0.354 N 
ATOM     59  N   UNL     1     -14.656   4.172   8.564  1.00  0.00    -0.248 NA
ATOM     60  C   UNL     1     -16.649   4.824   7.636  1.00  0.00     0.031 C 
ATOM     61  C   UNL     1     -12.263   5.231  10.429  1.00  0.00     0.029 A 
ATOM     62  C   UNL     1     -13.406   4.604  10.891  1.00  0.00     0.049 A 
ATOM     63  H   UNL     1     -13.608   2.816  11.986  1.00  0.00     0.167 HD
ATOM     64  C   UNL     1     -15.337   4.841   9.550  1.00  0.00     0.074 A 
ATOM     65  C   UNL     1     -16.569   5.256   8.909  1.00  0.00     0.031 C 
ATOM     66  C   UNL     1     -14.813   4.966  10.806  1.00  0.00     0.037 A 
BRANCH  53  67
ATOM     67  C   UNL     1      -9.904   2.117  13.043  1.00  0.00     0.058 A 
ATOM     68  C   UNL     1      -9.247   3.311  13.423  1.00  0.00     0.135 A 
ATOM     69  C   UNL     1      -9.460   0.967  13.723  1.00  0.00     0.135 A 
ATOM     70  F   UNL     1      -9.639   4.509  12.970  1.00  0.00    -0.206 F 
ATOM     71  C   UNL     1      -8.149   3.339  14.282  1.00  0.00     0.059 A 
ATOM     72  C   UNL     1      -8.329   0.959  14.549  1.00  0.00     0.059 A 
ATOM     73  F   UNL     1     -10.136  -0.188  13.644  1.00  0.00    -0.206 F 
ATOM     74  C   UNL     1      -7.664   2.151  14.805  1.00  0.00     0.060 A 
BRANCH  74  75
ATOM     75  S   UNL     1      -6.163   2.195  15.801  1.00  0.00     0.124 S 
ATOM     76  O   UNL     1      -5.231   2.896  14.923  1.00  0.00    -0.237 OA
ATOM     77  O   UNL     1      -6.601   2.933  16.980  1.00  0.00    -0.237 OA
ATOM     78  O   UNL     1      -5.860   0.783  16.020  1.00  0.00    -0.744 OA
ENDBRANCH  74  75
ENDBRANCH  53  67
BRANCH  54  79
ATOM     79  C   UNL     1     -15.842   2.490   5.441  1.00  0.00     0.058 A 
ATOM     80  C   UNL     1     -15.742   2.554   4.040  1.00  0.00     0.135 A 
ATOM     81  C   UNL     1     -16.377   1.326   6.011  1.00  0.00     0.135 A 
ATOM     82  F   UNL     1     -15.268   3.664   3.451  1.00  0.00    -0.206 F 
ATOM     83  C   UNL     1     -15.978   1.438   3.247  1.00  0.00     0.059 A 
ATOM     84  C   UNL     1     -16.625   0.197   5.233  1.00  0.00     0.059 A 
ATOM     85  F   UNL     1     -16.487   1.215   7.342  1.00  0.00    -0.206 F 
ATOM     86  C   UNL     1     -16.342   0.244   3.866  1.00  0.00     0.060 A 
BRANCH  86  87
ATOM     87  S   UNL     1     -16.249  -1.280   2.894  1.00  0.00     0.124 S 
ATOM     88  O   UNL     1     -17.083  -0.960   1.742  1.00  0.00    -0.237 OA
ATOM     89  O   UNL     1     -14.814  -1.373   2.635  1.00  0.00    -0.237 OA
ATOM     90  O   UNL     1     -16.784  -2.285   3.805  1.00  0.00    -0.744 OA
ENDBRANCH  86  87
ENDBRANCH  54  79
BRANCH  66  91
ATOM     91  C   UNL     1     -15.497   5.506  12.045  1.00  0.00     0.058 A 
ATOM     92  C   UNL     1     -16.885   5.490  12.260  1.00  0.00     0.135 A 
ATOM     93  C   UNL     1     -14.722   5.947  13.151  1.00  0.00     0.135 A 
ATOM     94  F   UNL     1     -17.728   5.001  11.341  1.00  0.00    -0.206 F 
ATOM     95  C   UNL     1     -17.466   5.928  13.455  1.00  0.00     0.059 A 
ATOM     96  C   UNL     1     -15.278   6.336  14.368  1.00  0.00     0.059 A 
ATOM     97  F   UNL     1     -13.383   6.000  13.094  1.00  0.00    -0.206 F 
ATOM     98  C   UNL     1     -16.656   6.345  14.506  1.00  0.00     0.060 A 
BRANCH  98  99
ATOM     99  S   UNL     1     -17.385   6.831  16.081  1.00  0.00     0.124 S 
ATOM    100  O   UNL     1     -17.462   8.281  15.934  1.00  0.00    -0.237 OA
ATOM    101  O   UNL     1     -18.667   6.131  16.079  1.00  0.00    -0.237 OA
ATOM    102  O   UNL     1     -16.417   6.342  17.057  1.00  0.00    -0.744 OA
ENDBRANCH  98  99
ENDBRANCH  66  91
ENDBRANCH  40  41
ENDBRANCH  32  35
ENDBRANCH  30  31
ENDBRANCH  29  30
ENDBRANCH  28  29
ENDBRANCH   1  28
TORSDOF 19
