REMARK SMILES C[C@@H]1CC(C)(C)C[C@@](CC(=O)Nc2cccc(C(F)(F)F)c2)(C(=O)NCCCCCCNC(=O)c2ccc(-c3c4nc(c(-c5c(F)cc(S(=O)(=O)[O-])cc5F)c5ccc([nH]5)c(-c5c(F)cc(S(=O)(=O)[O-])cc5F)c5nc(c(-c6c(F)cc(S(=O)(=O)[O-])cc6F)c6ccc3[nH]6)C=C5)C=C4)cc2)C1
REMARK SMILES IDX 28 1 27 2 26 3 25 4 23 5 24 6 8 8 1 9 2 10 3 11 101 12 4 13
REMARK SMILES IDX 5 14 6 15 7 16 9 17 10 18 11 19 12 20 13 22 14 23 22 24
REMARK SMILES IDX 15 25 17 26 16 27 18 28 19 29 20 30 21 31 29 32 30 33 31 34
REMARK SMILES IDX 32 35 33 36 34 38 35 39 36 40 100 41 37 42 99 43 38 44 39 45
REMARK SMILES IDX 40 46 93 47 41 48 98 49 92 50 94 51 42 52 97 53 91 54 90 55
REMARK SMILES IDX 43 57 77 58 56 59 76 60 57 61 60 62 75 63 95 64 58 65 59 66
REMARK SMILES IDX 74 68 96 69 61 70 44 71 45 72 54 73 46 74 47 75 53 76 55 77
REMARK SMILES IDX 48 78 49 79 50 80 51 81 52 82 78 83 79 84 88 85 80 86 81 87
REMARK SMILES IDX 87 88 89 89 82 90 83 91 84 92 85 93 86 94 62 95 63 96 72 97
REMARK SMILES IDX 64 98 65 99 71 100 73 101 66 102 67 103 68 104 69 105 70 106
REMARK H PARENT 25 7 12 21 32 37 94 56 60 67
REMARK Flexibility Score: inf
ROOT
ATOM      1  C   UNL     1       1.966  -5.484   3.652  1.00  0.00     0.002 C 
ENDROOT
BRANCH   1   2
ATOM      2  C   UNL     1       0.501  -5.110   3.366  1.00  0.00     0.021 C 
BRANCH   2   3
ATOM      3  C   UNL     1       0.261  -3.745   2.696  1.00  0.00     0.116 C 
BRANCH   3   4
ATOM      4  N   UNL     1       0.695  -3.695   1.294  1.00  0.00    -0.356 N 
ATOM      5  C   UNL     1       0.778  -2.699   0.350  1.00  0.00     0.226 C 
ATOM      6  O   UNL     1       1.203  -3.060  -0.753  1.00  0.00    -0.274 OA
ATOM      7  H   UNL     1       0.992  -4.570   0.954  1.00  0.00     0.163 HD
BRANCH   5   8
ATOM      8  C   UNL     1       0.373  -1.192   0.614  1.00  0.00     0.059 C 
ATOM      9  C   UNL     1       0.608   2.186   0.154  1.00  0.00     0.008 C 
ATOM     10  C   UNL     1       0.167   1.070  -0.784  1.00  0.00    -0.013 C 
ATOM     11  C   UNL     1      -1.339   0.938  -0.859  1.00  0.00     0.009 C 
ATOM     12  C   UNL     1       0.783  -0.319  -0.600  1.00  0.00     0.020 C 
ATOM     13  C   UNL     1      -1.989   0.101   0.263  1.00  0.00    -0.034 C 
ATOM     14  C   UNL     1      -2.219   0.933   1.535  1.00  0.00     0.011 C 
ATOM     15  C   UNL     1      -3.391  -0.269  -0.290  1.00  0.00     0.011 C 
ATOM     16  C   UNL     1      -1.201  -1.202   0.632  1.00  0.00     0.024 C 
BRANCH   8  17
ATOM     17  C   UNL     1       1.128  -0.869   1.927  1.00  0.00     0.117 C 
BRANCH  17  18
ATOM     18  C   UNL     1       1.888   0.375   2.305  1.00  0.00     0.225 C 
ATOM     19  O   UNL     1       1.420   1.074   3.219  1.00  0.00    -0.275 OA
ATOM     20  N   UNL     1       3.088   0.795   1.844  1.00  0.00    -0.326 N 
ATOM     21  H   UNL     1       3.445   1.502   2.429  1.00  0.00     0.169 HD
BRANCH  20  22
ATOM     22  C   UNL     1       3.987   0.541   0.793  1.00  0.00     0.041 A 
ATOM     23  C   UNL     1       4.881   1.599   0.546  1.00  0.00     0.026 A 
ATOM     24  C   UNL     1       3.987  -0.538  -0.089  1.00  0.00     0.039 A 
ATOM     25  C   UNL     1       5.647   1.656  -0.616  1.00  0.00     0.003 A 
ATOM     26  C   UNL     1       4.675  -0.442  -1.325  1.00  0.00     0.058 A 
ATOM     27  C   UNL     1       5.517   0.655  -1.566  1.00  0.00     0.013 A 
BRANCH  26  28
ATOM     28  C   UNL     1       4.459  -1.449  -2.436  1.00  0.00     0.416 C 
ATOM     29  F   UNL     1       4.707  -0.922  -3.674  1.00  0.00    -0.166 F 
ATOM     30  F   UNL     1       5.269  -2.535  -2.333  1.00  0.00    -0.166 F 
ATOM     31  F   UNL     1       3.186  -1.916  -2.501  1.00  0.00    -0.166 F 
ENDBRANCH  26  28
ENDBRANCH  20  22
ENDBRANCH  17  18
ENDBRANCH   8  17
ENDBRANCH   5   8
ENDBRANCH   3   4
ENDBRANCH   2   3
ENDBRANCH   1   2
BRANCH   1  32
ATOM     32  C   UNL     1       2.744  -4.591   4.629  1.00  0.00     0.002 C 
BRANCH  32  33
ATOM     33  C   UNL     1       2.131  -4.379   6.017  1.00  0.00     0.021 C 
BRANCH  33  34
ATOM     34  C   UNL     1       1.845  -5.635   6.841  1.00  0.00     0.116 C 
BRANCH  34  35
ATOM     35  N   UNL     1       3.042  -6.377   7.210  1.00  0.00    -0.352 N 
ATOM     36  C   UNL     1       3.434  -6.857   8.439  1.00  0.00     0.251 C 
ATOM     37  H   UNL     1       3.664  -6.563   6.470  1.00  0.00     0.163 HD
ATOM     38  O   UNL     1       4.545  -7.379   8.562  1.00  0.00    -0.269 OA
BRANCH  36  39
ATOM     39  C   UNL     1       2.555  -6.721   9.623  1.00  0.00     0.039 A 
ATOM     40  C   UNL     1       3.104  -6.256  10.823  1.00  0.00     0.014 A 
ATOM     41  C   UNL     1       1.196  -7.038   9.560  1.00  0.00     0.014 A 
ATOM     42  C   UNL     1       2.276  -6.018  11.925  1.00  0.00     0.010 A 
ATOM     43  C   UNL     1       0.361  -6.742  10.639  1.00  0.00     0.010 A 
ATOM     44  C   UNL     1       0.888  -6.209  11.826  1.00  0.00    -0.014 A 
BRANCH  44  45
ATOM     45  C   UNL     1      -0.031  -5.798  12.923  1.00  0.00     0.031 A 
ATOM     46  C   UNL     1      -0.873  -6.815  13.644  1.00  0.00     0.074 A 
ATOM     47  C   UNL     1      -0.171  -4.486  13.209  1.00  0.00     0.049 A 
ATOM     48  N   UNL     1      -1.793  -6.627  14.555  1.00  0.00    -0.248 NA
ATOM     49  C   UNL     1      -0.670  -8.225  13.277  1.00  0.00     0.031 C 
ATOM     50  C   UNL     1       0.551  -3.396  12.547  1.00  0.00     0.029 A 
ATOM     51  N   UNL     1      -0.981  -3.842  14.112  1.00  0.00    -0.354 N 
ATOM     52  C   UNL     1      -2.289  -7.889  14.861  1.00  0.00     0.074 A 
ATOM     53  C   UNL     1      -1.596  -8.831  14.009  1.00  0.00     0.031 C 
ATOM     54  C   UNL     1       0.160  -2.224  13.071  1.00  0.00     0.029 A 
ATOM     55  C   UNL     1      -0.872  -2.470  14.073  1.00  0.00     0.049 A 
ATOM     56  H   UNL     1      -1.583  -4.317  14.729  1.00  0.00     0.167 HD
ATOM     57  C   UNL     1      -3.226  -8.230  15.779  1.00  0.00     0.037 A 
ATOM     58  C   UNL     1      -1.542  -1.515  14.748  1.00  0.00     0.037 A 
ATOM     59  C   UNL     1      -3.897  -7.289  16.640  1.00  0.00     0.049 A 
ATOM     60  C   UNL     1      -2.590  -1.919  15.749  1.00  0.00     0.074 A 
ATOM     61  C   UNL     1      -4.799  -7.548  17.657  1.00  0.00     0.029 A 
ATOM     62  N   UNL     1      -3.751  -5.911  16.578  1.00  0.00    -0.354 N 
ATOM     63  N   UNL     1      -2.983  -3.124  16.086  1.00  0.00    -0.248 NA
ATOM     64  C   UNL     1      -3.287  -0.838  16.460  1.00  0.00     0.031 C 
ATOM     65  C   UNL     1      -5.242  -6.325  18.171  1.00  0.00     0.029 A 
ATOM     66  C   UNL     1      -4.576  -5.304  17.512  1.00  0.00     0.049 A 
ATOM     67  H   UNL     1      -3.150  -5.434  15.961  1.00  0.00     0.167 HD
ATOM     68  C   UNL     1      -3.963  -2.946  17.057  1.00  0.00     0.074 A 
ATOM     69  C   UNL     1      -4.087  -1.518  17.269  1.00  0.00     0.031 C 
ATOM     70  C   UNL     1      -4.695  -3.881  17.711  1.00  0.00     0.037 A 
BRANCH  57  71
ATOM     71  C   UNL     1      -3.589  -9.685  15.907  1.00  0.00     0.058 A 
ATOM     72  C   UNL     1      -2.703 -10.622  16.464  1.00  0.00     0.135 A 
ATOM     73  C   UNL     1      -4.862 -10.139  15.523  1.00  0.00     0.135 A 
ATOM     74  F   UNL     1      -1.470 -10.246  16.838  1.00  0.00    -0.206 F 
ATOM     75  C   UNL     1      -3.056 -11.959  16.611  1.00  0.00     0.059 A 
ATOM     76  C   UNL     1      -5.247 -11.467  15.687  1.00  0.00     0.059 A 
ATOM     77  F   UNL     1      -5.750  -9.286  14.987  1.00  0.00    -0.206 F 
ATOM     78  C   UNL     1      -4.332 -12.372  16.221  1.00  0.00     0.060 A 
BRANCH  78  79
ATOM     79  S   UNL     1      -4.777 -14.109  16.432  1.00  0.00     0.124 S 
ATOM     80  O   UNL     1      -3.975 -14.743  15.389  1.00  0.00    -0.237 OA
ATOM     81  O   UNL     1      -4.354 -14.375  17.804  1.00  0.00    -0.237 OA
ATOM     82  O   UNL     1      -6.219 -14.122  16.209  1.00  0.00    -0.744 OA
ENDBRANCH  78  79
ENDBRANCH  57  71
BRANCH  58  83
ATOM     83  C   UNL     1      -1.245  -0.079  14.492  1.00  0.00     0.058 A 
ATOM     84  C   UNL     1      -0.608   0.712  15.459  1.00  0.00     0.135 A 
ATOM     85  C   UNL     1      -1.583   0.529  13.272  1.00  0.00     0.135 A 
ATOM     86  F   UNL     1      -0.273   0.181  16.645  1.00  0.00    -0.206 F 
ATOM     87  C   UNL     1      -0.329   2.057  15.233  1.00  0.00     0.059 A 
ATOM     88  C   UNL     1      -1.290   1.864  13.012  1.00  0.00     0.059 A 
ATOM     89  F   UNL     1      -2.182  -0.188  12.307  1.00  0.00    -0.206 F 
ATOM     90  C   UNL     1      -0.671   2.623  14.004  1.00  0.00     0.060 A 
BRANCH  90  91
ATOM     91  S   UNL     1      -0.262   4.356  13.703  1.00  0.00     0.124 S 
ATOM     92  O   UNL     1      -1.238   5.038  14.546  1.00  0.00    -0.237 OA
ATOM     93  O   UNL     1       1.127   4.424  14.152  1.00  0.00    -0.237 OA
ATOM     94  O   UNL     1      -0.456   4.502  12.265  1.00  0.00    -0.744 OA
ENDBRANCH  90  91
ENDBRANCH  58  83
BRANCH  70  95
ATOM     95  C   UNL     1      -5.696  -3.398  18.725  1.00  0.00     0.058 A 
ATOM     96  C   UNL     1      -6.894  -2.781  18.335  1.00  0.00     0.135 A 
ATOM     97  C   UNL     1      -5.487  -3.617  20.096  1.00  0.00     0.135 A 
ATOM     98  F   UNL     1      -7.139  -2.538  17.038  1.00  0.00    -0.206 F 
ATOM     99  C   UNL     1      -7.846  -2.387  19.270  1.00  0.00     0.059 A 
ATOM    100  C   UNL     1      -6.437  -3.257  21.047  1.00  0.00     0.059 A 
ATOM    101  F   UNL     1      -4.360  -4.210  20.522  1.00  0.00    -0.206 F 
ATOM    102  C   UNL     1      -7.612  -2.636  20.624  1.00  0.00     0.060 A 
BRANCH 102 103
ATOM    103  S   UNL     1      -8.882  -2.172  21.820  1.00  0.00     0.124 S 
ATOM    104  O   UNL     1      -8.764  -0.717  21.825  1.00  0.00    -0.237 OA
ATOM    105  O   UNL     1     -10.095  -2.706  21.209  1.00  0.00    -0.237 OA
ATOM    106  O   UNL     1      -8.457  -2.841  23.045  1.00  0.00    -0.744 OA
ENDBRANCH 102 103
ENDBRANCH  70  95
ENDBRANCH  44  45
ENDBRANCH  36  39
ENDBRANCH  34  35
ENDBRANCH  33  34
ENDBRANCH  32  33
ENDBRANCH   1  32
TORSDOF 20
