REMARK SMILES Cc1cc(F)cc(N[C@](C)(C(=O)NCCCCCCNC(=O)c2ccc(-c3c4nc(c(-c5c(F)cc(S(=O)(=O)[O-])cc5F)c5ccc([nH]5)c(-c5c(F)cc(S(=O)(=O)[O-])cc5F)c5nc(c(-c6c(F)cc(S(=O)(=O)[O-])cc6F)c6ccc3[nH]6)C=C5)C=C4)cc2)c2cccc(F)c2)c1
REMARK SMILES IDX 17 1 16 2 15 3 14 4 13 5 11 6 12 7 9 9 10 10 8 11 7 13 1 14
REMARK SMILES IDX 2 15 3 16 96 17 4 18 5 19 6 20 89 21 90 22 95 23 91 24 93 25
REMARK SMILES IDX 92 26 94 27 18 28 19 29 20 30 21 31 22 33 23 34 24 35 88 36
REMARK SMILES IDX 25 37 87 38 26 39 27 40 28 41 81 42 29 43 86 44 80 45 82 46
REMARK SMILES IDX 30 47 85 48 79 49 78 50 31 52 65 53 44 54 64 55 45 56 48 57
REMARK SMILES IDX 63 58 83 59 46 60 47 61 62 63 84 64 49 65 32 66 33 67 42 68
REMARK SMILES IDX 34 69 35 70 41 71 43 72 36 73 37 74 38 75 39 76 40 77 66 78
REMARK SMILES IDX 67 79 76 80 68 81 69 82 75 83 77 84 70 85 71 86 72 87 73 88
REMARK SMILES IDX 74 89 50 90 51 91 60 92 52 93 53 94 59 95 61 96 54 97 55 98
REMARK SMILES IDX 56 99 57 100 58 101
REMARK H PARENT 13 8 8 12 20 32 82 51 48 62
REMARK Flexibility Score: inf
ROOT
ATOM      1  C   UNL     1      -6.124  -6.110   2.666  1.00  0.00     0.002 C 
ENDROOT
BRANCH   1   2
ATOM      2  C   UNL     1      -4.636  -6.405   2.888  1.00  0.00     0.002 C 
BRANCH   2   3
ATOM      3  C   UNL     1      -3.780  -6.394   1.617  1.00  0.00     0.021 C 
BRANCH   3   4
ATOM      4  C   UNL     1      -3.742  -5.033   0.916  1.00  0.00     0.116 C 
BRANCH   4   5
ATOM      5  N   UNL     1      -2.772  -4.173   1.554  1.00  0.00    -0.354 N 
ATOM      6  C   UNL     1      -1.454  -3.966   1.284  1.00  0.00     0.250 C 
ATOM      7  O   UNL     1      -0.781  -3.600   2.263  1.00  0.00    -0.272 OA
ATOM      8  H   UNL     1      -3.123  -3.650   2.310  1.00  0.00     0.163 HD
BRANCH   6   9
ATOM      9  C   UNL     1      -0.778  -4.163  -0.147  1.00  0.00     0.139 C 
ATOM     10  C   UNL     1      -1.649  -3.895  -1.401  1.00  0.00     0.051 C 
BRANCH   9  11
ATOM     11  N   UNL     1       0.331  -3.149  -0.226  1.00  0.00    -0.368 N 
ATOM     12  H   UNL     1       1.236  -3.503  -0.386  1.00  0.00     0.161 HD
BRANCH  11  13
ATOM     13  C   UNL     1       0.221  -1.764  -0.099  1.00  0.00     0.038 A 
ATOM     14  C   UNL     1       2.690   1.175  -0.082  1.00  0.00     0.044 C 
ATOM     15  C   UNL     1       1.410   0.398  -0.055  1.00  0.00    -0.046 A 
ATOM     16  C   UNL     1       0.194   1.066   0.078  1.00  0.00     0.042 A 
ATOM     17  C   UNL     1       1.407  -1.005  -0.162  1.00  0.00     0.029 A 
ATOM     18  C   UNL     1      -0.983   0.334   0.118  1.00  0.00     0.125 A 
ATOM     19  F   UNL     1      -2.151   0.977   0.253  1.00  0.00    -0.207 F 
ATOM     20  C   UNL     1      -0.976  -1.057   0.032  1.00  0.00     0.065 A 
ENDBRANCH  11  13
ENDBRANCH   9  11
BRANCH   9  21
ATOM     21  C   UNL     1      -0.205  -5.619  -0.200  1.00  0.00    -0.011 A 
ATOM     22  C   UNL     1       1.111  -5.957   0.181  1.00  0.00     0.007 A 
ATOM     23  C   UNL     1      -1.038  -6.705  -0.549  1.00  0.00     0.046 A 
ATOM     24  C   UNL     1       1.560  -7.288   0.201  1.00  0.00     0.003 A 
ATOM     25  C   UNL     1      -0.595  -8.025  -0.498  1.00  0.00     0.123 A 
ATOM     26  C   UNL     1       0.701  -8.328  -0.128  1.00  0.00     0.039 A 
ATOM     27  F   UNL     1      -1.451  -9.013  -0.791  1.00  0.00    -0.207 F 
ENDBRANCH   9  21
ENDBRANCH   6   9
ENDBRANCH   4   5
ENDBRANCH   3   4
ENDBRANCH   2   3
ENDBRANCH   1   2
BRANCH   1  28
ATOM     28  C   UNL     1      -6.803  -6.974   1.600  1.00  0.00     0.021 C 
BRANCH  28  29
ATOM     29  C   UNL     1      -6.763  -8.471   1.888  1.00  0.00     0.116 C 
BRANCH  29  30
ATOM     30  N   UNL     1      -7.547  -8.812   3.066  1.00  0.00    -0.352 N 
ATOM     31  C   UNL     1      -8.611  -9.677   3.168  1.00  0.00     0.251 C 
ATOM     32  H   UNL     1      -7.280  -8.363   3.900  1.00  0.00     0.163 HD
ATOM     33  O   UNL     1      -9.310  -9.690   4.171  1.00  0.00    -0.269 OA
BRANCH  31  34
ATOM     34  C   UNL     1      -8.903 -10.583   2.037  1.00  0.00     0.039 A 
ATOM     35  C   UNL     1     -10.203 -10.653   1.532  1.00  0.00     0.014 A 
ATOM     36  C   UNL     1      -7.875 -11.336   1.464  1.00  0.00     0.014 A 
ATOM     37  C   UNL     1     -10.459 -11.434   0.401  1.00  0.00     0.010 A 
ATOM     38  C   UNL     1      -8.119 -12.059   0.303  1.00  0.00     0.010 A 
ATOM     39  C   UNL     1      -9.412 -12.113  -0.241  1.00  0.00    -0.014 A 
BRANCH  39  40
ATOM     40  C   UNL     1      -9.626 -12.893  -1.485  1.00  0.00     0.031 A 
ATOM     41  C   UNL     1      -9.390 -14.378  -1.482  1.00  0.00     0.074 A 
ATOM     42  C   UNL     1      -9.927 -12.255  -2.633  1.00  0.00     0.049 A 
ATOM     43  N   UNL     1      -9.372 -15.216  -2.486  1.00  0.00    -0.248 NA
ATOM     44  C   UNL     1      -9.103 -14.994  -0.177  1.00  0.00     0.031 C 
ATOM     45  C   UNL     1     -10.156 -10.816  -2.768  1.00  0.00     0.029 A 
ATOM     46  N   UNL     1     -10.073 -12.735  -3.910  1.00  0.00    -0.354 N 
ATOM     47  C   UNL     1      -9.042 -16.451  -1.940  1.00  0.00     0.074 A 
ATOM     48  C   UNL     1      -8.828 -16.242  -0.524  1.00  0.00     0.031 C 
ATOM     49  C   UNL     1     -10.435 -10.533  -4.051  1.00  0.00     0.029 A 
ATOM     50  C   UNL     1     -10.357 -11.761  -4.837  1.00  0.00     0.049 A 
ATOM     51  H   UNL     1      -9.983 -13.688  -4.141  1.00  0.00     0.167 HD
ATOM     52  C   UNL     1      -8.939 -17.650  -2.561  1.00  0.00     0.037 A 
ATOM     53  C   UNL     1     -10.523 -11.846  -6.171  1.00  0.00     0.037 A 
ATOM     54  C   UNL     1      -9.180 -17.851  -3.965  1.00  0.00     0.049 A 
ATOM     55  C   UNL     1     -10.388 -13.185  -6.843  1.00  0.00     0.074 A 
ATOM     56  C   UNL     1      -9.164 -19.034  -4.682  1.00  0.00     0.029 A 
ATOM     57  N   UNL     1      -9.476 -16.840  -4.869  1.00  0.00    -0.354 N 
ATOM     58  N   UNL     1     -10.121 -14.352  -6.308  1.00  0.00    -0.248 NA
ATOM     59  C   UNL     1     -10.575 -13.218  -8.300  1.00  0.00     0.031 C 
ATOM     60  C   UNL     1      -9.410 -18.733  -6.027  1.00  0.00     0.029 A 
ATOM     61  C   UNL     1      -9.625 -17.368  -6.140  1.00  0.00     0.049 A 
ATOM     62  H   UNL     1      -9.567 -15.886  -4.640  1.00  0.00     0.167 HD
ATOM     63  C   UNL     1     -10.144 -15.265  -7.356  1.00  0.00     0.074 A 
ATOM     64  C   UNL     1     -10.446 -14.513  -8.557  1.00  0.00     0.031 C 
ATOM     65  C   UNL     1      -9.941 -16.606  -7.324  1.00  0.00     0.037 A 
BRANCH  52  66
ATOM     66  C   UNL     1      -8.533 -18.829  -1.718  1.00  0.00     0.058 A 
ATOM     67  C   UNL     1      -9.383 -19.366  -0.737  1.00  0.00     0.135 A 
ATOM     68  C   UNL     1      -7.270 -19.420  -1.883  1.00  0.00     0.135 A 
ATOM     69  F   UNL     1     -10.597 -18.831  -0.527  1.00  0.00    -0.206 F 
ATOM     70  C   UNL     1      -8.975 -20.410   0.087  1.00  0.00     0.059 A 
ATOM     71  C   UNL     1      -6.854 -20.486  -1.091  1.00  0.00     0.059 A 
ATOM     72  F   UNL     1      -6.419 -18.952  -2.809  1.00  0.00    -0.206 F 
ATOM     73  C   UNL     1      -7.704 -20.957  -0.091  1.00  0.00     0.060 A 
BRANCH  73  74
ATOM     74  S   UNL     1      -7.170 -22.282   1.012  1.00  0.00     0.124 S 
ATOM     75  O   UNL     1      -6.869 -21.539   2.232  1.00  0.00    -0.237 OA
ATOM     76  O   UNL     1      -8.349 -23.140   1.068  1.00  0.00    -0.237 OA
ATOM     77  O   UNL     1      -6.016 -22.852   0.324  1.00  0.00    -0.744 OA
ENDBRANCH  73  74
ENDBRANCH  52  66
BRANCH  53  78
ATOM     78  C   UNL     1     -10.877 -10.631  -6.950  1.00  0.00     0.058 A 
ATOM     79  C   UNL     1     -12.173 -10.468  -7.461  1.00  0.00     0.135 A 
ATOM     80  C   UNL     1      -9.953  -9.598  -7.168  1.00  0.00     0.135 A 
ATOM     81  F   UNL     1     -13.089 -11.433  -7.284  1.00  0.00    -0.206 F 
ATOM     82  C   UNL     1     -12.542  -9.326  -8.163  1.00  0.00     0.059 A 
ATOM     83  C   UNL     1     -10.305  -8.436  -7.849  1.00  0.00     0.059 A 
ATOM     84  F   UNL     1      -8.704  -9.698  -6.686  1.00  0.00    -0.206 F 
ATOM     85  C   UNL     1     -11.602  -8.312  -8.347  1.00  0.00     0.060 A 
BRANCH  85  86
ATOM     86  S   UNL     1     -12.115  -6.803  -9.198  1.00  0.00     0.124 S 
ATOM     87  O   UNL     1     -12.218  -7.264 -10.577  1.00  0.00    -0.237 OA
ATOM     88  O   UNL     1     -13.375  -6.490  -8.532  1.00  0.00    -0.237 OA
ATOM     89  O   UNL     1     -11.022  -5.875  -8.921  1.00  0.00    -0.744 OA
ENDBRANCH  85  86
ENDBRANCH  53  78
BRANCH  65  90
ATOM     90  C   UNL     1     -10.087 -17.360  -8.616  1.00  0.00     0.058 A 
ATOM     91  C   UNL     1      -9.109 -17.305  -9.620  1.00  0.00     0.135 A 
ATOM     92  C   UNL     1     -11.192 -18.203  -8.819  1.00  0.00     0.135 A 
ATOM     93  F   UNL     1      -8.039 -16.508  -9.478  1.00  0.00    -0.206 F 
ATOM     94  C   UNL     1      -9.227 -18.051 -10.788  1.00  0.00     0.059 A 
ATOM     95  C   UNL     1     -11.318 -18.977  -9.968  1.00  0.00     0.059 A 
ATOM     96  F   UNL     1     -12.151 -18.297  -7.885  1.00  0.00    -0.206 F 
ATOM     97  C   UNL     1     -10.333 -18.888 -10.951  1.00  0.00     0.060 A 
BRANCH  97  98
ATOM     98  S   UNL     1     -10.449 -19.892 -12.447  1.00  0.00     0.124 S 
ATOM     99  O   UNL     1     -10.830 -18.895 -13.442  1.00  0.00    -0.237 OA
ATOM    100  O   UNL     1      -9.096 -20.426 -12.571  1.00  0.00    -0.237 OA
ATOM    101  O   UNL     1     -11.476 -20.876 -12.118  1.00  0.00    -0.744 OA
ENDBRANCH  97  98
ENDBRANCH  65  90
ENDBRANCH  39  40
ENDBRANCH  31  34
ENDBRANCH  29  30
ENDBRANCH  28  29
ENDBRANCH   1  28
TORSDOF 19
