REMARK SMILES C[C@@H]1[C@@H](C(=O)NCCCCCCNC(=O)c2ccc(-c3c4nc(c(-c5c(F)cc(S(=O)(=O)[O-])cc5F)c5ccc([nH]5)c(-c5c(F)cc(S(=O)(=O)[O-])cc5F)c5nc(c(-c6c(F)cc(S(=O)(=O)[O-])cc6F)c6ccc3[nH]6)C=C5)C=C4)cc2)CC[N@@H+]1CCCOCC(F)(F)F
REMARK SMILES IDX 8 1 7 2 6 3 4 4 5 5 3 7 1 8 2 9 84 10 82 11 83 12 85 14
REMARK SMILES IDX 86 15 87 16 88 17 89 18 90 19 91 20 92 21 93 22 9 23 10 24
REMARK SMILES IDX 11 25 12 26 13 27 14 28 15 30 16 31 17 32 81 33 18 34 80 35
REMARK SMILES IDX 19 36 20 37 21 38 74 39 22 40 79 41 73 42 75 43 23 44 78 45
REMARK SMILES IDX 72 46 71 47 24 49 58 50 37 51 57 52 38 53 41 54 56 55 76 56
REMARK SMILES IDX 39 57 40 58 55 60 77 61 42 62 25 63 26 64 35 65 27 66 28 67
REMARK SMILES IDX 34 68 36 69 29 70 30 71 31 72 32 73 33 74 59 75 60 76 69 77
REMARK SMILES IDX 61 78 62 79 68 80 70 81 63 82 64 83 65 84 66 85 67 86 43 87
REMARK SMILES IDX 44 88 53 89 45 90 46 91 52 92 54 93 47 94 48 95 49 96 50 97
REMARK SMILES IDX 51 98
REMARK H PARENT 6 6 84 13 13 29 75 48 41 59
REMARK Flexibility Score: inf
ROOT
ATOM      1  C   UNL     1      -2.829   4.403  -1.609  1.00  0.00     0.021 C 
ENDROOT
BRANCH   1   2
ATOM      2  C   UNL     1      -2.249   3.063  -1.181  1.00  0.00     0.116 C 
BRANCH   2   3
ATOM      3  N   UNL     1      -1.399   2.447  -2.187  1.00  0.00    -0.356 N 
ATOM      4  C   UNL     1      -0.316   1.624  -2.025  1.00  0.00     0.229 C 
ATOM      5  O   UNL     1       0.258   1.235  -3.043  1.00  0.00    -0.275 OA
ATOM      6  H   UNL     1      -1.636   2.652  -3.120  1.00  0.00     0.163 HD
BRANCH   4   7
ATOM      7  C   UNL     1       0.166   1.271  -0.612  1.00  0.00     0.142 C 
ATOM      8  C   UNL     1       2.382   0.490   0.362  1.00  0.00     0.076 C 
ATOM      9  C   UNL     1       1.227   0.122  -0.571  1.00  0.00     0.193 C 
ATOM     10  N   UNL     1       0.466  -1.107  -0.233  1.00  0.00    -0.332 N 
ATOM     11  C   UNL     1      -0.943   0.656   0.220  1.00  0.00     0.081 C 
ATOM     12  C   UNL     1      -0.936  -0.763  -0.285  1.00  0.00     0.263 C 
ATOM     13  H   UNL     1       0.770  -1.771  -0.945  1.00  0.00     0.348 HD
BRANCH  10  14
ATOM     14  C   UNL     1       0.848  -2.035   0.828  1.00  0.00     0.264 C 
BRANCH  14  15
ATOM     15  C   UNL     1       0.619  -1.732   2.326  1.00  0.00     0.090 C 
BRANCH  15  16
ATOM     16  C   UNL     1      -0.796  -1.547   2.901  1.00  0.00     0.166 C 
BRANCH  16  17
ATOM     17  O   UNL     1      -1.562  -2.738   3.071  1.00  0.00    -0.372 OA
BRANCH  17  18
ATOM     18  C   UNL     1      -2.399  -3.145   1.979  1.00  0.00     0.275 C 
BRANCH  18  19
ATOM     19  C   UNL     1      -3.594  -2.261   1.569  1.00  0.00     0.411 C 
ATOM     20  F   UNL     1      -3.377  -0.938   1.730  1.00  0.00    -0.168 F 
ATOM     21  F   UNL     1      -3.861  -2.447   0.249  1.00  0.00    -0.168 F 
ATOM     22  F   UNL     1      -4.715  -2.578   2.250  1.00  0.00    -0.168 F 
ENDBRANCH  18  19
ENDBRANCH  17  18
ENDBRANCH  16  17
ENDBRANCH  15  16
ENDBRANCH  14  15
ENDBRANCH  10  14
ENDBRANCH   4   7
ENDBRANCH   2   3
ENDBRANCH   1   2
BRANCH   1  23
ATOM     23  C   UNL     1      -3.817   4.338  -2.776  1.00  0.00     0.002 C 
BRANCH  23  24
ATOM     24  C   UNL     1      -5.049   3.450  -2.574  1.00  0.00     0.002 C 
BRANCH  24  25
ATOM     25  C   UNL     1      -5.901   3.743  -1.335  1.00  0.00     0.021 C 
BRANCH  25  26
ATOM     26  C   UNL     1      -6.318   5.198  -1.143  1.00  0.00     0.116 C 
BRANCH  26  27
ATOM     27  N   UNL     1      -7.045   5.734  -2.280  1.00  0.00    -0.352 N 
ATOM     28  C   UNL     1      -8.201   6.469  -2.314  1.00  0.00     0.251 C 
ATOM     29  H   UNL     1      -6.646   5.542  -3.159  1.00  0.00     0.163 HD
ATOM     30  O   UNL     1      -8.725   6.718  -3.402  1.00  0.00    -0.269 OA
BRANCH  28  31
ATOM     31  C   UNL     1      -8.840   6.940  -1.065  1.00  0.00     0.039 A 
ATOM     32  C   UNL     1     -10.232   6.864  -0.958  1.00  0.00     0.014 A 
ATOM     33  C   UNL     1      -8.091   7.481  -0.015  1.00  0.00     0.014 A 
ATOM     34  C   UNL     1     -10.864   7.284   0.215  1.00  0.00     0.010 A 
ATOM     35  C   UNL     1      -8.717   7.830   1.182  1.00  0.00     0.010 A 
ATOM     36  C   UNL     1     -10.111   7.745   1.307  1.00  0.00    -0.014 A 
BRANCH  36  37
ATOM     37  C   UNL     1     -10.776   8.145   2.575  1.00  0.00     0.031 A 
ATOM     38  C   UNL     1     -10.708   9.570   3.055  1.00  0.00     0.074 A 
ATOM     39  C   UNL     1     -11.416   7.215   3.313  1.00  0.00     0.049 A 
ATOM     40  N   UNL     1     -11.213  10.101   4.140  1.00  0.00    -0.248 NA
ATOM     41  C   UNL     1      -9.956  10.520   2.220  1.00  0.00     0.031 C 
ATOM     42  C   UNL     1     -11.511   5.791   2.980  1.00  0.00     0.029 A 
ATOM     43  N   UNL     1     -12.106   7.324   4.495  1.00  0.00    -0.354 N 
ATOM     44  C   UNL     1     -10.836  11.439   4.121  1.00  0.00     0.074 A 
ATOM     45  C   UNL     1     -10.011  11.627   2.948  1.00  0.00     0.031 C 
ATOM     46  C   UNL     1     -12.242   5.168   3.918  1.00  0.00     0.029 A 
ATOM     47  C   UNL     1     -12.637   6.135   4.937  1.00  0.00     0.049 A 
ATOM     48  H   UNL     1     -12.211   8.174   4.980  1.00  0.00     0.167 HD
ATOM     49  C   UNL     1     -11.169  12.428   4.986  1.00  0.00     0.037 A 
ATOM     50  C   UNL     1     -13.358   5.853   6.040  1.00  0.00     0.037 A 
ATOM     51  C   UNL     1     -12.009  12.239   6.141  1.00  0.00     0.049 A 
ATOM     52  C   UNL     1     -13.709   6.967   6.990  1.00  0.00     0.074 A 
ATOM     53  C   UNL     1     -12.450  13.188   7.047  1.00  0.00     0.029 A 
ATOM     54  N   UNL     1     -12.532  11.022   6.552  1.00  0.00    -0.354 N 
ATOM     55  N   UNL     1     -13.401   8.240   6.917  1.00  0.00    -0.248 NA
ATOM     56  C   UNL     1     -14.510   6.608   8.168  1.00  0.00     0.031 C 
ATOM     57  C   UNL     1     -13.198  12.536   8.034  1.00  0.00     0.029 A 
ATOM     58  C   UNL     1     -13.269  11.190   7.713  1.00  0.00     0.049 A 
ATOM     59  H   UNL     1     -12.398  10.164   6.088  1.00  0.00     0.167 HD
ATOM     60  C   UNL     1     -13.992   8.838   8.026  1.00  0.00     0.074 A 
ATOM     61  C   UNL     1     -14.689   7.790   8.742  1.00  0.00     0.031 C 
ATOM     62  C   UNL     1     -13.960  10.137   8.416  1.00  0.00     0.037 A 
BRANCH  49  63
ATOM     63  C   UNL     1     -10.628  13.807   4.715  1.00  0.00     0.058 A 
ATOM     64  C   UNL     1     -11.076  14.573   3.626  1.00  0.00     0.135 A 
ATOM     65  C   UNL     1      -9.681  14.386   5.575  1.00  0.00     0.135 A 
ATOM     66  F   UNL     1     -11.970  14.066   2.763  1.00  0.00    -0.206 F 
ATOM     67  C   UNL     1     -10.582  15.851   3.383  1.00  0.00     0.059 A 
ATOM     68  C   UNL     1      -9.196  15.675   5.368  1.00  0.00     0.059 A 
ATOM     69  F   UNL     1      -9.218  13.700   6.631  1.00  0.00    -0.206 F 
ATOM     70  C   UNL     1      -9.642  16.394   4.260  1.00  0.00     0.060 A 
BRANCH  70  71
ATOM     71  S   UNL     1      -9.016  18.055   3.932  1.00  0.00     0.124 S 
ATOM     72  O   UNL     1      -8.167  17.821   2.768  1.00  0.00    -0.237 OA
ATOM     73  O   UNL     1     -10.242  18.806   3.681  1.00  0.00    -0.237 OA
ATOM     74  O   UNL     1      -8.312  18.403   5.162  1.00  0.00    -0.744 OA
ENDBRANCH  70  71
ENDBRANCH  49  63
BRANCH  50  75
ATOM     75  C   UNL     1     -13.816   4.460   6.295  1.00  0.00     0.058 A 
ATOM     76  C   UNL     1     -15.174   4.118   6.210  1.00  0.00     0.135 A 
ATOM     77  C   UNL     1     -12.906   3.443   6.622  1.00  0.00     0.135 A 
ATOM     78  F   UNL     1     -16.084   5.056   5.907  1.00  0.00    -0.206 F 
ATOM     79  C   UNL     1     -15.617   2.823   6.459  1.00  0.00     0.059 A 
ATOM     80  C   UNL     1     -13.321   2.134   6.848  1.00  0.00     0.059 A 
ATOM     81  F   UNL     1     -11.594   3.714   6.700  1.00  0.00    -0.206 F 
ATOM     82  C   UNL     1     -14.681   1.837   6.776  1.00  0.00     0.060 A 
BRANCH  82  83
ATOM     83  S   UNL     1     -15.261   0.150   7.056  1.00  0.00     0.124 S 
ATOM     84  O   UNL     1     -15.912   0.276   8.356  1.00  0.00    -0.237 OA
ATOM     85  O   UNL     1     -16.148  -0.062   5.916  1.00  0.00    -0.237 OA
ATOM     86  O   UNL     1     -14.031  -0.635   7.039  1.00  0.00    -0.744 OA
ENDBRANCH  82  83
ENDBRANCH  50  75
BRANCH  62  87
ATOM     87  C   UNL     1     -14.721  10.505   9.660  1.00  0.00     0.058 A 
ATOM     88  C   UNL     1     -14.282  10.118  10.936  1.00  0.00     0.135 A 
ATOM     89  C   UNL     1     -15.882  11.292   9.578  1.00  0.00     0.135 A 
ATOM     90  F   UNL     1     -13.182   9.360  11.071  1.00  0.00    -0.206 F 
ATOM     91  C   UNL     1     -14.981  10.475  12.085  1.00  0.00     0.059 A 
ATOM     92  C   UNL     1     -16.580  11.686  10.715  1.00  0.00     0.059 A 
ATOM     93  F   UNL     1     -16.340  11.699   8.383  1.00  0.00    -0.206 F 
ATOM     94  C   UNL     1     -16.129  11.261  11.964  1.00  0.00     0.060 A 
BRANCH  94  95
ATOM     95  S   UNL     1     -17.010  11.740  13.464  1.00  0.00     0.124 S 
ATOM     96  O   UNL     1     -17.646  10.483  13.846  1.00  0.00    -0.237 OA
ATOM     97  O   UNL     1     -15.927  12.192  14.332  1.00  0.00    -0.237 OA
ATOM     98  O   UNL     1     -17.917  12.789  13.006  1.00  0.00    -0.744 OA
ENDBRANCH  94  95
ENDBRANCH  62  87
ENDBRANCH  36  37
ENDBRANCH  28  31
ENDBRANCH  26  27
ENDBRANCH  25  26
ENDBRANCH  24  25
ENDBRANCH  23  24
ENDBRANCH   1  23
TORSDOF 22
