REMARK SMILES O=C(NCCCCCCNC(=O)[C@H]1Cc2[nH]cnc2CN1C(=O)C[C@]12C[C@H]3C[C@H](C[C@H](C3)C1)C2)c1ccc(-c2c3nc(c(-c4c(F)cc(S(=O)(=O)[O-])cc4F)c4ccc([nH]4)c(-c4c(F)cc(S(=O)(=O)[O-])cc4F)c4nc(c(-c5c(F)cc(S(=O)(=O)[O-])cc5F)c5ccc2[nH]5)C=C4)C=C3)cc1
REMARK SMILES IDX 6 1 5 2 4 3 3 4 1 5 2 6 35 8 36 9 100 10 37 11 99 12 38 13
REMARK SMILES IDX 39 14 40 15 93 16 41 17 98 18 92 19 94 20 42 21 97 22 91 23
REMARK SMILES IDX 90 24 43 26 77 27 56 28 76 29 57 30 60 31 75 32 95 33 58 34
REMARK SMILES IDX 59 35 74 37 96 38 61 39 44 40 45 41 54 42 46 43 47 44 53 45
REMARK SMILES IDX 55 46 48 47 49 48 50 49 51 50 52 51 78 52 79 53 88 54 80 55
REMARK SMILES IDX 81 56 87 57 89 58 82 59 83 60 84 61 85 62 86 63 62 64 63 65
REMARK SMILES IDX 72 66 64 67 65 68 71 69 73 70 66 71 67 72 68 73 69 74 70 75
REMARK SMILES IDX 7 76 8 77 9 78 10 79 11 80 12 82 13 83 14 84 21 85 15 86
REMARK SMILES IDX 20 87 16 88 19 89 17 90 18 92 22 93 23 94 24 95 25 96 26 97
REMARK SMILES IDX 33 98 34 99 27 100 31 101 29 102 28 103 32 104 30 105
REMARK H PARENT 3 7 94 25 60 36 10 81 16 91
REMARK Flexibility Score: inf
ROOT
ATOM      1  C   UNL     1       4.374  -2.873  -1.909  1.00  0.00     0.002 C 
ENDROOT
BRANCH   1   2
ATOM      2  C   UNL     1       4.834  -2.055  -0.699  1.00  0.00     0.021 C 
BRANCH   2   3
ATOM      3  C   UNL     1       4.668  -0.542  -0.835  1.00  0.00     0.116 C 
BRANCH   3   4
ATOM      4  N   UNL     1       3.308  -0.119  -1.072  1.00  0.00    -0.352 N 
ATOM      5  O   UNL     1       1.257   0.645  -0.817  1.00  0.00    -0.269 OA
ATOM      6  C   UNL     1       2.240   0.147  -0.262  1.00  0.00     0.251 C 
ATOM      7  H   UNL     1       3.106   0.006  -2.027  1.00  0.00     0.163 HD
BRANCH   6   8
ATOM      8  C   UNL     1       2.167  -0.175   1.190  1.00  0.00     0.039 A 
ATOM      9  C   UNL     1       3.216  -0.653   1.978  1.00  0.00     0.014 A 
ATOM     10  C   UNL     1       0.899  -0.025   1.782  1.00  0.00     0.014 A 
ATOM     11  C   UNL     1       2.989  -1.066   3.286  1.00  0.00     0.010 A 
ATOM     12  C   UNL     1       0.670  -0.415   3.095  1.00  0.00     0.010 A 
ATOM     13  C   UNL     1       1.709  -0.976   3.830  1.00  0.00    -0.014 A 
BRANCH  13  14
ATOM     14  C   UNL     1       1.528  -1.382   5.219  1.00  0.00     0.031 A 
ATOM     15  C   UNL     1       2.219  -0.523   6.225  1.00  0.00     0.074 A 
ATOM     16  C   UNL     1       0.678  -2.360   5.587  1.00  0.00     0.049 A 
ATOM     17  N   UNL     1       3.122  -0.853   7.091  1.00  0.00    -0.248 NA
ATOM     18  C   UNL     1       1.936   0.920   6.183  1.00  0.00     0.031 C 
ATOM     19  C   UNL     1      -0.288  -3.073   4.746  1.00  0.00     0.029 A 
ATOM     20  N   UNL     1       0.416  -2.843   6.833  1.00  0.00    -0.354 N 
ATOM     21  C   UNL     1       3.370   0.296   7.844  1.00  0.00     0.074 A 
ATOM     22  C   UNL     1       2.738   1.381   7.142  1.00  0.00     0.031 C 
ATOM     23  C   UNL     1      -1.176  -3.713   5.539  1.00  0.00     0.029 A 
ATOM     24  C   UNL     1      -0.768  -3.563   6.926  1.00  0.00     0.049 A 
ATOM     25  H   UNL     1       1.014  -2.695   7.601  1.00  0.00     0.167 HD
ATOM     26  C   UNL     1       3.892   0.239   9.102  1.00  0.00     0.037 A 
ATOM     27  C   UNL     1      -1.407  -3.928   8.066  1.00  0.00     0.037 A 
ATOM     28  C   UNL     1       4.542  -1.022   9.347  1.00  0.00     0.049 A 
ATOM     29  C   UNL     1      -0.414  -3.873   9.170  1.00  0.00     0.074 A 
ATOM     30  C   UNL     1       5.594  -1.706   8.767  1.00  0.00     0.029 A 
ATOM     31  N   UNL     1       3.897  -1.943  10.136  1.00  0.00    -0.354 N 
ATOM     32  N   UNL     1       0.615  -4.670   9.271  1.00  0.00    -0.248 NA
ATOM     33  C   UNL     1      -0.325  -2.643   9.943  1.00  0.00     0.031 C 
ATOM     34  C   UNL     1       5.226  -3.082   8.842  1.00  0.00     0.029 A 
ATOM     35  C   UNL     1       3.998  -3.153   9.500  1.00  0.00     0.049 A 
ATOM     36  H   UNL     1       3.449  -1.767  10.995  1.00  0.00     0.167 HD
ATOM     37  C   UNL     1       1.637  -3.873   9.764  1.00  0.00     0.074 A 
ATOM     38  C   UNL     1       0.975  -2.663  10.247  1.00  0.00     0.031 C 
ATOM     39  C   UNL     1       2.947  -4.145   9.490  1.00  0.00     0.037 A 
BRANCH  26  40
ATOM     40  C   UNL     1       3.498   1.170  10.233  1.00  0.00     0.058 A 
ATOM     41  C   UNL     1       4.167   1.069  11.473  1.00  0.00     0.135 A 
ATOM     42  C   UNL     1       2.303   1.924  10.253  1.00  0.00     0.135 A 
ATOM     43  F   UNL     1       5.323   0.393  11.574  1.00  0.00    -0.206 F 
ATOM     44  C   UNL     1       3.630   1.575  12.658  1.00  0.00     0.059 A 
ATOM     45  C   UNL     1       1.778   2.483  11.413  1.00  0.00     0.059 A 
ATOM     46  F   UNL     1       1.529   2.074   9.172  1.00  0.00    -0.206 F 
ATOM     47  C   UNL     1       2.418   2.255  12.619  1.00  0.00     0.060 A 
BRANCH  47  48
ATOM     48  S   UNL     1       1.637   2.764  14.160  1.00  0.00     0.124 S 
ATOM     49  O   UNL     1       1.249   1.476  14.723  1.00  0.00    -0.237 OA
ATOM     50  O   UNL     1       2.727   3.458  14.838  1.00  0.00    -0.237 OA
ATOM     51  O   UNL     1       0.540   3.617  13.713  1.00  0.00    -0.744 OA
ENDBRANCH  47  48
ENDBRANCH  26  40
BRANCH  27  52
ATOM     52  C   UNL     1      -2.875  -3.962   8.306  1.00  0.00     0.058 A 
ATOM     53  C   UNL     1      -3.420  -4.601   9.434  1.00  0.00     0.135 A 
ATOM     54  C   UNL     1      -3.755  -3.135   7.577  1.00  0.00     0.135 A 
ATOM     55  F   UNL     1      -2.648  -5.383  10.203  1.00  0.00    -0.206 F 
ATOM     56  C   UNL     1      -4.746  -4.402   9.836  1.00  0.00     0.059 A 
ATOM     57  C   UNL     1      -5.082  -2.933   7.950  1.00  0.00     0.059 A 
ATOM     58  F   UNL     1      -3.326  -2.420   6.527  1.00  0.00    -0.206 F 
ATOM     59  C   UNL     1      -5.566  -3.551   9.095  1.00  0.00     0.060 A 
BRANCH  59  60
ATOM     60  S   UNL     1      -7.227  -3.162   9.696  1.00  0.00     0.124 S 
ATOM     61  O   UNL     1      -7.923  -4.429   9.501  1.00  0.00    -0.237 OA
ATOM     62  O   UNL     1      -6.973  -2.780  11.081  1.00  0.00    -0.237 OA
ATOM     63  O   UNL     1      -7.657  -2.073   8.822  1.00  0.00    -0.744 OA
ENDBRANCH  59  60
ENDBRANCH  27  52
BRANCH  39  64
ATOM     64  C   UNL     1       3.290  -5.485   8.893  1.00  0.00     0.058 A 
ATOM     65  C   UNL     1       2.865  -5.916   7.624  1.00  0.00     0.135 A 
ATOM     66  C   UNL     1       4.217  -6.294   9.566  1.00  0.00     0.135 A 
ATOM     67  F   UNL     1       2.066  -5.151   6.867  1.00  0.00    -0.206 F 
ATOM     68  C   UNL     1       3.311  -7.116   7.068  1.00  0.00     0.059 A 
ATOM     69  C   UNL     1       4.700  -7.479   9.017  1.00  0.00     0.059 A 
ATOM     70  F   UNL     1       4.713  -5.906  10.753  1.00  0.00    -0.206 F 
ATOM     71  C   UNL     1       4.233  -7.890   7.770  1.00  0.00     0.060 A 
BRANCH  71  72
ATOM     72  S   UNL     1       4.885  -9.392   7.008  1.00  0.00     0.124 S 
ATOM     73  O   UNL     1       3.735 -10.293   7.076  1.00  0.00    -0.237 OA
ATOM     74  O   UNL     1       5.245  -8.934   5.665  1.00  0.00    -0.237 OA
ATOM     75  O   UNL     1       6.010  -9.749   7.856  1.00  0.00    -0.744 OA
ENDBRANCH  71  72
ENDBRANCH  39  64
ENDBRANCH  13  14
ENDBRANCH   6   8
ENDBRANCH   3   4
ENDBRANCH   2   3
ENDBRANCH   1   2
BRANCH   1  76
ATOM     76  C   UNL     1       4.926  -2.432  -3.267  1.00  0.00     0.002 C 
BRANCH  76  77
ATOM     77  C   UNL     1       6.445  -2.267  -3.356  1.00  0.00     0.021 C 
BRANCH  77  78
ATOM     78  C   UNL     1       7.266  -3.447  -2.857  1.00  0.00     0.116 C 
BRANCH  78  79
ATOM     79  N   UNL     1       6.928  -4.687  -3.517  1.00  0.00    -0.354 N 
ATOM     80  C   UNL     1       7.777  -5.604  -4.060  1.00  0.00     0.243 C 
ATOM     81  H   UNL     1       5.968  -4.895  -3.582  1.00  0.00     0.163 HD
ATOM     82  O   UNL     1       7.340  -6.735  -4.278  1.00  0.00    -0.273 OA
BRANCH  80  83
ATOM     83  C   UNL     1       9.243  -5.224  -4.325  1.00  0.00     0.180 C 
ATOM     84  C   UNL     1      10.149  -6.504  -4.434  1.00  0.00     0.091 C 
ATOM     85  N   UNL     1       9.611  -4.108  -5.298  1.00  0.00    -0.324 N 
ATOM     86  C   UNL     1      11.515  -6.093  -4.827  1.00  0.00     0.042 A 
ATOM     87  C   UNL     1      11.005  -3.624  -5.110  1.00  0.00     0.178 C 
ATOM     88  N   UNL     1      12.609  -6.884  -5.006  1.00  0.00    -0.348 N 
ATOM     89  C   UNL     1      11.914  -4.813  -5.136  1.00  0.00     0.081 A 
ATOM     90  C   UNL     1      13.634  -6.053  -5.373  1.00  0.00     0.197 A 
ATOM     91  H   UNL     1      12.655  -7.861  -4.893  1.00  0.00     0.167 HD
ATOM     92  N   UNL     1      13.247  -4.796  -5.455  1.00  0.00    -0.240 NA
BRANCH  85  93
ATOM     93  C   UNL     1       8.995  -3.674  -6.474  1.00  0.00     0.224 C 
ATOM     94  O   UNL     1       9.551  -2.856  -7.220  1.00  0.00    -0.275 OA
BRANCH  93  95
ATOM     95  C   UNL     1       7.586  -4.099  -6.879  1.00  0.00     0.107 C 
BRANCH  95  96
ATOM     96  C   UNL     1       7.446  -5.382  -7.736  1.00  0.00    -0.020 C 
ATOM     97  C   UNL     1       8.576  -6.371  -7.430  1.00  0.00     0.011 C 
ATOM     98  C   UNL     1       7.471  -5.138  -9.268  1.00  0.00     0.011 C 
ATOM     99  C   UNL     1       6.072  -6.032  -7.412  1.00  0.00     0.011 C 
ATOM    100  C   UNL     1       8.413  -7.705  -8.144  1.00  0.00    -0.010 C 
ATOM    101  C   UNL     1       7.304  -6.482 -10.029  1.00  0.00    -0.010 C 
ATOM    102  C   UNL     1       5.919  -7.382  -8.126  1.00  0.00    -0.010 C 
ATOM    103  C   UNL     1       7.071  -8.313  -7.715  1.00  0.00     0.007 C 
ATOM    104  C   UNL     1       8.443  -7.444  -9.651  1.00  0.00     0.007 C 
ATOM    105  C   UNL     1       5.970  -7.147  -9.642  1.00  0.00     0.007 C 
ENDBRANCH  95  96
ENDBRANCH  93  95
ENDBRANCH  85  93
ENDBRANCH  80  83
ENDBRANCH  78  79
ENDBRANCH  77  78
ENDBRANCH  76  77
ENDBRANCH   1  76
TORSDOF 19
