REMARK SMILES CC1(C)C[C@](CC(=O)NCCCCCCNC(=O)c2ccc(-c3c4nc(c(-c5c(F)cc(S(=O)(=O)[O-])cc5F)c5ccc([nH]5)c(-c5c(F)cc(S(=O)(=O)[O-])cc5F)c5nc(c(-c6c(F)cc(S(=O)(=O)[O-])cc6F)c6ccc3[nH]6)C=C5)C=C4)cc2)([NH+]2CCCC2)C(C)(C)O1
REMARK SMILES IDX 13 1 12 2 11 3 10 4 9 5 7 6 8 7 6 9 5 10 1 11 2 12 3 13 4 14
REMARK SMILES IDX 93 15 90 16 91 17 92 18 85 19 86 20 89 21 87 23 88 24 14 25
REMARK SMILES IDX 15 26 16 27 17 28 18 30 19 31 20 32 84 33 21 34 83 35 22 36
REMARK SMILES IDX 23 37 24 38 77 39 25 40 82 41 76 42 78 43 26 44 81 45 75 46
REMARK SMILES IDX 74 47 27 49 61 50 40 51 60 52 41 53 44 54 59 55 79 56 42 57
REMARK SMILES IDX 43 58 58 60 80 61 45 62 28 63 29 64 38 65 30 66 31 67 37 68
REMARK SMILES IDX 39 69 32 70 33 71 34 72 35 73 36 74 62 75 63 76 72 77 64 78
REMARK SMILES IDX 65 79 71 80 73 81 66 82 67 83 68 84 69 85 70 86 46 87 47 88
REMARK SMILES IDX 56 89 48 90 49 91 55 92 57 93 50 94 51 95 52 96 53 97 54 98
REMARK H PARENT 9 8 85 22 16 29 78 48 44 59
REMARK Flexibility Score: inf
ROOT
ATOM      1  C   UNL     1       1.862   8.841   0.177  1.00  0.00     0.002 C 
ENDROOT
BRANCH   1   2
ATOM      2  C   UNL     1       1.254   8.392  -1.155  1.00  0.00     0.002 C 
BRANCH   2   3
ATOM      3  C   UNL     1       0.870   6.918  -1.253  1.00  0.00     0.021 C 
BRANCH   3   4
ATOM      4  C   UNL     1      -0.151   6.423  -0.232  1.00  0.00     0.116 C 
BRANCH   4   5
ATOM      5  N   UNL     1      -1.442   6.155  -0.821  1.00  0.00    -0.356 N 
ATOM      6  C   UNL     1      -2.207   5.039  -0.897  1.00  0.00     0.226 C 
ATOM      7  O   UNL     1      -3.377   5.233  -1.257  1.00  0.00    -0.275 OA
ATOM      8  H   UNL     1      -1.848   6.941  -1.254  1.00  0.00     0.163 HD
BRANCH   6   9
ATOM      9  C   UNL     1      -1.763   3.619  -0.528  1.00  0.00     0.171 C 
BRANCH   9  10
ATOM     10  C   UNL     1      -0.747   2.722  -1.353  1.00  0.00     0.138 C 
ATOM     11  C   UNL     1       0.349  -0.263   0.525  1.00  0.00     0.042 C 
ATOM     12  C   UNL     1       0.234   0.448  -0.838  1.00  0.00     0.070 C 
ATOM     13  C   UNL     1       0.444  -0.650  -1.887  1.00  0.00     0.042 C 
ATOM     14  C   UNL     1      -1.081   1.230  -0.959  1.00  0.00     0.107 C 
ATOM     15  O   UNL     1       1.290   1.407  -0.980  1.00  0.00    -0.363 OA
ATOM     16  C   UNL     1       0.764   2.760  -0.832  1.00  0.00     0.118 C 
ATOM     17  C   UNL     1       0.983   3.064   0.673  1.00  0.00     0.049 C 
ATOM     18  C   UNL     1       1.691   3.648  -1.672  1.00  0.00     0.049 C 
BRANCH  10  19
ATOM     19  N   UNL     1      -0.987   2.808  -2.829  1.00  0.00    -0.327 N 
ATOM     20  C   UNL     1      -1.345   4.065  -3.476  1.00  0.00     0.263 C 
ATOM     21  C   UNL     1      -0.203   2.013  -3.770  1.00  0.00     0.263 C 
ATOM     22  H   UNL     1      -1.855   2.308  -2.632  1.00  0.00     0.348 HD
ATOM     23  C   UNL     1      -1.217   3.808  -4.967  1.00  0.00     0.067 C 
ATOM     24  C   UNL     1      -0.070   2.835  -5.044  1.00  0.00     0.067 C 
ENDBRANCH  10  19
ENDBRANCH   9  10
ENDBRANCH   6   9
ENDBRANCH   4   5
ENDBRANCH   3   4
ENDBRANCH   2   3
ENDBRANCH   1   2
BRANCH   1  25
ATOM     25  C   UNL     1       2.981   7.971   0.763  1.00  0.00     0.021 C 
BRANCH  25  26
ATOM     26  C   UNL     1       4.165   7.664  -0.154  1.00  0.00     0.116 C 
BRANCH  26  27
ATOM     27  N   UNL     1       4.746   8.855  -0.746  1.00  0.00    -0.352 N 
ATOM     28  C   UNL     1       5.985   9.422  -0.597  1.00  0.00     0.251 C 
ATOM     29  H   UNL     1       4.147   9.338  -1.360  1.00  0.00     0.163 HD
ATOM     30  O   UNL     1       6.191  10.533  -1.082  1.00  0.00    -0.269 OA
BRANCH  28  31
ATOM     31  C   UNL     1       7.064   8.737   0.149  1.00  0.00     0.039 A 
ATOM     32  C   UNL     1       7.861   9.503   1.007  1.00  0.00     0.014 A 
ATOM     33  C   UNL     1       7.344   7.379  -0.028  1.00  0.00     0.014 A 
ATOM     34  C   UNL     1       8.898   8.900   1.723  1.00  0.00     0.010 A 
ATOM     35  C   UNL     1       8.341   6.765   0.733  1.00  0.00     0.010 A 
ATOM     36  C   UNL     1       9.131   7.519   1.614  1.00  0.00    -0.014 A 
BRANCH  36  37
ATOM     37  C   UNL     1      10.188   6.865   2.429  1.00  0.00     0.031 A 
ATOM     38  C   UNL     1      11.402   6.264   1.774  1.00  0.00     0.074 A 
ATOM     39  C   UNL     1      10.036   6.785   3.766  1.00  0.00     0.049 A 
ATOM     40  N   UNL     1      12.416   5.645   2.325  1.00  0.00    -0.248 NA
ATOM     41  C   UNL     1      11.481   6.353   0.307  1.00  0.00     0.031 C 
ATOM     42  C   UNL     1       8.882   7.287   4.516  1.00  0.00     0.029 A 
ATOM     43  N   UNL     1      10.851   6.251   4.733  1.00  0.00    -0.354 N 
ATOM     44  C   UNL     1      13.247   5.265   1.277  1.00  0.00     0.074 A 
ATOM     45  C   UNL     1      12.596   5.683   0.053  1.00  0.00     0.031 C 
ATOM     46  C   UNL     1       9.073   7.057   5.825  1.00  0.00     0.029 A 
ATOM     47  C   UNL     1      10.346   6.367   6.007  1.00  0.00     0.049 A 
ATOM     48  H   UNL     1      11.716   5.825   4.533  1.00  0.00     0.167 HD
ATOM     49  C   UNL     1      14.451   4.645   1.330  1.00  0.00     0.037 A 
ATOM     50  C   UNL     1      10.850   5.963   7.189  1.00  0.00     0.037 A 
ATOM     51  C   UNL     1      15.105   4.250   2.552  1.00  0.00     0.049 A 
ATOM     52  C   UNL     1      12.193   5.285   7.222  1.00  0.00     0.074 A 
ATOM     53  C   UNL     1      16.349   3.664   2.712  1.00  0.00     0.029 A 
ATOM     54  N   UNL     1      14.570   4.399   3.823  1.00  0.00    -0.354 N 
ATOM     55  N   UNL     1      12.992   4.990   6.225  1.00  0.00    -0.248 NA
ATOM     56  C   UNL     1      12.706   4.893   8.542  1.00  0.00     0.031 C 
ATOM     57  C   UNL     1      16.551   3.427   4.076  1.00  0.00     0.029 A 
ATOM     58  C   UNL     1      15.450   3.903   4.770  1.00  0.00     0.049 A 
ATOM     59  H   UNL     1      13.693   4.800   4.022  1.00  0.00     0.167 HD
ATOM     60  C   UNL     1      14.112   4.399   6.798  1.00  0.00     0.074 A 
ATOM     61  C   UNL     1      13.894   4.392   8.230  1.00  0.00     0.031 C 
ATOM     62  C   UNL     1      15.220   3.904   6.193  1.00  0.00     0.037 A 
BRANCH  49  63
ATOM     63  C   UNL     1      15.148   4.361   0.028  1.00  0.00     0.058 A 
ATOM     64  C   UNL     1      15.722   5.389  -0.737  1.00  0.00     0.135 A 
ATOM     65  C   UNL     1      15.286   3.044  -0.440  1.00  0.00     0.135 A 
ATOM     66  F   UNL     1      15.609   6.668  -0.344  1.00  0.00    -0.206 F 
ATOM     67  C   UNL     1      16.385   5.126  -1.931  1.00  0.00     0.059 A 
ATOM     68  C   UNL     1      15.967   2.754  -1.619  1.00  0.00     0.059 A 
ATOM     69  F   UNL     1      14.758   2.022   0.253  1.00  0.00    -0.206 F 
ATOM     70  C   UNL     1      16.502   3.804  -2.365  1.00  0.00     0.060 A 
BRANCH  70  71
ATOM     71  S   UNL     1      17.373   3.477  -3.912  1.00  0.00     0.124 S 
ATOM     72  O   UNL     1      16.395   3.929  -4.897  1.00  0.00    -0.237 OA
ATOM     73  O   UNL     1      18.568   4.305  -3.780  1.00  0.00    -0.237 OA
ATOM     74  O   UNL     1      17.605   2.037  -3.874  1.00  0.00    -0.744 OA
ENDBRANCH  70  71
ENDBRANCH  49  63
BRANCH  50  75
ATOM     75  C   UNL     1      10.091   6.209   8.444  1.00  0.00     0.058 A 
ATOM     76  C   UNL     1      10.528   7.162   9.376  1.00  0.00     0.135 A 
ATOM     77  C   UNL     1       8.913   5.503   8.732  1.00  0.00     0.135 A 
ATOM     78  F   UNL     1      11.652   7.857   9.147  1.00  0.00    -0.206 F 
ATOM     79  C   UNL     1       9.835   7.394  10.559  1.00  0.00     0.059 A 
ATOM     80  C   UNL     1       8.190   5.735   9.897  1.00  0.00     0.059 A 
ATOM     81  F   UNL     1       8.444   4.594   7.863  1.00  0.00    -0.206 F 
ATOM     82  C   UNL     1       8.666   6.674  10.811  1.00  0.00     0.060 A 
BRANCH  82  83
ATOM     83  S   UNL     1       7.747   7.012  12.329  1.00  0.00     0.124 S 
ATOM     84  O   UNL     1       8.569   6.336  13.325  1.00  0.00    -0.237 OA
ATOM     85  O   UNL     1       7.755   8.471  12.376  1.00  0.00    -0.237 OA
ATOM     86  O   UNL     1       6.443   6.410  12.070  1.00  0.00    -0.744 OA
ENDBRANCH  82  83
ENDBRANCH  50  75
BRANCH  62  87
ATOM     87  C   UNL     1      16.291   3.337   7.082  1.00  0.00     0.058 A 
ATOM     88  C   UNL     1      16.132   2.103   7.731  1.00  0.00     0.135 A 
ATOM     89  C   UNL     1      17.503   4.023   7.263  1.00  0.00     0.135 A 
ATOM     90  F   UNL     1      14.990   1.411   7.596  1.00  0.00    -0.206 F 
ATOM     91  C   UNL     1      17.125   1.582   8.554  1.00  0.00     0.059 A 
ATOM     92  C   UNL     1      18.520   3.508   8.061  1.00  0.00     0.059 A 
ATOM     93  F   UNL     1      17.710   5.202   6.656  1.00  0.00    -0.206 F 
ATOM     94  C   UNL     1      18.316   2.294   8.715  1.00  0.00     0.060 A 
BRANCH  94  95
ATOM     95  S   UNL     1      19.605   1.602   9.773  1.00  0.00     0.124 S 
ATOM     96  O   UNL     1      19.076   1.884  11.103  1.00  0.00    -0.237 OA
ATOM     97  O   UNL     1      19.613   0.196   9.380  1.00  0.00    -0.237 OA
ATOM     98  O   UNL     1      20.795   2.358   9.395  1.00  0.00    -0.744 OA
ENDBRANCH  94  95
ENDBRANCH  62  87
ENDBRANCH  36  37
ENDBRANCH  28  31
ENDBRANCH  26  27
ENDBRANCH  25  26
ENDBRANCH   1  25
TORSDOF 18
