REMARK SMILES CC(=O)O[C@@H]1CC[C@@]23C(=O)O[C@]4(CC[C@]2(O)C1)[C@H]3CC[C@]1(C)[C@H](C(=O)NCCCCCCNC(=O)c2ccc(-c3c5nc(c(-c6c(F)cc(S(=O)(=O)[O-])cc6F)c6ccc([nH]6)c(-c6c(F)cc(S(=O)(=O)[O-])cc6F)c6nc(c(-c7c(F)cc(S(=O)(=O)[O-])cc7F)c7ccc3[nH]7)C=C6)C=C5)cc2)CC[C@@H]14
REMARK SMILES IDX 30 1 29 2 28 3 27 4 26 5 24 6 25 7 23 9 5 10 6 11 17 12 7 13
REMARK SMILES IDX 15 14 8 15 14 16 9 17 18 18 13 19 10 20 11 21 12 22 19 23
REMARK SMILES IDX 104 24 20 25 21 26 103 27 22 28 102 29 4 30 2 31 1 32 3 33
REMARK SMILES IDX 16 34 31 36 32 37 33 38 34 39 35 41 36 42 37 43 101 44 38 45
REMARK SMILES IDX 100 46 39 47 40 48 41 49 94 50 42 51 99 52 93 53 95 54 43 55
REMARK SMILES IDX 98 56 92 57 91 58 44 60 78 61 57 62 77 63 58 64 61 65 76 66
REMARK SMILES IDX 96 67 59 68 60 69 75 71 97 72 62 73 45 74 46 75 55 76 47 77
REMARK SMILES IDX 48 78 54 79 56 80 49 81 50 82 51 83 52 84 53 85 79 86 80 87
REMARK SMILES IDX 89 88 81 89 82 90 88 91 90 92 83 93 84 94 85 95 86 96 87 97
REMARK SMILES IDX 63 98 64 99 73 100 65 101 66 102 72 103 74 104 67 105 68 106
REMARK SMILES IDX 69 107 70 108 71 109
REMARK H PARENT 26 8 16 35 33 40 95 59 61 70
REMARK Flexibility Score: inf
ROOT
ATOM      1  C   UNL     1      -5.396  -9.935   0.251  1.00  0.00     0.002 C 
ENDROOT
BRANCH   1   2
ATOM      2  C   UNL     1      -4.505 -10.190   1.468  1.00  0.00     0.002 C 
BRANCH   2   3
ATOM      3  C   UNL     1      -3.335  -9.214   1.604  1.00  0.00     0.021 C 
BRANCH   3   4
ATOM      4  C   UNL     1      -3.755  -7.777   1.953  1.00  0.00     0.116 C 
BRANCH   4   5
ATOM      5  N   UNL     1      -3.905  -7.667   3.390  1.00  0.00    -0.356 N 
ATOM      6  C   UNL     1      -3.058  -7.293   4.375  1.00  0.00     0.223 C 
ATOM      7  O   UNL     1      -3.402  -7.622   5.519  1.00  0.00    -0.275 OA
ATOM      8  H   UNL     1      -4.802  -7.912   3.713  1.00  0.00     0.163 HD
BRANCH   6   9
ATOM      9  C   UNL     1      -1.803  -6.430   4.211  1.00  0.00     0.085 C 
ATOM     10  C   UNL     1       0.840  -3.026  -2.408  1.00  0.00     0.179 C 
ATOM     11  C   UNL     1      -0.517  -3.509  -1.952  1.00  0.00     0.047 C 
ATOM     12  C   UNL     1       1.749  -4.278  -2.424  1.00  0.00     0.081 C 
ATOM     13  C   UNL     1      -0.363  -4.057  -0.550  1.00  0.00     0.026 C 
ATOM     14  C   UNL     1       1.755  -5.168  -1.136  1.00  0.00     0.085 C 
ATOM     15  C   UNL     1       0.440  -5.554  -0.532  1.00  0.00     0.103 C 
ATOM     16  C   UNL     1       2.474  -4.402   0.060  1.00  0.00     0.041 C 
ATOM     17  C   UNL     1      -0.798  -6.151  -0.097  1.00  0.00     0.316 C 
ATOM     18  C   UNL     1       1.070  -6.469   0.874  1.00  0.00     0.054 C 
ATOM     19  C   UNL     1       1.658  -4.327   1.463  1.00  0.00     0.052 C 
ATOM     20  O   UNL     1      -1.701  -6.729  -0.680  1.00  0.00    -0.251 OA
ATOM     21  O   UNL     1      -0.827  -5.590   1.202  1.00  0.00    -0.458 OA
ATOM     22  C   UNL     1       0.543  -5.447   1.761  1.00  0.00     0.120 C 
ATOM     23  C   UNL     1       0.640  -7.886   1.365  1.00  0.00     0.009 C 
ATOM     24  C   UNL     1       0.313  -5.589   3.250  1.00  0.00     0.040 C 
ATOM     25  C   UNL     1      -0.402  -7.964   2.518  1.00  0.00     0.008 C 
ATOM     26  C   UNL     1      -0.399  -6.914   3.663  1.00  0.00    -0.014 C 
ATOM     27  C   UNL     1      -0.657  -4.442   3.659  1.00  0.00     0.009 C 
ATOM     28  C   UNL     1       0.360  -7.517   4.869  1.00  0.00     0.012 C 
ATOM     29  C   UNL     1      -2.058  -5.048   3.628  1.00  0.00     0.014 C 
BRANCH  10  30
ATOM     30  O   UNL     1       1.465  -1.978  -1.600  1.00  0.00    -0.462 OA
BRANCH  30  31
ATOM     31  C   UNL     1       0.762  -0.993  -0.972  1.00  0.00     0.302 C 
ATOM     32  C   UNL     1       1.676   0.036  -0.372  1.00  0.00     0.139 C 
ATOM     33  O   UNL     1      -0.453  -0.906  -0.872  1.00  0.00    -0.253 OA
ENDBRANCH  30  31
ENDBRANCH  10  30
BRANCH  14  34
ATOM     34  O   UNL     1       2.474  -6.362  -1.460  1.00  0.00    -0.389 OA
ATOM     35  H   UNL     1       2.501  -6.943  -0.684  1.00  0.00     0.211 HD
ENDBRANCH  14  34
ENDBRANCH   6   9
ENDBRANCH   4   5
ENDBRANCH   3   4
ENDBRANCH   2   3
ENDBRANCH   1   2
BRANCH   1  36
ATOM     36  C   UNL     1      -4.658  -9.885  -1.091  1.00  0.00     0.021 C 
BRANCH  36  37
ATOM     37  C   UNL     1      -3.808 -11.116  -1.397  1.00  0.00     0.116 C 
BRANCH  37  38
ATOM     38  N   UNL     1      -4.612 -12.329  -1.428  1.00  0.00    -0.352 N 
ATOM     39  C   UNL     1      -4.843 -13.189  -2.470  1.00  0.00     0.251 C 
ATOM     40  H   UNL     1      -5.052 -12.565  -0.580  1.00  0.00     0.163 HD
ATOM     41  O   UNL     1      -5.745 -14.018  -2.398  1.00  0.00    -0.269 OA
BRANCH  39  42
ATOM     42  C   UNL     1      -4.001 -13.109  -3.681  1.00  0.00     0.039 A 
ATOM     43  C   UNL     1      -4.609 -13.149  -4.938  1.00  0.00     0.014 A 
ATOM     44  C   UNL     1      -2.610 -13.008  -3.572  1.00  0.00     0.014 A 
ATOM     45  C   UNL     1      -3.824 -13.036  -6.087  1.00  0.00     0.010 A 
ATOM     46  C   UNL     1      -1.838 -12.824  -4.714  1.00  0.00     0.010 A 
ATOM     47  C   UNL     1      -2.436 -12.844  -5.983  1.00  0.00    -0.014 A 
BRANCH  47  48
ATOM     48  C   UNL     1      -1.591 -12.669  -7.191  1.00  0.00     0.031 A 
ATOM     49  C   UNL     1      -0.537 -13.689  -7.528  1.00  0.00     0.074 A 
ATOM     50  C   UNL     1      -1.732 -11.562  -7.947  1.00  0.00     0.049 A 
ATOM     51  N   UNL     1       0.341 -13.680  -8.498  1.00  0.00    -0.248 NA
ATOM     52  C   UNL     1      -0.441 -14.861  -6.643  1.00  0.00     0.031 C 
ATOM     53  C   UNL     1      -2.690 -10.483  -7.695  1.00  0.00     0.029 A 
ATOM     54  N   UNL     1      -1.066 -11.157  -9.076  1.00  0.00    -0.354 N 
ATOM     55  C   UNL     1       1.098 -14.835  -8.334  1.00  0.00     0.074 A 
ATOM     56  C   UNL     1       0.613 -15.491  -7.140  1.00  0.00     0.031 C 
ATOM     57  C   UNL     1      -2.566  -9.552  -8.654  1.00  0.00     0.029 A 
ATOM     58  C   UNL     1      -1.496  -9.946  -9.565  1.00  0.00     0.049 A 
ATOM     59  H   UNL     1      -0.348 -11.683  -9.496  1.00  0.00     0.167 HD
ATOM     60  C   UNL     1       2.089 -15.316  -9.122  1.00  0.00     0.037 A 
ATOM     61  C   UNL     1      -1.070  -9.230 -10.624  1.00  0.00     0.037 A 
ATOM     62  C   UNL     1       2.552 -14.664 -10.319  1.00  0.00     0.049 A 
ATOM     63  C   UNL     1       0.044  -9.778 -11.476  1.00  0.00     0.074 A 
ATOM     64  C   UNL     1       3.517 -15.091 -11.214  1.00  0.00     0.029 A 
ATOM     65  N   UNL     1       2.085 -13.444 -10.789  1.00  0.00    -0.354 N 
ATOM     66  N   UNL     1       0.711 -10.900 -11.340  1.00  0.00    -0.248 NA
ATOM     67  C   UNL     1       0.461  -8.966 -12.627  1.00  0.00     0.031 C 
ATOM     68  C   UNL     1       3.666 -14.109 -12.199  1.00  0.00     0.029 A 
ATOM     69  C   UNL     1       2.756 -13.094 -11.948  1.00  0.00     0.049 A 
ATOM     70  H   UNL     1       1.380 -12.907 -10.360  1.00  0.00     0.167 HD
ATOM     71  C   UNL     1       1.604 -10.943 -12.404  1.00  0.00     0.074 A 
ATOM     72  C   UNL     1       1.386  -9.739 -13.180  1.00  0.00     0.031 C 
ATOM     73  C   UNL     1       2.521 -11.893 -12.713  1.00  0.00     0.037 A 
BRANCH  60  74
ATOM     74  C   UNL     1       2.737 -16.611  -8.712  1.00  0.00     0.058 A 
ATOM     75  C   UNL     1       2.048 -17.833  -8.777  1.00  0.00     0.135 A 
ATOM     76  C   UNL     1       4.071 -16.638  -8.274  1.00  0.00     0.135 A 
ATOM     77  F   UNL     1       0.766 -17.866  -9.176  1.00  0.00    -0.206 F 
ATOM     78  C   UNL     1       2.644 -19.028  -8.389  1.00  0.00     0.059 A 
ATOM     79  C   UNL     1       4.698 -17.826  -7.909  1.00  0.00     0.059 A 
ATOM     80  F   UNL     1       4.779 -15.500  -8.193  1.00  0.00    -0.206 F 
ATOM     81  C   UNL     1       3.970 -19.014  -7.954  1.00  0.00     0.060 A 
BRANCH  81  82
ATOM     82  S   UNL     1       4.729 -20.573  -7.450  1.00  0.00     0.124 S 
ATOM     83  O   UNL     1       4.066 -20.819  -6.173  1.00  0.00    -0.237 OA
ATOM     84  O   UNL     1       4.355 -21.469  -8.540  1.00  0.00    -0.237 OA
ATOM     85  O   UNL     1       6.149 -20.249  -7.367  1.00  0.00    -0.744 OA
ENDBRANCH  81  82
ENDBRANCH  60  74
BRANCH  61  86
ATOM     86  C   UNL     1      -1.717  -7.932 -10.953  1.00  0.00     0.058 A 
ATOM     87  C   UNL     1      -2.523  -7.798 -12.093  1.00  0.00     0.135 A 
ATOM     88  C   UNL     1      -1.554  -6.805 -10.133  1.00  0.00     0.135 A 
ATOM     89  F   UNL     1      -2.705  -8.845 -12.912  1.00  0.00    -0.206 F 
ATOM     90  C   UNL     1      -3.131  -6.590 -12.419  1.00  0.00     0.059 A 
ATOM     91  C   UNL     1      -2.173  -5.593 -10.423  1.00  0.00     0.059 A 
ATOM     92  F   UNL     1      -0.804  -6.884  -9.022  1.00  0.00    -0.206 F 
ATOM     93  C   UNL     1      -2.951  -5.493 -11.575  1.00  0.00     0.060 A 
BRANCH  93  94
ATOM     94  S   UNL     1      -3.777  -3.940 -11.986  1.00  0.00     0.124 S 
ATOM     95  O   UNL     1      -2.994  -3.485 -13.128  1.00  0.00    -0.237 OA
ATOM     96  O   UNL     1      -5.136  -4.385 -12.280  1.00  0.00    -0.237 OA
ATOM     97  O   UNL     1      -3.633  -3.151 -10.766  1.00  0.00    -0.744 OA
ENDBRANCH  93  94
ENDBRANCH  61  86
BRANCH  73  98
ATOM     98  C   UNL     1       3.334 -11.691 -13.962  1.00  0.00     0.058 A 
ATOM     99  C   UNL     1       4.350 -10.727 -14.035  1.00  0.00     0.135 A 
ATOM    100  C   UNL     1       3.127 -12.513 -15.083  1.00  0.00     0.135 A 
ATOM    101  F   UNL     1       4.584  -9.911 -12.995  1.00  0.00    -0.206 F 
ATOM    102  C   UNL     1       5.120 -10.568 -15.183  1.00  0.00     0.059 A 
ATOM    103  C   UNL     1       3.904 -12.391 -16.231  1.00  0.00     0.059 A 
ATOM    104  F   UNL     1       2.174 -13.458 -15.062  1.00  0.00    -0.206 F 
ATOM    105  C   UNL     1       4.891 -11.408 -16.275  1.00  0.00     0.060 A 
BRANCH 105 106
ATOM    106  S   UNL     1       5.923 -11.217 -17.744  1.00  0.00     0.124 S 
ATOM    107  O   UNL     1       5.396  -9.981 -18.314  1.00  0.00    -0.237 OA
ATOM    108  O   UNL     1       7.264 -11.131 -17.174  1.00  0.00    -0.237 OA
ATOM    109  O   UNL     1       5.651 -12.429 -18.511  1.00  0.00    -0.744 OA
ENDBRANCH 105 106
ENDBRANCH  73  98
ENDBRANCH  47  48
ENDBRANCH  39  42
ENDBRANCH  37  38
ENDBRANCH  36  37
ENDBRANCH   1  36
TORSDOF 19
