REMARK SMILES C=C(C(=O)NCCCCCCNC(=O)c1ccc(-c2c3nc(c(-c4c(F)cc(S(=O)(=O)[O-])cc4F)c4ccc([nH]4)c(-c4c(F)cc(S(=O)(=O)[O-])cc4F)c4nc(c(-c5c(F)cc(S(=O)(=O)[O-])cc5F)c5ccc2[nH]5)C=C4)C=C3)cc1)[C@@H]1CC[C@]2(C)CCCC(=C)[C@H]2[C@H]1O
REMARK SMILES IDX 9 1 8 2 7 3 6 4 5 5 3 6 4 7 2 9 1 10 81 11 82 12 92 13 83 14
REMARK SMILES IDX 91 15 84 16 89 17 85 18 86 19 88 20 90 21 87 22 93 23 10 25
REMARK SMILES IDX 11 26 12 27 13 28 14 30 15 31 16 32 80 33 17 34 79 35 18 36
REMARK SMILES IDX 19 37 20 38 73 39 21 40 78 41 72 42 74 43 22 44 77 45 71 46
REMARK SMILES IDX 70 47 23 49 57 50 36 51 56 52 37 53 40 54 55 55 75 56 38 57
REMARK SMILES IDX 39 58 54 60 76 61 41 62 24 63 25 64 34 65 26 66 27 67 33 68
REMARK SMILES IDX 35 69 28 70 29 71 30 72 31 73 32 74 58 75 59 76 68 77 60 78
REMARK SMILES IDX 61 79 67 80 69 81 62 82 63 83 64 84 65 85 66 86 42 87 43 88
REMARK SMILES IDX 52 89 44 90 45 91 51 92 53 93 46 94 47 95 48 96 49 97 50 98
REMARK H PARENT 5 8 93 24 12 29 74 48 40 59
REMARK Flexibility Score: inf
ROOT
ATOM      1  C   UNL     1      -3.698   2.122  -2.223  1.00  0.00     0.002 C 
ENDROOT
BRANCH   1   2
ATOM      2  C   UNL     1      -3.291   0.669  -2.483  1.00  0.00     0.002 C 
BRANCH   2   3
ATOM      3  C   UNL     1      -1.790   0.365  -2.479  1.00  0.00     0.021 C 
BRANCH   3   4
ATOM      4  C   UNL     1      -0.998   0.834  -1.262  1.00  0.00     0.116 C 
BRANCH   4   5
ATOM      5  N   UNL     1      -1.508   0.311  -0.009  1.00  0.00    -0.352 N 
ATOM      6  C   UNL     1      -0.900  -0.181   1.102  1.00  0.00     0.246 C 
ATOM      7  O   UNL     1      -1.620  -0.427   2.068  1.00  0.00    -0.270 OA
ATOM      8  H   UNL     1      -2.491   0.313   0.048  1.00  0.00     0.163 HD
BRANCH   6   9
ATOM      9  C   UNL     1       0.570  -0.445   1.165  1.00  0.00     0.015 C 
ATOM     10  C   UNL     1       1.434   0.476   0.691  1.00  0.00     0.019 C 
BRANCH   9  11
ATOM     11  C   UNL     1       1.133  -1.629   1.965  1.00  0.00     0.053 C 
ATOM     12  C   UNL     1       1.736  -2.720   1.054  1.00  0.00     0.012 C 
ATOM     13  C   UNL     1       0.294  -2.251   3.130  1.00  0.00     0.129 C 
ATOM     14  C   UNL     1       0.751  -3.808   0.638  1.00  0.00     0.008 C 
ATOM     15  C   UNL     1      -0.695  -3.361   2.648  1.00  0.00     0.050 C 
ATOM     16  C   UNL     1       0.027  -4.483   1.829  1.00  0.00    -0.024 C 
ATOM     17  C   UNL     1      -1.637  -3.981   3.688  1.00  0.00    -0.071 C 
ATOM     18  C   UNL     1       1.038  -5.306   2.667  1.00  0.00     0.012 C 
ATOM     19  C   UNL     1      -1.025  -5.474   1.249  1.00  0.00     0.008 C 
ATOM     20  C   UNL     1      -2.661  -4.920   3.092  1.00  0.00     0.031 C 
ATOM     21  C   UNL     1      -1.618  -3.748   5.011  1.00  0.00     0.008 C 
ATOM     22  C   UNL     1      -1.983  -6.034   2.302  1.00  0.00     0.005 C 
BRANCH  13  23
ATOM     23  O   UNL     1       1.195  -2.806   4.112  1.00  0.00    -0.392 OA
ATOM     24  H   UNL     1       1.719  -3.514   3.706  1.00  0.00     0.211 HD
ENDBRANCH  13  23
ENDBRANCH   9  11
ENDBRANCH   6   9
ENDBRANCH   4   5
ENDBRANCH   3   4
ENDBRANCH   2   3
ENDBRANCH   1   2
BRANCH   1  25
ATOM     25  C   UNL     1      -3.001   3.178  -3.080  1.00  0.00     0.021 C 
BRANCH  25  26
ATOM     26  C   UNL     1      -3.106   2.966  -4.584  1.00  0.00     0.116 C 
BRANCH  26  27
ATOM     27  N   UNL     1      -4.471   3.083  -5.068  1.00  0.00    -0.352 N 
ATOM     28  C   UNL     1      -4.955   3.879  -6.078  1.00  0.00     0.251 C 
ATOM     29  H   UNL     1      -5.136   2.518  -4.613  1.00  0.00     0.163 HD
ATOM     30  O   UNL     1      -6.167   3.999  -6.246  1.00  0.00    -0.269 OA
BRANCH  28  31
ATOM     31  C   UNL     1      -4.006   4.609  -6.946  1.00  0.00     0.039 A 
ATOM     32  C   UNL     1      -4.213   5.967  -7.195  1.00  0.00     0.014 A 
ATOM     33  C   UNL     1      -2.898   3.953  -7.491  1.00  0.00     0.014 A 
ATOM     34  C   UNL     1      -3.275   6.683  -7.943  1.00  0.00     0.010 A 
ATOM     35  C   UNL     1      -1.928   4.684  -8.170  1.00  0.00     0.010 A 
ATOM     36  C   UNL     1      -2.108   6.055  -8.409  1.00  0.00    -0.014 A 
BRANCH  36  37
ATOM     37  C   UNL     1      -1.068   6.801  -9.164  1.00  0.00     0.031 A 
ATOM     38  C   UNL     1      -0.752   6.408 -10.583  1.00  0.00     0.074 A 
ATOM     39  C   UNL     1      -0.356   7.771  -8.553  1.00  0.00     0.049 A 
ATOM     40  N   UNL     1       0.196   6.846 -11.370  1.00  0.00    -0.248 NA
ATOM     41  C   UNL     1      -1.596   5.362 -11.189  1.00  0.00     0.031 C 
ATOM     42  C   UNL     1      -0.543   8.217  -7.170  1.00  0.00     0.029 A 
ATOM     43  N   UNL     1       0.683   8.545  -9.009  1.00  0.00    -0.354 N 
ATOM     44  C   UNL     1       0.081   6.114 -12.547  1.00  0.00     0.074 A 
ATOM     45  C   UNL     1      -1.003   5.176 -12.360  1.00  0.00     0.031 C 
ATOM     46  C   UNL     1       0.341   9.191  -6.896  1.00  0.00     0.029 A 
ATOM     47  C   UNL     1       1.188   9.409  -8.064  1.00  0.00     0.049 A 
ATOM     48  H   UNL     1       1.034   8.487  -9.927  1.00  0.00     0.167 HD
ATOM     49  C   UNL     1       0.803   6.228 -13.685  1.00  0.00     0.037 A 
ATOM     50  C   UNL     1       2.229  10.263  -8.126  1.00  0.00     0.037 A 
ATOM     51  C   UNL     1       1.849   7.198 -13.880  1.00  0.00     0.049 A 
ATOM     52  C   UNL     1       3.017  10.365  -9.408  1.00  0.00     0.074 A 
ATOM     53  C   UNL     1       2.584   7.446 -15.026  1.00  0.00     0.029 A 
ATOM     54  N   UNL     1       2.308   8.076 -12.911  1.00  0.00    -0.354 N 
ATOM     55  N   UNL     1       2.845   9.716 -10.535  1.00  0.00    -0.248 NA
ATOM     56  C   UNL     1       4.138  11.316  -9.430  1.00  0.00     0.031 C 
ATOM     57  C   UNL     1       3.527   8.434 -14.733  1.00  0.00     0.029 A 
ATOM     58  C   UNL     1       3.335   8.848 -13.425  1.00  0.00     0.049 A 
ATOM     59  H   UNL     1       1.955   8.142 -11.994  1.00  0.00     0.167 HD
ATOM     60  C   UNL     1       3.805  10.213 -11.411  1.00  0.00     0.074 A 
ATOM     61  C   UNL     1       4.552  11.218 -10.685  1.00  0.00     0.031 C 
ATOM     62  C   UNL     1       4.046   9.870 -12.699  1.00  0.00     0.037 A 
BRANCH  49  63
ATOM     63  C   UNL     1       0.499   5.292 -14.822  1.00  0.00     0.058 A 
ATOM     64  C   UNL     1      -0.672   5.413 -15.586  1.00  0.00     0.135 A 
ATOM     65  C   UNL     1       1.440   4.325 -15.212  1.00  0.00     0.135 A 
ATOM     66  F   UNL     1      -1.613   6.308 -15.247  1.00  0.00    -0.206 F 
ATOM     67  C   UNL     1      -0.900   4.606 -16.696  1.00  0.00     0.059 A 
ATOM     68  C   UNL     1       1.245   3.526 -16.334  1.00  0.00     0.059 A 
ATOM     69  F   UNL     1       2.574   4.164 -14.511  1.00  0.00    -0.206 F 
ATOM     70  C   UNL     1       0.069   3.673 -17.069  1.00  0.00     0.060 A 
BRANCH  70  71
ATOM     71  S   UNL     1      -0.218   2.677 -18.547  1.00  0.00     0.124 S 
ATOM     72  O   UNL     1      -1.287   1.791 -18.098  1.00  0.00    -0.237 OA
ATOM     73  O   UNL     1      -0.601   3.685 -19.530  1.00  0.00    -0.237 OA
ATOM     74  O   UNL     1       1.072   2.035 -18.781  1.00  0.00    -0.744 OA
ENDBRANCH  70  71
ENDBRANCH  49  63
BRANCH  50  75
ATOM     75  C   UNL     1       2.602  11.094  -6.947  1.00  0.00     0.058 A 
ATOM     76  C   UNL     1       2.479  12.492  -6.978  1.00  0.00     0.135 A 
ATOM     77  C   UNL     1       3.133  10.514  -5.784  1.00  0.00     0.135 A 
ATOM     78  F   UNL     1       1.981  13.096  -8.067  1.00  0.00    -0.206 F 
ATOM     79  C   UNL     1       2.911  13.287  -5.921  1.00  0.00     0.059 A 
ATOM     80  C   UNL     1       3.541  11.286  -4.700  1.00  0.00     0.059 A 
ATOM     81  F   UNL     1       3.254   9.180  -5.690  1.00  0.00    -0.206 F 
ATOM     82  C   UNL     1       3.447  12.674  -4.788  1.00  0.00     0.060 A 
BRANCH  82  83
ATOM     83  S   UNL     1       4.015  13.714  -3.425  1.00  0.00     0.124 S 
ATOM     84  O   UNL     1       5.239  14.280  -3.980  1.00  0.00    -0.237 OA
ATOM     85  O   UNL     1       2.899  14.640  -3.260  1.00  0.00    -0.237 OA
ATOM     86  O   UNL     1       4.198  12.763  -2.333  1.00  0.00    -0.744 OA
ENDBRANCH  82  83
ENDBRANCH  50  75
BRANCH  62  87
ATOM     87  C   UNL     1       5.113  10.627 -13.441  1.00  0.00     0.058 A 
ATOM     88  C   UNL     1       6.478  10.438 -13.178  1.00  0.00     0.135 A 
ATOM     89  C   UNL     1       4.760  11.495 -14.488  1.00  0.00     0.135 A 
ATOM     90  F   UNL     1       6.869   9.625 -12.184  1.00  0.00    -0.206 F 
ATOM     91  C   UNL     1       7.456  11.094 -13.917  1.00  0.00     0.059 A 
ATOM     92  C   UNL     1       5.722  12.137 -15.261  1.00  0.00     0.059 A 
ATOM     93  F   UNL     1       3.468  11.703 -14.788  1.00  0.00    -0.206 F 
ATOM     94  C   UNL     1       7.068  11.936 -14.962  1.00  0.00     0.060 A 
BRANCH  94  95
ATOM     95  S   UNL     1       8.350  12.735 -15.950  1.00  0.00     0.124 S 
ATOM     96  O   UNL     1       8.858  13.736 -15.019  1.00  0.00    -0.237 OA
ATOM     97  O   UNL     1       9.253  11.626 -16.244  1.00  0.00    -0.237 OA
ATOM     98  O   UNL     1       7.618  13.260 -17.099  1.00  0.00    -0.744 OA
ENDBRANCH  94  95
ENDBRANCH  62  87
ENDBRANCH  36  37
ENDBRANCH  28  31
ENDBRANCH  26  27
ENDBRANCH  25  26
ENDBRANCH   1  25
TORSDOF 18
