REMARK SMILES Cc1ccccc1CCNS(=O)(=O)c1ccc(C(=O)NCCCCCCNC(=O)c2ccc(-c3c4nc(c(-c5c(F)cc(S(=O)(=O)[O-])cc5F)c5ccc([nH]5)c(-c5c(F)cc(S(=O)(=O)[O-])cc5F)c5nc(c(-c6c(F)cc(S(=O)(=O)[O-])cc6F)c6ccc3[nH]6)C=C5)C=C4)cc2)o1
REMARK SMILES IDX 22 1 21 2 20 3 18 4 19 5 17 7 14 8 15 9 96 10 16 11 11 12
REMARK SMILES IDX 12 13 13 14 10 15 9 17 8 18 7 19 1 20 2 21 3 22 4 23 6 24
REMARK SMILES IDX 5 25 23 26 24 27 25 28 26 29 27 30 28 31 29 33 30 34 31 35
REMARK SMILES IDX 95 36 32 37 94 38 33 39 34 40 35 41 88 42 36 43 93 44 87 45
REMARK SMILES IDX 89 46 37 47 92 48 86 49 85 50 38 52 72 53 51 54 71 55 52 56
REMARK SMILES IDX 55 57 70 58 90 59 53 60 54 61 69 63 91 64 56 65 39 66 40 67
REMARK SMILES IDX 49 68 41 69 42 70 48 71 50 72 43 73 44 74 45 75 46 76 47 77
REMARK SMILES IDX 73 78 74 79 83 80 75 81 76 82 82 83 84 84 77 85 78 86 79 87
REMARK SMILES IDX 80 88 81 89 57 90 58 91 67 92 59 93 60 94 66 95 68 96 61 97
REMARK SMILES IDX 62 98 63 99 64 100 65 101
REMARK H PARENT 20 6 10 16 27 32 89 51 55 62
REMARK Flexibility Score: inf
ROOT
ATOM      1  C   UNL     1       2.061  11.321  -1.754  1.00  0.00     0.021 C 
ENDROOT
BRANCH   1   2
ATOM      2  C   UNL     1       1.928  10.444  -2.998  1.00  0.00     0.116 C 
BRANCH   2   3
ATOM      3  N   UNL     1       2.731   9.248  -2.881  1.00  0.00    -0.349 N 
ATOM      4  C   UNL     1       2.387   7.925  -2.785  1.00  0.00     0.287 C 
ATOM      5  O   UNL     1       3.328   7.125  -2.786  1.00  0.00    -0.266 OA
ATOM      6  H   UNL     1       3.701   9.414  -2.867  1.00  0.00     0.163 HD
BRANCH   4   7
ATOM      7  C   UNL     1       1.003   7.491  -2.712  1.00  0.00     0.193 A 
ATOM      8  C   UNL     1      -0.550   5.881  -2.850  1.00  0.00     0.234 A 
ATOM      9  C   UNL     1      -1.202   7.063  -2.540  1.00  0.00     0.065 A 
ATOM     10  O   UNL     1       0.789   6.161  -2.964  1.00  0.00    -0.438 OA
ATOM     11  C   UNL     1      -0.215   8.070  -2.407  1.00  0.00     0.058 A 
BRANCH   8  12
ATOM     12  S   UNL     1      -1.152   4.214  -3.026  1.00  0.00     0.273 S 
ATOM     13  O   UNL     1      -0.402   3.614  -4.109  1.00  0.00    -0.204 OA
ATOM     14  O   UNL     1      -2.592   4.318  -3.067  1.00  0.00    -0.204 OA
BRANCH  12  15
ATOM     15  N   UNL     1      -0.769   3.385  -1.607  1.00  0.00    -0.208 NA
ATOM     16  H   UNL     1      -1.173   3.907  -0.829  1.00  0.00     0.141 HD
BRANCH  15  17
ATOM     17  C   UNL     1       0.671   3.176  -1.302  1.00  0.00     0.104 C 
BRANCH  17  18
ATOM     18  C   UNL     1       0.834   2.543   0.095  1.00  0.00     0.052 C 
BRANCH  18  19
ATOM     19  C   UNL     1       0.248   1.144   0.178  1.00  0.00    -0.044 A 
ATOM     20  C   UNL     1       2.493  -0.086  -0.127  1.00  0.00     0.044 C 
ATOM     21  C   UNL     1       0.994  -0.036  -0.008  1.00  0.00    -0.048 A 
ATOM     22  C   UNL     1       0.315  -1.271  -0.042  1.00  0.00     0.004 A 
ATOM     23  C   UNL     1      -1.070  -1.343   0.100  1.00  0.00     0.000 A 
ATOM     24  C   UNL     1      -1.144   1.040   0.385  1.00  0.00     0.004 A 
ATOM     25  C   UNL     1      -1.800  -0.186   0.324  1.00  0.00     0.000 A 
ENDBRANCH  18  19
ENDBRANCH  17  18
ENDBRANCH  15  17
ENDBRANCH  12  15
ENDBRANCH   8  12
ENDBRANCH   4   7
ENDBRANCH   2   3
ENDBRANCH   1   2
BRANCH   1  26
ATOM     26  C   UNL     1       3.318  12.203  -1.748  1.00  0.00     0.002 C 
BRANCH  26  27
ATOM     27  C   UNL     1       3.540  13.083  -2.994  1.00  0.00     0.002 C 
BRANCH  27  28
ATOM     28  C   UNL     1       2.312  13.823  -3.526  1.00  0.00     0.021 C 
BRANCH  28  29
ATOM     29  C   UNL     1       1.805  14.906  -2.598  1.00  0.00     0.116 C 
BRANCH  29  30
ATOM     30  N   UNL     1       2.348  16.230  -2.855  1.00  0.00    -0.352 N 
ATOM     31  C   UNL     1       1.632  17.390  -2.563  1.00  0.00     0.251 C 
ATOM     32  H   UNL     1       3.247  16.310  -3.248  1.00  0.00     0.163 HD
ATOM     33  O   UNL     1       1.402  18.279  -3.370  1.00  0.00    -0.269 OA
BRANCH  31  34
ATOM     34  C   UNL     1       1.258  17.533  -1.140  1.00  0.00     0.039 A 
ATOM     35  C   UNL     1       1.888  18.512  -0.365  1.00  0.00     0.014 A 
ATOM     36  C   UNL     1       0.541  16.498  -0.551  1.00  0.00     0.014 A 
ATOM     37  C   UNL     1       1.983  18.325   1.008  1.00  0.00     0.010 A 
ATOM     38  C   UNL     1       0.779  16.221   0.762  1.00  0.00     0.010 A 
ATOM     39  C   UNL     1       1.526  17.122   1.527  1.00  0.00    -0.014 A 
BRANCH  39  40
ATOM     40  C   UNL     1       1.571  16.729   2.915  1.00  0.00     0.031 A 
ATOM     41  C   UNL     1       0.341  16.990   3.682  1.00  0.00     0.074 A 
ATOM     42  C   UNL     1       2.529  15.842   3.255  1.00  0.00     0.049 A 
ATOM     43  N   UNL     1       0.180  16.715   4.921  1.00  0.00    -0.248 NA
ATOM     44  C   UNL     1      -0.841  17.613   3.081  1.00  0.00     0.031 C 
ATOM     45  C   UNL     1       2.540  14.875   4.345  1.00  0.00     0.029 A 
ATOM     46  N   UNL     1       3.830  15.796   2.745  1.00  0.00    -0.354 N 
ATOM     47  C   UNL     1      -1.167  16.824   5.204  1.00  0.00     0.074 A 
ATOM     48  C   UNL     1      -1.736  17.490   4.064  1.00  0.00     0.031 C 
ATOM     49  C   UNL     1       3.817  14.553   4.623  1.00  0.00     0.029 A 
ATOM     50  C   UNL     1       4.656  15.441   3.830  1.00  0.00     0.049 A 
ATOM     51  H   UNL     1       4.111  15.975   1.819  1.00  0.00     0.167 HD
ATOM     52  C   UNL     1      -1.624  16.191   6.321  1.00  0.00     0.037 A 
ATOM     53  C   UNL     1       5.483  16.393   4.367  1.00  0.00     0.037 A 
ATOM     54  C   UNL     1      -0.471  15.732   7.100  1.00  0.00     0.049 A 
ATOM     55  C   UNL     1       5.080  16.764   5.778  1.00  0.00     0.074 A 
ATOM     56  C   UNL     1       0.179  14.512   7.181  1.00  0.00     0.029 A 
ATOM     57  N   UNL     1       0.406  16.685   7.611  1.00  0.00    -0.354 N 
ATOM     58  N   UNL     1       3.861  16.690   6.244  1.00  0.00    -0.248 NA
ATOM     59  C   UNL     1       6.049  17.146   6.800  1.00  0.00     0.031 C 
ATOM     60  C   UNL     1       1.504  14.763   7.636  1.00  0.00     0.029 A 
ATOM     61  C   UNL     1       1.644  16.124   7.860  1.00  0.00     0.049 A 
ATOM     62  H   UNL     1       0.175  17.628   7.772  1.00  0.00     0.167 HD
ATOM     63  C   UNL     1       3.865  16.974   7.587  1.00  0.00     0.074 A 
ATOM     64  C   UNL     1       5.261  17.245   7.884  1.00  0.00     0.031 C 
ATOM     65  C   UNL     1       2.739  16.944   8.365  1.00  0.00     0.037 A 
BRANCH  52  66
ATOM     66  C   UNL     1      -3.051  15.768   6.619  1.00  0.00     0.058 A 
ATOM     67  C   UNL     1      -3.299  14.872   7.686  1.00  0.00     0.135 A 
ATOM     68  C   UNL     1      -4.203  16.105   5.875  1.00  0.00     0.135 A 
ATOM     69  F   UNL     1      -2.316  14.471   8.505  1.00  0.00    -0.206 F 
ATOM     70  C   UNL     1      -4.556  14.325   7.957  1.00  0.00     0.059 A 
ATOM     71  C   UNL     1      -5.473  15.575   6.130  1.00  0.00     0.059 A 
ATOM     72  F   UNL     1      -4.173  16.964   4.855  1.00  0.00    -0.206 F 
ATOM     73  C   UNL     1      -5.639  14.674   7.166  1.00  0.00     0.060 A 
BRANCH  73  74
ATOM     74  S   UNL     1      -7.248  13.945   7.515  1.00  0.00     0.124 S 
ATOM     75  O   UNL     1      -6.999  12.529   7.264  1.00  0.00    -0.237 OA
ATOM     76  O   UNL     1      -7.458  14.319   8.909  1.00  0.00    -0.237 OA
ATOM     77  O   UNL     1      -8.134  14.599   6.555  1.00  0.00    -0.744 OA
ENDBRANCH  73  74
ENDBRANCH  52  66
BRANCH  53  78
ATOM     78  C   UNL     1       6.028  17.311   3.311  1.00  0.00     0.058 A 
ATOM     79  C   UNL     1       6.863  16.719   2.338  1.00  0.00     0.135 A 
ATOM     80  C   UNL     1       5.349  18.483   2.941  1.00  0.00     0.135 A 
ATOM     81  F   UNL     1       7.571  15.619   2.646  1.00  0.00    -0.206 F 
ATOM     82  C   UNL     1       6.838  17.121   1.005  1.00  0.00     0.059 A 
ATOM     83  C   UNL     1       5.336  18.921   1.611  1.00  0.00     0.059 A 
ATOM     84  F   UNL     1       4.562  19.116   3.822  1.00  0.00    -0.206 F 
ATOM     85  C   UNL     1       6.001  18.171   0.638  1.00  0.00     0.060 A 
BRANCH  85  86
ATOM     86  S   UNL     1       5.667  18.411  -1.127  1.00  0.00     0.124 S 
ATOM     87  O   UNL     1       7.010  18.582  -1.670  1.00  0.00    -0.237 OA
ATOM     88  O   UNL     1       4.992  17.161  -1.489  1.00  0.00    -0.237 OA
ATOM     89  O   UNL     1       4.827  19.603  -1.151  1.00  0.00    -0.744 OA
ENDBRANCH  85  86
ENDBRANCH  53  78
BRANCH  65  90
ATOM     90  C   UNL     1       2.593  17.597   9.727  1.00  0.00     0.058 A 
ATOM     91  C   UNL     1       3.427  18.625  10.199  1.00  0.00     0.135 A 
ATOM     92  C   UNL     1       1.485  17.296  10.563  1.00  0.00     0.135 A 
ATOM     93  F   UNL     1       4.418  19.130   9.453  1.00  0.00    -0.206 F 
ATOM     94  C   UNL     1       3.252  19.221  11.447  1.00  0.00     0.059 A 
ATOM     95  C   UNL     1       1.243  17.939  11.773  1.00  0.00     0.059 A 
ATOM     96  F   UNL     1       0.573  16.372  10.229  1.00  0.00    -0.206 F 
ATOM     97  C   UNL     1       2.160  18.869  12.230  1.00  0.00     0.060 A 
BRANCH  97  98
ATOM     98  S   UNL     1       1.934  19.657  13.830  1.00  0.00     0.124 S 
ATOM     99  O   UNL     1       2.846  18.879  14.663  1.00  0.00    -0.237 OA
ATOM    100  O   UNL     1       2.339  21.034  13.565  1.00  0.00    -0.237 OA
ATOM    101  O   UNL     1       0.513  19.470  14.103  1.00  0.00    -0.744 OA
ENDBRANCH  97  98
ENDBRANCH  65  90
ENDBRANCH  39  40
ENDBRANCH  31  34
ENDBRANCH  29  30
ENDBRANCH  28  29
ENDBRANCH  27  28
ENDBRANCH  26  27
ENDBRANCH   1  26
TORSDOF 21
