REMARK SMILES COCc1ccccc1C(=O)N1CCC[C@@H](C(=O)NCCCCCCNC(=O)c2ccc(-c3c4nc(c(-c5c(F)cc(S(=O)(=O)[O-])cc5F)c5ccc([nH]5)c(-c5c(F)cc(S(=O)(=O)[O-])cc5F)c5nc(c(-c6c(F)cc(S(=O)(=O)[O-])cc6F)c6ccc3[nH]6)C=C5)C=C4)cc2)C1
REMARK SMILES IDX 22 1 21 2 20 3 19 4 17 5 18 6 16 8 12 9 13 10 95 11 14 12
REMARK SMILES IDX 15 13 10 14 11 15 9 16 4 17 5 18 6 19 8 20 7 21 3 22 2 23
REMARK SMILES IDX 1 24 23 25 24 26 25 27 26 28 27 29 28 31 29 32 30 33 94 34
REMARK SMILES IDX 31 35 93 36 32 37 33 38 34 39 87 40 35 41 92 42 86 43 88 44
REMARK SMILES IDX 36 45 91 46 85 47 84 48 37 50 71 51 50 52 70 53 51 54 54 55
REMARK SMILES IDX 69 56 89 57 52 58 53 59 68 61 90 62 55 63 38 64 39 65 48 66
REMARK SMILES IDX 40 67 41 68 47 69 49 70 42 71 43 72 44 73 45 74 46 75 72 76
REMARK SMILES IDX 73 77 82 78 74 79 75 80 81 81 83 82 76 83 77 84 78 85 79 86
REMARK SMILES IDX 80 87 56 88 57 89 66 90 58 91 59 92 65 93 67 94 60 95 61 96
REMARK SMILES IDX 62 97 63 98 64 99
REMARK H PARENT 19 7 26 30 88 49 54 60
REMARK Flexibility Score: inf
ROOT
ATOM      1  C   UNL     1      -3.043  -1.407   2.698  1.00  0.00     0.002 C 
ENDROOT
BRANCH   1   2
ATOM      2  C   UNL     1      -3.405  -1.521   1.214  1.00  0.00     0.021 C 
BRANCH   2   3
ATOM      3  C   UNL     1      -2.315  -2.090   0.315  1.00  0.00     0.116 C 
BRANCH   3   4
ATOM      4  N   UNL     1      -1.947  -3.449   0.656  1.00  0.00    -0.356 N 
ATOM      5  C   UNL     1      -1.480  -4.440  -0.155  1.00  0.00     0.224 C 
ATOM      6  O   UNL     1      -1.164  -5.508   0.374  1.00  0.00    -0.275 OA
ATOM      7  H   UNL     1      -2.050  -3.691   1.605  1.00  0.00     0.163 HD
BRANCH   5   8
ATOM      8  C   UNL     1      -1.400  -4.220  -1.664  1.00  0.00     0.098 C 
ATOM      9  N   UNL     1      -0.166  -3.002  -3.447  1.00  0.00    -0.338 N 
ATOM     10  C   UNL     1       0.134  -4.232  -4.173  1.00  0.00     0.120 C 
ATOM     11  C   UNL     1      -0.360  -3.144  -2.007  1.00  0.00     0.133 C 
ATOM     12  C   UNL     1      -0.876  -5.331  -3.875  1.00  0.00     0.022 C 
ATOM     13  C   UNL     1      -1.028  -5.537  -2.372  1.00  0.00     0.017 C 
BRANCH   9  14
ATOM     14  C   UNL     1      -0.424  -1.851  -4.186  1.00  0.00     0.254 C 
ATOM     15  O   UNL     1      -0.875  -1.956  -5.332  1.00  0.00    -0.269 OA
BRANCH  14  16
ATOM     16  C   UNL     1      -0.105  -0.454  -3.707  1.00  0.00     0.045 A 
ATOM     17  C   UNL     1       0.972  -0.050  -2.886  1.00  0.00    -0.010 A 
ATOM     18  C   UNL     1       1.286   1.332  -2.807  1.00  0.00     0.007 A 
ATOM     19  C   UNL     1       0.557   2.300  -3.490  1.00  0.00     0.000 A 
ATOM     20  C   UNL     1      -0.845   0.556  -4.371  1.00  0.00     0.014 A 
ATOM     21  C   UNL     1      -0.522   1.912  -4.265  1.00  0.00     0.001 A 
BRANCH  17  22
ATOM     22  C   UNL     1       1.866  -0.952  -2.074  1.00  0.00     0.196 C 
BRANCH  22  23
ATOM     23  O   UNL     1       1.345  -1.194  -0.760  1.00  0.00    -0.380 OA
ATOM     24  C   UNL     1       1.411  -0.077   0.118  1.00  0.00     0.195 C 
ENDBRANCH  22  23
ENDBRANCH  17  22
ENDBRANCH  14  16
ENDBRANCH   9  14
ENDBRANCH   5   8
ENDBRANCH   3   4
ENDBRANCH   2   3
ENDBRANCH   1   2
BRANCH   1  25
ATOM     25  C   UNL     1      -1.778  -0.608   3.024  1.00  0.00     0.002 C 
BRANCH  25  26
ATOM     26  C   UNL     1      -1.713   0.808   2.447  1.00  0.00     0.021 C 
BRANCH  26  27
ATOM     27  C   UNL     1      -2.919   1.694   2.739  1.00  0.00     0.116 C 
BRANCH  27  28
ATOM     28  N   UNL     1      -3.151   1.883   4.160  1.00  0.00    -0.352 N 
ATOM     29  C   UNL     1      -3.367   3.044   4.863  1.00  0.00     0.251 C 
ATOM     30  H   UNL     1      -3.153   1.059   4.698  1.00  0.00     0.163 HD
ATOM     31  O   UNL     1      -3.404   3.017   6.087  1.00  0.00    -0.269 OA
BRANCH  29  32
ATOM     32  C   UNL     1      -3.522   4.330   4.143  1.00  0.00     0.039 A 
ATOM     33  C   UNL     1      -2.845   5.453   4.624  1.00  0.00     0.014 A 
ATOM     34  C   UNL     1      -4.328   4.433   3.006  1.00  0.00     0.014 A 
ATOM     35  C   UNL     1      -2.925   6.662   3.928  1.00  0.00     0.010 A 
ATOM     36  C   UNL     1      -4.346   5.617   2.272  1.00  0.00     0.010 A 
ATOM     37  C   UNL     1      -3.646   6.746   2.725  1.00  0.00    -0.014 A 
BRANCH  37  38
ATOM     38  C   UNL     1      -3.671   8.002   1.929  1.00  0.00     0.031 A 
ATOM     39  C   UNL     1      -4.969   8.730   1.700  1.00  0.00     0.074 A 
ATOM     40  C   UNL     1      -2.533   8.453   1.362  1.00  0.00     0.049 A 
ATOM     41  N   UNL     1      -5.197   9.804   0.988  1.00  0.00    -0.248 NA
ATOM     42  C   UNL     1      -6.173   8.166   2.331  1.00  0.00     0.031 C 
ATOM     43  C   UNL     1      -1.220   7.810   1.471  1.00  0.00     0.029 A 
ATOM     44  N   UNL     1      -2.296   9.551   0.571  1.00  0.00    -0.354 N 
ATOM     45  C   UNL     1      -6.567  10.031   1.067  1.00  0.00     0.074 A 
ATOM     46  C   UNL     1      -7.126   8.960   1.862  1.00  0.00     0.031 C 
ATOM     47  C   UNL     1      -0.316   8.534   0.792  1.00  0.00     0.029 A 
ATOM     48  C   UNL     1      -0.987   9.667   0.162  1.00  0.00     0.049 A 
ATOM     49  H   UNL     1      -2.997  10.194   0.320  1.00  0.00     0.167 HD
ATOM     50  C   UNL     1      -7.288  11.048   0.539  1.00  0.00     0.037 A 
ATOM     51  C   UNL     1      -0.396  10.575  -0.639  1.00  0.00     0.037 A 
ATOM     52  C   UNL     1      -6.718  12.130  -0.221  1.00  0.00     0.049 A 
ATOM     53  C   UNL     1      -1.224  11.696  -1.212  1.00  0.00     0.074 A 
ATOM     54  C   UNL     1      -7.354  13.252  -0.724  1.00  0.00     0.029 A 
ATOM     55  N   UNL     1      -5.386  12.224  -0.596  1.00  0.00    -0.354 N 
ATOM     56  N   UNL     1      -2.502  11.942  -1.050  1.00  0.00    -0.248 NA
ATOM     57  C   UNL     1      -0.530  12.666  -2.070  1.00  0.00     0.031 C 
ATOM     58  C   UNL     1      -6.420  13.992  -1.456  1.00  0.00     0.029 A 
ATOM     59  C   UNL     1      -5.189  13.367  -1.354  1.00  0.00     0.049 A 
ATOM     60  H   UNL     1      -4.685  11.575  -0.359  1.00  0.00     0.167 HD
ATOM     61  C   UNL     1      -2.756  13.113  -1.757  1.00  0.00     0.074 A 
ATOM     62  C   UNL     1      -1.497  13.533  -2.336  1.00  0.00     0.031 C 
ATOM     63  C   UNL     1      -3.926  13.781  -1.912  1.00  0.00     0.037 A 
BRANCH  50  64
ATOM     64  C   UNL     1      -8.778  11.049   0.753  1.00  0.00     0.058 A 
ATOM     65  C   UNL     1      -9.347  11.309   2.010  1.00  0.00     0.135 A 
ATOM     66  C   UNL     1      -9.649  10.866  -0.334  1.00  0.00     0.135 A 
ATOM     67  F   UNL     1      -8.563  11.476   3.087  1.00  0.00    -0.206 F 
ATOM     68  C   UNL     1     -10.726  11.372   2.184  1.00  0.00     0.059 A 
ATOM     69  C   UNL     1     -11.030  10.954  -0.189  1.00  0.00     0.059 A 
ATOM     70  F   UNL     1      -9.158  10.612  -1.557  1.00  0.00    -0.206 F 
ATOM     71  C   UNL     1     -11.559  11.200   1.077  1.00  0.00     0.060 A 
BRANCH  71  72
ATOM     72  S   UNL     1     -13.345  11.324   1.315  1.00  0.00     0.124 S 
ATOM     73  O   UNL     1     -13.625  10.098   2.056  1.00  0.00    -0.237 OA
ATOM     74  O   UNL     1     -13.472  12.565   2.072  1.00  0.00    -0.237 OA
ATOM     75  O   UNL     1     -13.868  11.367  -0.047  1.00  0.00    -0.744 OA
ENDBRANCH  71  72
ENDBRANCH  50  64
BRANCH  51  76
ATOM     76  C   UNL     1       1.056  10.471  -0.954  1.00  0.00     0.058 A 
ATOM     77  C   UNL     1       1.969  11.434  -0.496  1.00  0.00     0.135 A 
ATOM     78  C   UNL     1       1.558   9.421  -1.740  1.00  0.00     0.135 A 
ATOM     79  F   UNL     1       1.540  12.460   0.255  1.00  0.00    -0.206 F 
ATOM     80  C   UNL     1       3.317  11.382  -0.835  1.00  0.00     0.059 A 
ATOM     81  C   UNL     1       2.907   9.330  -2.065  1.00  0.00     0.059 A 
ATOM     82  F   UNL     1       0.734   8.461  -2.188  1.00  0.00    -0.206 F 
ATOM     83  C   UNL     1       3.777  10.326  -1.623  1.00  0.00     0.060 A 
BRANCH  83  84
ATOM     84  S   UNL     1       5.531  10.257  -2.046  1.00  0.00     0.124 S 
ATOM     85  O   UNL     1       5.640  11.335  -3.021  1.00  0.00    -0.237 OA
ATOM     86  O   UNL     1       6.167  10.495  -0.754  1.00  0.00    -0.237 OA
ATOM     87  O   UNL     1       5.693   8.906  -2.576  1.00  0.00    -0.744 OA
ENDBRANCH  83  84
ENDBRANCH  51  76
BRANCH  63  88
ATOM     88  C   UNL     1      -3.897  15.063  -2.700  1.00  0.00     0.058 A 
ATOM     89  C   UNL     1      -3.714  15.075  -4.092  1.00  0.00     0.135 A 
ATOM     90  C   UNL     1      -4.110  16.294  -2.057  1.00  0.00     0.135 A 
ATOM     91  F   UNL     1      -3.499  13.928  -4.756  1.00  0.00    -0.206 F 
ATOM     92  C   UNL     1      -3.716  16.264  -4.814  1.00  0.00     0.059 A 
ATOM     93  C   UNL     1      -4.150  17.491  -2.764  1.00  0.00     0.059 A 
ATOM     94  F   UNL     1      -4.302  16.339  -0.729  1.00  0.00    -0.206 F 
ATOM     95  C   UNL     1      -3.939  17.467  -4.141  1.00  0.00     0.060 A 
BRANCH  95  96
ATOM     96  S   UNL     1      -3.974  18.999  -5.096  1.00  0.00     0.124 S 
ATOM     97  O   UNL     1      -2.563  19.172  -5.425  1.00  0.00    -0.237 OA
ATOM     98  O   UNL     1      -4.847  18.650  -6.213  1.00  0.00    -0.237 OA
ATOM     99  O   UNL     1      -4.524  19.973  -4.158  1.00  0.00    -0.744 OA
ENDBRANCH  95  96
ENDBRANCH  63  88
ENDBRANCH  37  38
ENDBRANCH  29  32
ENDBRANCH  27  28
ENDBRANCH  26  27
ENDBRANCH  25  26
ENDBRANCH   1  25
TORSDOF 20
