REMARK SMILES Cc1oc2ccc(OCc3ccc(Br)cc3)cc2c1C(=O)NCCCCCCNC(=O)c1ccc(-c2c3nc(c(-c4c(F)cc(S(=O)(=O)[O-])cc4F)c4ccc([nH]4)c(-c4c(F)cc(S(=O)(=O)[O-])cc4F)c4nc(c(-c5c(F)cc(S(=O)(=O)[O-])cc5F)c5ccc2[nH]5)C=C4)C=C3)cc1
REMARK SMILES IDX 25 1 24 2 23 3 22 4 20 5 21 6 19 8 1 9 2 10 3 11 4 12 18 13
REMARK SMILES IDX 5 14 17 15 6 16 7 17 8 18 9 19 10 20 11 21 16 22 12 23 15 24
REMARK SMILES IDX 13 25 14 26 26 27 27 28 28 29 29 30 30 31 31 33 32 34 33 35
REMARK SMILES IDX 97 36 34 37 96 38 35 39 36 40 37 41 90 42 38 43 95 44 89 45
REMARK SMILES IDX 91 46 39 47 94 48 88 49 87 50 40 52 74 53 53 54 73 55 54 56
REMARK SMILES IDX 57 57 72 58 92 59 55 60 56 61 71 63 93 64 58 65 41 66 42 67
REMARK SMILES IDX 51 68 43 69 44 70 50 71 52 72 45 73 46 74 47 75 48 76 49 77
REMARK SMILES IDX 75 78 76 79 85 80 77 81 78 82 84 83 86 84 79 85 80 86 81 87
REMARK SMILES IDX 82 88 83 89 59 90 60 91 69 92 61 93 62 94 68 95 70 96 63 97
REMARK SMILES IDX 64 98 65 99 66 100 67 101
REMARK H PARENT 22 7 29 32 91 51 57 62
REMARK Flexibility Score: inf
ROOT
ATOM      1  C   UNL     1       5.683  -3.973   1.323  1.00  0.00     0.002 C 
ENDROOT
BRANCH   1   2
ATOM      2  C   UNL     1       4.915  -2.730   1.774  1.00  0.00     0.021 C 
BRANCH   2   3
ATOM      3  C   UNL     1       4.032  -2.057   0.732  1.00  0.00     0.116 C 
BRANCH   3   4
ATOM      4  N   UNL     1       2.877  -2.817   0.334  1.00  0.00    -0.352 N 
ATOM      5  C   UNL     1       1.616  -2.411  -0.029  1.00  0.00     0.255 C 
ATOM      6  O   UNL     1       0.815  -3.322  -0.258  1.00  0.00    -0.269 OA
ATOM      7  H   UNL     1       3.013  -3.792   0.319  1.00  0.00     0.163 HD
BRANCH   5   8
ATOM      8  C   UNL     1       1.199  -1.008  -0.141  1.00  0.00     0.088 A 
ATOM      9  C   UNL     1       3.317   0.587  -0.626  1.00  0.00     0.088 C 
ATOM     10  C   UNL     1       1.919   0.166  -0.389  1.00  0.00     0.115 A 
ATOM     11  O   UNL     1       1.076   1.226  -0.508  1.00  0.00    -0.461 OA
ATOM     12  C   UNL     1      -0.183   0.769  -0.425  1.00  0.00     0.135 A 
ATOM     13  C   UNL     1      -0.196  -0.583  -0.136  1.00  0.00     0.037 A 
ATOM     14  C   UNL     1      -1.302   1.551  -0.653  1.00  0.00     0.051 A 
ATOM     15  C   UNL     1      -1.466  -1.188   0.044  1.00  0.00     0.059 A 
ATOM     16  C   UNL     1      -2.530   0.901  -0.573  1.00  0.00     0.050 A 
ATOM     17  C   UNL     1      -2.635  -0.420  -0.140  1.00  0.00     0.120 A 
BRANCH  17  18
ATOM     18  O   UNL     1      -3.822  -1.054   0.131  1.00  0.00    -0.489 OA
BRANCH  18  19
ATOM     19  C   UNL     1      -5.026  -0.270   0.188  1.00  0.00     0.265 C 
BRANCH  19  20
ATOM     20  C   UNL     1      -5.155   0.573   1.445  1.00  0.00    -0.011 A 
ATOM     21  C   UNL     1      -4.875   1.951   1.436  1.00  0.00     0.008 A 
ATOM     22  C   UNL     1      -5.534  -0.018   2.658  1.00  0.00     0.008 A 
ATOM     23  C   UNL     1      -4.901   2.702   2.612  1.00  0.00     0.016 A 
ATOM     24  C   UNL     1      -5.603   0.742   3.831  1.00  0.00     0.016 A 
ATOM     25  C   UNL     1      -5.266   2.093   3.806  1.00  0.00     0.017 A 
ATOM     26  Br  UNL     1      -5.304   3.110   5.398  1.00  0.00    -0.051 Br
ENDBRANCH  19  20
ENDBRANCH  18  19
ENDBRANCH  17  18
ENDBRANCH   5   8
ENDBRANCH   3   4
ENDBRANCH   2   3
ENDBRANCH   1   2
BRANCH   1  27
ATOM     27  C   UNL     1       6.540  -3.839   0.061  1.00  0.00     0.002 C 
BRANCH  27  28
ATOM     28  C   UNL     1       7.511  -2.657   0.010  1.00  0.00     0.021 C 
BRANCH  28  29
ATOM     29  C   UNL     1       8.443  -2.502   1.207  1.00  0.00     0.116 C 
BRANCH  29  30
ATOM     30  N   UNL     1       9.265  -3.677   1.438  1.00  0.00    -0.352 N 
ATOM     31  C   UNL     1      10.626  -3.776   1.587  1.00  0.00     0.251 C 
ATOM     32  H   UNL     1       8.774  -4.528   1.496  1.00  0.00     0.163 HD
ATOM     33  O   UNL     1      11.153  -4.888   1.625  1.00  0.00    -0.269 OA
BRANCH  31  34
ATOM     34  C   UNL     1      11.460  -2.558   1.676  1.00  0.00     0.039 A 
ATOM     35  C   UNL     1      12.651  -2.505   0.947  1.00  0.00     0.014 A 
ATOM     36  C   UNL     1      11.082  -1.477   2.477  1.00  0.00     0.014 A 
ATOM     37  C   UNL     1      13.431  -1.346   0.974  1.00  0.00     0.010 A 
ATOM     38  C   UNL     1      11.820  -0.295   2.443  1.00  0.00     0.010 A 
ATOM     39  C   UNL     1      13.004  -0.217   1.694  1.00  0.00    -0.014 A 
BRANCH  39  40
ATOM     40  C   UNL     1      13.782   1.050   1.668  1.00  0.00     0.031 A 
ATOM     41  C   UNL     1      14.390   1.595   2.932  1.00  0.00     0.074 A 
ATOM     42  C   UNL     1      13.892   1.738   0.514  1.00  0.00     0.049 A 
ATOM     43  N   UNL     1      15.055   2.707   3.116  1.00  0.00    -0.248 NA
ATOM     44  C   UNL     1      14.207   0.798   4.155  1.00  0.00     0.031 C 
ATOM     45  C   UNL     1      13.308   1.337  -0.768  1.00  0.00     0.029 A 
ATOM     46  N   UNL     1      14.523   2.924   0.233  1.00  0.00    -0.354 N 
ATOM     47  C   UNL     1      15.359   2.749   4.472  1.00  0.00     0.074 A 
ATOM     48  C   UNL     1      14.757   1.579   5.074  1.00  0.00     0.031 C 
ATOM     49  C   UNL     1      13.630   2.246  -1.702  1.00  0.00     0.029 A 
ATOM     50  C   UNL     1      14.404   3.316  -1.081  1.00  0.00     0.049 A 
ATOM     51  H   UNL     1      15.015   3.446   0.907  1.00  0.00     0.167 HD
ATOM     52  C   UNL     1      16.092   3.665   5.149  1.00  0.00     0.037 A 
ATOM     53  C   UNL     1      14.857   4.417  -1.712  1.00  0.00     0.037 A 
ATOM     54  C   UNL     1      16.700   4.820   4.538  1.00  0.00     0.049 A 
ATOM     55  C   UNL     1      15.655   5.430  -0.936  1.00  0.00     0.074 A 
ATOM     56  C   UNL     1      17.508   5.778   5.126  1.00  0.00     0.029 A 
ATOM     57  N   UNL     1      16.563   5.178   3.205  1.00  0.00    -0.354 N 
ATOM     58  N   UNL     1      15.990   5.419   0.333  1.00  0.00    -0.248 NA
ATOM     59  C   UNL     1      16.140   6.602  -1.676  1.00  0.00     0.031 C 
ATOM     60  C   UNL     1      17.812   6.745   4.162  1.00  0.00     0.029 A 
ATOM     61  C   UNL     1      17.246   6.358   2.958  1.00  0.00     0.049 A 
ATOM     62  H   UNL     1      16.054   4.669   2.533  1.00  0.00     0.167 HD
ATOM     63  C   UNL     1      16.749   6.566   0.536  1.00  0.00     0.074 A 
ATOM     64  C   UNL     1      16.834   7.241  -0.744  1.00  0.00     0.031 C 
ATOM     65  C   UNL     1      17.325   7.019   1.677  1.00  0.00     0.037 A 
BRANCH  52  66
ATOM     66  C   UNL     1      16.273   3.459   6.630  1.00  0.00     0.058 A 
ATOM     67  C   UNL     1      17.045   2.402   7.141  1.00  0.00     0.135 A 
ATOM     68  C   UNL     1      15.694   4.348   7.551  1.00  0.00     0.135 A 
ATOM     69  F   UNL     1      17.612   1.514   6.309  1.00  0.00    -0.206 F 
ATOM     70  C   UNL     1      17.206   2.213   8.510  1.00  0.00     0.059 A 
ATOM     71  C   UNL     1      15.869   4.196   8.924  1.00  0.00     0.059 A 
ATOM     72  F   UNL     1      14.948   5.377   7.121  1.00  0.00    -0.206 F 
ATOM     73  C   UNL     1      16.613   3.115   9.394  1.00  0.00     0.060 A 
BRANCH  73  74
ATOM     74  S   UNL     1      16.829   2.851  11.167  1.00  0.00     0.124 S 
ATOM     75  O   UNL     1      15.991   1.676  11.390  1.00  0.00    -0.237 OA
ATOM     76  O   UNL     1      18.267   2.633  11.276  1.00  0.00    -0.237 OA
ATOM     77  O   UNL     1      16.338   4.092  11.758  1.00  0.00    -0.744 OA
ENDBRANCH  73  74
ENDBRANCH  52  66
BRANCH  53  78
ATOM     78  C   UNL     1      14.582   4.606  -3.162  1.00  0.00     0.058 A 
ATOM     79  C   UNL     1      15.613   4.525  -4.110  1.00  0.00     0.135 A 
ATOM     80  C   UNL     1      13.282   4.853  -3.632  1.00  0.00     0.135 A 
ATOM     81  F   UNL     1      16.874   4.298  -3.712  1.00  0.00    -0.206 F 
ATOM     82  C   UNL     1      15.369   4.695  -5.470  1.00  0.00     0.059 A 
ATOM     83  C   UNL     1      13.009   4.998  -4.988  1.00  0.00     0.059 A 
ATOM     84  F   UNL     1      12.257   4.925  -2.768  1.00  0.00    -0.206 F 
ATOM     85  C   UNL     1      14.062   4.926  -5.899  1.00  0.00     0.060 A 
BRANCH  85  86
ATOM     86  S   UNL     1      13.749   5.090  -7.670  1.00  0.00     0.124 S 
ATOM     87  O   UNL     1      14.342   6.391  -7.955  1.00  0.00    -0.237 OA
ATOM     88  O   UNL     1      14.455   3.933  -8.213  1.00  0.00    -0.237 OA
ATOM     89  O   UNL     1      12.293   5.025  -7.761  1.00  0.00    -0.744 OA
ENDBRANCH  85  86
ENDBRANCH  53  78
BRANCH  65  90
ATOM     90  C   UNL     1      18.128   8.290   1.594  1.00  0.00     0.058 A 
ATOM     91  C   UNL     1      17.518   9.541   1.412  1.00  0.00     0.135 A 
ATOM     92  C   UNL     1      19.523   8.258   1.751  1.00  0.00     0.135 A 
ATOM     93  F   UNL     1      16.188   9.628   1.249  1.00  0.00    -0.206 F 
ATOM     94  C   UNL     1      18.266  10.713   1.363  1.00  0.00     0.059 A 
ATOM     95  C   UNL     1      20.287   9.421   1.738  1.00  0.00     0.059 A 
ATOM     96  F   UNL     1      20.157   7.090   1.938  1.00  0.00    -0.206 F 
ATOM     97  C   UNL     1      19.650  10.643   1.531  1.00  0.00     0.060 A 
BRANCH  97  98
ATOM     98  S   UNL     1      20.603  12.176   1.500  1.00  0.00     0.124 S 
ATOM     99  O   UNL     1      20.551  12.527   0.085  1.00  0.00    -0.237 OA
ATOM    100  O   UNL     1      19.837  13.037   2.396  1.00  0.00    -0.237 OA
ATOM    101  O   UNL     1      21.915  11.772   1.999  1.00  0.00    -0.744 OA
ENDBRANCH  97  98
ENDBRANCH  65  90
ENDBRANCH  39  40
ENDBRANCH  31  34
ENDBRANCH  29  30
ENDBRANCH  28  29
ENDBRANCH  27  28
ENDBRANCH   1  27
TORSDOF 19
