REMARK SMILES CC[N@@H+](C/C(Cl)=C/Cl)C[C@@H](C)C(=O)NCCCCCCNC(=O)c1ccc(-c2c3nc(c(-c4c(F)cc(S(=O)(=O)[O-])cc4F)c4ccc([nH]4)c(-c4c(F)cc(S(=O)(=O)[O-])cc4F)c4nc(c(-c5c(F)cc(S(=O)(=O)[O-])cc5F)c5ccc2[nH]5)C=C4)C=C3)cc1
REMARK SMILES IDX 17 1 16 2 15 3 14 4 12 5 13 6 10 8 11 9 9 10 3 11 2 13 1 14
REMARK SMILES IDX 4 15 5 16 6 17 7 18 8 19 18 20 19 21 20 22 21 23 22 24 23 26
REMARK SMILES IDX 24 27 25 28 89 29 26 30 88 31 27 32 28 33 29 34 82 35 30 36
REMARK SMILES IDX 87 37 81 38 83 39 31 40 86 41 80 42 79 43 32 45 66 46 45 47
REMARK SMILES IDX 65 48 46 49 49 50 64 51 84 52 47 53 48 54 63 56 85 57 50 58
REMARK SMILES IDX 33 59 34 60 43 61 35 62 36 63 42 64 44 65 37 66 38 67 39 68
REMARK SMILES IDX 40 69 41 70 67 71 68 72 77 73 69 74 70 75 76 76 78 77 71 78
REMARK SMILES IDX 72 79 73 80 74 81 75 82 51 83 52 84 61 85 53 86 54 87 60 88
REMARK SMILES IDX 62 89 55 90 56 91 57 92 58 93 59 94
REMARK H PARENT 14 7 3 12 21 25 83 44 49 55
REMARK Flexibility Score: inf
ROOT
ATOM      1  C   UNL     1       6.642   0.484   1.363  1.00  0.00     0.002 C 
ENDROOT
BRANCH   1   2
ATOM      2  C   UNL     1       5.147   0.161   1.299  1.00  0.00     0.021 C 
BRANCH   2   3
ATOM      3  C   UNL     1       4.680  -0.234  -0.097  1.00  0.00     0.116 C 
BRANCH   3   4
ATOM      4  N   UNL     1       5.173  -1.549  -0.448  1.00  0.00    -0.356 N 
ATOM      5  C   UNL     1       4.502  -2.678  -0.794  1.00  0.00     0.228 C 
ATOM      6  O   UNL     1       5.159  -3.713  -0.932  1.00  0.00    -0.275 OA
ATOM      7  H   UNL     1       6.153  -1.640  -0.432  1.00  0.00     0.163 HD
BRANCH   5   8
ATOM      8  C   UNL     1       2.997  -2.669  -1.038  1.00  0.00     0.130 C 
ATOM      9  C   UNL     1       2.663  -1.730  -2.195  1.00  0.00     0.024 C 
BRANCH   8  10
ATOM     10  C   UNL     1       2.220  -2.508   0.289  1.00  0.00     0.275 C 
BRANCH  10  11
ATOM     11  N   UNL     1       0.754  -2.490   0.302  1.00  0.00    -0.330 N 
ATOM     12  H   UNL     1       0.629  -2.283   1.293  1.00  0.00     0.348 HD
BRANCH  11  13
ATOM     13  C   UNL     1       0.044  -1.339  -0.244  1.00  0.00     0.259 C 
ATOM     14  C   UNL     1       0.479   0.012   0.315  1.00  0.00     0.071 C 
ENDBRANCH  11  13
BRANCH  11  15
ATOM     15  C   UNL     1       0.095  -3.787   0.117  1.00  0.00     0.312 C 
BRANCH  15  16
ATOM     16  C   UNL     1       0.287  -4.515  -1.193  1.00  0.00     0.083 C 
ATOM     17  Cl  UNL     1       1.111  -6.042  -1.059  1.00  0.00    -0.082 Cl
ATOM     18  C   UNL     1      -0.154  -4.060  -2.372  1.00  0.00     0.102 C 
ATOM     19  Cl  UNL     1       0.078  -4.811  -3.895  1.00  0.00    -0.091 Cl
ENDBRANCH  15  16
ENDBRANCH  11  15
ENDBRANCH  10  11
ENDBRANCH   8  10
ENDBRANCH   5   8
ENDBRANCH   3   4
ENDBRANCH   2   3
ENDBRANCH   1   2
BRANCH   1  20
ATOM     20  C   UNL     1       7.093   1.576   0.386  1.00  0.00     0.002 C 
BRANCH  20  21
ATOM     21  C   UNL     1       6.308   2.887   0.491  1.00  0.00     0.021 C 
BRANCH  21  22
ATOM     22  C   UNL     1       6.328   3.514   1.880  1.00  0.00     0.116 C 
BRANCH  22  23
ATOM     23  N   UNL     1       7.684   3.804   2.315  1.00  0.00    -0.352 N 
ATOM     24  C   UNL     1       8.219   4.993   2.741  1.00  0.00     0.251 C 
ATOM     25  H   UNL     1       8.305   3.041   2.302  1.00  0.00     0.163 HD
ATOM     26  O   UNL     1       9.434   5.119   2.840  1.00  0.00    -0.269 OA
BRANCH  24  27
ATOM     27  C   UNL     1       7.319   6.117   3.066  1.00  0.00     0.039 A 
ATOM     28  C   UNL     1       7.640   7.395   2.608  1.00  0.00     0.014 A 
ATOM     29  C   UNL     1       6.161   5.905   3.821  1.00  0.00     0.014 A 
ATOM     30  C   UNL     1       6.770   8.455   2.865  1.00  0.00     0.010 A 
ATOM     31  C   UNL     1       5.258   6.946   4.009  1.00  0.00     0.010 A 
ATOM     32  C   UNL     1       5.558   8.233   3.539  1.00  0.00    -0.014 A 
BRANCH  32  33
ATOM     33  C   UNL     1       4.590   9.337   3.755  1.00  0.00     0.031 A 
ATOM     34  C   UNL     1       4.248   9.784   5.150  1.00  0.00     0.074 A 
ATOM     35  C   UNL     1       3.980   9.898   2.692  1.00  0.00     0.049 A 
ATOM     36  N   UNL     1       3.399  10.701   5.537  1.00  0.00    -0.248 NA
ATOM     37  C   UNL     1       4.928   9.092   6.256  1.00  0.00     0.031 C 
ATOM     38  C   UNL     1       4.194   9.513   1.295  1.00  0.00     0.029 A 
ATOM     39  N   UNL     1       3.054  10.908   2.619  1.00  0.00    -0.354 N 
ATOM     40  C   UNL     1       3.438  10.692   6.926  1.00  0.00     0.074 A 
ATOM     41  C   UNL     1       4.348   9.637   7.315  1.00  0.00     0.031 C 
ATOM     42  C   UNL     1       3.443  10.295   0.503  1.00  0.00     0.029 A 
ATOM     43  C   UNL     1       2.665  11.207   1.334  1.00  0.00     0.049 A 
ATOM     44  H   UNL     1       2.702  11.374   3.411  1.00  0.00     0.167 HD
ATOM     45  C   UNL     1       2.792  11.505   7.796  1.00  0.00     0.037 A 
ATOM     46  C   UNL     1       1.776  12.111   0.878  1.00  0.00     0.037 A 
ATOM     47  C   UNL     1       1.899  12.562   7.396  1.00  0.00     0.049 A 
ATOM     48  C   UNL     1       1.063  12.995   1.864  1.00  0.00     0.074 A 
ATOM     49  C   UNL     1       1.239  13.478   8.195  1.00  0.00     0.029 A 
ATOM     50  N   UNL     1       1.536  12.841   6.085  1.00  0.00    -0.354 N 
ATOM     51  N   UNL     1       1.163  13.020   3.172  1.00  0.00    -0.248 NA
ATOM     52  C   UNL     1       0.121  13.978   1.313  1.00  0.00     0.031 C 
ATOM     53  C   UNL     1       0.434  14.275   7.374  1.00  0.00     0.029 A 
ATOM     54  C   UNL     1       0.639  13.896   6.056  1.00  0.00     0.049 A 
ATOM     55  H   UNL     1       1.867  12.359   5.293  1.00  0.00     0.167 HD
ATOM     56  C   UNL     1       0.318  14.038   3.599  1.00  0.00     0.074 A 
ATOM     57  C   UNL     1      -0.274  14.614   2.409  1.00  0.00     0.031 C 
ATOM     58  C   UNL     1       0.057  14.459   4.862  1.00  0.00     0.037 A 
BRANCH  45  59
ATOM     59  C   UNL     1       3.025  11.281   9.266  1.00  0.00     0.058 A 
ATOM     60  C   UNL     1       4.264  11.555   9.869  1.00  0.00     0.135 A 
ATOM     61  C   UNL     1       1.988  10.817  10.092  1.00  0.00     0.135 A 
ATOM     62  F   UNL     1       5.297  11.986   9.127  1.00  0.00    -0.206 F 
ATOM     63  C   UNL     1       4.476  11.345  11.228  1.00  0.00     0.059 A 
ATOM     64  C   UNL     1       2.168  10.630  11.459  1.00  0.00     0.059 A 
ATOM     65  F   UNL     1       0.782  10.538   9.571  1.00  0.00    -0.206 F 
ATOM     66  C   UNL     1       3.421  10.882  12.015  1.00  0.00     0.060 A 
BRANCH  66  67
ATOM     67  S   UNL     1       3.713  10.616  13.776  1.00  0.00     0.124 S 
ATOM     68  O   UNL     1       4.561   9.427  13.754  1.00  0.00    -0.237 OA
ATOM     69  O   UNL     1       4.372  11.856  14.173  1.00  0.00    -0.237 OA
ATOM     70  O   UNL     1       2.373  10.420  14.319  1.00  0.00    -0.744 OA
ENDBRANCH  66  67
ENDBRANCH  45  59
BRANCH  46  71
ATOM     71  C   UNL     1       1.531  12.236  -0.584  1.00  0.00     0.058 A 
ATOM     72  C   UNL     1       1.957  13.368  -1.294  1.00  0.00     0.135 A 
ATOM     73  C   UNL     1       0.888  11.217  -1.304  1.00  0.00     0.135 A 
ATOM     74  F   UNL     1       2.571  14.371  -0.650  1.00  0.00    -0.206 F 
ATOM     75  C   UNL     1       1.742  13.493  -2.663  1.00  0.00     0.059 A 
ATOM     76  C   UNL     1       0.687  11.306  -2.678  1.00  0.00     0.059 A 
ATOM     77  F   UNL     1       0.477  10.104  -0.676  1.00  0.00    -0.206 F 
ATOM     78  C   UNL     1       1.109  12.454  -3.347  1.00  0.00     0.060 A 
BRANCH  78  79
ATOM     79  S   UNL     1       0.885  12.604  -5.133  1.00  0.00     0.124 S 
ATOM     80  O   UNL     1      -0.157  13.621  -5.214  1.00  0.00    -0.237 OA
ATOM     81  O   UNL     1       2.215  13.012  -5.574  1.00  0.00    -0.237 OA
ATOM     82  O   UNL     1       0.485  11.258  -5.534  1.00  0.00    -0.744 OA
ENDBRANCH  78  79
ENDBRANCH  46  71
BRANCH  58  83
ATOM     83  C   UNL     1      -0.888  15.618   5.023  1.00  0.00     0.058 A 
ATOM     84  C   UNL     1      -2.265  15.489   4.787  1.00  0.00     0.135 A 
ATOM     85  C   UNL     1      -0.414  16.864   5.468  1.00  0.00     0.135 A 
ATOM     86  F   UNL     1      -2.771  14.323   4.354  1.00  0.00    -0.206 F 
ATOM     87  C   UNL     1      -3.136  16.560   4.960  1.00  0.00     0.059 A 
ATOM     88  C   UNL     1      -1.271  17.939   5.679  1.00  0.00     0.059 A 
ATOM     89  F   UNL     1       0.893  17.040   5.720  1.00  0.00    -0.206 F 
ATOM     90  C   UNL     1      -2.629  17.781   5.410  1.00  0.00     0.060 A 
BRANCH  90  91
ATOM     91  S   UNL     1      -3.775  19.153   5.660  1.00  0.00     0.124 S 
ATOM     92  O   UNL     1      -4.094  19.524   4.286  1.00  0.00    -0.237 OA
ATOM     93  O   UNL     1      -4.855  18.523   6.414  1.00  0.00    -0.237 OA
ATOM     94  O   UNL     1      -2.983  20.127   6.406  1.00  0.00    -0.744 OA
ENDBRANCH  90  91
ENDBRANCH  58  83
ENDBRANCH  32  33
ENDBRANCH  24  27
ENDBRANCH  22  23
ENDBRANCH  21  22
ENDBRANCH  20  21
ENDBRANCH   1  20
TORSDOF 21
