REMARK SMILES Nc1ccc(-c2cc(Cl)cc3c2O[C@H](C(F)(F)F)C(C(=O)NCCCCCCNC(=O)c2ccc(-c4c5nc(c(-c6c(F)cc(S(=O)(=O)[O-])cc6F)c6ccc([nH]6)c(-c6c(F)cc(S(=O)(=O)[O-])cc6F)c6nc(c(-c7c(F)cc(S(=O)(=O)[O-])cc7F)c7ccc4[nH]7)C=C6)C=C5)cc2)=C3)cc1
REMARK SMILES IDX 26 1 25 2 24 3 23 4 22 5 20 6 21 7 19 9 6 10 7 11 12 12 8 13
REMARK SMILES IDX 11 14 13 15 9 16 10 17 98 18 14 19 5 20 2 21 3 22 100 23
REMARK SMILES IDX 4 24 99 25 1 26 15 29 16 30 17 31 18 32 27 33 28 34 29 35
REMARK SMILES IDX 30 36 31 38 32 39 33 40 97 41 34 42 96 43 35 44 36 45 37 46
REMARK SMILES IDX 90 47 38 48 95 49 89 50 91 51 39 52 94 53 88 54 87 55 40 57
REMARK SMILES IDX 74 58 53 59 73 60 54 61 57 62 72 63 92 64 55 65 56 66 71 68
REMARK SMILES IDX 93 69 58 70 41 71 42 72 51 73 43 74 44 75 50 76 52 77 45 78
REMARK SMILES IDX 46 79 47 80 48 81 49 82 75 83 76 84 85 85 77 86 78 87 84 88
REMARK SMILES IDX 86 89 79 90 80 91 81 92 82 93 83 94 59 95 60 96 69 97 61 98
REMARK SMILES IDX 62 99 68 100 70 101 63 102 64 103 65 104 66 105 67 106
REMARK H PARENT 22 8 1 27 1 28 29 37 91 56 57 67
REMARK Flexibility Score: inf
ROOT
ATOM      1  C   UNL     1      -4.056  -4.767   8.367  1.00  0.00     0.002 C 
ENDROOT
BRANCH   1   2
ATOM      2  C   UNL     1      -4.515  -3.311   8.204  1.00  0.00     0.002 C 
BRANCH   2   3
ATOM      3  C   UNL     1      -3.994  -2.587   6.958  1.00  0.00     0.021 C 
BRANCH   3   4
ATOM      4  C   UNL     1      -4.336  -3.282   5.642  1.00  0.00     0.116 C 
BRANCH   4   5
ATOM      5  N   UNL     1      -5.661  -2.918   5.167  1.00  0.00    -0.352 N 
ATOM      6  C   UNL     1      -6.197  -2.291   4.093  1.00  0.00     0.251 C 
ATOM      7  O   UNL     1      -7.431  -2.220   4.090  1.00  0.00    -0.270 OA
ATOM      8  H   UNL     1      -6.359  -3.205   5.798  1.00  0.00     0.163 HD
BRANCH   6   9
ATOM      9  C   UNL     1      -5.427  -1.703   2.956  1.00  0.00     0.067 C 
ATOM     10  C   UNL     1      -3.370   0.141  -0.232  1.00  0.00     0.026 A 
ATOM     11  C   UNL     1      -4.113   0.695  -1.284  1.00  0.00     0.033 A 
ATOM     12  C   UNL     1      -4.075  -0.415   0.854  1.00  0.00     0.135 A 
ATOM     13  C   UNL     1      -5.509   0.685  -1.245  1.00  0.00     0.042 A 
ATOM     14  C   UNL     1      -5.473  -0.434   0.893  1.00  0.00     0.019 A 
ATOM     15  O   UNL     1      -3.335  -0.873   1.910  1.00  0.00    -0.475 OA
ATOM     16  Cl  UNL     1      -6.401   1.378  -2.544  1.00  0.00    -0.084 Cl
ATOM     17  C   UNL     1      -6.192   0.122  -0.165  1.00  0.00     0.032 A 
ATOM     18  C   UNL     1      -6.148  -1.008   2.054  1.00  0.00     0.025 C 
ATOM     19  C   UNL     1      -3.949  -1.873   2.757  1.00  0.00     0.314 C 
BRANCH  10  20
ATOM     20  C   UNL     1      -1.899   0.129  -0.267  1.00  0.00    -0.014 A 
ATOM     21  C   UNL     1       0.931   0.075  -0.129  1.00  0.00     0.031 A 
ATOM     22  C   UNL     1       0.203  -1.109  -0.235  1.00  0.00     0.026 A 
ATOM     23  C   UNL     1       0.240   1.288  -0.169  1.00  0.00     0.026 A 
ATOM     24  C   UNL     1      -1.194  -1.085  -0.293  1.00  0.00     0.011 A 
ATOM     25  C   UNL     1      -1.159   1.317  -0.224  1.00  0.00     0.011 A 
BRANCH  21  26
ATOM     26  N   UNL     1       2.316   0.050  -0.122  1.00  0.00    -0.399 N 
ATOM     27  H   UNL     1       2.793  -0.811  -0.094  1.00  0.00     0.156 HD
ATOM     28  H   UNL     1       2.824   0.893  -0.145  1.00  0.00     0.156 HD
ENDBRANCH  21  26
ENDBRANCH  10  20
BRANCH  19  29
ATOM     29  C   UNL     1      -3.570  -3.276   2.250  1.00  0.00     0.429 C 
ATOM     30  F   UNL     1      -2.236  -3.484   2.363  1.00  0.00    -0.167 F 
ATOM     31  F   UNL     1      -4.175  -4.260   2.956  1.00  0.00    -0.167 F 
ATOM     32  F   UNL     1      -3.902  -3.463   0.952  1.00  0.00    -0.167 F 
ENDBRANCH  19  29
ENDBRANCH   6   9
ENDBRANCH   4   5
ENDBRANCH   3   4
ENDBRANCH   2   3
ENDBRANCH   1   2
BRANCH   1  33
ATOM     33  C   UNL     1      -2.555  -5.016   8.199  1.00  0.00     0.021 C 
BRANCH  33  34
ATOM     34  C   UNL     1      -1.659  -4.232   9.151  1.00  0.00     0.116 C 
BRANCH  34  35
ATOM     35  N   UNL     1      -1.874  -4.591  10.544  1.00  0.00    -0.352 N 
ATOM     36  C   UNL     1      -0.951  -4.937  11.503  1.00  0.00     0.251 C 
ATOM     37  H   UNL     1      -2.812  -4.586  10.842  1.00  0.00     0.163 HD
ATOM     38  O   UNL     1      -1.325  -5.354  12.595  1.00  0.00    -0.269 OA
BRANCH  36  39
ATOM     39  C   UNL     1       0.493  -4.834  11.200  1.00  0.00     0.039 A 
ATOM     40  C   UNL     1       1.013  -3.689  10.590  1.00  0.00     0.014 A 
ATOM     41  C   UNL     1       1.332  -5.908  11.511  1.00  0.00     0.014 A 
ATOM     42  C   UNL     1       2.334  -3.682  10.154  1.00  0.00     0.010 A 
ATOM     43  C   UNL     1       2.678  -5.867  11.137  1.00  0.00     0.010 A 
ATOM     44  C   UNL     1       3.179  -4.773  10.415  1.00  0.00    -0.014 A 
BRANCH  44  45
ATOM     45  C   UNL     1       4.576  -4.752   9.909  1.00  0.00     0.031 A 
ATOM     46  C   UNL     1       5.020  -5.713   8.839  1.00  0.00     0.074 A 
ATOM     47  C   UNL     1       5.428  -3.817  10.371  1.00  0.00     0.049 A 
ATOM     48  N   UNL     1       6.186  -5.811   8.253  1.00  0.00    -0.248 NA
ATOM     49  C   UNL     1       4.028  -6.690   8.367  1.00  0.00     0.031 C 
ATOM     50  C   UNL     1       5.107  -2.819  11.392  1.00  0.00     0.029 A 
ATOM     51  N   UNL     1       6.723  -3.531  10.020  1.00  0.00    -0.354 N 
ATOM     52  C   UNL     1       6.073  -6.864   7.352  1.00  0.00     0.074 A 
ATOM     53  C   UNL     1       4.734  -7.395   7.494  1.00  0.00     0.031 C 
ATOM     54  C   UNL     1       6.151  -1.990  11.537  1.00  0.00     0.029 A 
ATOM     55  C   UNL     1       7.235  -2.431  10.665  1.00  0.00     0.049 A 
ATOM     56  H   UNL     1       7.235  -4.062   9.368  1.00  0.00     0.167 HD
ATOM     57  C   UNL     1       6.995  -7.336   6.477  1.00  0.00     0.037 A 
ATOM     58  C   UNL     1       8.442  -1.843  10.570  1.00  0.00     0.037 A 
ATOM     59  C   UNL     1       8.324  -6.801   6.334  1.00  0.00     0.049 A 
ATOM     60  C   UNL     1       9.466  -2.416   9.635  1.00  0.00     0.074 A 
ATOM     61  C   UNL     1       9.331  -7.211   5.477  1.00  0.00     0.029 A 
ATOM     62  N   UNL     1       8.832  -5.738   7.066  1.00  0.00    -0.354 N 
ATOM     63  N   UNL     1       9.348  -3.424   8.804  1.00  0.00    -0.248 NA
ATOM     64  C   UNL     1      10.792  -1.784   9.636  1.00  0.00     0.031 C 
ATOM     65  C   UNL     1      10.459  -6.417   5.716  1.00  0.00     0.029 A 
ATOM     66  C   UNL     1      10.144  -5.488   6.695  1.00  0.00     0.049 A 
ATOM     67  H   UNL     1       8.335  -5.234   7.750  1.00  0.00     0.167 HD
ATOM     68  C   UNL     1      10.583  -3.549   8.181  1.00  0.00     0.074 A 
ATOM     69  C   UNL     1      11.429  -2.501   8.718  1.00  0.00     0.031 C 
ATOM     70  C   UNL     1      10.979  -4.453   7.252  1.00  0.00     0.037 A 
BRANCH  57  71
ATOM     71  C   UNL     1       6.592  -8.505   5.620  1.00  0.00     0.058 A 
ATOM     72  C   UNL     1       5.685  -8.360   4.558  1.00  0.00     0.135 A 
ATOM     73  C   UNL     1       7.116  -9.785   5.863  1.00  0.00     0.135 A 
ATOM     74  F   UNL     1       5.143  -7.161   4.292  1.00  0.00    -0.206 F 
ATOM     75  C   UNL     1       5.281  -9.449   3.793  1.00  0.00     0.059 A 
ATOM     76  C   UNL     1       6.744 -10.885   5.096  1.00  0.00     0.059 A 
ATOM     77  F   UNL     1       7.989  -9.979   6.864  1.00  0.00    -0.206 F 
ATOM     78  C   UNL     1       5.809 -10.710   4.076  1.00  0.00     0.060 A 
BRANCH  78  79
ATOM     79  S   UNL     1       5.244 -12.121   3.101  1.00  0.00     0.124 S 
ATOM     80  O   UNL     1       3.906 -12.331   3.646  1.00  0.00    -0.237 OA
ATOM     81  O   UNL     1       5.297 -11.602   1.738  1.00  0.00    -0.237 OA
ATOM     82  O   UNL     1       6.219 -13.161   3.412  1.00  0.00    -0.744 OA
ENDBRANCH  78  79
ENDBRANCH  57  71
BRANCH  58  83
ATOM     83  C   UNL     1       8.720  -0.627  11.376  1.00  0.00     0.058 A 
ATOM     84  C   UNL     1       8.751   0.637  10.772  1.00  0.00     0.135 A 
ATOM     85  C   UNL     1       8.866  -0.695  12.770  1.00  0.00     0.135 A 
ATOM     86  F   UNL     1       8.623   0.749   9.441  1.00  0.00    -0.206 F 
ATOM     87  C   UNL     1       8.897   1.797  11.525  1.00  0.00     0.059 A 
ATOM     88  C   UNL     1       8.993   0.452  13.546  1.00  0.00     0.059 A 
ATOM     89  F   UNL     1       8.829  -1.884  13.392  1.00  0.00    -0.206 F 
ATOM     90  C   UNL     1       9.002   1.695  12.914  1.00  0.00     0.060 A 
BRANCH  90  91
ATOM     91  S   UNL     1       9.072   3.213  13.889  1.00  0.00     0.124 S 
ATOM     92  O   UNL     1      10.422   3.685  13.604  1.00  0.00    -0.237 OA
ATOM     93  O   UNL     1       7.985   3.997  13.310  1.00  0.00    -0.237 OA
ATOM     94  O   UNL     1       8.839   2.747  15.253  1.00  0.00    -0.744 OA
ENDBRANCH  90  91
ENDBRANCH  58  83
BRANCH  70  95
ATOM     95  C   UNL     1      12.394  -4.356   6.758  1.00  0.00     0.058 A 
ATOM     96  C   UNL     1      13.471  -4.801   7.539  1.00  0.00     0.135 A 
ATOM     97  C   UNL     1      12.671  -3.868   5.471  1.00  0.00     0.135 A 
ATOM     98  F   UNL     1      13.258  -5.268   8.780  1.00  0.00    -0.206 F 
ATOM     99  C   UNL     1      14.778  -4.756   7.066  1.00  0.00     0.059 A 
ATOM    100  C   UNL     1      13.969  -3.832   4.970  1.00  0.00     0.059 A 
ATOM    101  F   UNL     1      11.675  -3.435   4.683  1.00  0.00    -0.206 F 
ATOM    102  C   UNL     1      15.017  -4.271   5.778  1.00  0.00     0.060 A 
BRANCH 102 103
ATOM    103  S   UNL     1      16.713  -4.257   5.161  1.00  0.00     0.124 S 
ATOM    104  O   UNL     1      17.288  -3.143   5.907  1.00  0.00    -0.237 OA
ATOM    105  O   UNL     1      17.193  -5.584   5.535  1.00  0.00    -0.237 OA
ATOM    106  O   UNL     1      16.551  -4.037   3.727  1.00  0.00    -0.744 OA
ENDBRANCH 102 103
ENDBRANCH  70  95
ENDBRANCH  44  45
ENDBRANCH  36  39
ENDBRANCH  34  35
ENDBRANCH  33  34
ENDBRANCH   1  33
TORSDOF 19
