REMARK SMILES CCc1c(C(=O)NCC(=O)NCCCCCCNC(=O)c2ccc(-c3c4nc(c(-c5c(F)cc(S(=O)(=O)[O-])cc5F)c5ccc([nH]5)c(-c5c(F)cc(S(=O)(=O)[O-])cc5F)c5nc(c(-c6c(F)cc(S(=O)(=O)[O-])cc6F)c6ccc3[nH]6)C=C5)C=C4)cc2)nnn1-c1ccc(Cl)cc1
REMARK SMILES IDX 14 1 13 2 12 3 11 4 9 5 10 6 8 8 7 9 5 10 6 11 4 13 3 14
REMARK SMILES IDX 89 15 87 16 88 17 2 18 1 19 90 20 91 21 96 22 92 23 95 24
REMARK SMILES IDX 93 25 94 26 15 27 16 28 17 29 18 30 19 31 20 33 21 34 22 35
REMARK SMILES IDX 86 36 23 37 85 38 24 39 25 40 26 41 79 42 27 43 84 44 78 45
REMARK SMILES IDX 80 46 28 47 83 48 77 49 76 50 29 52 63 53 42 54 62 55 43 56
REMARK SMILES IDX 46 57 61 58 81 59 44 60 45 61 60 63 82 64 47 65 30 66 31 67
REMARK SMILES IDX 40 68 32 69 33 70 39 71 41 72 34 73 35 74 36 75 37 76 38 77
REMARK SMILES IDX 64 78 65 79 74 80 66 81 67 82 73 83 75 84 68 85 69 86 70 87
REMARK SMILES IDX 71 88 72 89 48 90 49 91 58 92 50 93 51 94 57 95 59 96 52 97
REMARK SMILES IDX 53 98 54 99 55 100 56 101
REMARK H PARENT 11 7 7 12 18 32 80 51 46 62
REMARK Flexibility Score: inf
ROOT
ATOM      1  C   UNL     1       4.770   5.558   1.560  1.00  0.00     0.002 C 
ENDROOT
BRANCH   1   2
ATOM      2  C   UNL     1       3.592   5.468   0.586  1.00  0.00     0.021 C 
BRANCH   2   3
ATOM      3  C   UNL     1       2.887   4.119   0.593  1.00  0.00     0.116 C 
BRANCH   3   4
ATOM      4  N   UNL     1       2.090   3.909   1.782  1.00  0.00    -0.355 N 
ATOM      5  C   UNL     1       0.748   3.865   1.986  1.00  0.00     0.239 C 
ATOM      6  O   UNL     1       0.380   3.533   3.121  1.00  0.00    -0.273 OA
ATOM      7  H   UNL     1       2.622   3.772   2.599  1.00  0.00     0.163 HD
BRANCH   5   8
ATOM      8  C   UNL     1      -0.317   4.042   0.881  1.00  0.00     0.216 C 
BRANCH   8   9
ATOM      9  N   UNL     1      -0.057   4.738  -0.357  1.00  0.00    -0.342 N 
ATOM     10  C   UNL     1       0.280   4.398  -1.638  1.00  0.00     0.274 C 
ATOM     11  O   UNL     1       0.201   5.349  -2.427  1.00  0.00    -0.267 OA
ATOM     12  H   UNL     1      -0.145   5.712  -0.251  1.00  0.00     0.164 HD
BRANCH  10  13
ATOM     13  C   UNL     1       0.803   3.103  -2.111  1.00  0.00     0.174 A 
ATOM     14  C   UNL     1       0.882   1.784  -1.640  1.00  0.00     0.077 A 
ATOM     15  N   UNL     1       1.505   1.110  -2.691  1.00  0.00    -0.217 N 
ATOM     16  N   UNL     1       1.517   3.162  -3.298  1.00  0.00    -0.124 NA
ATOM     17  N   UNL     1       2.040   1.984  -3.555  1.00  0.00    -0.061 NA
BRANCH  14  18
ATOM     18  C   UNL     1       0.527   1.166  -0.324  1.00  0.00     0.055 C 
ATOM     19  C   UNL     1       1.221  -0.107   0.134  1.00  0.00     0.011 C 
ENDBRANCH  14  18
BRANCH  15  20
ATOM     20  C   UNL     1       1.688  -0.270  -2.909  1.00  0.00     0.067 A 
ATOM     21  C   UNL     1       2.967  -0.741  -3.235  1.00  0.00     0.030 A 
ATOM     22  C   UNL     1       0.614  -1.153  -2.766  1.00  0.00     0.030 A 
ATOM     23  C   UNL     1       3.192  -2.116  -3.306  1.00  0.00     0.023 A 
ATOM     24  C   UNL     1       0.842  -2.527  -2.865  1.00  0.00     0.023 A 
ATOM     25  C   UNL     1       2.132  -3.002  -3.107  1.00  0.00     0.041 A 
ATOM     26  Cl  UNL     1       2.422  -4.697  -3.136  1.00  0.00    -0.084 Cl
ENDBRANCH  15  20
ENDBRANCH  10  13
ENDBRANCH   8   9
ENDBRANCH   5   8
ENDBRANCH   3   4
ENDBRANCH   2   3
ENDBRANCH   1   2
BRANCH   1  27
ATOM     27  C   UNL     1       5.870   4.501   1.378  1.00  0.00     0.002 C 
BRANCH  27  28
ATOM     28  C   UNL     1       6.456   4.358  -0.034  1.00  0.00     0.021 C 
BRANCH  28  29
ATOM     29  C   UNL     1       7.151   5.611  -0.552  1.00  0.00     0.116 C 
BRANCH  29  30
ATOM     30  N   UNL     1       8.337   5.942   0.233  1.00  0.00    -0.352 N 
ATOM     31  C   UNL     1       9.171   7.027   0.104  1.00  0.00     0.251 C 
ATOM     32  H   UNL     1       8.570   5.305   0.947  1.00  0.00     0.163 HD
ATOM     33  O   UNL     1      10.320   6.973   0.557  1.00  0.00    -0.269 OA
BRANCH  31  34
ATOM     34  C   UNL     1       8.698   8.245  -0.575  1.00  0.00     0.039 A 
ATOM     35  C   UNL     1       9.556   8.972  -1.403  1.00  0.00     0.014 A 
ATOM     36  C   UNL     1       7.383   8.670  -0.372  1.00  0.00     0.014 A 
ATOM     37  C   UNL     1       9.059  10.077  -2.088  1.00  0.00     0.010 A 
ATOM     38  C   UNL     1       6.862   9.697  -1.130  1.00  0.00     0.010 A 
ATOM     39  C   UNL     1       7.701  10.421  -1.969  1.00  0.00    -0.014 A 
BRANCH  39  40
ATOM     40  C   UNL     1       7.130  11.434  -2.854  1.00  0.00     0.031 A 
ATOM     41  C   UNL     1       7.339  11.146  -4.300  1.00  0.00     0.074 A 
ATOM     42  C   UNL     1       6.310  12.430  -2.454  1.00  0.00     0.049 A 
ATOM     43  N   UNL     1       8.143  11.746  -5.114  1.00  0.00    -0.248 NA
ATOM     44  C   UNL     1       6.720   9.935  -4.866  1.00  0.00     0.031 C 
ATOM     45  C   UNL     1       5.737  12.650  -1.123  1.00  0.00     0.029 A 
ATOM     46  N   UNL     1       5.729  13.418  -3.193  1.00  0.00    -0.354 N 
ATOM     47  C   UNL     1       7.933  11.157  -6.359  1.00  0.00     0.074 A 
ATOM     48  C   UNL     1       7.237   9.925  -6.097  1.00  0.00     0.031 C 
ATOM     49  C   UNL     1       4.731  13.550  -1.206  1.00  0.00     0.029 A 
ATOM     50  C   UNL     1       4.693  14.093  -2.552  1.00  0.00     0.049 A 
ATOM     51  H   UNL     1       6.020  13.637  -4.108  1.00  0.00     0.167 HD
ATOM     52  C   UNL     1       8.110  11.870  -7.507  1.00  0.00     0.037 A 
ATOM     53  C   UNL     1       3.852  15.012  -3.096  1.00  0.00     0.037 A 
ATOM     54  C   UNL     1       8.855  13.080  -7.242  1.00  0.00     0.049 A 
ATOM     55  C   UNL     1       4.516  15.536  -4.317  1.00  0.00     0.074 A 
ATOM     56  C   UNL     1      10.088  13.366  -6.687  1.00  0.00     0.029 A 
ATOM     57  N   UNL     1       8.148  14.258  -7.209  1.00  0.00    -0.354 N 
ATOM     58  N   UNL     1       5.598  16.264  -4.304  1.00  0.00    -0.248 NA
ATOM     59  C   UNL     1       4.222  14.880  -5.582  1.00  0.00     0.031 C 
ATOM     60  C   UNL     1       9.881  14.549  -5.919  1.00  0.00     0.029 A 
ATOM     61  C   UNL     1       8.564  14.967  -6.114  1.00  0.00     0.049 A 
ATOM     62  H   UNL     1       7.463  14.541  -7.857  1.00  0.00     0.167 HD
ATOM     63  C   UNL     1       6.343  15.804  -5.378  1.00  0.00     0.074 A 
ATOM     64  C   UNL     1       5.404  15.028  -6.186  1.00  0.00     0.031 C 
ATOM     65  C   UNL     1       7.707  15.856  -5.361  1.00  0.00     0.037 A 
BRANCH  52  66
ATOM     66  C   UNL     1       7.277  11.712  -8.767  1.00  0.00     0.058 A 
ATOM     67  C   UNL     1       7.591  12.507  -9.892  1.00  0.00     0.135 A 
ATOM     68  C   UNL     1       6.028  11.054  -8.829  1.00  0.00     0.135 A 
ATOM     69  F   UNL     1       8.755  13.173  -9.959  1.00  0.00    -0.206 F 
ATOM     70  C   UNL     1       6.693  12.719 -10.939  1.00  0.00     0.059 A 
ATOM     71  C   UNL     1       5.141  11.209  -9.889  1.00  0.00     0.059 A 
ATOM     72  F   UNL     1       5.557  10.300  -7.832  1.00  0.00    -0.206 F 
ATOM     73  C   UNL     1       5.460  12.078 -10.917  1.00  0.00     0.060 A 
BRANCH  73  74
ATOM     74  S   UNL     1       4.262  12.419 -12.216  1.00  0.00     0.124 S 
ATOM     75  O   UNL     1       3.892  13.797 -11.913  1.00  0.00    -0.237 OA
ATOM     76  O   UNL     1       5.061  12.220 -13.421  1.00  0.00    -0.237 OA
ATOM     77  O   UNL     1       3.225  11.419 -11.986  1.00  0.00    -0.744 OA
ENDBRANCH  73  74
ENDBRANCH  52  66
BRANCH  53  78
ATOM     78  C   UNL     1       2.415  15.275  -2.809  1.00  0.00     0.058 A 
ATOM     79  C   UNL     1       1.767  16.413  -3.330  1.00  0.00     0.135 A 
ATOM     80  C   UNL     1       1.575  14.274  -2.284  1.00  0.00     0.135 A 
ATOM     81  F   UNL     1       2.484  17.415  -3.861  1.00  0.00    -0.206 F 
ATOM     82  C   UNL     1       0.372  16.520  -3.390  1.00  0.00     0.059 A 
ATOM     83  C   UNL     1       0.182  14.364  -2.324  1.00  0.00     0.059 A 
ATOM     84  F   UNL     1       2.082  13.131  -1.799  1.00  0.00    -0.206 F 
ATOM     85  C   UNL     1      -0.414  15.476  -2.907  1.00  0.00     0.060 A 
BRANCH  85  86
ATOM     86  S   UNL     1      -2.205  15.520  -3.160  1.00  0.00     0.124 S 
ATOM     87  O   UNL     1      -2.614  16.582  -2.248  1.00  0.00    -0.237 OA
ATOM     88  O   UNL     1      -2.311  15.825  -4.582  1.00  0.00    -0.237 OA
ATOM     89  O   UNL     1      -2.634  14.175  -2.782  1.00  0.00    -0.744 OA
ENDBRANCH  85  86
ENDBRANCH  53  78
BRANCH  65  90
ATOM     90  C   UNL     1       8.384  16.756  -4.361  1.00  0.00     0.058 A 
ATOM     91  C   UNL     1       8.301  16.628  -2.963  1.00  0.00     0.135 A 
ATOM     92  C   UNL     1       9.277  17.715  -4.865  1.00  0.00     0.135 A 
ATOM     93  F   UNL     1       7.550  15.672  -2.396  1.00  0.00    -0.206 F 
ATOM     94  C   UNL     1       9.043  17.450  -2.109  1.00  0.00     0.059 A 
ATOM     95  C   UNL     1      10.051  18.516  -4.035  1.00  0.00     0.059 A 
ATOM     96  F   UNL     1       9.443  17.848  -6.192  1.00  0.00    -0.206 F 
ATOM     97  C   UNL     1       9.917  18.390  -2.655  1.00  0.00     0.060 A 
BRANCH  97  98
ATOM     98  S   UNL     1      10.924  19.410  -1.557  1.00  0.00     0.124 S 
ATOM     99  O   UNL     1       9.931  20.308  -0.977  1.00  0.00    -0.237 OA
ATOM    100  O   UNL     1      11.498  18.425  -0.645  1.00  0.00    -0.237 OA
ATOM    101  O   UNL     1      11.883  20.042  -2.461  1.00  0.00    -0.744 OA
ENDBRANCH  97  98
ENDBRANCH  65  90
ENDBRANCH  39  40
ENDBRANCH  31  34
ENDBRANCH  29  30
ENDBRANCH  28  29
ENDBRANCH  27  28
ENDBRANCH   1  27
TORSDOF 20
