REMARK SMILES C[NH+](C)Cc1noc(C[C@@](C)(C(=O)NCCCCCCNC(=O)c2ccc(-c3c4nc(c(-c5c(F)cc(S(=O)(=O)[O-])cc5F)c5ccc([nH]5)c(-c5c(F)cc(S(=O)(=O)[O-])cc5F)c5nc(c(-c6c(F)cc(S(=O)(=O)[O-])cc6F)c6ccc3[nH]6)C=C5)C=C4)cc2)c2ccccc2)n1
REMARK SMILES IDX 17 1 16 2 15 3 14 4 12 5 13 6 10 8 11 9 9 10 8 11 5 12 6 13
REMARK SMILES IDX 96 14 7 15 4 16 2 17 1 18 3 19 90 21 91 22 95 23 92 24 94 25
REMARK SMILES IDX 93 26 18 27 19 28 20 29 21 30 22 31 23 33 24 34 25 35 89 36
REMARK SMILES IDX 26 37 88 38 27 39 28 40 29 41 82 42 30 43 87 44 81 45 83 46
REMARK SMILES IDX 31 47 86 48 80 49 79 50 32 52 66 53 45 54 65 55 46 56 49 57
REMARK SMILES IDX 64 58 84 59 47 60 48 61 63 63 85 64 50 65 33 66 34 67 43 68
REMARK SMILES IDX 35 69 36 70 42 71 44 72 37 73 38 74 39 75 40 76 41 77 67 78
REMARK SMILES IDX 68 79 77 80 69 81 70 82 76 83 78 84 71 85 72 86 73 87 74 88
REMARK SMILES IDX 75 89 51 90 52 91 61 92 53 93 54 94 60 95 62 96 55 97 56 98
REMARK SMILES IDX 57 99 58 100 59 101
REMARK H PARENT 14 7 2 20 21 32 83 51 49 62
REMARK Flexibility Score: inf
ROOT
ATOM      1  C   UNL     1      -4.330   5.987   5.420  1.00  0.00     0.002 C 
ENDROOT
BRANCH   1   2
ATOM      2  C   UNL     1      -3.528   5.682   4.149  1.00  0.00     0.021 C 
BRANCH   2   3
ATOM      3  C   UNL     1      -2.095   6.212   4.191  1.00  0.00     0.116 C 
BRANCH   3   4
ATOM      4  N   UNL     1      -1.284   5.411   5.088  1.00  0.00    -0.355 N 
ATOM      5  C   UNL     1      -0.263   4.532   4.897  1.00  0.00     0.230 C 
ATOM      6  O   UNL     1       0.098   3.935   5.917  1.00  0.00    -0.274 OA
ATOM      7  H   UNL     1      -1.522   5.528   6.036  1.00  0.00     0.163 HD
BRANCH   5   8
ATOM      8  C   UNL     1       0.416   4.302   3.513  1.00  0.00     0.080 C 
ATOM      9  C   UNL     1       0.980   5.662   3.022  1.00  0.00     0.027 C 
BRANCH   8  10
ATOM     10  C   UNL     1      -0.654   3.771   2.519  1.00  0.00     0.122 C 
BRANCH  10  11
ATOM     11  C   UNL     1      -0.127   3.444   1.175  1.00  0.00     0.228 A 
ATOM     12  C   UNL     1       0.535   2.585  -0.612  1.00  0.00     0.226 A 
ATOM     13  N   UNL     1       0.617   3.904  -0.852  1.00  0.00    -0.056 NA
ATOM     14  N   UNL     1       0.060   2.267   0.637  1.00  0.00    -0.190 NA
ATOM     15  O   UNL     1       0.159   4.477   0.335  1.00  0.00    -0.339 OA
BRANCH  12  16
ATOM     16  C   UNL     1       0.955   1.569  -1.633  1.00  0.00     0.344 C 
BRANCH  16  17
ATOM     17  N   UNL     1       0.497   0.177  -1.413  1.00  0.00    -0.333 N 
ATOM     18  C   UNL     1       1.067  -0.428  -0.211  1.00  0.00     0.332 C 
ATOM     19  C   UNL     1      -0.959   0.060  -1.434  1.00  0.00     0.332 C 
ATOM     20  H   UNL     1       0.855  -0.358  -2.204  1.00  0.00     0.348 HD
ENDBRANCH  16  17
ENDBRANCH  12  16
ENDBRANCH  10  11
ENDBRANCH   8  10
BRANCH   8  21
ATOM     21  C   UNL     1       1.583   3.278   3.703  1.00  0.00    -0.032 A 
ATOM     22  C   UNL     1       1.349   1.888   3.693  1.00  0.00     0.005 A 
ATOM     23  C   UNL     1       2.905   3.699   3.946  1.00  0.00     0.005 A 
ATOM     24  C   UNL     1       2.391   0.969   3.855  1.00  0.00     0.000 A 
ATOM     25  C   UNL     1       3.946   2.781   4.112  1.00  0.00     0.000 A 
ATOM     26  C   UNL     1       3.691   1.416   4.057  1.00  0.00     0.000 A 
ENDBRANCH   8  21
ENDBRANCH   5   8
ENDBRANCH   3   4
ENDBRANCH   2   3
ENDBRANCH   1   2
BRANCH   1  27
ATOM     27  C   UNL     1      -4.414   7.475   5.782  1.00  0.00     0.002 C 
BRANCH  27  28
ATOM     28  C   UNL     1      -4.902   8.385   4.651  1.00  0.00     0.021 C 
BRANCH  28  29
ATOM     29  C   UNL     1      -6.287   8.034   4.120  1.00  0.00     0.116 C 
BRANCH  29  30
ATOM     30  N   UNL     1      -7.311   8.191   5.142  1.00  0.00    -0.352 N 
ATOM     31  C   UNL     1      -8.423   8.996   5.132  1.00  0.00     0.251 C 
ATOM     32  H   UNL     1      -7.189   7.644   5.952  1.00  0.00     0.163 HD
ATOM     33  O   UNL     1      -9.063   9.181   6.163  1.00  0.00    -0.269 OA
BRANCH  31  34
ATOM     34  C   UNL     1      -8.828   9.651   3.872  1.00  0.00     0.039 A 
ATOM     35  C   UNL     1      -9.109  11.019   3.875  1.00  0.00     0.014 A 
ATOM     36  C   UNL     1      -8.899   8.915   2.686  1.00  0.00     0.014 A 
ATOM     37  C   UNL     1      -9.390  11.665   2.670  1.00  0.00     0.010 A 
ATOM     38  C   UNL     1      -9.113   9.572   1.479  1.00  0.00     0.010 A 
ATOM     39  C   UNL     1      -9.351  10.956   1.458  1.00  0.00    -0.014 A 
BRANCH  39  40
ATOM     40  C   UNL     1      -9.522  11.639   0.152  1.00  0.00     0.031 A 
ATOM     41  C   UNL     1     -10.687  11.296  -0.733  1.00  0.00     0.074 A 
ATOM     42  C   UNL     1      -8.576  12.501  -0.274  1.00  0.00     0.049 A 
ATOM     43  N   UNL     1     -10.943  11.693  -1.952  1.00  0.00    -0.248 NA
ATOM     44  C   UNL     1     -11.684  10.362  -0.183  1.00  0.00     0.031 C 
ATOM     45  C   UNL     1      -7.380  12.884   0.479  1.00  0.00     0.029 A 
ATOM     46  N   UNL     1      -8.460  13.195  -1.452  1.00  0.00    -0.354 N 
ATOM     47  C   UNL     1     -12.118  11.051  -2.321  1.00  0.00     0.074 A 
ATOM     48  C   UNL     1     -12.501  10.201  -1.214  1.00  0.00     0.031 C 
ATOM     49  C   UNL     1      -6.658  13.749  -0.250  1.00  0.00     0.029 A 
ATOM     50  C   UNL     1      -7.312  13.948  -1.539  1.00  0.00     0.049 A 
ATOM     51  H   UNL     1      -9.135  13.158  -2.168  1.00  0.00     0.167 HD
ATOM     52  C   UNL     1     -12.822  11.173  -3.472  1.00  0.00     0.037 A 
ATOM     53  C   UNL     1      -6.829  14.696  -2.550  1.00  0.00     0.037 A 
ATOM     54  C   UNL     1     -12.442  12.035  -4.561  1.00  0.00     0.049 A 
ATOM     55  C   UNL     1      -7.615  14.794  -3.829  1.00  0.00     0.074 A 
ATOM     56  C   UNL     1     -13.121  12.276  -5.742  1.00  0.00     0.029 A 
ATOM     57  N   UNL     1     -11.279  12.790  -4.607  1.00  0.00    -0.354 N 
ATOM     58  N   UNL     1      -8.760  14.231  -4.137  1.00  0.00    -0.248 NA
ATOM     59  C   UNL     1      -7.047  15.625  -4.899  1.00  0.00     0.031 C 
ATOM     60  C   UNL     1     -12.343  13.136  -6.525  1.00  0.00     0.029 A 
ATOM     61  C   UNL     1     -11.205  13.473  -5.810  1.00  0.00     0.049 A 
ATOM     62  H   UNL     1     -10.605  12.833  -3.890  1.00  0.00     0.167 HD
ATOM     63  C   UNL     1      -9.058  14.657  -5.427  1.00  0.00     0.074 A 
ATOM     64  C   UNL     1      -7.982  15.536  -5.835  1.00  0.00     0.031 C 
ATOM     65  C   UNL     1     -10.127  14.347  -6.202  1.00  0.00     0.037 A 
BRANCH  52  66
ATOM     66  C   UNL     1     -14.076  10.354  -3.615  1.00  0.00     0.058 A 
ATOM     67  C   UNL     1     -15.229  10.632  -2.864  1.00  0.00     0.135 A 
ATOM     68  C   UNL     1     -14.140   9.304  -4.545  1.00  0.00     0.135 A 
ATOM     69  F   UNL     1     -15.220  11.616  -1.950  1.00  0.00    -0.206 F 
ATOM     70  C   UNL     1     -16.391   9.882  -3.008  1.00  0.00     0.059 A 
ATOM     71  C   UNL     1     -15.302   8.558  -4.727  1.00  0.00     0.059 A 
ATOM     72  F   UNL     1     -13.068   8.993  -5.290  1.00  0.00    -0.206 F 
ATOM     73  C   UNL     1     -16.418   8.846  -3.943  1.00  0.00     0.060 A 
BRANCH  73  74
ATOM     74  S   UNL     1     -17.936   7.886  -4.121  1.00  0.00     0.124 S 
ATOM     75  O   UNL     1     -17.932   7.105  -2.888  1.00  0.00    -0.237 OA
ATOM     76  O   UNL     1     -18.955   8.927  -4.209  1.00  0.00    -0.237 OA
ATOM     77  O   UNL     1     -17.715   7.123  -5.346  1.00  0.00    -0.744 OA
ENDBRANCH  73  74
ENDBRANCH  52  66
BRANCH  53  78
ATOM     78  C   UNL     1      -5.535  15.411  -2.392  1.00  0.00     0.058 A 
ATOM     79  C   UNL     1      -5.490  16.810  -2.296  1.00  0.00     0.135 A 
ATOM     80  C   UNL     1      -4.319  14.712  -2.319  1.00  0.00     0.135 A 
ATOM     81  F   UNL     1      -6.624  17.523  -2.369  1.00  0.00    -0.206 F 
ATOM     82  C   UNL     1      -4.287  17.492  -2.147  1.00  0.00     0.059 A 
ATOM     83  C   UNL     1      -3.106  15.371  -2.143  1.00  0.00     0.059 A 
ATOM     84  F   UNL     1      -4.308  13.372  -2.389  1.00  0.00    -0.206 F 
ATOM     85  C   UNL     1      -3.100  16.763  -2.067  1.00  0.00     0.060 A 
BRANCH  85  86
ATOM     86  S   UNL     1      -1.550  17.656  -1.821  1.00  0.00     0.124 S 
ATOM     87  O   UNL     1      -1.351  18.267  -3.130  1.00  0.00    -0.237 OA
ATOM     88  O   UNL     1      -1.892  18.568  -0.734  1.00  0.00    -0.237 OA
ATOM     89  O   UNL     1      -0.607  16.598  -1.467  1.00  0.00    -0.744 OA
ENDBRANCH  85  86
ENDBRANCH  53  78
BRANCH  65  90
ATOM     90  C   UNL     1     -10.202  14.976  -7.566  1.00  0.00     0.058 A 
ATOM     91  C   UNL     1      -9.368  14.558  -8.615  1.00  0.00     0.135 A 
ATOM     92  C   UNL     1     -11.166  15.957  -7.845  1.00  0.00     0.135 A 
ATOM     93  F   UNL     1      -8.423  13.630  -8.399  1.00  0.00    -0.206 F 
ATOM     94  C   UNL     1      -9.480  15.101  -9.891  1.00  0.00     0.059 A 
ATOM     95  C   UNL     1     -11.315  16.493  -9.120  1.00  0.00     0.059 A 
ATOM     96  F   UNL     1     -11.994  16.386  -6.879  1.00  0.00    -0.206 F 
ATOM     97  C   UNL     1     -10.462  16.063 -10.136  1.00  0.00     0.060 A 
BRANCH  97  98
ATOM     98  S   UNL     1     -10.632  16.717 -11.810  1.00  0.00     0.124 S 
ATOM     99  O   UNL     1      -9.450  17.565 -11.917  1.00  0.00    -0.237 OA
ATOM    100  O   UNL     1     -10.618  15.504 -12.621  1.00  0.00    -0.237 OA
ATOM    101  O   UNL     1     -11.909  17.423 -11.771  1.00  0.00    -0.744 OA
ENDBRANCH  97  98
ENDBRANCH  65  90
ENDBRANCH  39  40
ENDBRANCH  31  34
ENDBRANCH  29  30
ENDBRANCH  28  29
ENDBRANCH  27  28
ENDBRANCH   1  27
TORSDOF 21
