REMARK SMILES O=C(C[C@@H]1C[N@@H+]([C@H]2CCCc3sccc32)CCO1)NCCCCCCNC(=O)c1ccc(-c2c3nc(c(-c4c(F)cc(S(=O)(=O)[O-])cc4F)c4ccc([nH]4)c(-c4c(F)cc(S(=O)(=O)[O-])cc4F)c4nc(c(-c5c(F)cc(S(=O)(=O)[O-])cc5F)c5ccc2[nH]5)C=C4)C=C3)cc1
REMARK SMILES IDX 23 1 22 2 21 3 20 4 19 5 1 6 2 7 3 9 4 10 5 11 18 12 6 13
REMARK SMILES IDX 17 14 16 15 7 17 8 18 15 19 9 20 11 21 14 22 10 23 12 24
REMARK SMILES IDX 13 25 24 26 25 27 26 28 27 29 28 31 29 32 30 33 94 34 31 35
REMARK SMILES IDX 93 36 32 37 33 38 34 39 87 40 35 41 92 42 86 43 88 44 36 45
REMARK SMILES IDX 91 46 85 47 84 48 37 50 71 51 50 52 70 53 51 54 54 55 69 56
REMARK SMILES IDX 89 57 52 58 53 59 68 61 90 62 55 63 38 64 39 65 48 66 40 67
REMARK SMILES IDX 41 68 47 69 49 70 42 71 43 72 44 73 45 74 46 75 72 76 73 77
REMARK SMILES IDX 82 78 74 79 75 80 81 81 83 82 76 83 77 84 78 85 79 86 80 87
REMARK SMILES IDX 56 88 57 89 66 90 58 91 59 92 65 93 67 94 60 95 61 96 62 97
REMARK SMILES IDX 63 98 64 99
REMARK H PARENT 19 8 6 16 26 30 88 49 54 60
REMARK Flexibility Score: inf
ROOT
ATOM      1  C   UNL     1       9.266   6.880   2.911  1.00  0.00     0.002 C 
ENDROOT
BRANCH   1   2
ATOM      2  C   UNL     1       8.185   7.942   2.691  1.00  0.00     0.002 C 
BRANCH   2   3
ATOM      3  C   UNL     1       8.549   9.048   1.687  1.00  0.00     0.021 C 
BRANCH   3   4
ATOM      4  C   UNL     1       8.854   8.547   0.277  1.00  0.00     0.116 C 
BRANCH   4   5
ATOM      5  N   UNL     1       7.735   7.796  -0.245  1.00  0.00    -0.356 N 
ATOM      6  O   UNL     1       7.580   8.851  -2.275  1.00  0.00    -0.275 OA
ATOM      7  C   UNL     1       7.226   7.963  -1.507  1.00  0.00     0.222 C 
ATOM      8  H   UNL     1       7.313   7.126   0.340  1.00  0.00     0.163 HD
BRANCH   7   9
ATOM      9  C   UNL     1       6.127   6.979  -1.852  1.00  0.00     0.138 C 
BRANCH   9  10
ATOM     10  C   UNL     1       6.625   5.558  -2.132  1.00  0.00     0.182 C 
ATOM     11  C   UNL     1       6.936   4.725  -0.863  1.00  0.00     0.295 C 
ATOM     12  O   UNL     1       7.772   5.630  -2.984  1.00  0.00    -0.366 OA
ATOM     13  N   UNL     1       7.492   3.389  -1.119  1.00  0.00    -0.325 N 
ATOM     14  C   UNL     1       8.213   4.328  -3.363  1.00  0.00     0.222 C 
ATOM     15  C   UNL     1       8.541   3.449  -2.144  1.00  0.00     0.291 C 
ATOM     16  H   UNL     1       7.995   3.085  -0.285  1.00  0.00     0.348 HD
BRANCH  13  17
ATOM     17  C   UNL     1       6.543   2.273  -1.110  1.00  0.00     0.216 C 
ATOM     18  C   UNL     1       5.628   2.060  -2.339  1.00  0.00     0.071 C 
ATOM     19  C   UNL     1       7.293   0.992  -0.799  1.00  0.00     0.023 A 
ATOM     20  C   UNL     1       6.283   1.308  -3.506  1.00  0.00     0.012 C 
ATOM     21  C   UNL     1       7.447  -0.024  -1.726  1.00  0.00     0.014 A 
ATOM     22  C   UNL     1       7.892   0.635   0.453  1.00  0.00     0.022 A 
ATOM     23  C   UNL     1       6.890  -0.043  -3.113  1.00  0.00     0.047 C 
ATOM     24  S   UNL     1       8.329  -1.348  -1.117  1.00  0.00    -0.148 S 
ATOM     25  C   UNL     1       8.487  -0.607   0.415  1.00  0.00     0.065 A 
ENDBRANCH  13  17
ENDBRANCH   9  10
ENDBRANCH   7   9
ENDBRANCH   4   5
ENDBRANCH   3   4
ENDBRANCH   2   3
ENDBRANCH   1   2
BRANCH   1  26
ATOM     26  C   UNL     1      10.607   7.425   3.401  1.00  0.00     0.021 C 
BRANCH  26  27
ATOM     27  C   UNL     1      10.523   8.287   4.656  1.00  0.00     0.116 C 
BRANCH  27  28
ATOM     28  N   UNL     1      10.026   7.548   5.805  1.00  0.00    -0.352 N 
ATOM     29  C   UNL     1      10.528   7.505   7.085  1.00  0.00     0.251 C 
ATOM     30  H   UNL     1       9.221   7.004   5.646  1.00  0.00     0.163 HD
ATOM     31  O   UNL     1      10.086   6.700   7.893  1.00  0.00    -0.269 OA
BRANCH  29  32
ATOM     32  C   UNL     1      11.626   8.423   7.464  1.00  0.00     0.039 A 
ATOM     33  C   UNL     1      12.726   7.910   8.154  1.00  0.00     0.014 A 
ATOM     34  C   UNL     1      11.578   9.777   7.121  1.00  0.00     0.014 A 
ATOM     35  C   UNL     1      13.806   8.745   8.448  1.00  0.00     0.010 A 
ATOM     36  C   UNL     1      12.687  10.588   7.346  1.00  0.00     0.010 A 
ATOM     37  C   UNL     1      13.812  10.082   8.015  1.00  0.00    -0.014 A 
BRANCH  37  38
ATOM     38  C   UNL     1      14.988  10.961   8.248  1.00  0.00     0.031 A 
ATOM     39  C   UNL     1      14.856  12.193   9.103  1.00  0.00     0.074 A 
ATOM     40  C   UNL     1      16.159  10.681   7.641  1.00  0.00     0.049 A 
ATOM     41  N   UNL     1      15.752  13.107   9.376  1.00  0.00    -0.248 NA
ATOM     42  C   UNL     1      13.539  12.447   9.709  1.00  0.00     0.031 C 
ATOM     43  C   UNL     1      16.397   9.546   6.747  1.00  0.00     0.029 A 
ATOM     44  N   UNL     1      17.366  11.334   7.675  1.00  0.00    -0.354 N 
ATOM     45  C   UNL     1      15.106  14.047  10.170  1.00  0.00     0.074 A 
ATOM     46  C   UNL     1      13.729  13.621  10.292  1.00  0.00     0.031 C 
ATOM     47  C   UNL     1      17.674   9.569   6.335  1.00  0.00     0.029 A 
ATOM     48  C   UNL     1      18.336  10.741   6.900  1.00  0.00     0.049 A 
ATOM     49  H   UNL     1      17.523  12.149   8.204  1.00  0.00     0.167 HD
ATOM     50  C   UNL     1      15.619  15.152  10.761  1.00  0.00     0.037 A 
ATOM     51  C   UNL     1      19.612  11.105   6.662  1.00  0.00     0.037 A 
ATOM     52  C   UNL     1      16.997  15.556  10.653  1.00  0.00     0.049 A 
ATOM     53  C   UNL     1      20.160  12.335   7.332  1.00  0.00     0.074 A 
ATOM     54  C   UNL     1      17.630  16.623  11.268  1.00  0.00     0.029 A 
ATOM     55  N   UNL     1      17.955  14.919   9.877  1.00  0.00    -0.354 N 
ATOM     56  N   UNL     1      19.554  13.174   8.139  1.00  0.00    -0.248 NA
ATOM     57  C   UNL     1      21.568  12.665   7.070  1.00  0.00     0.031 C 
ATOM     58  C   UNL     1      18.953  16.664  10.820  1.00  0.00     0.029 A 
ATOM     59  C   UNL     1      19.165  15.586   9.976  1.00  0.00     0.049 A 
ATOM     60  H   UNL     1      17.797  14.112   9.335  1.00  0.00     0.167 HD
ATOM     61  C   UNL     1      20.512  14.115   8.501  1.00  0.00     0.074 A 
ATOM     62  C   UNL     1      21.741  13.734   7.836  1.00  0.00     0.031 C 
ATOM     63  C   UNL     1      20.384  15.195   9.311  1.00  0.00     0.037 A 
BRANCH  50  64
ATOM     64  C   UNL     1      14.689  16.009  11.578  1.00  0.00     0.058 A 
ATOM     65  C   UNL     1      14.164  15.571  12.805  1.00  0.00     0.135 A 
ATOM     66  C   UNL     1      14.360  17.308  11.154  1.00  0.00     0.135 A 
ATOM     67  F   UNL     1      14.432  14.334  13.252  1.00  0.00    -0.206 F 
ATOM     68  C   UNL     1      13.329  16.379  13.569  1.00  0.00     0.059 A 
ATOM     69  C   UNL     1      13.552  18.144  11.918  1.00  0.00     0.059 A 
ATOM     70  F   UNL     1      14.832  17.778   9.989  1.00  0.00    -0.206 F 
ATOM     71  C   UNL     1      13.031  17.666  13.119  1.00  0.00     0.060 A 
BRANCH  71  72
ATOM     72  S   UNL     1      11.961  18.707  14.134  1.00  0.00     0.124 S 
ATOM     73  O   UNL     1      10.667  18.056  13.956  1.00  0.00    -0.237 OA
ATOM     74  O   UNL     1      12.561  18.573  15.457  1.00  0.00    -0.237 OA
ATOM     75  O   UNL     1      12.088  20.026  13.522  1.00  0.00    -0.744 OA
ENDBRANCH  71  72
ENDBRANCH  50  64
BRANCH  51  76
ATOM     76  C   UNL     1      20.460  10.281   5.758  1.00  0.00     0.058 A 
ATOM     77  C   UNL     1      21.528   9.522   6.258  1.00  0.00     0.135 A 
ATOM     78  C   UNL     1      20.204  10.219   4.379  1.00  0.00     0.135 A 
ATOM     79  F   UNL     1      21.819   9.554   7.567  1.00  0.00    -0.206 F 
ATOM     80  C   UNL     1      22.320   8.740   5.423  1.00  0.00     0.059 A 
ATOM     81  C   UNL     1      20.964   9.421   3.528  1.00  0.00     0.059 A 
ATOM     82  F   UNL     1      19.183  10.913   3.852  1.00  0.00    -0.206 F 
ATOM     83  C   UNL     1      22.026   8.691   4.060  1.00  0.00     0.060 A 
BRANCH  83  84
ATOM     84  S   UNL     1      23.023   7.625   2.996  1.00  0.00     0.124 S 
ATOM     85  O   UNL     1      24.287   8.352   2.953  1.00  0.00    -0.237 OA
ATOM     86  O   UNL     1      23.032   6.372   3.744  1.00  0.00    -0.237 OA
ATOM     87  O   UNL     1      22.268   7.596   1.747  1.00  0.00    -0.744 OA
ENDBRANCH  83  84
ENDBRANCH  51  76
BRANCH  63  88
ATOM     88  C   UNL     1      21.613  16.028   9.559  1.00  0.00     0.058 A 
ATOM     89  C   UNL     1      22.166  16.850   8.564  1.00  0.00     0.135 A 
ATOM     90  C   UNL     1      22.214  16.044  10.829  1.00  0.00     0.135 A 
ATOM     91  F   UNL     1      21.635  16.869   7.331  1.00  0.00    -0.206 F 
ATOM     92  C   UNL     1      23.285  17.638   8.811  1.00  0.00     0.059 A 
ATOM     93  C   UNL     1      23.314  16.849  11.107  1.00  0.00     0.059 A 
ATOM     94  F   UNL     1      21.720  15.286  11.821  1.00  0.00    -0.206 F 
ATOM     95  C   UNL     1      23.851  17.633  10.088  1.00  0.00     0.060 A 
BRANCH  95  96
ATOM     96  S   UNL     1      25.284  18.684  10.403  1.00  0.00     0.124 S 
ATOM     97  O   UNL     1      26.333  17.977   9.676  1.00  0.00    -0.237 OA
ATOM     98  O   UNL     1      24.867  19.960   9.831  1.00  0.00    -0.237 OA
ATOM     99  O   UNL     1      25.407  18.666  11.858  1.00  0.00    -0.744 OA
ENDBRANCH  95  96
ENDBRANCH  63  88
ENDBRANCH  37  38
ENDBRANCH  29  32
ENDBRANCH  27  28
ENDBRANCH  26  27
ENDBRANCH   1  26
TORSDOF 18
