REMARK SMILES O=C(NCCCCCCNC(=O)c1cccnc1-c1ccccn1)c1ccc(-c2c3nc(c(-c4c(F)cc(S(=O)(=O)[O-])cc4F)c4ccc([nH]4)c(-c4c(F)cc(S(=O)(=O)[O-])cc4F)c4nc(c(-c5c(F)cc(S(=O)(=O)[O-])cc5F)c5ccc2[nH]5)C=C4)C=C3)cc1
REMARK SMILES IDX 5 1 4 2 3 3 1 4 2 5 25 7 26 8 90 9 27 10 89 11 28 12 29 13
REMARK SMILES IDX 30 14 83 15 31 16 88 17 82 18 84 19 32 20 87 21 81 22 80 23
REMARK SMILES IDX 33 25 67 26 46 27 66 28 47 29 50 30 65 31 85 32 48 33 49 34
REMARK SMILES IDX 64 36 86 37 51 38 34 39 35 40 44 41 36 42 37 43 43 44 45 45
REMARK SMILES IDX 38 46 39 47 40 48 41 49 42 50 68 51 69 52 78 53 70 54 71 55
REMARK SMILES IDX 77 56 79 57 72 58 73 59 74 60 75 61 76 62 52 63 53 64 62 65
REMARK SMILES IDX 54 66 55 67 61 68 63 69 56 70 57 71 58 72 59 73 60 74 6 75
REMARK SMILES IDX 7 76 8 77 9 78 10 79 11 80 12 82 13 83 14 84 18 85 15 86
REMARK SMILES IDX 17 87 16 88 19 89 20 90 24 91 21 92 23 93 22 94
REMARK H PARENT 3 6 84 24 50 35 10 81
REMARK Flexibility Score: inf
ROOT
ATOM      1  C   UNL     1       4.792  -1.466  -2.239  1.00  0.00     0.021 C 
ENDROOT
BRANCH   1   2
ATOM      2  C   UNL     1       4.532  -0.309  -1.284  1.00  0.00     0.116 C 
BRANCH   2   3
ATOM      3  N   UNL     1       3.115  -0.053  -1.087  1.00  0.00    -0.352 N 
ATOM      4  O   UNL     1       1.177   0.081   0.058  1.00  0.00    -0.269 OA
ATOM      5  C   UNL     1       2.402   0.014   0.086  1.00  0.00     0.251 C 
ATOM      6  H   UNL     1       2.592   0.092  -1.909  1.00  0.00     0.163 HD
BRANCH   5   7
ATOM      7  C   UNL     1       3.116  -0.018   1.382  1.00  0.00     0.039 A 
ATOM      8  C   UNL     1       4.262   0.755   1.583  1.00  0.00     0.014 A 
ATOM      9  C   UNL     1       2.631  -0.832   2.410  1.00  0.00     0.014 A 
ATOM     10  C   UNL     1       4.996   0.614   2.755  1.00  0.00     0.010 A 
ATOM     11  C   UNL     1       3.324  -0.907   3.622  1.00  0.00     0.010 A 
ATOM     12  C   UNL     1       4.527  -0.204   3.796  1.00  0.00    -0.014 A 
BRANCH  12  13
ATOM     13  C   UNL     1       5.271  -0.245   5.081  1.00  0.00     0.031 A 
ATOM     14  C   UNL     1       5.919  -1.510   5.571  1.00  0.00     0.074 A 
ATOM     15  C   UNL     1       5.371   0.892   5.799  1.00  0.00     0.049 A 
ATOM     16  N   UNL     1       6.610  -1.708   6.665  1.00  0.00    -0.248 NA
ATOM     17  C   UNL     1       5.769  -2.709   4.733  1.00  0.00     0.031 C 
ATOM     18  C   UNL     1       4.769   2.176   5.428  1.00  0.00     0.029 A 
ATOM     19  N   UNL     1       6.021   1.160   6.976  1.00  0.00    -0.354 N 
ATOM     20  C   UNL     1       6.965  -3.052   6.657  1.00  0.00     0.074 A 
ATOM     21  C   UNL     1       6.390  -3.629   5.460  1.00  0.00     0.031 C 
ATOM     22  C   UNL     1       5.111   3.101   6.335  1.00  0.00     0.029 A 
ATOM     23  C   UNL     1       5.900   2.467   7.384  1.00  0.00     0.049 A 
ATOM     24  H   UNL     1       6.526   0.481   7.480  1.00  0.00     0.167 HD
ATOM     25  C   UNL     1       7.707  -3.736   7.562  1.00  0.00     0.037 A 
ATOM     26  C   UNL     1       6.355   3.086   8.489  1.00  0.00     0.037 A 
ATOM     27  C   UNL     1       8.280  -3.147   8.748  1.00  0.00     0.049 A 
ATOM     28  C   UNL     1       7.153   2.299   9.487  1.00  0.00     0.074 A 
ATOM     29  C   UNL     1       9.075  -3.748   9.709  1.00  0.00     0.029 A 
ATOM     30  N   UNL     1       8.116  -1.825   9.139  1.00  0.00    -0.354 N 
ATOM     31  N   UNL     1       7.507   1.037   9.444  1.00  0.00    -0.248 NA
ATOM     32  C   UNL     1       7.612   3.016  10.683  1.00  0.00     0.031 C 
ATOM     33  C   UNL     1       9.353  -2.804  10.703  1.00  0.00     0.029 A 
ATOM     34  C   UNL     1       8.775  -1.599  10.337  1.00  0.00     0.049 A 
ATOM     35  H   UNL     1       7.607  -1.148   8.638  1.00  0.00     0.167 HD
ATOM     36  C   UNL     1       8.245   0.811  10.600  1.00  0.00     0.074 A 
ATOM     37  C   UNL     1       8.301   2.073  11.311  1.00  0.00     0.031 C 
ATOM     38  C   UNL     1       8.821  -0.337  11.034  1.00  0.00     0.037 A 
BRANCH  25  39
ATOM     39  C   UNL     1       7.931  -5.205   7.321  1.00  0.00     0.058 A 
ATOM     40  C   UNL     1       8.782  -5.666   6.304  1.00  0.00     0.135 A 
ATOM     41  C   UNL     1       7.327  -6.164   8.151  1.00  0.00     0.135 A 
ATOM     42  F   UNL     1       9.376  -4.796   5.473  1.00  0.00    -0.206 F 
ATOM     43  C   UNL     1       9.005  -7.025   6.102  1.00  0.00     0.059 A 
ATOM     44  C   UNL     1       7.556  -7.528   7.984  1.00  0.00     0.059 A 
ATOM     45  F   UNL     1       6.507  -5.780   9.142  1.00  0.00    -0.206 F 
ATOM     46  C   UNL     1       8.387  -7.949   6.947  1.00  0.00     0.060 A 
BRANCH  46  47
ATOM     47  S   UNL     1       8.689  -9.708   6.671  1.00  0.00     0.124 S 
ATOM     48  O   UNL     1       7.919  -9.946   5.454  1.00  0.00    -0.237 OA
ATOM     49  O   UNL     1      10.140  -9.755   6.520  1.00  0.00    -0.237 OA
ATOM     50  O   UNL     1       8.165 -10.338   7.878  1.00  0.00    -0.744 OA
ENDBRANCH  46  47
ENDBRANCH  25  39
BRANCH  26  51
ATOM     51  C   UNL     1       6.052   4.525   8.703  1.00  0.00     0.058 A 
ATOM     52  C   UNL     1       7.059   5.497   8.620  1.00  0.00     0.135 A 
ATOM     53  C   UNL     1       4.741   4.959   8.958  1.00  0.00     0.135 A 
ATOM     54  F   UNL     1       8.327   5.131   8.381  1.00  0.00    -0.206 F 
ATOM     55  C   UNL     1       6.780   6.848   8.795  1.00  0.00     0.059 A 
ATOM     56  C   UNL     1       4.433   6.306   9.107  1.00  0.00     0.059 A 
ATOM     57  F   UNL     1       3.739   4.069   9.027  1.00  0.00    -0.206 F 
ATOM     58  C   UNL     1       5.462   7.243   9.034  1.00  0.00     0.060 A 
BRANCH  58  59
ATOM     59  S   UNL     1       5.102   9.004   9.203  1.00  0.00     0.124 S 
ATOM     60  O   UNL     1       5.631   9.285  10.532  1.00  0.00    -0.237 OA
ATOM     61  O   UNL     1       5.845   9.578   8.085  1.00  0.00    -0.237 OA
ATOM     62  O   UNL     1       3.649   9.062   9.075  1.00  0.00    -0.744 OA
ENDBRANCH  58  59
ENDBRANCH  26  51
BRANCH  38  63
ATOM     63  C   UNL     1       9.586  -0.274  12.326  1.00  0.00     0.058 A 
ATOM     64  C   UNL     1       8.934  -0.164  13.564  1.00  0.00     0.135 A 
ATOM     65  C   UNL     1      10.988  -0.360  12.326  1.00  0.00     0.135 A 
ATOM     66  F   UNL     1       7.596  -0.068  13.617  1.00  0.00    -0.206 F 
ATOM     67  C   UNL     1       9.647  -0.117  14.758  1.00  0.00     0.059 A 
ATOM     68  C   UNL     1      11.719  -0.343  13.510  1.00  0.00     0.059 A 
ATOM     69  F   UNL     1      11.659  -0.473  11.169  1.00  0.00    -0.206 F 
ATOM     70  C   UNL     1      11.040  -0.208  14.720  1.00  0.00     0.060 A 
BRANCH  70  71
ATOM     71  S   UNL     1      11.952  -0.176  16.277  1.00  0.00     0.124 S 
ATOM     72  O   UNL     1      11.863   1.234  16.640  1.00  0.00    -0.237 OA
ATOM     73  O   UNL     1      11.182  -1.095  17.110  1.00  0.00    -0.237 OA
ATOM     74  O   UNL     1      13.282  -0.645  15.901  1.00  0.00    -0.744 OA
ENDBRANCH  70  71
ENDBRANCH  38  63
ENDBRANCH  12  13
ENDBRANCH   5   7
ENDBRANCH   2   3
ENDBRANCH   1   2
BRANCH   1  75
ATOM     75  C   UNL     1       4.334  -1.235  -3.678  1.00  0.00     0.002 C 
BRANCH  75  76
ATOM     76  C   UNL     1       4.893   0.018  -4.359  1.00  0.00     0.002 C 
BRANCH  76  77
ATOM     77  C   UNL     1       6.418   0.167  -4.340  1.00  0.00     0.021 C 
BRANCH  77  78
ATOM     78  C   UNL     1       7.202  -1.027  -4.881  1.00  0.00     0.116 C 
BRANCH  78  79
ATOM     79  N   UNL     1       6.864  -1.331  -6.261  1.00  0.00    -0.352 N 
ATOM     80  C   UNL     1       7.683  -1.466  -7.353  1.00  0.00     0.253 C 
ATOM     81  H   UNL     1       5.904  -1.461  -6.438  1.00  0.00     0.163 HD
ATOM     82  O   UNL     1       7.200  -1.696  -8.456  1.00  0.00    -0.269 OA
BRANCH  80  83
ATOM     83  C   UNL     1       9.141  -1.339  -7.183  1.00  0.00     0.067 A 
ATOM     84  C   UNL     1       9.813  -2.233  -6.341  1.00  0.00     0.018 A 
ATOM     85  C   UNL     1       9.870  -0.360  -7.861  1.00  0.00     0.101 A 
ATOM     86  C   UNL     1      11.181  -2.091  -6.148  1.00  0.00     0.021 A 
ATOM     87  N   UNL     1      11.214  -0.207  -7.658  1.00  0.00    -0.254 NA
ATOM     88  C   UNL     1      11.830  -1.067  -6.816  1.00  0.00     0.112 A 
BRANCH  85  89
ATOM     89  C   UNL     1       9.266   0.580  -8.819  1.00  0.00     0.089 A 
ATOM     90  C   UNL     1       8.375   1.576  -8.417  1.00  0.00     0.031 A 
ATOM     91  N   UNL     1       9.610   0.404 -10.124  1.00  0.00    -0.255 NA
ATOM     92  C   UNL     1       7.797   2.397  -9.383  1.00  0.00     0.004 A 
ATOM     93  C   UNL     1       9.029   1.211 -11.037  1.00  0.00     0.112 A 
ATOM     94  C   UNL     1       8.124   2.208 -10.720  1.00  0.00     0.020 A 
ENDBRANCH  85  89
ENDBRANCH  80  83
ENDBRANCH  78  79
ENDBRANCH  77  78
ENDBRANCH  76  77
ENDBRANCH  75  76
ENDBRANCH   1  75
TORSDOF 17
