REMARK SMILES CS(=O)(=O)c1ccc(/C=C(/C(=O)NCCCCCCNC(=O)c2ccc(-c3c4nc(c(-c5c(F)cc(S(=O)(=O)[O-])cc5F)c5ccc([nH]5)c(-c5c(F)cc(S(=O)(=O)[O-])cc5F)c5nc(c(-c6c(F)cc(S(=O)(=O)[O-])cc6F)c6ccc3[nH]6)C=C5)C=C4)cc2)c2cccc(-c3ccc(S(C)(=O)=O)cc3)c2)cc1
REMARK SMILES IDX 16 1 15 2 14 3 13 4 11 5 12 6 10 8 9 9 8 10 5 11 6 12 106 13
REMARK SMILES IDX 7 14 105 15 2 16 1 17 3 18 4 19 89 20 90 21 104 22 91 23
REMARK SMILES IDX 93 24 92 25 94 26 95 27 103 28 96 29 102 30 97 31 98 32
REMARK SMILES IDX 99 33 100 34 101 35 17 36 18 37 19 38 20 39 21 40 22 42
REMARK SMILES IDX 23 43 24 44 88 45 25 46 87 47 26 48 27 49 28 50 81 51 29 52
REMARK SMILES IDX 86 53 80 54 82 55 30 56 85 57 79 58 78 59 31 61 65 62 44 63
REMARK SMILES IDX 64 64 45 65 48 66 63 67 83 68 46 69 47 70 62 72 84 73 49 74
REMARK SMILES IDX 32 75 33 76 42 77 34 78 35 79 41 80 43 81 36 82 37 83 38 84
REMARK SMILES IDX 39 85 40 86 66 87 67 88 76 89 68 90 69 91 75 92 77 93 70 94
REMARK SMILES IDX 71 95 72 96 73 97 74 98 50 99 51 100 60 101 52 102 53 103
REMARK SMILES IDX 59 104 61 105 54 106 55 107 56 108 57 109 58 110
REMARK H PARENT 13 7 20 41 82 60 48 71
REMARK Flexibility Score: inf
ROOT
ATOM      1  C   UNL     1       0.915  11.383   2.616  1.00  0.00     0.002 C 
ENDROOT
BRANCH   1   2
ATOM      2  C   UNL     1       0.811   9.971   2.014  1.00  0.00     0.021 C 
BRANCH   2   3
ATOM      3  C   UNL     1       2.134   9.199   2.032  1.00  0.00     0.116 C 
BRANCH   3   4
ATOM      4  N   UNL     1       2.462   8.832   3.396  1.00  0.00    -0.352 N 
ATOM      5  C   UNL     1       2.379   7.685   4.117  1.00  0.00     0.251 C 
ATOM      6  O   UNL     1       2.667   7.783   5.313  1.00  0.00    -0.269 OA
ATOM      7  H   UNL     1       2.826   9.584   3.917  1.00  0.00     0.163 HD
BRANCH   5   8
ATOM      8  C   UNL     1       2.062   6.333   3.513  1.00  0.00     0.047 C 
ATOM      9  C   UNL     1       1.185   6.187   2.491  1.00  0.00     0.022 C 
BRANCH   9  10
ATOM     10  C   UNL     1       0.862   4.978   1.698  1.00  0.00    -0.025 A 
ATOM     11  C   UNL     1       0.399   2.740   0.057  1.00  0.00     0.067 A 
ATOM     12  C   UNL     1       0.327   2.612   1.445  1.00  0.00     0.021 A 
ATOM     13  C   UNL     1       0.661   3.983  -0.521  1.00  0.00     0.021 A 
ATOM     14  C   UNL     1       0.539   3.735   2.257  1.00  0.00     0.009 A 
ATOM     15  C   UNL     1       0.890   5.093   0.298  1.00  0.00     0.009 A 
BRANCH  11  16
ATOM     16  S   UNL     1       0.142   1.333  -1.000  1.00  0.00     0.175 S 
ATOM     17  C   UNL     1       1.021  -0.011  -0.249  1.00  0.00     0.163 C 
ATOM     18  O   UNL     1       0.803   1.614  -2.260  1.00  0.00    -0.224 OA
ATOM     19  O   UNL     1      -1.274   1.028  -0.944  1.00  0.00    -0.224 OA
ENDBRANCH  11  16
ENDBRANCH   9  10
BRANCH   8  20
ATOM     20  C   UNL     1       2.630   5.144   4.202  1.00  0.00    -0.012 A 
ATOM     21  C   UNL     1       2.253   4.887   5.531  1.00  0.00     0.009 A 
ATOM     22  C   UNL     1       3.433   4.209   3.536  1.00  0.00     0.017 A 
ATOM     23  C   UNL     1       2.654   3.723   6.177  1.00  0.00     0.001 A 
ATOM     24  C   UNL     1       3.778   2.990   4.147  1.00  0.00    -0.018 A 
ATOM     25  C   UNL     1       3.401   2.775   5.484  1.00  0.00     0.009 A 
BRANCH  24  26
ATOM     26  C   UNL     1       4.394   1.912   3.361  1.00  0.00    -0.018 A 
ATOM     27  C   UNL     1       3.743   0.668   3.261  1.00  0.00     0.010 A 
ATOM     28  C   UNL     1       5.584   2.105   2.642  1.00  0.00     0.010 A 
ATOM     29  C   UNL     1       4.254  -0.352   2.462  1.00  0.00     0.021 A 
ATOM     30  C   UNL     1       6.109   1.086   1.841  1.00  0.00     0.021 A 
ATOM     31  C   UNL     1       5.441  -0.136   1.760  1.00  0.00     0.067 A 
BRANCH  31  32
ATOM     32  S   UNL     1       6.054  -1.432   0.715  1.00  0.00     0.175 S 
ATOM     33  C   UNL     1       6.537  -2.697   1.861  1.00  0.00     0.163 C 
ATOM     34  O   UNL     1       4.926  -1.920  -0.052  1.00  0.00    -0.224 OA
ATOM     35  O   UNL     1       7.259  -0.949   0.064  1.00  0.00    -0.224 OA
ENDBRANCH  31  32
ENDBRANCH  24  26
ENDBRANCH   8  20
ENDBRANCH   5   8
ENDBRANCH   3   4
ENDBRANCH   2   3
ENDBRANCH   1   2
BRANCH   1  36
ATOM     36  C   UNL     1       1.877  12.330   1.889  1.00  0.00     0.002 C 
BRANCH  36  37
ATOM     37  C   UNL     1       1.620  12.484   0.388  1.00  0.00     0.021 C 
BRANCH  37  38
ATOM     38  C   UNL     1       0.239  13.030   0.037  1.00  0.00     0.116 C 
BRANCH  38  39
ATOM     39  N   UNL     1       0.075  14.407   0.475  1.00  0.00    -0.352 N 
ATOM     40  C   UNL     1      -0.315  15.502  -0.256  1.00  0.00     0.251 C 
ATOM     41  H   UNL     1       0.271  14.578   1.425  1.00  0.00     0.163 HD
ATOM     42  O   UNL     1      -0.201  16.630   0.215  1.00  0.00    -0.269 OA
BRANCH  40  43
ATOM     43  C   UNL     1      -0.859  15.314  -1.618  1.00  0.00     0.039 A 
ATOM     44  C   UNL     1      -0.385  16.119  -2.656  1.00  0.00     0.014 A 
ATOM     45  C   UNL     1      -1.835  14.345  -1.865  1.00  0.00     0.014 A 
ATOM     46  C   UNL     1      -0.851  15.914  -3.957  1.00  0.00     0.010 A 
ATOM     47  C   UNL     1      -2.253  14.101  -3.171  1.00  0.00     0.010 A 
ATOM     48  C   UNL     1      -1.767  14.885  -4.229  1.00  0.00    -0.014 A 
BRANCH  48  49
ATOM     49  C   UNL     1      -2.238  14.612  -5.610  1.00  0.00     0.031 A 
ATOM     50  C   UNL     1      -3.686  14.814  -5.963  1.00  0.00     0.074 A 
ATOM     51  C   UNL     1      -1.382  14.110  -6.521  1.00  0.00     0.049 A 
ATOM     52  N   UNL     1      -4.312  14.535  -7.076  1.00  0.00    -0.248 NA
ATOM     53  C   UNL     1      -4.550  15.382  -4.914  1.00  0.00     0.031 C 
ATOM     54  C   UNL     1       0.037  13.833  -6.286  1.00  0.00     0.029 A 
ATOM     55  N   UNL     1      -1.583  13.728  -7.824  1.00  0.00    -0.354 N 
ATOM     56  C   UNL     1      -5.643  14.873  -6.858  1.00  0.00     0.074 A 
ATOM     57  C   UNL     1      -5.742  15.337  -5.491  1.00  0.00     0.031 C 
ATOM     58  C   UNL     1       0.580  13.337  -7.410  1.00  0.00     0.029 A 
ATOM     59  C   UNL     1      -0.456  13.227  -8.432  1.00  0.00     0.049 A 
ATOM     60  H   UNL     1      -2.452  13.806  -8.280  1.00  0.00     0.167 HD
ATOM     61  C   UNL     1      -6.683  14.820  -7.724  1.00  0.00     0.037 A 
ATOM     62  C   UNL     1      -0.281  12.725  -9.670  1.00  0.00     0.037 A 
ATOM     63  C   UNL     1      -6.571  14.385  -9.092  1.00  0.00     0.049 A 
ATOM     64  C   UNL     1      -1.450  12.678 -10.616  1.00  0.00     0.074 A 
ATOM     65  C   UNL     1      -7.552  14.349 -10.067  1.00  0.00     0.029 A 
ATOM     66  N   UNL     1      -5.406  13.912  -9.679  1.00  0.00    -0.354 N 
ATOM     67  N   UNL     1      -2.690  13.053 -10.411  1.00  0.00    -0.248 NA
ATOM     68  C   UNL     1      -1.197  12.146 -11.962  1.00  0.00     0.031 C 
ATOM     69  C   UNL     1      -6.990  13.822 -11.234  1.00  0.00     0.029 A 
ATOM     70  C   UNL     1      -5.648  13.568 -10.999  1.00  0.00     0.049 A 
ATOM     71  H   UNL     1      -4.536  13.833  -9.225  1.00  0.00     0.167 HD
ATOM     72  C   UNL     1      -3.359  12.826 -11.608  1.00  0.00     0.074 A 
ATOM     73  C   UNL     1      -2.385  12.288 -12.535  1.00  0.00     0.031 C 
ATOM     74  C   UNL     1      -4.662  13.045 -11.912  1.00  0.00     0.037 A 
BRANCH  61  75
ATOM     75  C   UNL     1      -8.032  15.248  -7.218  1.00  0.00     0.058 A 
ATOM     76  C   UNL     1      -8.323  16.595  -6.948  1.00  0.00     0.135 A 
ATOM     77  C   UNL     1      -9.055  14.306  -7.023  1.00  0.00     0.135 A 
ATOM     78  F   UNL     1      -7.377  17.535  -7.103  1.00  0.00    -0.206 F 
ATOM     79  C   UNL     1      -9.570  16.989  -6.474  1.00  0.00     0.059 A 
ATOM     80  C   UNL     1     -10.318  14.681  -6.574  1.00  0.00     0.059 A 
ATOM     81  F   UNL     1      -8.831  13.005  -7.266  1.00  0.00    -0.206 F 
ATOM     82  C   UNL     1     -10.560  16.023  -6.287  1.00  0.00     0.060 A 
BRANCH  82  83
ATOM     83  S   UNL     1     -12.172  16.549  -5.666  1.00  0.00     0.124 S 
ATOM     84  O   UNL     1     -11.875  16.791  -4.257  1.00  0.00    -0.237 OA
ATOM     85  O   UNL     1     -12.445  17.738  -6.468  1.00  0.00    -0.237 OA
ATOM     86  O   UNL     1     -13.032  15.402  -5.938  1.00  0.00    -0.744 OA
ENDBRANCH  82  83
ENDBRANCH  61  75
BRANCH  62  87
ATOM     87  C   UNL     1       1.062  12.246 -10.092  1.00  0.00     0.058 A 
ATOM     88  C   UNL     1       1.827  12.975 -11.014  1.00  0.00     0.135 A 
ATOM     89  C   UNL     1       1.615  11.068  -9.568  1.00  0.00     0.135 A 
ATOM     90  F   UNL     1       1.337  14.105 -11.547  1.00  0.00    -0.206 F 
ATOM     91  C   UNL     1       3.089  12.547 -11.413  1.00  0.00     0.059 A 
ATOM     92  C   UNL     1       2.885  10.631  -9.934  1.00  0.00     0.059 A 
ATOM     93  F   UNL     1       0.930  10.345  -8.669  1.00  0.00    -0.206 F 
ATOM     94  C   UNL     1       3.611  11.374 -10.864  1.00  0.00     0.060 A 
BRANCH  94  95
ATOM     95  S   UNL     1       5.274  10.859 -11.344  1.00  0.00     0.124 S 
ATOM     96  O   UNL     1       5.044  10.338 -12.686  1.00  0.00    -0.237 OA
ATOM     97  O   UNL     1       6.019  12.112 -11.264  1.00  0.00    -0.237 OA
ATOM     98  O   UNL     1       5.622   9.868 -10.330  1.00  0.00    -0.744 OA
ENDBRANCH  94  95
ENDBRANCH  62  87
BRANCH  74  99
ATOM     99  C   UNL     1      -5.109  12.739 -13.313  1.00  0.00     0.058 A 
ATOM    100  C   UNL     1      -5.306  11.421 -13.751  1.00  0.00     0.135 A 
ATOM    101  C   UNL     1      -5.410  13.781 -14.205  1.00  0.00     0.135 A 
ATOM    102  F   UNL     1      -5.025  10.390 -12.939  1.00  0.00    -0.206 F 
ATOM    103  C   UNL     1      -5.777  11.145 -15.031  1.00  0.00     0.059 A 
ATOM    104  C   UNL     1      -5.903  13.529 -15.481  1.00  0.00     0.059 A 
ATOM    105  F   UNL     1      -5.246  15.060 -13.831  1.00  0.00    -0.206 F 
ATOM    106  C   UNL     1      -6.077  12.207 -15.887  1.00  0.00     0.060 A 
BRANCH 106 107
ATOM    107  S   UNL     1      -6.737  11.838 -17.527  1.00  0.00     0.124 S 
ATOM    108  O   UNL     1      -5.542  11.386 -18.231  1.00  0.00    -0.237 OA
ATOM    109  O   UNL     1      -7.731  10.808 -17.240  1.00  0.00    -0.237 OA
ATOM    110  O   UNL     1      -7.281  13.118 -17.969  1.00  0.00    -0.744 OA
ENDBRANCH 106 107
ENDBRANCH  74  99
ENDBRANCH  48  49
ENDBRANCH  40  43
ENDBRANCH  38  39
ENDBRANCH  37  38
ENDBRANCH  36  37
ENDBRANCH   1  36
TORSDOF 21
