REMARK SMILES C[C@H]1CC[C@@]1(C(=O)NCCCCCCNC(=O)c1ccc(-c2c3nc(c(-c4c(F)cc(S(=O)(=O)[O-])cc4F)c4ccc([nH]4)c(-c4c(F)cc(S(=O)(=O)[O-])cc4F)c4nc(c(-c5c(F)cc(S(=O)(=O)[O-])cc5F)c5ccc2[nH]5)C=C4)C=C3)cc1)c1cc(F)cc(F)c1
REMARK SMILES IDX 12 1 11 2 10 3 9 4 8 5 6 6 7 7 5 9 1 10 2 11 3 12 4 13 84 14
REMARK SMILES IDX 85 15 91 16 86 17 89 18 87 19 88 20 90 21 13 22 14 23 15 24
REMARK SMILES IDX 16 25 17 27 18 28 19 29 83 30 20 31 82 32 21 33 22 34 23 35
REMARK SMILES IDX 76 36 24 37 81 38 75 39 77 40 25 41 80 42 74 43 73 44 26 46
REMARK SMILES IDX 60 47 39 48 59 49 40 50 43 51 58 52 78 53 41 54 42 55 57 57
REMARK SMILES IDX 79 58 44 59 27 60 28 61 37 62 29 63 30 64 36 65 38 66 31 67
REMARK SMILES IDX 32 68 33 69 34 70 35 71 61 72 62 73 71 74 63 75 64 76 70 77
REMARK SMILES IDX 72 78 65 79 66 80 67 81 68 82 69 83 45 84 46 85 55 86 47 87
REMARK SMILES IDX 48 88 54 89 56 90 49 91 50 92 51 93 52 94 53 95
REMARK H PARENT 8 8 15 26 77 45 43 56
REMARK Flexibility Score: inf
ROOT
ATOM      1  C   UNL     1       5.806   3.637   1.286  1.00  0.00     0.002 C 
ENDROOT
BRANCH   1   2
ATOM      2  C   UNL     1       4.462   4.316   1.012  1.00  0.00     0.002 C 
BRANCH   2   3
ATOM      3  C   UNL     1       3.638   3.687  -0.115  1.00  0.00     0.021 C 
BRANCH   3   4
ATOM      4  C   UNL     1       3.329   2.202   0.064  1.00  0.00     0.116 C 
BRANCH   4   5
ATOM      5  N   UNL     1       2.611   1.927   1.295  1.00  0.00    -0.355 N 
ATOM      6  C   UNL     1       1.335   1.440   1.476  1.00  0.00     0.230 C 
ATOM      7  O   UNL     1       0.947   1.345   2.647  1.00  0.00    -0.274 OA
ATOM      8  H   UNL     1       3.109   2.117   2.123  1.00  0.00     0.163 HD
BRANCH   6   9
ATOM      9  C   UNL     1       0.458   1.046   0.186  1.00  0.00     0.077 C 
ATOM     10  C   UNL     1      -1.972  -0.046  -0.359  1.00  0.00     0.009 C 
ATOM     11  C   UNL     1      -0.725   0.019   0.514  1.00  0.00     0.006 C 
ATOM     12  C   UNL     1       0.279  -1.122   0.231  1.00  0.00     0.006 C 
ATOM     13  C   UNL     1       1.077  -0.146  -0.648  1.00  0.00     0.022 C 
BRANCH   9  14
ATOM     14  C   UNL     1       0.030   2.424  -0.591  1.00  0.00    -0.026 A 
ATOM     15  C   UNL     1      -0.361   2.442  -1.948  1.00  0.00     0.044 A 
ATOM     16  C   UNL     1       0.050   3.694   0.035  1.00  0.00     0.044 A 
ATOM     17  C   UNL     1      -0.657   3.629  -2.624  1.00  0.00     0.126 A 
ATOM     18  C   UNL     1      -0.210   4.877  -0.662  1.00  0.00     0.126 A 
ATOM     19  F   UNL     1      -1.028   3.573  -3.910  1.00  0.00    -0.207 F 
ATOM     20  C   UNL     1      -0.562   4.857  -1.997  1.00  0.00     0.078 A 
ATOM     21  F   UNL     1      -0.088   6.051  -0.028  1.00  0.00    -0.207 F 
ENDBRANCH   9  14
ENDBRANCH   6   9
ENDBRANCH   4   5
ENDBRANCH   3   4
ENDBRANCH   2   3
ENDBRANCH   1   2
BRANCH   1  22
ATOM     22  C   UNL     1       6.716   3.491   0.066  1.00  0.00     0.021 C 
BRANCH  22  23
ATOM     23  C   UNL     1       7.035   4.798  -0.650  1.00  0.00     0.116 C 
BRANCH  23  24
ATOM     24  N   UNL     1       7.793   5.712   0.190  1.00  0.00    -0.352 N 
ATOM     25  C   UNL     1       8.992   6.327  -0.072  1.00  0.00     0.251 C 
ATOM     26  H   UNL     1       7.392   5.917   1.065  1.00  0.00     0.163 HD
ATOM     27  O   UNL     1       9.595   6.913   0.823  1.00  0.00    -0.269 OA
BRANCH  25  28
ATOM     28  C   UNL     1       9.560   6.260  -1.435  1.00  0.00     0.039 A 
ATOM     29  C   UNL     1      10.908   5.932  -1.597  1.00  0.00     0.014 A 
ATOM     30  C   UNL     1       8.755   6.507  -2.551  1.00  0.00     0.014 A 
ATOM     31  C   UNL     1      11.435   5.793  -2.883  1.00  0.00     0.010 A 
ATOM     32  C   UNL     1       9.262   6.293  -3.829  1.00  0.00     0.010 A 
ATOM     33  C   UNL     1      10.609   5.940  -4.010  1.00  0.00    -0.014 A 
BRANCH  33  34
ATOM     34  C   UNL     1      11.128   5.746  -5.388  1.00  0.00     0.031 A 
ATOM     35  C   UNL     1      11.117   6.896  -6.360  1.00  0.00     0.074 A 
ATOM     36  C   UNL     1      11.535   4.525  -5.788  1.00  0.00     0.049 A 
ATOM     37  N   UNL     1      11.417   6.906  -7.633  1.00  0.00    -0.248 NA
ATOM     38  C   UNL     1      10.682   8.201  -5.836  1.00  0.00     0.031 C 
ATOM     39  C   UNL     1      11.560   3.324  -4.951  1.00  0.00     0.029 A 
ATOM     40  N   UNL     1      11.991   4.087  -7.007  1.00  0.00    -0.354 N 
ATOM     41  C   UNL     1      11.191   8.208  -8.065  1.00  0.00     0.074 A 
ATOM     42  C   UNL     1      10.677   8.945  -6.932  1.00  0.00     0.031 C 
ATOM     43  C   UNL     1      12.021   2.291  -5.676  1.00  0.00     0.029 A 
ATOM     44  C   UNL     1      12.281   2.743  -7.039  1.00  0.00     0.049 A 
ATOM     45  H   UNL     1      12.100   4.680  -7.786  1.00  0.00     0.167 HD
ATOM     46  C   UNL     1      11.412   8.745  -9.289  1.00  0.00     0.037 A 
ATOM     47  C   UNL     1      12.693   1.960  -8.055  1.00  0.00     0.037 A 
ATOM     48  C   UNL     1      11.946   8.008 -10.405  1.00  0.00     0.049 A 
ATOM     49  C   UNL     1      12.917   2.575  -9.411  1.00  0.00     0.074 A 
ATOM     50  C   UNL     1      12.256   8.472 -11.671  1.00  0.00     0.029 A 
ATOM     51  N   UNL     1      12.247   6.654 -10.391  1.00  0.00    -0.354 N 
ATOM     52  N   UNL     1      12.749   3.821  -9.789  1.00  0.00    -0.248 NA
ATOM     53  C   UNL     1      13.392   1.683 -10.477  1.00  0.00     0.031 C 
ATOM     54  C   UNL     1      12.695   7.388 -12.438  1.00  0.00     0.029 A 
ATOM     55  C   UNL     1      12.718   6.261 -11.633  1.00  0.00     0.049 A 
ATOM     56  H   UNL     1      12.141   6.059  -9.613  1.00  0.00     0.167 HD
ATOM     57  C   UNL     1      13.130   3.867 -11.126  1.00  0.00     0.074 A 
ATOM     58  C   UNL     1      13.544   2.527 -11.488  1.00  0.00     0.031 C 
ATOM     59  C   UNL     1      13.139   4.924 -11.976  1.00  0.00     0.037 A 
BRANCH  46  60
ATOM     60  C   UNL     1      11.076  10.199  -9.486  1.00  0.00     0.058 A 
ATOM     61  C   UNL     1      11.815  11.219  -8.866  1.00  0.00     0.135 A 
ATOM     62  C   UNL     1      10.022  10.579 -10.333  1.00  0.00     0.135 A 
ATOM     63  F   UNL     1      12.823  10.915  -8.033  1.00  0.00    -0.206 F 
ATOM     64  C   UNL     1      11.502  12.562  -9.053  1.00  0.00     0.059 A 
ATOM     65  C   UNL     1       9.712  11.917 -10.561  1.00  0.00     0.059 A 
ATOM     66  F   UNL     1       9.281   9.646 -10.952  1.00  0.00    -0.206 F 
ATOM     67  C   UNL     1      10.449  12.901  -9.903  1.00  0.00     0.060 A 
BRANCH  67  68
ATOM     68  S   UNL     1      10.061  14.648 -10.139  1.00  0.00     0.124 S 
ATOM     69  O   UNL     1       9.471  14.991  -8.848  1.00  0.00    -0.237 OA
ATOM     70  O   UNL     1      11.374  15.225 -10.408  1.00  0.00    -0.237 OA
ATOM     71  O   UNL     1       9.137  14.643 -11.269  1.00  0.00    -0.744 OA
ENDBRANCH  67  68
ENDBRANCH  46  60
BRANCH  47  72
ATOM     72  C   UNL     1      12.934   0.509  -7.827  1.00  0.00     0.058 A 
ATOM     73  C   UNL     1      14.233  -0.021  -7.859  1.00  0.00     0.135 A 
ATOM     74  C   UNL     1      11.876  -0.375  -7.564  1.00  0.00     0.135 A 
ATOM     75  F   UNL     1      15.278   0.781  -8.114  1.00  0.00    -0.206 F 
ATOM     76  C   UNL     1      14.473  -1.377  -7.659  1.00  0.00     0.059 A 
ATOM     77  C   UNL     1      12.093  -1.730  -7.332  1.00  0.00     0.059 A 
ATOM     78  F   UNL     1      10.615   0.083  -7.506  1.00  0.00    -0.206 F 
ATOM     79  C   UNL     1      13.396  -2.223  -7.392  1.00  0.00     0.060 A 
BRANCH  79  80
ATOM     80  S   UNL     1      13.724  -3.973  -7.088  1.00  0.00     0.124 S 
ATOM     81  O   UNL     1      14.081  -4.441  -8.422  1.00  0.00    -0.237 OA
ATOM     82  O   UNL     1      14.813  -3.915  -6.118  1.00  0.00    -0.237 OA
ATOM     83  O   UNL     1      12.454  -4.466  -6.564  1.00  0.00    -0.744 OA
ENDBRANCH  79  80
ENDBRANCH  47  72
BRANCH  59  84
ATOM     84  C   UNL     1      13.657   4.694 -13.370  1.00  0.00     0.058 A 
ATOM     85  C   UNL     1      12.930   3.962 -14.321  1.00  0.00     0.135 A 
ATOM     86  C   UNL     1      14.874   5.267 -13.775  1.00  0.00     0.135 A 
ATOM     87  F   UNL     1      11.764   3.388 -13.986  1.00  0.00    -0.206 F 
ATOM     88  C   UNL     1      13.401   3.788 -15.619  1.00  0.00     0.059 A 
ATOM     89  C   UNL     1      15.349   5.133 -15.075  1.00  0.00     0.059 A 
ATOM     90  F   UNL     1      15.605   5.986 -12.908  1.00  0.00    -0.206 F 
ATOM     91  C   UNL     1      14.611   4.381 -15.988  1.00  0.00     0.060 A 
BRANCH  91  92
ATOM     92  S   UNL     1      15.190   4.181 -17.686  1.00  0.00     0.124 S 
ATOM     93  O   UNL     1      15.605   2.782 -17.692  1.00  0.00    -0.237 OA
ATOM     94  O   UNL     1      13.993   4.491 -18.462  1.00  0.00    -0.237 OA
ATOM     95  O   UNL     1      16.270   5.157 -17.794  1.00  0.00    -0.744 OA
ENDBRANCH  91  92
ENDBRANCH  59  84
ENDBRANCH  33  34
ENDBRANCH  25  28
ENDBRANCH  23  24
ENDBRANCH  22  23
ENDBRANCH   1  22
TORSDOF 17
