REMARK SMILES C[C@H](CNC(=O)c1ccc(Br)nc1)C(=O)NCCCCCCNC(=O)c1ccc(-c2c3nc(c(-c4c(F)cc(S(=O)(=O)[O-])cc4F)c4ccc([nH]4)c(-c4c(F)cc(S(=O)(=O)[O-])cc4F)c4nc(c(-c5c(F)cc(S(=O)(=O)[O-])cc5F)c5ccc2[nH]5)C=C4)C=C3)cc1
REMARK SMILES IDX 19 1 18 2 17 3 16 4 14 5 15 6 2 8 1 9 3 10 4 11 5 12 6 14
REMARK SMILES IDX 7 15 8 16 13 17 9 18 12 19 10 20 11 21 20 22 21 23 22 24
REMARK SMILES IDX 23 25 24 26 25 28 26 29 27 30 91 31 28 32 90 33 29 34 30 35
REMARK SMILES IDX 31 36 84 37 32 38 89 39 83 40 85 41 33 42 88 43 82 44 81 45
REMARK SMILES IDX 34 47 68 48 47 49 67 50 48 51 51 52 66 53 86 54 49 55 50 56
REMARK SMILES IDX 65 58 87 59 52 60 35 61 36 62 45 63 37 64 38 65 44 66 46 67
REMARK SMILES IDX 39 68 40 69 41 70 42 71 43 72 69 73 70 74 79 75 71 76 72 77
REMARK SMILES IDX 78 78 80 79 73 80 74 81 75 82 76 83 77 84 53 85 54 86 63 87
REMARK SMILES IDX 55 88 56 89 62 90 64 91 57 92 58 93 59 94 60 95 61 96
REMARK H PARENT 16 7 4 13 23 27 85 46 51 57
REMARK Flexibility Score: inf
ROOT
ATOM      1  C   UNL     1      -3.130   0.921   2.718  1.00  0.00     0.002 C 
ENDROOT
BRANCH   1   2
ATOM      2  C   UNL     1      -1.624   0.807   2.457  1.00  0.00     0.021 C 
BRANCH   2   3
ATOM      3  C   UNL     1      -1.132  -0.624   2.244  1.00  0.00     0.116 C 
BRANCH   3   4
ATOM      4  N   UNL     1      -1.599  -1.155   0.976  1.00  0.00    -0.356 N 
ATOM      5  C   UNL     1      -0.911  -1.575  -0.119  1.00  0.00     0.224 C 
ATOM      6  O   UNL     1      -1.557  -1.907  -1.116  1.00  0.00    -0.275 OA
ATOM      7  H   UNL     1      -2.578  -1.221   0.895  1.00  0.00     0.163 HD
BRANCH   5   8
ATOM      8  C   UNL     1       0.608  -1.667  -0.117  1.00  0.00     0.094 C 
ATOM      9  C   UNL     1       1.078  -2.764   0.840  1.00  0.00     0.020 C 
BRANCH   8  10
ATOM     10  C   UNL     1       1.256  -0.281   0.034  1.00  0.00     0.129 C 
BRANCH  10  11
ATOM     11  N   UNL     1       2.433  -0.266   0.894  1.00  0.00    -0.351 N 
ATOM     12  C   UNL     1       3.752  -0.366   0.547  1.00  0.00     0.252 C 
ATOM     13  H   UNL     1       2.253  -0.172   1.857  1.00  0.00     0.163 HD
ATOM     14  O   UNL     1       4.610  -0.610   1.393  1.00  0.00    -0.269 OA
BRANCH  12  15
ATOM     15  C   UNL     1       4.147  -0.191  -0.851  1.00  0.00     0.058 A 
ATOM     16  C   UNL     1       3.880   0.991  -1.542  1.00  0.00     0.018 A 
ATOM     17  C   UNL     1       4.835  -1.204  -1.498  1.00  0.00     0.126 A 
ATOM     18  C   UNL     1       4.265   1.091  -2.876  1.00  0.00     0.037 A 
ATOM     19  N   UNL     1       5.212  -1.134  -2.798  1.00  0.00    -0.249 NA
ATOM     20  C   UNL     1       4.915   0.010  -3.458  1.00  0.00     0.106 A 
ATOM     21  Br  UNL     1       5.415   0.124  -5.284  1.00  0.00    -0.029 Br
ENDBRANCH  12  15
ENDBRANCH  10  11
ENDBRANCH   8  10
ENDBRANCH   5   8
ENDBRANCH   3   4
ENDBRANCH   2   3
ENDBRANCH   1   2
BRANCH   1  22
ATOM     22  C   UNL     1      -3.643   0.113   3.914  1.00  0.00     0.002 C 
BRANCH  22  23
ATOM     23  C   UNL     1      -2.913   0.370   5.236  1.00  0.00     0.021 C 
BRANCH  23  24
ATOM     24  C   UNL     1      -2.923   1.822   5.703  1.00  0.00     0.116 C 
BRANCH  24  25
ATOM     25  N   UNL     1      -4.270   2.308   5.949  1.00  0.00    -0.352 N 
ATOM     26  C   UNL     1      -4.773   2.952   7.051  1.00  0.00     0.251 C 
ATOM     27  H   UNL     1      -4.913   2.153   5.221  1.00  0.00     0.163 HD
ATOM     28  O   UNL     1      -5.984   3.120   7.158  1.00  0.00    -0.269 OA
BRANCH  26  29
ATOM     29  C   UNL     1      -3.860   3.427   8.114  1.00  0.00     0.039 A 
ATOM     30  C   UNL     1      -4.212   3.214   9.449  1.00  0.00     0.014 A 
ATOM     31  C   UNL     1      -2.676   4.102   7.799  1.00  0.00     0.014 A 
ATOM     32  C   UNL     1      -3.356   3.638  10.468  1.00  0.00     0.010 A 
ATOM     33  C   UNL     1      -1.794   4.468   8.814  1.00  0.00     0.010 A 
ATOM     34  C   UNL     1      -2.130   4.249  10.159  1.00  0.00    -0.014 A 
BRANCH  34  35
ATOM     35  C   UNL     1      -1.200   4.685  11.231  1.00  0.00     0.031 A 
ATOM     36  C   UNL     1      -0.911   6.149  11.428  1.00  0.00     0.074 A 
ATOM     37  C   UNL     1      -0.582   3.763  11.996  1.00  0.00     0.049 A 
ATOM     38  N   UNL     1      -0.086   6.723  12.265  1.00  0.00    -0.248 NA
ATOM     39  C   UNL     1      -1.627   7.090  10.551  1.00  0.00     0.031 C 
ATOM     40  C   UNL     1      -0.744   2.313  11.871  1.00  0.00     0.029 A 
ATOM     41  N   UNL     1       0.315   3.909  13.024  1.00  0.00    -0.354 N 
ATOM     42  C   UNL     1      -0.177   8.087  12.013  1.00  0.00     0.074 A 
ATOM     43  C   UNL     1      -1.095   8.250  10.906  1.00  0.00     0.031 C 
ATOM     44  C   UNL     1       0.015   1.704  12.796  1.00  0.00     0.029 A 
ATOM     45  C   UNL     1       0.739   2.716  13.560  1.00  0.00     0.049 A 
ATOM     46  H   UNL     1       0.625   4.785  13.347  1.00  0.00     0.167 HD
ATOM     47  C   UNL     1       0.427   9.112  12.661  1.00  0.00     0.037 A 
ATOM     48  C   UNL     1       1.615   2.466  14.553  1.00  0.00     0.037 A 
ATOM     49  C   UNL     1       1.323   8.946  13.775  1.00  0.00     0.049 A 
ATOM     50  C   UNL     1       2.263   3.623  15.266  1.00  0.00     0.074 A 
ATOM     51  C   UNL     1       1.968   9.921  14.516  1.00  0.00     0.029 A 
ATOM     52  N   UNL     1       1.695   7.724  14.316  1.00  0.00    -0.354 N 
ATOM     53  N   UNL     1       2.132   4.908  15.040  1.00  0.00    -0.248 NA
ATOM     54  C   UNL     1       3.166   3.295  16.378  1.00  0.00     0.031 C 
ATOM     55  C   UNL     1       2.748   9.287  15.490  1.00  0.00     0.029 A 
ATOM     56  C   UNL     1       2.560   7.919  15.379  1.00  0.00     0.049 A 
ATOM     57  H   UNL     1       1.388   6.846  13.991  1.00  0.00     0.167 HD
ATOM     58  C   UNL     1       2.913   5.543  15.999  1.00  0.00     0.074 A 
ATOM     59  C   UNL     1       3.502   4.501  16.815  1.00  0.00     0.031 C 
ATOM     60  C   UNL     1       3.123   6.869  16.189  1.00  0.00     0.037 A 
BRANCH  47  61
ATOM     61  C   UNL     1       0.122  10.506  12.187  1.00  0.00     0.058 A 
ATOM     62  C   UNL     1      -1.135  11.094  12.406  1.00  0.00     0.135 A 
ATOM     63  C   UNL     1       1.097  11.273  11.530  1.00  0.00     0.135 A 
ATOM     64  F   UNL     1      -2.109  10.399  13.014  1.00  0.00    -0.206 F 
ATOM     65  C   UNL     1      -1.424  12.381  11.964  1.00  0.00     0.059 A 
ATOM     66  C   UNL     1       0.839  12.573  11.103  1.00  0.00     0.059 A 
ATOM     67  F   UNL     1       2.315  10.761  11.294  1.00  0.00    -0.206 F 
ATOM     68  C   UNL     1      -0.431  13.112  11.311  1.00  0.00     0.060 A 
BRANCH  68  69
ATOM     69  S   UNL     1      -0.822  14.780  10.741  1.00  0.00     0.124 S 
ATOM     70  O   UNL     1      -1.653  14.500   9.575  1.00  0.00    -0.237 OA
ATOM     71  O   UNL     1      -1.516  15.350  11.892  1.00  0.00    -0.237 OA
ATOM     72  O   UNL     1       0.488  15.356  10.455  1.00  0.00    -0.744 OA
ENDBRANCH  68  69
ENDBRANCH  47  61
BRANCH  48  73
ATOM     73  C   UNL     1       1.914   1.065  14.949  1.00  0.00     0.058 A 
ATOM     74  C   UNL     1       1.458   0.547  16.170  1.00  0.00     0.135 A 
ATOM     75  C   UNL     1       2.664   0.219  14.118  1.00  0.00     0.135 A 
ATOM     76  F   UNL     1       0.739   1.319  16.999  1.00  0.00    -0.206 F 
ATOM     77  C   UNL     1       1.756  -0.752  16.568  1.00  0.00     0.059 A 
ATOM     78  C   UNL     1       2.955  -1.092  14.483  1.00  0.00     0.059 A 
ATOM     79  F   UNL     1       3.106   0.661  12.931  1.00  0.00    -0.206 F 
ATOM     80  C   UNL     1       2.509  -1.563  15.717  1.00  0.00     0.060 A 
BRANCH  80  81
ATOM     81  S   UNL     1       2.866  -3.259  16.225  1.00  0.00     0.124 S 
ATOM     82  O   UNL     1       3.923  -3.053  17.209  1.00  0.00    -0.237 OA
ATOM     83  O   UNL     1       1.579  -3.702  16.753  1.00  0.00    -0.237 OA
ATOM     84  O   UNL     1       3.278  -3.900  14.980  1.00  0.00    -0.744 OA
ENDBRANCH  80  81
ENDBRANCH  48  73
BRANCH  60  85
ATOM     85  C   UNL     1       3.992   7.269  17.349  1.00  0.00     0.058 A 
ATOM     86  C   UNL     1       5.384   7.097  17.323  1.00  0.00     0.135 A 
ATOM     87  C   UNL     1       3.423   7.863  18.487  1.00  0.00     0.135 A 
ATOM     88  F   UNL     1       5.975   6.529  16.260  1.00  0.00    -0.206 F 
ATOM     89  C   UNL     1       6.182   7.476  18.398  1.00  0.00     0.059 A 
ATOM     90  C   UNL     1       4.205   8.272  19.563  1.00  0.00     0.059 A 
ATOM     91  F   UNL     1       2.097   8.059  18.557  1.00  0.00    -0.206 F 
ATOM     92  C   UNL     1       5.582   8.061  19.515  1.00  0.00     0.060 A 
BRANCH  92  93
ATOM     93  S   UNL     1       6.628   8.569  20.896  1.00  0.00     0.124 S 
ATOM     94  O   UNL     1       6.910   7.289  21.536  1.00  0.00    -0.237 OA
ATOM     95  O   UNL     1       7.756   9.202  20.220  1.00  0.00    -0.237 OA
ATOM     96  O   UNL     1       5.771   9.476  21.653  1.00  0.00    -0.744 OA
ENDBRANCH  92  93
ENDBRANCH  60  85
ENDBRANCH  34  35
ENDBRANCH  26  29
ENDBRANCH  24  25
ENDBRANCH  23  24
ENDBRANCH  22  23
ENDBRANCH   1  22
TORSDOF 19
