REMARK SMILES CC[C@@](C)(NS(=O)(=O)c1ccc(F)c(F)c1)C(=O)NCCCCCCNC(=O)c1ccc(-c2c3nc(c(-c4c(F)cc(S(=O)(=O)[O-])cc4F)c4ccc([nH]4)c(-c4c(F)cc(S(=O)(=O)[O-])cc4F)c4nc(c(-c5c(F)cc(S(=O)(=O)[O-])cc5F)c5ccc2[nH]5)C=C4)C=C3)cc1
REMARK SMILES IDX 22 1 21 2 20 3 19 4 17 5 18 6 3 8 4 9 2 10 1 11 5 12 6 14
REMARK SMILES IDX 7 15 8 16 9 17 10 18 16 19 11 20 14 21 12 22 15 23 13 24
REMARK SMILES IDX 23 25 24 26 25 27 26 28 27 29 28 31 29 32 30 33 94 34 31 35
REMARK SMILES IDX 93 36 32 37 33 38 34 39 87 40 35 41 92 42 86 43 88 44 36 45
REMARK SMILES IDX 91 46 85 47 84 48 37 50 71 51 50 52 70 53 51 54 54 55 69 56
REMARK SMILES IDX 89 57 52 58 53 59 68 61 90 62 55 63 38 64 39 65 48 66 40 67
REMARK SMILES IDX 41 68 47 69 49 70 42 71 43 72 44 73 45 74 46 75 72 76 73 77
REMARK SMILES IDX 82 78 74 79 75 80 81 81 83 82 76 83 77 84 78 85 79 86 80 87
REMARK SMILES IDX 56 88 57 89 66 90 58 91 59 92 65 93 67 94 60 95 61 96 62 97
REMARK SMILES IDX 63 98 64 99
REMARK H PARENT 19 7 5 13 26 30 88 49 54 60
REMARK Flexibility Score: inf
ROOT
ATOM      1  C   UNL     1       3.929   2.138   6.145  1.00  0.00     0.002 C 
ENDROOT
BRANCH   1   2
ATOM      2  C   UNL     1       2.428   2.334   5.914  1.00  0.00     0.021 C 
BRANCH   2   3
ATOM      3  C   UNL     1       1.883   2.735   4.524  1.00  0.00     0.116 C 
BRANCH   3   4
ATOM      4  N   UNL     1       2.480   2.138   3.327  1.00  0.00    -0.354 N 
ATOM      5  C   UNL     1       2.168   1.219   2.363  1.00  0.00     0.241 C 
ATOM      6  O   UNL     1       3.054   1.106   1.500  1.00  0.00    -0.273 OA
ATOM      7  H   UNL     1       3.377   2.511   3.168  1.00  0.00     0.163 HD
BRANCH   5   8
ATOM      8  C   UNL     1       0.932   0.292   2.302  1.00  0.00     0.108 C 
ATOM      9  C   UNL     1      -0.353   1.102   2.516  1.00  0.00     0.040 C 
BRANCH   8  10
ATOM     10  C   UNL     1       0.811  -0.387   0.864  1.00  0.00     0.030 C 
ATOM     11  C   UNL     1       0.942   0.442  -0.402  1.00  0.00     0.006 C 
ENDBRANCH   8  10
BRANCH   8  12
ATOM     12  N   UNL     1       0.919  -0.945   3.120  1.00  0.00    -0.196 NA
ATOM     13  H   UNL     1       1.221  -1.657   2.454  1.00  0.00     0.142 HD
BRANCH  12  14
ATOM     14  S   UNL     1       1.640  -1.428   4.517  1.00  0.00     0.241 S 
ATOM     15  O   UNL     1       1.344  -0.460   5.535  1.00  0.00    -0.207 OA
ATOM     16  O   UNL     1       1.140  -2.783   4.664  1.00  0.00    -0.207 OA
BRANCH  14  17
ATOM     17  C   UNL     1       3.409  -1.593   4.351  1.00  0.00     0.085 A 
ATOM     18  C   UNL     1       4.043  -2.765   4.780  1.00  0.00     0.025 A 
ATOM     19  C   UNL     1       4.215  -0.527   3.980  1.00  0.00     0.064 A 
ATOM     20  C   UNL     1       5.447  -2.837   4.834  1.00  0.00     0.044 A 
ATOM     21  C   UNL     1       5.603  -0.593   4.024  1.00  0.00     0.160 A 
ATOM     22  C   UNL     1       6.222  -1.744   4.456  1.00  0.00     0.158 A 
ATOM     23  F   UNL     1       6.318   0.497   3.707  1.00  0.00    -0.204 F 
ATOM     24  F   UNL     1       7.556  -1.800   4.546  1.00  0.00    -0.204 F 
ENDBRANCH  14  17
ENDBRANCH  12  14
ENDBRANCH   8  12
ENDBRANCH   5   8
ENDBRANCH   3   4
ENDBRANCH   2   3
ENDBRANCH   1   2
BRANCH   1  25
ATOM     25  C   UNL     1       4.757   3.397   6.359  1.00  0.00     0.002 C 
BRANCH  25  26
ATOM     26  C   UNL     1       4.383   4.206   7.597  1.00  0.00     0.021 C 
BRANCH  26  27
ATOM     27  C   UNL     1       4.458   3.442   8.914  1.00  0.00     0.116 C 
BRANCH  27  28
ATOM     28  N   UNL     1       5.814   3.026   9.253  1.00  0.00    -0.352 N 
ATOM     29  C   UNL     1       6.465   3.205  10.453  1.00  0.00     0.251 C 
ATOM     30  H   UNL     1       6.321   2.567   8.544  1.00  0.00     0.163 HD
ATOM     31  O   UNL     1       7.656   2.956  10.585  1.00  0.00    -0.269 OA
BRANCH  29  32
ATOM     32  C   UNL     1       5.670   3.727  11.579  1.00  0.00     0.039 A 
ATOM     33  C   UNL     1       6.004   4.956  12.146  1.00  0.00     0.014 A 
ATOM     34  C   UNL     1       4.503   3.051  11.948  1.00  0.00     0.014 A 
ATOM     35  C   UNL     1       5.125   5.540  13.058  1.00  0.00     0.010 A 
ATOM     36  C   UNL     1       3.591   3.679  12.786  1.00  0.00     0.010 A 
ATOM     37  C   UNL     1       3.898   4.922  13.360  1.00  0.00    -0.014 A 
BRANCH  37  38
ATOM     38  C   UNL     1       2.935   5.558  14.292  1.00  0.00     0.031 A 
ATOM     39  C   UNL     1       2.587   4.874  15.586  1.00  0.00     0.074 A 
ATOM     40  C   UNL     1       2.349   6.725  13.956  1.00  0.00     0.049 A 
ATOM     41  N   UNL     1       1.795   5.275  16.546  1.00  0.00    -0.248 NA
ATOM     42  C   UNL     1       3.182   3.547  15.818  1.00  0.00     0.031 C 
ATOM     43  C   UNL     1       2.555   7.445  12.697  1.00  0.00     0.029 A 
ATOM     44  N   UNL     1       1.468   7.517  14.648  1.00  0.00    -0.354 N 
ATOM     45  C   UNL     1       1.786   4.247  17.481  1.00  0.00     0.074 A 
ATOM     46  C   UNL     1       2.592   3.176  16.943  1.00  0.00     0.031 C 
ATOM     47  C   UNL     1       1.866   8.597  12.730  1.00  0.00     0.029 A 
ATOM     48  C   UNL     1       1.146   8.684  13.996  1.00  0.00     0.049 A 
ATOM     49  H   UNL     1       1.101   7.272  15.528  1.00  0.00     0.167 HD
ATOM     50  C   UNL     1       1.185   4.212  18.695  1.00  0.00     0.037 A 
ATOM     51  C   UNL     1       0.372   9.715  14.387  1.00  0.00     0.037 A 
ATOM     52  C   UNL     1       0.410   5.298  19.230  1.00  0.00     0.049 A 
ATOM     53  C   UNL     1      -0.270   9.663  15.748  1.00  0.00     0.074 A 
ATOM     54  C   UNL     1      -0.176   5.406  20.478  1.00  0.00     0.029 A 
ATOM     55  N   UNL     1       0.106   6.465  18.543  1.00  0.00    -0.354 N 
ATOM     56  N   UNL     1      -0.193   8.725  16.662  1.00  0.00    -0.248 NA
ATOM     57  C   UNL     1      -1.097  10.814  16.133  1.00  0.00     0.031 C 
ATOM     58  C   UNL     1      -0.882   6.614  20.525  1.00  0.00     0.029 A 
ATOM     59  C   UNL     1      -0.687   7.286  19.328  1.00  0.00     0.049 A 
ATOM     60  H   UNL     1       0.409   6.679  17.631  1.00  0.00     0.167 HD
ATOM     61  C   UNL     1      -0.939   9.183  17.743  1.00  0.00     0.074 A 
ATOM     62  C   UNL     1      -1.442  10.491  17.372  1.00  0.00     0.031 C 
ATOM     63  C   UNL     1      -1.185   8.581  18.934  1.00  0.00     0.037 A 
BRANCH  50  64
ATOM     64  C   UNL     1       1.343   2.956  19.510  1.00  0.00     0.058 A 
ATOM     65  C   UNL     1       2.584   2.564  20.041  1.00  0.00     0.135 A 
ATOM     66  C   UNL     1       0.238   2.127  19.761  1.00  0.00     0.135 A 
ATOM     67  F   UNL     1       3.680   3.308  19.820  1.00  0.00    -0.206 F 
ATOM     68  C   UNL     1       2.733   1.376  20.749  1.00  0.00     0.059 A 
ATOM     69  C   UNL     1       0.357   0.951  20.496  1.00  0.00     0.059 A 
ATOM     70  F   UNL     1      -0.972   2.449  19.278  1.00  0.00    -0.206 F 
ATOM     71  C   UNL     1       1.613   0.573  20.968  1.00  0.00     0.060 A 
BRANCH  71  72
ATOM     72  S   UNL     1       1.824  -0.973  21.875  1.00  0.00     0.124 S 
ATOM     73  O   UNL     1       2.513  -1.798  20.888  1.00  0.00    -0.237 OA
ATOM     74  O   UNL     1       2.625  -0.555  23.021  1.00  0.00    -0.237 OA
ATOM     75  O   UNL     1       0.455  -1.376  22.184  1.00  0.00    -0.744 OA
ENDBRANCH  71  72
ENDBRANCH  50  64
BRANCH  51  76
ATOM     76  C   UNL     1       0.214  10.906  13.509  1.00  0.00     0.058 A 
ATOM     77  C   UNL     1       0.798  12.135  13.852  1.00  0.00     0.135 A 
ATOM     78  C   UNL     1      -0.502  10.841  12.303  1.00  0.00     0.135 A 
ATOM     79  F   UNL     1       1.488  12.252  14.998  1.00  0.00    -0.206 F 
ATOM     80  C   UNL     1       0.671  13.258  13.041  1.00  0.00     0.059 A 
ATOM     81  C   UNL     1      -0.622  11.944  11.462  1.00  0.00     0.059 A 
ATOM     82  F   UNL     1      -1.068   9.686  11.919  1.00  0.00    -0.206 F 
ATOM     83  C   UNL     1      -0.038  13.151  11.844  1.00  0.00     0.060 A 
BRANCH  83  84
ATOM     84  S   UNL     1      -0.145  14.599  10.770  1.00  0.00     0.124 S 
ATOM     85  O   UNL     1      -1.054  15.457  11.520  1.00  0.00    -0.237 OA
ATOM     86  O   UNL     1       1.246  15.038  10.710  1.00  0.00    -0.237 OA
ATOM     87  O   UNL     1      -0.675  14.054   9.523  1.00  0.00    -0.744 OA
ENDBRANCH  83  84
ENDBRANCH  51  76
BRANCH  63  88
ATOM     88  C   UNL     1      -2.017   9.345  19.927  1.00  0.00     0.058 A 
ATOM     89  C   UNL     1      -3.390   9.560  19.731  1.00  0.00     0.135 A 
ATOM     90  C   UNL     1      -1.436   9.848  21.103  1.00  0.00     0.135 A 
ATOM     91  F   UNL     1      -3.994   9.103  18.623  1.00  0.00    -0.206 F 
ATOM     92  C   UNL     1      -4.149  10.284  20.644  1.00  0.00     0.059 A 
ATOM     93  C   UNL     1      -2.183  10.546  22.046  1.00  0.00     0.059 A 
ATOM     94  F   UNL     1      -0.130   9.657  21.349  1.00  0.00    -0.206 F 
ATOM     95  C   UNL     1      -3.535  10.777  21.797  1.00  0.00     0.060 A 
BRANCH  95  96
ATOM     96  S   UNL     1      -4.530  11.715  22.974  1.00  0.00     0.124 S 
ATOM     97  O   UNL     1      -4.694  12.984  22.272  1.00  0.00    -0.237 OA
ATOM     98  O   UNL     1      -5.732  10.895  23.091  1.00  0.00    -0.237 OA
ATOM     99  O   UNL     1      -3.692  11.761  24.168  1.00  0.00    -0.744 OA
ENDBRANCH  95  96
ENDBRANCH  63  88
ENDBRANCH  37  38
ENDBRANCH  29  32
ENDBRANCH  27  28
ENDBRANCH  26  27
ENDBRANCH  25  26
ENDBRANCH   1  25
TORSDOF 20
