REMARK SMILES O=C(Cc1cncnc1N1CCC2(CC1)OCCC[C@@H]2O)NCCCCCCNC(=O)c1ccc(-c2c3nc(c(-c4c(F)cc(S(=O)(=O)[O-])cc4F)c4ccc([nH]4)c(-c4c(F)cc(S(=O)(=O)[O-])cc4F)c4nc(c(-c5c(F)cc(S(=O)(=O)[O-])cc5F)c5ccc2[nH]5)C=C4)C=C3)cc1
REMARK SMILES IDX 25 1 24 2 23 3 22 4 1 5 2 6 3 8 4 9 5 10 9 11 6 12 8 13 7 14
REMARK SMILES IDX 10 15 11 16 15 17 12 18 14 19 13 20 16 21 20 22 17 23 19 24
REMARK SMILES IDX 18 25 21 26 26 28 27 29 28 30 29 31 30 32 31 34 32 35 33 36
REMARK SMILES IDX 97 37 34 38 96 39 35 40 36 41 37 42 90 43 38 44 95 45 89 46
REMARK SMILES IDX 91 47 39 48 94 49 88 50 87 51 40 53 74 54 53 55 73 56 54 57
REMARK SMILES IDX 57 58 72 59 92 60 55 61 56 62 71 64 93 65 58 66 41 67 42 68
REMARK SMILES IDX 51 69 43 70 44 71 50 72 52 73 45 74 46 75 47 76 48 77 49 78
REMARK SMILES IDX 75 79 76 80 85 81 77 82 78 83 84 84 86 85 79 86 80 87 81 88
REMARK SMILES IDX 82 89 83 90 59 91 60 92 69 93 61 94 62 95 68 96 70 97 63 98
REMARK SMILES IDX 64 99 65 100 66 101 67 102
REMARK H PARENT 22 7 21 27 29 33 91 52 57 63
REMARK Flexibility Score: inf
ROOT
ATOM      1  C   UNL     1       4.349  -0.989   3.746  1.00  0.00     0.002 C 
ENDROOT
BRANCH   1   2
ATOM      2  C   UNL     1       2.868  -1.205   3.422  1.00  0.00     0.021 C 
BRANCH   2   3
ATOM      3  C   UNL     1       2.296  -0.170   2.469  1.00  0.00     0.116 C 
BRANCH   3   4
ATOM      4  N   UNL     1       3.011  -0.108   1.207  1.00  0.00    -0.356 N 
ATOM      5  O   UNL     1       1.728  -1.683   0.173  1.00  0.00    -0.275 OA
ATOM      6  C   UNL     1       2.562  -0.780   0.098  1.00  0.00     0.224 C 
ATOM      7  H   UNL     1       3.834   0.428   1.146  1.00  0.00     0.163 HD
BRANCH   6   8
ATOM      8  C   UNL     1       3.138  -0.380  -1.246  1.00  0.00     0.141 C 
BRANCH   8   9
ATOM      9  C   UNL     1       3.830   0.953  -1.359  1.00  0.00     0.022 A 
ATOM     10  C   UNL     1       5.205   0.984  -1.528  1.00  0.00     0.121 A 
ATOM     11  C   UNL     1       3.180   2.187  -1.422  1.00  0.00     0.135 A 
ATOM     12  N   UNL     1       5.914   2.103  -1.740  1.00  0.00    -0.244 NA
ATOM     13  N   UNL     1       3.864   3.323  -1.654  1.00  0.00    -0.219 NA
ATOM     14  C   UNL     1       5.193   3.227  -1.796  1.00  0.00     0.224 A 
BRANCH  11  15
ATOM     15  N   UNL     1       1.809   2.275  -1.349  1.00  0.00    -0.356 N 
ATOM     16  C   UNL     1       1.090   3.106  -2.300  1.00  0.00     0.121 C 
ATOM     17  C   UNL     1       1.130   2.197  -0.065  1.00  0.00     0.121 C 
ATOM     18  C   UNL     1      -0.215   2.369  -2.619  1.00  0.00     0.060 C 
ATOM     19  C   UNL     1      -0.096   1.319  -0.287  1.00  0.00     0.060 C 
ATOM     20  C   UNL     1      -1.023   1.947  -1.354  1.00  0.00     0.097 C 
ATOM     21  O   UNL     1      -1.624   3.079  -0.689  1.00  0.00    -0.372 OA
ATOM     22  C   UNL     1      -2.131   0.927  -1.747  1.00  0.00     0.146 C 
ATOM     23  C   UNL     1      -2.650   3.755  -1.407  1.00  0.00     0.161 C 
ATOM     24  C   UNL     1      -3.245   1.594  -2.551  1.00  0.00     0.037 C 
ATOM     25  C   UNL     1      -3.777   2.818  -1.814  1.00  0.00     0.031 C 
BRANCH  22  26
ATOM     26  O   UNL     1      -2.730   0.333  -0.590  1.00  0.00    -0.390 OA
ATOM     27  H   UNL     1      -3.164   1.021  -0.062  1.00  0.00     0.211 HD
ENDBRANCH  22  26
ENDBRANCH  11  15
ENDBRANCH   8   9
ENDBRANCH   6   8
ENDBRANCH   3   4
ENDBRANCH   2   3
ENDBRANCH   1   2
BRANCH   1  28
ATOM     28  C   UNL     1       4.696   0.387   4.325  1.00  0.00     0.002 C 
BRANCH  28  29
ATOM     29  C   UNL     1       3.949   0.764   5.606  1.00  0.00     0.021 C 
BRANCH  29  30
ATOM     30  C   UNL     1       4.073  -0.248   6.739  1.00  0.00     0.116 C 
BRANCH  30  31
ATOM     31  N   UNL     1       5.454  -0.455   7.145  1.00  0.00    -0.352 N 
ATOM     32  C   UNL     1       6.002  -0.434   8.405  1.00  0.00     0.251 C 
ATOM     33  H   UNL     1       6.087  -0.635   6.413  1.00  0.00     0.163 HD
ATOM     34  O   UNL     1       7.218  -0.453   8.546  1.00  0.00    -0.269 OA
BRANCH  32  35
ATOM     35  C   UNL     1       5.113  -0.364   9.585  1.00  0.00     0.039 A 
ATOM     36  C   UNL     1       5.426   0.526  10.615  1.00  0.00     0.014 A 
ATOM     37  C   UNL     1       3.971  -1.166   9.671  1.00  0.00     0.014 A 
ATOM     38  C   UNL     1       4.560   0.654  11.704  1.00  0.00     0.010 A 
ATOM     39  C   UNL     1       3.071  -0.980  10.715  1.00  0.00     0.010 A 
ATOM     40  C   UNL     1       3.358  -0.072  11.746  1.00  0.00    -0.014 A 
BRANCH  40  41
ATOM     41  C   UNL     1       2.390   0.106  12.858  1.00  0.00     0.031 A 
ATOM     42  C   UNL     1       2.064  -1.046  13.771  1.00  0.00     0.074 A 
ATOM     43  C   UNL     1       1.760   1.288  13.010  1.00  0.00     0.049 A 
ATOM     44  N   UNL     1       1.216  -1.099  14.765  1.00  0.00    -0.248 NA
ATOM     45  C   UNL     1       2.765  -2.315  13.514  1.00  0.00     0.031 C 
ATOM     46  C   UNL     1       1.959   2.466  12.163  1.00  0.00     0.029 A 
ATOM     47  N   UNL     1       0.822   1.694  13.926  1.00  0.00    -0.354 N 
ATOM     48  C   UNL     1       1.271  -2.403  15.243  1.00  0.00     0.074 A 
ATOM     49  C   UNL     1       2.192  -3.124  14.392  1.00  0.00     0.031 C 
ATOM     50  C   UNL     1       1.195   3.471  12.620  1.00  0.00     0.029 A 
ATOM     51  C   UNL     1       0.419   2.999  13.762  1.00  0.00     0.049 A 
ATOM     52  H   UNL     1       0.471   1.106  14.633  1.00  0.00     0.167 HD
ATOM     53  C   UNL     1       0.631  -2.944  16.308  1.00  0.00     0.037 A 
ATOM     54  C   UNL     1      -0.478   3.730  14.453  1.00  0.00     0.037 A 
ATOM     55  C   UNL     1      -0.273  -2.213  17.158  1.00  0.00     0.049 A 
ATOM     56  C   UNL     1      -1.196   3.100  15.616  1.00  0.00     0.074 A 
ATOM     57  C   UNL     1      -0.927  -2.651  18.296  1.00  0.00     0.029 A 
ATOM     58  N   UNL     1      -0.660  -0.895  16.957  1.00  0.00    -0.354 N 
ATOM     59  N   UNL     1      -1.077   1.886  16.100  1.00  0.00    -0.248 NA
ATOM     60  C   UNL     1      -2.168   3.939  16.329  1.00  0.00     0.031 C 
ATOM     61  C   UNL     1      -1.754  -1.617  18.750  1.00  0.00     0.029 A 
ATOM     62  C   UNL     1      -1.568  -0.514  17.932  1.00  0.00     0.049 A 
ATOM     63  H   UNL     1      -0.337  -0.317  16.229  1.00  0.00     0.167 HD
ATOM     64  C   UNL     1      -1.933   1.828  17.195  1.00  0.00     0.074 A 
ATOM     65  C   UNL     1      -2.555   3.131  17.306  1.00  0.00     0.031 C 
ATOM     66  C   UNL     1      -2.177   0.790  18.035  1.00  0.00     0.037 A 
BRANCH  53  67
ATOM     67  C   UNL     1       0.879  -4.400  16.603  1.00  0.00     0.058 A 
ATOM     68  C   UNL     1       2.127  -4.865  17.049  1.00  0.00     0.135 A 
ATOM     69  C   UNL     1      -0.151  -5.344  16.453  1.00  0.00     0.135 A 
ATOM     70  F   UNL     1       3.153  -4.012  17.200  1.00  0.00    -0.206 F 
ATOM     71  C   UNL     1       2.359  -6.216  17.291  1.00  0.00     0.059 A 
ATOM     72  C   UNL     1       0.048  -6.695  16.723  1.00  0.00     0.059 A 
ATOM     73  F   UNL     1      -1.366  -4.958  16.034  1.00  0.00    -0.206 F 
ATOM     74  C   UNL     1       1.313  -7.124  17.122  1.00  0.00     0.060 A 
BRANCH  74  75
ATOM     75  S   UNL     1       1.634  -8.874  17.424  1.00  0.00     0.124 S 
ATOM     76  O   UNL     1       2.461  -9.221  16.272  1.00  0.00    -0.237 OA
ATOM     77  O   UNL     1       2.321  -8.847  18.711  1.00  0.00    -0.237 OA
ATOM     78  O   UNL     1       0.301  -9.468  17.440  1.00  0.00    -0.744 OA
ENDBRANCH  74  75
ENDBRANCH  53  67
BRANCH  54  79
ATOM     79  C   UNL     1      -0.722   5.151  14.084  1.00  0.00     0.058 A 
ATOM     80  C   UNL     1      -0.310   6.192  14.930  1.00  0.00     0.135 A 
ATOM     81  C   UNL     1      -1.355   5.500  12.882  1.00  0.00     0.135 A 
ATOM     82  F   UNL     1       0.293   5.911  16.095  1.00  0.00    -0.206 F 
ATOM     83  C   UNL     1      -0.532   7.527  14.607  1.00  0.00     0.059 A 
ATOM     84  C   UNL     1      -1.563   6.828  12.522  1.00  0.00     0.059 A 
ATOM     85  F   UNL     1      -1.754   4.543  12.029  1.00  0.00    -0.206 F 
ATOM     86  C   UNL     1      -1.156   7.835  13.397  1.00  0.00     0.060 A 
BRANCH  86  87
ATOM     87  S   UNL     1      -1.395   9.572  12.966  1.00  0.00     0.124 S 
ATOM     88  O   UNL     1      -2.438   9.968  13.905  1.00  0.00    -0.237 OA
ATOM     89  O   UNL     1      -0.069  10.132  13.210  1.00  0.00    -0.237 OA
ATOM     90  O   UNL     1      -1.795   9.518  11.563  1.00  0.00    -0.744 OA
ENDBRANCH  86  87
ENDBRANCH  54  79
BRANCH  66  91
ATOM     91  C   UNL     1      -3.129   1.031  19.176  1.00  0.00     0.058 A 
ATOM     92  C   UNL     1      -4.509   1.186  18.971  1.00  0.00     0.135 A 
ATOM     93  C   UNL     1      -2.656   1.058  20.498  1.00  0.00     0.135 A 
ATOM     94  F   UNL     1      -5.014   1.177  17.728  1.00  0.00    -0.206 F 
ATOM     95  C   UNL     1      -5.383   1.385  20.036  1.00  0.00     0.059 A 
ATOM     96  C   UNL     1      -3.516   1.223  21.580  1.00  0.00     0.059 A 
ATOM     97  F   UNL     1      -1.347   0.904  20.753  1.00  0.00    -0.206 F 
ATOM     98  C   UNL     1      -4.877   1.399  21.337  1.00  0.00     0.060 A 
BRANCH  98  99
ATOM     99  S   UNL     1      -6.028   1.624  22.710  1.00  0.00     0.124 S 
ATOM    100  O   UNL     1      -6.373   3.035  22.577  1.00  0.00    -0.237 OA
ATOM    101  O   UNL     1      -7.090   0.677  22.384  1.00  0.00    -0.237 OA
ATOM    102  O   UNL     1      -5.229   1.281  23.883  1.00  0.00    -0.744 OA
ENDBRANCH  98  99
ENDBRANCH  66  91
ENDBRANCH  40  41
ENDBRANCH  32  35
ENDBRANCH  30  31
ENDBRANCH  29  30
ENDBRANCH  28  29
ENDBRANCH   1  28
TORSDOF 19
