REMARK SMILES O=C(NCCCCCCNC(=O)[C@@H]1CCCC[C@@H]1C(=O)Nc1cccc(C(F)(F)F)c1)c1ccc(-c2c3nc(c(-c4c(F)cc(S(=O)(=O)[O-])cc4F)c4ccc([nH]4)c(-c4c(F)cc(S(=O)(=O)[O-])cc4F)c4nc(c(-c5c(F)cc(S(=O)(=O)[O-])cc5F)c5ccc2[nH]5)C=C4)C=C3)cc1
REMARK SMILES IDX 6 1 5 2 4 3 3 4 1 5 2 6 32 8 33 9 97 10 34 11 96 12 35 13
REMARK SMILES IDX 36 14 37 15 90 16 38 17 95 18 89 19 91 20 39 21 94 22 88 23
REMARK SMILES IDX 87 24 40 26 74 27 53 28 73 29 54 30 57 31 72 32 92 33 55 34
REMARK SMILES IDX 56 35 71 37 93 38 58 39 41 40 42 41 51 42 43 43 44 44 50 45
REMARK SMILES IDX 52 46 45 47 46 48 47 49 48 50 49 51 75 52 76 53 85 54 77 55
REMARK SMILES IDX 78 56 84 57 86 58 79 59 80 60 81 61 82 62 83 63 59 64 60 65
REMARK SMILES IDX 69 66 61 67 62 68 68 69 70 70 63 71 64 72 65 73 66 74 67 75
REMARK SMILES IDX 7 76 8 77 9 78 10 79 11 80 12 82 13 83 14 84 18 85 15 86
REMARK SMILES IDX 17 87 16 88 19 89 20 90 21 91 22 93 23 94 31 95 24 96 26 97
REMARK SMILES IDX 25 98 27 99 28 100 29 101 30 102
REMARK H PARENT 3 7 91 25 57 36 10 81 21 92
REMARK Flexibility Score: inf
ROOT
ATOM      1  C   UNL     1       4.021  -0.652  -3.700  1.00  0.00     0.002 C 
ENDROOT
BRANCH   1   2
ATOM      2  C   UNL     1       4.446  -1.159  -2.324  1.00  0.00     0.021 C 
BRANCH   2   3
ATOM      3  C   UNL     1       4.288  -0.154  -1.192  1.00  0.00     0.116 C 
BRANCH   3   4
ATOM      4  N   UNL     1       2.900   0.182  -0.930  1.00  0.00    -0.352 N 
ATOM      5  O   UNL     1       1.013   0.296   0.309  1.00  0.00    -0.269 OA
ATOM      6  C   UNL     1       2.227   0.120   0.266  1.00  0.00     0.251 C 
ATOM      7  H   UNL     1       2.377   0.492  -1.704  1.00  0.00     0.163 HD
BRANCH   6   8
ATOM      8  C   UNL     1       2.988  -0.188   1.495  1.00  0.00     0.039 A 
ATOM      9  C   UNL     1       4.167   0.505   1.782  1.00  0.00     0.014 A 
ATOM     10  C   UNL     1       2.539  -1.205   2.341  1.00  0.00     0.014 A 
ATOM     11  C   UNL     1       4.964   0.093   2.843  1.00  0.00     0.010 A 
ATOM     12  C   UNL     1       3.299  -1.556   3.460  1.00  0.00     0.010 A 
ATOM     13  C   UNL     1       4.527  -0.924   3.708  1.00  0.00    -0.014 A 
BRANCH  13  14
ATOM     14  C   UNL     1       5.334  -1.242   4.914  1.00  0.00     0.031 A 
ATOM     15  C   UNL     1       5.975  -2.589   5.098  1.00  0.00     0.074 A 
ATOM     16  C   UNL     1       5.502  -0.275   5.838  1.00  0.00     0.049 A 
ATOM     17  N   UNL     1       6.707  -3.020   6.093  1.00  0.00    -0.248 NA
ATOM     18  C   UNL     1       5.765  -3.584   4.035  1.00  0.00     0.031 C 
ATOM     19  C   UNL     1       4.910   1.065   5.769  1.00  0.00     0.029 A 
ATOM     20  N   UNL     1       6.223  -0.256   7.003  1.00  0.00    -0.354 N 
ATOM     21  C   UNL     1       7.041  -4.334   5.785  1.00  0.00     0.074 A 
ATOM     22  C   UNL     1       6.402  -4.642   4.522  1.00  0.00     0.031 C 
ATOM     23  C   UNL     1       5.326   1.787   6.819  1.00  0.00     0.029 A 
ATOM     24  C   UNL     1       6.156   0.944   7.669  1.00  0.00     0.049 A 
ATOM     25  H   UNL     1       6.739  -1.028   7.331  1.00  0.00     0.167 HD
ATOM     26  C   UNL     1       7.817  -5.196   6.487  1.00  0.00     0.037 A 
ATOM     27  C   UNL     1       6.684   1.322   8.848  1.00  0.00     0.037 A 
ATOM     28  C   UNL     1       8.448  -4.875   7.744  1.00  0.00     0.049 A 
ATOM     29  C   UNL     1       7.516   0.337   9.616  1.00  0.00     0.074 A 
ATOM     30  C   UNL     1       9.255  -5.677   8.533  1.00  0.00     0.029 A 
ATOM     31  N   UNL     1       8.344  -3.654   8.396  1.00  0.00    -0.354 N 
ATOM     32  N   UNL     1       7.831  -0.897   9.300  1.00  0.00    -0.248 NA
ATOM     33  C   UNL     1       8.064   0.792  10.899  1.00  0.00     0.031 C 
ATOM     34  C   UNL     1       9.608  -4.954   9.678  1.00  0.00     0.029 A 
ATOM     35  C   UNL     1       9.062  -3.685   9.581  1.00  0.00     0.049 A 
ATOM     36  H   UNL     1       7.835  -2.879   8.064  1.00  0.00     0.167 HD
ATOM     37  C   UNL     1       8.627  -1.361  10.340  1.00  0.00     0.074 A 
ATOM     38  C   UNL     1       8.764  -0.267  11.280  1.00  0.00     0.031 C 
ATOM     39  C   UNL     1       9.189  -2.584  10.504  1.00  0.00     0.037 A 
BRANCH  26  40
ATOM     40  C   UNL     1       8.029  -6.574   5.918  1.00  0.00     0.058 A 
ATOM     41  C   UNL     1       8.840  -6.787   4.792  1.00  0.00     0.135 A 
ATOM     42  C   UNL     1       7.461  -7.701   6.535  1.00  0.00     0.135 A 
ATOM     43  F   UNL     1       9.398  -5.746   4.153  1.00  0.00    -0.206 F 
ATOM     44  C   UNL     1       9.064  -8.064   4.286  1.00  0.00     0.059 A 
ATOM     45  C   UNL     1       7.691  -8.990   6.061  1.00  0.00     0.059 A 
ATOM     46  F   UNL     1       6.678  -7.557   7.615  1.00  0.00    -0.206 F 
ATOM     47  C   UNL     1       8.485  -9.160   4.928  1.00  0.00     0.060 A 
BRANCH  47  48
ATOM     48  S   UNL     1       8.793 -10.811   4.263  1.00  0.00     0.124 S 
ATOM     49  O   UNL     1       7.986 -10.790   3.047  1.00  0.00    -0.237 OA
ATOM     50  O   UNL     1      10.239 -10.802   4.062  1.00  0.00    -0.237 OA
ATOM     51  O   UNL     1       8.315 -11.699   5.318  1.00  0.00    -0.744 OA
ENDBRANCH  47  48
ENDBRANCH  26  40
BRANCH  27  52
ATOM     52  C   UNL     1       6.421   2.687   9.373  1.00  0.00     0.058 A 
ATOM     53  C   UNL     1       7.445   3.640   9.463  1.00  0.00     0.135 A 
ATOM     54  C   UNL     1       5.133   3.067   9.783  1.00  0.00     0.135 A 
ATOM     55  F   UNL     1       8.692   3.324   9.083  1.00  0.00    -0.206 F 
ATOM     56  C   UNL     1       7.208   4.916   9.964  1.00  0.00     0.059 A 
ATOM     57  C   UNL     1       4.865   4.346  10.258  1.00  0.00     0.059 A 
ATOM     58  F   UNL     1       4.114   2.198   9.695  1.00  0.00    -0.206 F 
ATOM     59  C   UNL     1       5.913   5.258  10.361  1.00  0.00     0.060 A 
BRANCH  59  60
ATOM     60  S   UNL     1       5.607   6.925  10.983  1.00  0.00     0.124 S 
ATOM     61  O   UNL     1       6.176   6.845  12.323  1.00  0.00    -0.237 OA
ATOM     62  O   UNL     1       6.337   7.751  10.027  1.00  0.00    -0.237 OA
ATOM     63  O   UNL     1       4.153   7.043  10.919  1.00  0.00    -0.744 OA
ENDBRANCH  59  60
ENDBRANCH  27  52
BRANCH  39  64
ATOM     64  C   UNL     1      10.027  -2.787  11.734  1.00  0.00     0.058 A 
ATOM     65  C   UNL     1       9.450  -2.900  13.009  1.00  0.00     0.135 A 
ATOM     66  C   UNL     1      11.424  -2.889  11.634  1.00  0.00     0.135 A 
ATOM     67  F   UNL     1       8.120  -2.799  13.160  1.00  0.00    -0.206 F 
ATOM     68  C   UNL     1      10.231  -3.075  14.146  1.00  0.00     0.059 A 
ATOM     69  C   UNL     1      12.222  -3.093  12.754  1.00  0.00     0.059 A 
ATOM     70  F   UNL     1      12.024  -2.797  10.437  1.00  0.00    -0.206 F 
ATOM     71  C   UNL     1      11.617  -3.169  14.008  1.00  0.00     0.060 A 
BRANCH  71  72
ATOM     72  S   UNL     1      12.620  -3.414  15.489  1.00  0.00     0.124 S 
ATOM     73  O   UNL     1      12.589  -2.084  16.088  1.00  0.00    -0.237 OA
ATOM     74  O   UNL     1      11.878  -4.449  16.202  1.00  0.00    -0.237 OA
ATOM     75  O   UNL     1      13.913  -3.834  14.957  1.00  0.00    -0.744 OA
ENDBRANCH  71  72
ENDBRANCH  39  64
ENDBRANCH  13  14
ENDBRANCH   6   8
ENDBRANCH   3   4
ENDBRANCH   2   3
ENDBRANCH   1   2
BRANCH   1  76
ATOM     76  C   UNL     1       4.624   0.690  -4.113  1.00  0.00     0.002 C 
BRANCH  76  77
ATOM     77  C   UNL     1       6.138   0.814  -3.934  1.00  0.00     0.021 C 
BRANCH  77  78
ATOM     78  C   UNL     1       6.975  -0.209  -4.696  1.00  0.00     0.116 C 
BRANCH  78  79
ATOM     79  N   UNL     1       6.799  -0.089  -6.129  1.00  0.00    -0.356 N 
ATOM     80  C   UNL     1       7.681   0.044  -7.144  1.00  0.00     0.223 C 
ATOM     81  H   UNL     1       5.858  -0.107  -6.418  1.00  0.00     0.163 HD
ATOM     82  O   UNL     1       7.207   0.061  -8.286  1.00  0.00    -0.275 OA
BRANCH  80  83
ATOM     83  C   UNL     1       9.190   0.170  -6.955  1.00  0.00     0.091 C 
ATOM     84  C   UNL     1       9.765  -1.098  -6.299  1.00  0.00     0.014 C 
ATOM     85  C   UNL     1       9.728   1.542  -6.474  1.00  0.00     0.091 C 
ATOM     86  C   UNL     1      11.262  -1.019  -6.050  1.00  0.00     0.001 C 
ATOM     87  C   UNL     1      11.224   1.478  -6.080  1.00  0.00     0.014 C 
ATOM     88  C   UNL     1      11.605   0.241  -5.275  1.00  0.00     0.001 C 
BRANCH  85  89
ATOM     89  C   UNL     1       8.972   2.254  -5.364  1.00  0.00     0.228 C 
ATOM     90  O   UNL     1       9.234   2.014  -4.178  1.00  0.00    -0.274 OA
ATOM     91  N   UNL     1       8.044   3.227  -5.569  1.00  0.00    -0.326 N 
ATOM     92  H   UNL     1       7.839   3.710  -4.737  1.00  0.00     0.169 HD
BRANCH  91  93
ATOM     93  C   UNL     1       7.298   3.728  -6.649  1.00  0.00     0.041 A 
ATOM     94  C   UNL     1       6.423   4.784  -6.346  1.00  0.00     0.026 A 
ATOM     95  C   UNL     1       7.297   3.228  -7.947  1.00  0.00     0.039 A 
ATOM     96  C   UNL     1       5.559   5.311  -7.308  1.00  0.00     0.003 A 
ATOM     97  C   UNL     1       6.409   3.724  -8.922  1.00  0.00     0.058 A 
ATOM     98  C   UNL     1       5.544   4.775  -8.591  1.00  0.00     0.013 A 
BRANCH  97  99
ATOM     99  C   UNL     1       6.362   3.122 -10.306  1.00  0.00     0.416 C 
ATOM    100  F   UNL     1       5.134   2.619 -10.615  1.00  0.00    -0.166 F 
ATOM    101  F   UNL     1       6.632   4.047 -11.272  1.00  0.00    -0.166 F 
ATOM    102  F   UNL     1       7.250   2.114 -10.511  1.00  0.00    -0.166 F 
ENDBRANCH  97  99
ENDBRANCH  91  93
ENDBRANCH  85  89
ENDBRANCH  80  83
ENDBRANCH  78  79
ENDBRANCH  77  78
ENDBRANCH  76  77
ENDBRANCH   1  76
TORSDOF 19
