REMARK SMILES CCOC(=O)NC(=O)C[N@H+]1CC[C@@H](C(=O)NCCCCCCNC(=O)c2ccc(-c3c4nc(c(-c5c(F)cc(S(=O)(=O)[O-])cc5F)c5ccc([nH]5)c(-c5c(F)cc(S(=O)(=O)[O-])cc5F)c5nc(c(-c6c(F)cc(S(=O)(=O)[O-])cc6F)c6ccc3[nH]6)C=C5)C=C4)cc2)[C@@H]1C
REMARK SMILES IDX 19 1 18 2 17 3 16 4 14 5 15 6 13 8 10 9 11 10 92 11 12 13
REMARK SMILES IDX 93 14 9 15 7 16 4 17 5 18 6 19 8 21 3 22 2 23 1 24 20 25
REMARK SMILES IDX 21 26 22 27 23 28 24 29 25 31 26 32 27 33 91 34 28 35 90 36
REMARK SMILES IDX 29 37 30 38 31 39 84 40 32 41 89 42 83 43 85 44 33 45 88 46
REMARK SMILES IDX 82 47 81 48 34 50 68 51 47 52 67 53 48 54 51 55 66 56 86 57
REMARK SMILES IDX 49 58 50 59 65 61 87 62 52 63 35 64 36 65 45 66 37 67 38 68
REMARK SMILES IDX 44 69 46 70 39 71 40 72 41 73 42 74 43 75 69 76 70 77 79 78
REMARK SMILES IDX 71 79 72 80 78 81 80 82 73 83 74 84 75 85 76 86 77 87 53 88
REMARK SMILES IDX 54 89 63 90 55 91 56 92 62 93 64 94 57 95 58 96 59 97 60 98
REMARK SMILES IDX 61 99
REMARK H PARENT 16 7 10 12 6 20 23 30 85 49 51 60
REMARK Flexibility Score: inf
ROOT
ATOM      1  C   UNL     1      -2.256   1.002   6.317  1.00  0.00     0.002 C 
ENDROOT
BRANCH   1   2
ATOM      2  C   UNL     1      -1.731   1.714   5.066  1.00  0.00     0.021 C 
BRANCH   2   3
ATOM      3  C   UNL     1      -1.471   0.770   3.890  1.00  0.00     0.116 C 
BRANCH   3   4
ATOM      4  N   UNL     1      -2.635   0.619   3.043  1.00  0.00    -0.356 N 
ATOM      5  C   UNL     1      -2.950   1.157   1.836  1.00  0.00     0.229 C 
ATOM      6  O   UNL     1      -4.039   0.820   1.357  1.00  0.00    -0.275 OA
ATOM      7  H   UNL     1      -3.322   0.016   3.408  1.00  0.00     0.163 HD
BRANCH   5   8
ATOM      8  C   UNL     1      -2.040   2.090   1.039  1.00  0.00     0.142 C 
ATOM      9  N   UNL     1      -0.158   3.587   1.429  1.00  0.00    -0.324 N 
ATOM     10  C   UNL     1       0.181   2.636   0.371  1.00  0.00     0.263 C 
ATOM     11  C   UNL     1      -1.603   3.396   1.720  1.00  0.00     0.194 C 
ATOM     12  H   UNL     1       0.037   4.531   1.095  1.00  0.00     0.348 HD
ATOM     13  C   UNL     1      -0.758   1.455   0.538  1.00  0.00     0.081 C 
ATOM     14  C   UNL     1      -2.360   4.585   1.116  1.00  0.00     0.076 C 
BRANCH   9  15
ATOM     15  C   UNL     1       0.680   3.510   2.642  1.00  0.00     0.364 C 
BRANCH  15  16
ATOM     16  C   UNL     1       2.147   3.858   2.397  1.00  0.00     0.284 C 
ATOM     17  C   UNL     1       3.149   1.493   2.384  1.00  0.00     0.414 C 
ATOM     18  O   UNL     1       4.212   0.889   2.323  1.00  0.00    -0.224 OA
ATOM     19  N   UNL     1       3.119   2.874   2.458  1.00  0.00    -0.256 N 
ATOM     20  H   UNL     1       4.018   3.253   2.586  1.00  0.00     0.176 HD
ATOM     21  O   UNL     1       2.509   5.015   2.162  1.00  0.00    -0.268 OA
BRANCH  17  22
ATOM     22  O   UNL     1       1.935   0.899   2.310  1.00  0.00    -0.450 OA
BRANCH  22  23
ATOM     23  C   UNL     1       1.937  -0.514   2.027  1.00  0.00     0.231 C 
ATOM     24  C   UNL     1       2.167  -0.766   0.544  1.00  0.00     0.049 C 
ENDBRANCH  22  23
ENDBRANCH  17  22
ENDBRANCH  15  16
ENDBRANCH   9  15
ENDBRANCH   5   8
ENDBRANCH   3   4
ENDBRANCH   2   3
ENDBRANCH   1   2
BRANCH   1  25
ATOM     25  C   UNL     1      -1.235   0.104   7.027  1.00  0.00     0.002 C 
BRANCH  25  26
ATOM     26  C   UNL     1       0.032   0.803   7.533  1.00  0.00     0.021 C 
BRANCH  26  27
ATOM     27  C   UNL     1      -0.200   1.956   8.509  1.00  0.00     0.116 C 
BRANCH  27  28
ATOM     28  N   UNL     1      -0.881   1.526   9.720  1.00  0.00    -0.352 N 
ATOM     29  C   UNL     1      -0.536   1.713  11.036  1.00  0.00     0.251 C 
ATOM     30  H   UNL     1      -1.716   1.025   9.574  1.00  0.00     0.163 HD
ATOM     31  O   UNL     1      -1.151   1.113  11.914  1.00  0.00    -0.269 OA
BRANCH  29  32
ATOM     32  C   UNL     1       0.577   2.618  11.399  1.00  0.00     0.039 A 
ATOM     33  C   UNL     1       1.485   2.209  12.381  1.00  0.00     0.014 A 
ATOM     34  C   UNL     1       0.710   3.876  10.805  1.00  0.00     0.014 A 
ATOM     35  C   UNL     1       2.556   3.038  12.727  1.00  0.00     0.010 A 
ATOM     36  C   UNL     1       1.810   4.676  11.109  1.00  0.00     0.010 A 
ATOM     37  C   UNL     1       2.742   4.267  12.075  1.00  0.00    -0.014 A 
BRANCH  37  38
ATOM     38  C   UNL     1       3.897   5.143  12.397  1.00  0.00     0.031 A 
ATOM     39  C   UNL     1       3.673   6.485  13.039  1.00  0.00     0.074 A 
ATOM     40  C   UNL     1       5.143   4.757  12.059  1.00  0.00     0.049 A 
ATOM     41  N   UNL     1       4.541   7.421  13.326  1.00  0.00    -0.248 NA
ATOM     42  C   UNL     1       2.284   6.829  13.383  1.00  0.00     0.031 C 
ATOM     43  C   UNL     1       5.488   3.494  11.403  1.00  0.00     0.029 A 
ATOM     44  N   UNL     1       6.350   5.391  12.212  1.00  0.00    -0.354 N 
ATOM     45  C   UNL     1       3.805   8.467  13.869  1.00  0.00     0.074 A 
ATOM     46  C   UNL     1       2.414   8.070  13.827  1.00  0.00     0.031 C 
ATOM     47  C   UNL     1       6.819   3.438  11.230  1.00  0.00     0.029 A 
ATOM     48  C   UNL     1       7.418   4.671  11.731  1.00  0.00     0.049 A 
ATOM     49  H   UNL     1       6.442   6.279  12.628  1.00  0.00     0.167 HD
ATOM     50  C   UNL     1       4.249   9.643  14.376  1.00  0.00     0.037 A 
ATOM     51  C   UNL     1       8.730   4.973  11.694  1.00  0.00     0.037 A 
ATOM     52  C   UNL     1       5.636  10.026  14.435  1.00  0.00     0.049 A 
ATOM     53  C   UNL     1       9.200   6.285  12.258  1.00  0.00     0.074 A 
ATOM     54  C   UNL     1       6.191  11.179  14.964  1.00  0.00     0.029 A 
ATOM     55  N   UNL     1       6.688   9.262  13.952  1.00  0.00    -0.354 N 
ATOM     56  N   UNL     1       8.494   7.247  12.803  1.00  0.00    -0.248 NA
ATOM     57  C   UNL     1      10.644   6.552  12.207  1.00  0.00     0.031 C 
ATOM     58  C   UNL     1       7.576  11.124  14.774  1.00  0.00     0.029 A 
ATOM     59  C   UNL     1       7.888   9.921  14.161  1.00  0.00     0.049 A 
ATOM     60  H   UNL     1       6.595   8.381  13.523  1.00  0.00     0.167 HD
ATOM     61  C   UNL     1       9.410   8.221  13.186  1.00  0.00     0.074 A 
ATOM     62  C   UNL     1      10.721   7.729  12.814  1.00  0.00     0.031 C 
ATOM     63  C   UNL     1       9.186   9.412  13.793  1.00  0.00     0.037 A 
BRANCH  50  64
ATOM     64  C   UNL     1       3.215  10.597  14.908  1.00  0.00     0.058 A 
ATOM     65  C   UNL     1       2.518  10.334  16.099  1.00  0.00     0.135 A 
ATOM     66  C   UNL     1       2.917  11.787  14.225  1.00  0.00     0.135 A 
ATOM     67  F   UNL     1       2.754   9.204  16.784  1.00  0.00    -0.206 F 
ATOM     68  C   UNL     1       1.533  11.195  16.571  1.00  0.00     0.059 A 
ATOM     69  C   UNL     1       1.953  12.676  14.693  1.00  0.00     0.059 A 
ATOM     70  F   UNL     1       3.555  12.089  13.083  1.00  0.00    -0.206 F 
ATOM     71  C   UNL     1       1.252  12.360  15.856  1.00  0.00     0.060 A 
BRANCH  71  72
ATOM     72  S   UNL     1      -0.047  13.456  16.465  1.00  0.00     0.124 S 
ATOM     73  O   UNL     1      -1.249  12.731  16.063  1.00  0.00    -0.237 OA
ATOM     74  O   UNL     1       0.218  13.494  17.899  1.00  0.00    -0.237 OA
ATOM     75  O   UNL     1       0.201  14.705  15.752  1.00  0.00    -0.744 OA
ENDBRANCH  71  72
ENDBRANCH  50  64
BRANCH  51  76
ATOM     76  C   UNL     1       9.698   3.994  11.135  1.00  0.00     0.058 A 
ATOM     77  C   UNL     1      10.560   3.279  11.979  1.00  0.00     0.135 A 
ATOM     78  C   UNL     1       9.766   3.736   9.758  1.00  0.00     0.135 A 
ATOM     79  F   UNL     1      10.535   3.497  13.303  1.00  0.00    -0.206 F 
ATOM     80  C   UNL     1      11.464   2.348  11.479  1.00  0.00     0.059 A 
ATOM     81  C   UNL     1      10.648   2.794   9.235  1.00  0.00     0.059 A 
ATOM     82  F   UNL     1       8.950   4.382   8.911  1.00  0.00    -0.206 F 
ATOM     83  C   UNL     1      11.498   2.111  10.104  1.00  0.00     0.060 A 
BRANCH  83  84
ATOM     84  S   UNL     1      12.632   0.856   9.469  1.00  0.00     0.124 S 
ATOM     85  O   UNL     1      13.912   1.550   9.552  1.00  0.00    -0.237 OA
ATOM     86  O   UNL     1      12.437  -0.240  10.413  1.00  0.00    -0.237 OA
ATOM     87  O   UNL     1      12.133   0.607   8.120  1.00  0.00    -0.744 OA
ENDBRANCH  83  84
ENDBRANCH  51  76
BRANCH  63  88
ATOM     88  C   UNL     1      10.386  10.251  14.128  1.00  0.00     0.058 A 
ATOM     89  C   UNL     1      11.087  10.962  13.142  1.00  0.00     0.135 A 
ATOM     90  C   UNL     1      10.811  10.382  15.460  1.00  0.00     0.135 A 
ATOM     91  F   UNL     1      10.725  10.864  11.853  1.00  0.00    -0.206 F 
ATOM     92  C   UNL     1      12.180  11.760  13.462  1.00  0.00     0.059 A 
ATOM     93  C   UNL     1      11.887  11.192  15.806  1.00  0.00     0.059 A 
ATOM     94  F   UNL     1      10.168   9.729  16.441  1.00  0.00    -0.206 F 
ATOM     95  C   UNL     1      12.573  11.869  14.798  1.00  0.00     0.060 A 
BRANCH  95  96
ATOM     96  S   UNL     1      13.971  12.935  15.208  1.00  0.00     0.124 S 
ATOM     97  O   UNL     1      15.101  12.109  14.796  1.00  0.00    -0.237 OA
ATOM     98  O   UNL     1      13.717  14.117  14.389  1.00  0.00    -0.237 OA
ATOM     99  O   UNL     1      13.832  13.137  16.647  1.00  0.00    -0.744 OA
ENDBRANCH  95  96
ENDBRANCH  63  88
ENDBRANCH  37  38
ENDBRANCH  29  32
ENDBRANCH  27  28
ENDBRANCH  26  27
ENDBRANCH  25  26
ENDBRANCH   1  25
TORSDOF 20
