REMARK SMILES Cc1ccc(-c2cc(C(=O)NCCCCCCNC(=O)c3ccc(-c4c5nc(c(-c6c(F)cc(S(=O)(=O)[O-])cc6F)c6ccc([nH]6)c(-c6c(F)cc(S(=O)(=O)[O-])cc6F)c6nc(c(-c7c(F)cc(S(=O)(=O)[O-])cc7F)c7ccc4[nH]7)C=C6)C=C5)cc3)c3c(-c4cccc([N+](=O)[O-])c4)[nH]nc3n2)cc1
REMARK SMILES IDX 15 1 14 2 13 3 12 4 11 5 9 6 10 7 8 9 6 10 7 11 101 12
REMARK SMILES IDX 100 13 87 14 99 15 88 16 98 17 5 19 1 20 2 21 3 22 103 23
REMARK SMILES IDX 4 24 102 25 89 26 90 27 97 28 91 29 93 30 92 31 94 32 95 33
REMARK SMILES IDX 96 34 16 35 17 36 18 37 19 38 20 40 21 41 22 42 86 43 23 44
REMARK SMILES IDX 85 45 24 46 25 47 26 48 79 49 27 50 84 51 78 52 80 53 28 54
REMARK SMILES IDX 83 55 77 56 76 57 29 59 63 60 42 61 62 62 43 63 46 64 61 65
REMARK SMILES IDX 81 66 44 67 45 68 60 70 82 71 47 72 30 73 31 74 40 75 32 76
REMARK SMILES IDX 33 77 39 78 41 79 34 80 35 81 36 82 37 83 38 84 64 85 65 86
REMARK SMILES IDX 74 87 66 88 67 89 73 90 75 91 68 92 69 93 70 94 71 95 72 96
REMARK SMILES IDX 48 97 49 98 58 99 50 100 51 101 57 102 59 103 52 104 53 105
REMARK SMILES IDX 54 106 55 107 56 108
REMARK H PARENT 11 8 98 18 18 39 80 58 46 69
REMARK Flexibility Score: inf
ROOT
ATOM      1  C   UNL     1      -3.533   3.736  -6.250  1.00  0.00     0.002 C 
ENDROOT
BRANCH   1   2
ATOM      2  C   UNL     1      -3.638   2.228  -5.969  1.00  0.00     0.002 C 
BRANCH   2   3
ATOM      3  C   UNL     1      -3.153   1.750  -4.591  1.00  0.00     0.021 C 
BRANCH   3   4
ATOM      4  C   UNL     1      -3.748   2.512  -3.407  1.00  0.00     0.116 C 
BRANCH   4   5
ATOM      5  N   UNL     1      -5.146   2.187  -3.207  1.00  0.00    -0.352 N 
ATOM      6  C   UNL     1      -5.881   1.496  -2.284  1.00  0.00     0.252 C 
ATOM      7  O   UNL     1      -7.089   1.689  -2.385  1.00  0.00    -0.269 OA
ATOM      8  H   UNL     1      -5.713   2.560  -3.920  1.00  0.00     0.163 HD
BRANCH   6   9
ATOM      9  C   UNL     1      -5.328   0.638  -1.202  1.00  0.00     0.055 A 
ATOM     10  C   UNL     1      -3.406  -0.261   0.101  1.00  0.00     0.074 A 
ATOM     11  C   UNL     1      -3.966   0.345  -1.056  1.00  0.00     0.043 A 
ATOM     12  N   UNL     1      -4.103  -0.758   1.153  1.00  0.00    -0.226 NA
ATOM     13  C   UNL     1      -5.442  -0.630   0.996  1.00  0.00     0.182 A 
ATOM     14  C   UNL     1      -6.043   0.040  -0.137  1.00  0.00     0.059 A 
ATOM     15  N   UNL     1      -6.356  -1.073   1.859  1.00  0.00    -0.154 NA
ATOM     16  C   UNL     1      -7.409  -0.095   0.079  1.00  0.00     0.076 A 
ATOM     17  N   UNL     1      -7.518  -0.751   1.281  1.00  0.00    -0.275 N 
ATOM     18  H   UNL     1      -8.388  -0.969   1.687  1.00  0.00     0.190 HD
BRANCH  10  19
ATOM     19  C   UNL     1      -1.940  -0.266   0.233  1.00  0.00     0.000 A 
ATOM     20  C   UNL     1       2.381  -0.176   0.098  1.00  0.00     0.044 C 
ATOM     21  C   UNL     1       0.885  -0.200   0.199  1.00  0.00    -0.051 A 
ATOM     22  C   UNL     1       0.198  -1.421   0.233  1.00  0.00     0.004 A 
ATOM     23  C   UNL     1       0.155   0.990   0.230  1.00  0.00     0.004 A 
ATOM     24  C   UNL     1      -1.202  -1.454   0.258  1.00  0.00     0.010 A 
ATOM     25  C   UNL     1      -1.240   0.955   0.251  1.00  0.00     0.010 A 
ENDBRANCH  10  19
BRANCH  16  26
ATOM     26  C   UNL     1      -8.603   0.231  -0.686  1.00  0.00     0.007 A 
ATOM     27  C   UNL     1      -9.456   1.259  -0.258  1.00  0.00     0.011 A 
ATOM     28  C   UNL     1      -8.852  -0.415  -1.905  1.00  0.00     0.096 A 
ATOM     29  C   UNL     1     -10.515   1.683  -1.065  1.00  0.00     0.008 A 
ATOM     30  C   UNL     1      -9.890   0.043  -2.725  1.00  0.00     0.270 A 
ATOM     31  C   UNL     1     -10.726   1.088  -2.309  1.00  0.00     0.085 A 
BRANCH  30  32
ATOM     32  N   UNL     1     -10.069  -0.542  -4.059  1.00  0.00     0.062 N 
ATOM     33  O   UNL     1     -10.950  -0.059  -4.786  1.00  0.00    -0.258 OA
ATOM     34  O   UNL     1      -9.352  -1.504  -4.370  1.00  0.00    -0.258 OA
ENDBRANCH  30  32
ENDBRANCH  16  26
ENDBRANCH   6   9
ENDBRANCH   4   5
ENDBRANCH   3   4
ENDBRANCH   2   3
ENDBRANCH   1   2
BRANCH   1  35
ATOM     35  C   UNL     1      -2.201   4.405  -5.906  1.00  0.00     0.021 C 
BRANCH  35  36
ATOM     36  C   UNL     1      -1.027   3.878  -6.721  1.00  0.00     0.116 C 
BRANCH  36  37
ATOM     37  N   UNL     1      -0.302   4.939  -7.400  1.00  0.00    -0.352 N 
ATOM     38  C   UNL     1       0.951   4.859  -7.990  1.00  0.00     0.251 C 
ATOM     39  H   UNL     1      -0.751   5.814  -7.446  1.00  0.00     0.163 HD
ATOM     40  O   UNL     1       1.625   5.832  -8.234  1.00  0.00    -0.269 OA
BRANCH  38  41
ATOM     41  C   UNL     1       1.350   3.514  -8.457  1.00  0.00     0.039 A 
ATOM     42  C   UNL     1       1.265   3.272  -9.834  1.00  0.00     0.014 A 
ATOM     43  C   UNL     1       1.510   2.476  -7.547  1.00  0.00     0.014 A 
ATOM     44  C   UNL     1       1.190   1.960 -10.296  1.00  0.00     0.010 A 
ATOM     45  C   UNL     1       1.355   1.181  -8.001  1.00  0.00     0.010 A 
ATOM     46  C   UNL     1       1.160   0.921  -9.369  1.00  0.00    -0.014 A 
BRANCH  46  47
ATOM     47  C   UNL     1       0.864  -0.468  -9.707  1.00  0.00     0.031 A 
ATOM     48  C   UNL     1       1.926  -1.500  -9.610  1.00  0.00     0.074 A 
ATOM     49  C   UNL     1      -0.409  -0.845  -9.955  1.00  0.00     0.049 A 
ATOM     50  N   UNL     1       1.837  -2.697 -10.087  1.00  0.00    -0.248 NA
ATOM     51  C   UNL     1       3.216  -1.234  -8.984  1.00  0.00     0.031 C 
ATOM     52  C   UNL     1      -0.957  -2.194  -9.852  1.00  0.00     0.029 A 
ATOM     53  N   UNL     1      -1.431  -0.102 -10.540  1.00  0.00    -0.354 N 
ATOM     54  C   UNL     1       2.899  -3.429  -9.602  1.00  0.00     0.074 A 
ATOM     55  C   UNL     1       3.755  -2.456  -8.963  1.00  0.00     0.031 C 
ATOM     56  C   UNL     1      -2.107  -2.255 -10.537  1.00  0.00     0.029 A 
ATOM     57  C   UNL     1      -2.250  -0.999 -11.251  1.00  0.00     0.049 A 
ATOM     58  H   UNL     1      -1.558   0.872 -10.470  1.00  0.00     0.167 HD
ATOM     59  C   UNL     1       2.870  -4.792  -9.681  1.00  0.00     0.037 A 
ATOM     60  C   UNL     1      -2.410  -0.902 -12.605  1.00  0.00     0.037 A 
ATOM     61  C   UNL     1       1.700  -5.254 -10.427  1.00  0.00     0.049 A 
ATOM     62  C   UNL     1      -1.950  -2.119 -13.375  1.00  0.00     0.074 A 
ATOM     63  C   UNL     1       0.456  -5.717 -10.030  1.00  0.00     0.029 A 
ATOM     64  N   UNL     1       1.607  -5.000 -11.791  1.00  0.00    -0.354 N 
ATOM     65  N   UNL     1      -1.164  -3.040 -12.889  1.00  0.00    -0.248 NA
ATOM     66  C   UNL     1      -2.324  -2.387 -14.762  1.00  0.00     0.031 C 
ATOM     67  C   UNL     1      -0.404  -5.694 -11.155  1.00  0.00     0.029 A 
ATOM     68  C   UNL     1       0.320  -5.229 -12.239  1.00  0.00     0.049 A 
ATOM     69  H   UNL     1       2.354  -4.699 -12.358  1.00  0.00     0.167 HD
ATOM     70  C   UNL     1      -0.891  -3.973 -13.856  1.00  0.00     0.074 A 
ATOM     71  C   UNL     1      -1.669  -3.537 -15.001  1.00  0.00     0.031 C 
ATOM     72  C   UNL     1      -0.036  -5.015 -13.634  1.00  0.00     0.037 A 
BRANCH  59  73
ATOM     73  C   UNL     1       3.732  -5.700  -8.821  1.00  0.00     0.058 A 
ATOM     74  C   UNL     1       3.243  -6.946  -8.368  1.00  0.00     0.135 A 
ATOM     75  C   UNL     1       5.016  -5.372  -8.346  1.00  0.00     0.135 A 
ATOM     76  F   UNL     1       2.091  -7.457  -8.819  1.00  0.00    -0.206 F 
ATOM     77  C   UNL     1       3.906  -7.727  -7.418  1.00  0.00     0.059 A 
ATOM     78  C   UNL     1       5.674  -6.105  -7.351  1.00  0.00     0.059 A 
ATOM     79  F   UNL     1       5.709  -4.350  -8.866  1.00  0.00    -0.206 F 
ATOM     80  C   UNL     1       5.101  -7.276  -6.879  1.00  0.00     0.060 A 
BRANCH  80  81
ATOM     81  S   UNL     1       5.882  -8.235  -5.567  1.00  0.00     0.124 S 
ATOM     82  O   UNL     1       4.797  -8.375  -4.599  1.00  0.00    -0.237 OA
ATOM     83  O   UNL     1       6.268  -9.454  -6.269  1.00  0.00    -0.237 OA
ATOM     84  O   UNL     1       6.986  -7.383  -5.135  1.00  0.00    -0.744 OA
ENDBRANCH  80  81
ENDBRANCH  59  73
BRANCH  60  85
ATOM     85  C   UNL     1      -2.358   0.500 -13.100  1.00  0.00     0.058 A 
ATOM     86  C   UNL     1      -3.410   1.357 -12.725  1.00  0.00     0.135 A 
ATOM     87  C   UNL     1      -1.143   1.086 -13.480  1.00  0.00     0.135 A 
ATOM     88  F   UNL     1      -4.602   0.843 -12.376  1.00  0.00    -0.206 F 
ATOM     89  C   UNL     1      -3.210   2.720 -12.547  1.00  0.00     0.059 A 
ATOM     90  C   UNL     1      -0.923   2.456 -13.320  1.00  0.00     0.059 A 
ATOM     91  F   UNL     1      -0.111   0.319 -13.859  1.00  0.00    -0.206 F 
ATOM     92  C   UNL     1      -1.939   3.244 -12.774  1.00  0.00     0.060 A 
BRANCH  92  93
ATOM     93  S   UNL     1      -1.592   4.907 -12.153  1.00  0.00     0.124 S 
ATOM     94  O   UNL     1      -2.607   5.705 -12.831  1.00  0.00    -0.237 OA
ATOM     95  O   UNL     1      -1.785   4.731 -10.714  1.00  0.00    -0.237 OA
ATOM     96  O   UNL     1      -0.216   5.144 -12.573  1.00  0.00    -0.744 OA
ENDBRANCH  92  93
ENDBRANCH  60  85
BRANCH  72  97
ATOM     97  C   UNL     1       0.481  -5.983 -14.675  1.00  0.00     0.058 A 
ATOM     98  C   UNL     1       0.669  -5.658 -16.029  1.00  0.00     0.135 A 
ATOM     99  C   UNL     1       0.943  -7.266 -14.290  1.00  0.00     0.135 A 
ATOM    100  F   UNL     1       0.382  -4.436 -16.499  1.00  0.00    -0.206 F 
ATOM    101  C   UNL     1       1.209  -6.559 -16.950  1.00  0.00     0.059 A 
ATOM    102  C   UNL     1       1.535  -8.160 -15.180  1.00  0.00     0.059 A 
ATOM    103  F   UNL     1       0.846  -7.694 -13.022  1.00  0.00    -0.206 F 
ATOM    104  C   UNL     1       1.640  -7.809 -16.517  1.00  0.00     0.060 A 
BRANCH 104 105
ATOM    105  S   UNL     1       2.404  -8.957 -17.679  1.00  0.00     0.124 S 
ATOM    106  O   UNL     1       1.264  -9.784 -18.064  1.00  0.00    -0.237 OA
ATOM    107  O   UNL     1       2.921  -8.075 -18.722  1.00  0.00    -0.237 OA
ATOM    108  O   UNL     1       3.422  -9.617 -16.868  1.00  0.00    -0.744 OA
ENDBRANCH 104 105
ENDBRANCH  72  97
ENDBRANCH  46  47
ENDBRANCH  38  41
ENDBRANCH  36  37
ENDBRANCH  35  36
ENDBRANCH   1  35
TORSDOF 19
