REMARK SMILES O=C(CC[C@@H]1CN(c2ccncc2)CC[C@@H]1[NH+]1CCOCC1)NCCCCCCNC(=O)c1ccc(-c2c3nc(c(-c4c(F)cc(S(=O)(=O)[O-])cc4F)c4ccc([nH]4)c(-c4c(F)cc(S(=O)(=O)[O-])cc4F)c4nc(c(-c5c(F)cc(S(=O)(=O)[O-])cc5F)c5ccc2[nH]5)C=C4)C=C3)cc1
REMARK SMILES IDX 26 1 25 2 24 3 23 4 1 5 2 6 3 8 4 9 5 10 6 11 16 12 7 13
REMARK SMILES IDX 15 14 14 15 17 16 18 17 22 18 19 20 21 21 20 22 8 23 9 24
REMARK SMILES IDX 13 25 10 26 12 27 11 28 27 29 28 30 29 31 30 32 31 33 32 35
REMARK SMILES IDX 33 36 34 37 98 38 35 39 97 40 36 41 37 42 38 43 91 44 39 45
REMARK SMILES IDX 96 46 90 47 92 48 40 49 95 50 89 51 88 52 41 54 75 55 54 56
REMARK SMILES IDX 74 57 55 58 58 59 73 60 93 61 56 62 57 63 72 65 94 66 59 67
REMARK SMILES IDX 42 68 43 69 52 70 44 71 45 72 51 73 53 74 46 75 47 76 48 77
REMARK SMILES IDX 49 78 50 79 76 80 77 81 86 82 78 83 79 84 85 85 87 86 80 87
REMARK SMILES IDX 81 88 82 89 83 90 84 91 60 92 61 93 70 94 62 95 63 96 69 97
REMARK SMILES IDX 71 98 64 99 65 100 66 101 67 102 68 103
REMARK H PARENT 23 7 17 19 30 34 92 53 58 64
REMARK Flexibility Score: inf
ROOT
ATOM      1  C   UNL     1      10.698  -2.905   1.536  1.00  0.00     0.002 C 
ENDROOT
BRANCH   1   2
ATOM      2  C   UNL     1      10.113  -4.141   0.784  1.00  0.00     0.021 C 
BRANCH   2   3
ATOM      3  C   UNL     1       8.663  -4.410   0.221  1.00  0.00     0.116 C 
BRANCH   3   4
ATOM      4  N   UNL     1       7.879  -3.297  -0.341  1.00  0.00    -0.356 N 
ATOM      5  O   UNL     1       6.123  -4.496  -1.229  1.00  0.00    -0.275 OA
ATOM      6  C   UNL     1       6.618  -3.400  -0.959  1.00  0.00     0.220 C 
ATOM      7  H   UNL     1       8.274  -2.397  -0.280  1.00  0.00     0.163 HD
BRANCH   6   8
ATOM      8  C   UNL     1       5.899  -2.053  -1.436  1.00  0.00     0.100 C 
BRANCH   8   9
ATOM      9  C   UNL     1       4.480  -1.526  -0.934  1.00  0.00     0.021 C 
BRANCH   9  10
ATOM     10  C   UNL     1       4.157  -0.510   0.291  1.00  0.00     0.067 C 
ATOM     11  C   UNL     1       4.767   0.935   0.292  1.00  0.00     0.126 C 
ATOM     12  C   UNL     1       4.290  -1.242   1.630  1.00  0.00     0.190 C 
ATOM     13  N   UNL     1       4.739   1.607   1.627  1.00  0.00    -0.371 N 
ATOM     14  C   UNL     1       4.097  -0.396   2.888  1.00  0.00     0.087 C 
ATOM     15  C   UNL     1       4.903   0.877   2.892  1.00  0.00     0.122 C 
BRANCH  12  16
ATOM     16  N   UNL     1       5.576  -1.867   1.662  1.00  0.00    -0.328 N 
ATOM     17  C   UNL     1       5.660  -3.188   2.257  1.00  0.00     0.291 C 
ATOM     18  C   UNL     1       6.746  -1.059   1.440  1.00  0.00     0.291 C 
ATOM     19  H   UNL     1       5.690  -2.225   0.714  1.00  0.00     0.348 HD
ATOM     20  C   UNL     1       6.865  -3.324   3.169  1.00  0.00     0.221 C 
ATOM     21  C   UNL     1       7.876  -1.370   2.354  1.00  0.00     0.221 C 
ATOM     22  O   UNL     1       8.012  -2.772   2.534  1.00  0.00    -0.370 OA
ENDBRANCH  12  16
BRANCH  13  23
ATOM     23  C   UNL     1       5.215   2.917   1.806  1.00  0.00     0.040 A 
ATOM     24  C   UNL     1       6.572   3.251   1.777  1.00  0.00     0.046 A 
ATOM     25  C   UNL     1       4.325   3.864   2.320  1.00  0.00     0.046 A 
ATOM     26  C   UNL     1       6.967   4.488   2.281  1.00  0.00     0.113 A 
ATOM     27  C   UNL     1       4.812   5.069   2.798  1.00  0.00     0.113 A 
ATOM     28  N   UNL     1       6.117   5.406   2.789  1.00  0.00    -0.265 NA
ENDBRANCH  13  23
ENDBRANCH   9  10
ENDBRANCH   8   9
ENDBRANCH   6   8
ENDBRANCH   3   4
ENDBRANCH   2   3
ENDBRANCH   1   2
BRANCH   1  29
ATOM     29  C   UNL     1      10.647  -2.487   3.037  1.00  0.00     0.002 C 
BRANCH  29  30
ATOM     30  C   UNL     1      10.372  -3.463   4.180  1.00  0.00     0.021 C 
BRANCH  30  31
ATOM     31  C   UNL     1      11.341  -3.186   5.328  1.00  0.00     0.116 C 
BRANCH  31  32
ATOM     32  N   UNL     1      11.320  -1.814   5.857  1.00  0.00    -0.352 N 
ATOM     33  C   UNL     1      12.134  -1.297   6.861  1.00  0.00     0.251 C 
ATOM     34  H   UNL     1      10.662  -1.198   5.461  1.00  0.00     0.163 HD
ATOM     35  O   UNL     1      12.023  -0.167   7.275  1.00  0.00    -0.269 OA
BRANCH  33  36
ATOM     36  C   UNL     1      13.112  -2.243   7.444  1.00  0.00     0.039 A 
ATOM     37  C   UNL     1      12.934  -2.671   8.760  1.00  0.00     0.014 A 
ATOM     38  C   UNL     1      13.992  -2.892   6.584  1.00  0.00     0.014 A 
ATOM     39  C   UNL     1      13.554  -3.851   9.173  1.00  0.00     0.010 A 
ATOM     40  C   UNL     1      14.473  -4.137   6.947  1.00  0.00     0.010 A 
ATOM     41  C   UNL     1      14.269  -4.627   8.248  1.00  0.00    -0.014 A 
BRANCH  41  42
ATOM     42  C   UNL     1      14.876  -5.931   8.610  1.00  0.00     0.031 A 
ATOM     43  C   UNL     1      16.362  -6.099   8.429  1.00  0.00     0.074 A 
ATOM     44  C   UNL     1      14.104  -6.969   8.994  1.00  0.00     0.049 A 
ATOM     45  N   UNL     1      17.088  -7.180   8.512  1.00  0.00    -0.248 NA
ATOM     46  C   UNL     1      17.123  -4.897   8.037  1.00  0.00     0.031 C 
ATOM     47  C   UNL     1      12.643  -6.947   9.132  1.00  0.00     0.029 A 
ATOM     48  N   UNL     1      14.441  -8.256   9.330  1.00  0.00    -0.354 N 
ATOM     49  C   UNL     1      18.368  -6.798   8.128  1.00  0.00     0.074 A 
ATOM     50  C   UNL     1      18.309  -5.408   7.748  1.00  0.00     0.031 C 
ATOM     51  C   UNL     1      12.219  -8.151   9.556  1.00  0.00     0.029 A 
ATOM     52  C   UNL     1      13.367  -9.041   9.685  1.00  0.00     0.049 A 
ATOM     53  H   UNL     1      15.368  -8.588   9.319  1.00  0.00     0.167 HD
ATOM     54  C   UNL     1      19.502  -7.532   8.132  1.00  0.00     0.037 A 
ATOM     55  C   UNL     1      13.325 -10.333  10.070  1.00  0.00     0.037 A 
ATOM     56  C   UNL     1      19.567  -8.878   8.625  1.00  0.00     0.049 A 
ATOM     57  C   UNL     1      14.619 -11.103  10.149  1.00  0.00     0.074 A 
ATOM     58  C   UNL     1      20.681  -9.678   8.793  1.00  0.00     0.029 A 
ATOM     59  N   UNL     1      18.471  -9.610   9.055  1.00  0.00    -0.354 N 
ATOM     60  N   UNL     1      15.835 -10.702   9.858  1.00  0.00    -0.248 NA
ATOM     61  C   UNL     1      14.542 -12.494  10.616  1.00  0.00     0.031 C 
ATOM     62  C   UNL     1      20.255 -10.908   9.302  1.00  0.00     0.029 A 
ATOM     63  C   UNL     1      18.881 -10.858   9.484  1.00  0.00     0.049 A 
ATOM     64  H   UNL     1      17.541  -9.290   9.055  1.00  0.00     0.167 HD
ATOM     65  C   UNL     1      16.668 -11.778  10.141  1.00  0.00     0.074 A 
ATOM     66  C   UNL     1      15.821 -12.845  10.632  1.00  0.00     0.031 C 
ATOM     67  C   UNL     1      18.013 -11.880  10.006  1.00  0.00     0.037 A 
BRANCH  54  68
ATOM     68  C   UNL     1      20.762  -6.887   7.633  1.00  0.00     0.058 A 
ATOM     69  C   UNL     1      21.409  -5.872   8.357  1.00  0.00     0.135 A 
ATOM     70  C   UNL     1      21.354  -7.320   6.436  1.00  0.00     0.135 A 
ATOM     71  F   UNL     1      20.871  -5.403   9.493  1.00  0.00    -0.206 F 
ATOM     72  C   UNL     1      22.592  -5.299   7.904  1.00  0.00     0.059 A 
ATOM     73  C   UNL     1      22.552  -6.780   5.979  1.00  0.00     0.059 A 
ATOM     74  F   UNL     1      20.770  -8.279   5.701  1.00  0.00    -0.206 F 
ATOM     75  C   UNL     1      23.159  -5.765   6.717  1.00  0.00     0.060 A 
BRANCH  75  76
ATOM     76  S   UNL     1      24.720  -5.044   6.170  1.00  0.00     0.124 S 
ATOM     77  O   UNL     1      24.283  -3.740   5.681  1.00  0.00    -0.237 OA
ATOM     78  O   UNL     1      25.505  -5.028   7.400  1.00  0.00    -0.237 OA
ATOM     79  O   UNL     1      25.184  -5.975   5.146  1.00  0.00    -0.744 OA
ENDBRANCH  75  76
ENDBRANCH  54  68
BRANCH  55  80
ATOM     80  C   UNL     1      12.036 -10.980  10.441  1.00  0.00     0.058 A 
ATOM     81  C   UNL     1      11.770 -11.342  11.772  1.00  0.00     0.135 A 
ATOM     82  C   UNL     1      11.062 -11.286   9.479  1.00  0.00     0.135 A 
ATOM     83  F   UNL     1      12.670 -11.074  12.731  1.00  0.00    -0.206 F 
ATOM     84  C   UNL     1      10.608 -12.019  12.129  1.00  0.00     0.059 A 
ATOM     85  C   UNL     1       9.880 -11.941   9.815  1.00  0.00     0.059 A 
ATOM     86  F   UNL     1      11.255 -10.944   8.195  1.00  0.00    -0.206 F 
ATOM     87  C   UNL     1       9.671 -12.321  11.140  1.00  0.00     0.060 A 
BRANCH  87  88
ATOM     88  S   UNL     1       8.163 -13.199  11.611  1.00  0.00     0.124 S 
ATOM     89  O   UNL     1       8.659 -14.558  11.788  1.00  0.00    -0.237 OA
ATOM     90  O   UNL     1       7.765 -12.500  12.829  1.00  0.00    -0.237 OA
ATOM     91  O   UNL     1       7.284 -12.990  10.464  1.00  0.00    -0.744 OA
ENDBRANCH  87  88
ENDBRANCH  55  80
BRANCH  67  92
ATOM     92  C   UNL     1      18.660 -13.159  10.447  1.00  0.00     0.058 A 
ATOM     93  C   UNL     1      18.584 -14.325   9.674  1.00  0.00     0.135 A 
ATOM     94  C   UNL     1      19.445 -13.185  11.612  1.00  0.00     0.135 A 
ATOM     95  F   UNL     1      17.843 -14.347   8.555  1.00  0.00    -0.206 F 
ATOM     96  C   UNL     1      19.257 -15.483  10.045  1.00  0.00     0.059 A 
ATOM     97  C   UNL     1      20.146 -14.324  11.989  1.00  0.00     0.059 A 
ATOM     98  F   UNL     1      19.558 -12.088  12.376  1.00  0.00    -0.206 F 
ATOM     99  C   UNL     1      20.040 -15.470  11.201  1.00  0.00     0.060 A 
BRANCH  99 100
ATOM    100  S   UNL     1      20.959 -16.960  11.640  1.00  0.00     0.124 S 
ATOM    101  O   UNL     1      19.899 -17.811  12.171  1.00  0.00    -0.237 OA
ATOM    102  O   UNL     1      21.520 -17.372  10.357  1.00  0.00    -0.237 OA
ATOM    103  O   UNL     1      21.932 -16.483  12.618  1.00  0.00    -0.744 OA
ENDBRANCH  99 100
ENDBRANCH  67  92
ENDBRANCH  41  42
ENDBRANCH  33  36
ENDBRANCH  31  32
ENDBRANCH  30  31
ENDBRANCH  29  30
ENDBRANCH   1  29
TORSDOF 20
