REMARK SMILES CC[N@H+](CC(C)(C)C(=O)NCCCCCCNC(=O)c1ccc(-c2c3nc(c(-c4c(F)cc(S(=O)(=O)[O-])cc4F)c4ccc([nH]4)c(-c4c(F)cc(S(=O)(=O)[O-])cc4F)c4nc(c(-c5c(F)cc(S(=O)(=O)[O-])cc5F)c5ccc2[nH]5)C=C4)C=C3)cc1)[C@H]1CC[NH2+]C1
REMARK SMILES IDX 13 1 12 2 11 3 10 4 8 5 9 6 5 8 6 9 7 10 4 11 3 12 2 14 1 15
REMARK SMILES IDX 86 16 87 17 90 18 88 19 89 20 14 23 15 24 16 25 17 26 18 27
REMARK SMILES IDX 19 29 20 30 21 31 85 32 22 33 84 34 23 35 24 36 25 37 78 38
REMARK SMILES IDX 26 39 83 40 77 41 79 42 27 43 82 44 76 45 75 46 28 48 62 49
REMARK SMILES IDX 41 50 61 51 42 52 45 53 60 54 80 55 43 56 44 57 59 59 81 60
REMARK SMILES IDX 46 61 29 62 30 63 39 64 31 65 32 66 38 67 40 68 33 69 34 70
REMARK SMILES IDX 35 71 36 72 37 73 63 74 64 75 73 76 65 77 66 78 72 79 74 80
REMARK SMILES IDX 67 81 68 82 69 83 70 84 71 85 47 86 48 87 57 88 49 89 50 90
REMARK SMILES IDX 56 91 58 92 51 93 52 94 53 95 54 96 55 97
REMARK H PARENT 10 7 3 13 89 21 89 22 17 28 79 47 45 58
REMARK Flexibility Score: inf
ROOT
ATOM      1  C   UNL     1       4.875   0.622   7.775  1.00  0.00     0.002 C 
ENDROOT
BRANCH   1   2
ATOM      2  C   UNL     1       5.799   0.612   6.549  1.00  0.00     0.021 C 
BRANCH   2   3
ATOM      3  C   UNL     1       5.192  -0.085   5.332  1.00  0.00     0.116 C 
BRANCH   3   4
ATOM      4  N   UNL     1       4.046   0.668   4.871  1.00  0.00    -0.355 N 
ATOM      5  C   UNL     1       3.980   1.572   3.861  1.00  0.00     0.231 C 
ATOM      6  O   UNL     1       3.286   2.571   4.076  1.00  0.00    -0.274 OA
ATOM      7  H   UNL     1       3.204   0.503   5.353  1.00  0.00     0.163 HD
BRANCH   5   8
ATOM      8  C   UNL     1       4.743   1.367   2.543  1.00  0.00     0.092 C 
ATOM      9  C   UNL     1       4.787  -0.093   2.060  1.00  0.00     0.027 C 
ATOM     10  C   UNL     1       6.172   1.920   2.739  1.00  0.00     0.027 C 
BRANCH   8  11
ATOM     11  C   UNL     1       4.075   2.237   1.425  1.00  0.00     0.279 C 
BRANCH  11  12
ATOM     12  N   UNL     1       2.806   1.783   0.787  1.00  0.00    -0.327 N 
ATOM     13  H   UNL     1       2.929   0.806   0.521  1.00  0.00     0.348 HD
BRANCH  12  14
ATOM     14  C   UNL     1       1.672   1.811   1.730  1.00  0.00     0.259 C 
ATOM     15  C   UNL     1       0.377   1.179   1.220  1.00  0.00     0.071 C 
ENDBRANCH  12  14
BRANCH  12  16
ATOM     16  C   UNL     1       2.529   2.535  -0.457  1.00  0.00     0.245 C 
ATOM     17  C   UNL     1       2.934   4.009  -0.547  1.00  0.00     0.132 C 
ATOM     18  C   UNL     1       3.203   1.913  -1.697  1.00  0.00     0.326 C 
ATOM     19  C   UNL     1       2.970   4.233  -2.045  1.00  0.00     0.267 C 
ATOM     20  N   UNL     1       3.606   3.024  -2.586  1.00  0.00    -0.341 N 
ATOM     21  H   UNL     1       4.620   3.127  -2.585  1.00  0.00     0.346 HD
ATOM     22  H   UNL     1       3.318   2.852  -3.549  1.00  0.00     0.346 HD
ENDBRANCH  12  16
ENDBRANCH  11  12
ENDBRANCH   8  11
ENDBRANCH   5   8
ENDBRANCH   3   4
ENDBRANCH   2   3
ENDBRANCH   1   2
BRANCH   1  23
ATOM     23  C   UNL     1       4.365  -0.760   8.196  1.00  0.00     0.002 C 
BRANCH  23  24
ATOM     24  C   UNL     1       5.463  -1.805   8.397  1.00  0.00     0.021 C 
BRANCH  24  25
ATOM     25  C   UNL     1       6.530  -1.397   9.404  1.00  0.00     0.116 C 
BRANCH  25  26
ATOM     26  N   UNL     1       5.973  -1.224  10.735  1.00  0.00    -0.352 N 
ATOM     27  C   UNL     1       6.381  -1.796  11.912  1.00  0.00     0.251 C 
ATOM     28  H   UNL     1       5.202  -0.615  10.800  1.00  0.00     0.163 HD
ATOM     29  O   UNL     1       5.670  -1.726  12.912  1.00  0.00    -0.269 OA
BRANCH  27  30
ATOM     30  C   UNL     1       7.673  -2.510  11.957  1.00  0.00     0.039 A 
ATOM     31  C   UNL     1       7.739  -3.753  12.586  1.00  0.00     0.014 A 
ATOM     32  C   UNL     1       8.811  -1.952  11.367  1.00  0.00     0.014 A 
ATOM     33  C   UNL     1       8.943  -4.460  12.585  1.00  0.00     0.010 A 
ATOM     34  C   UNL     1       9.985  -2.694  11.293  1.00  0.00     0.010 A 
ATOM     35  C   UNL     1      10.068  -3.948  11.915  1.00  0.00    -0.014 A 
BRANCH  35  36
ATOM     36  C   UNL     1      11.348  -4.698  11.877  1.00  0.00     0.031 A 
ATOM     37  C   UNL     1      12.579  -4.114  12.518  1.00  0.00     0.074 A 
ATOM     38  C   UNL     1      11.416  -5.874  11.223  1.00  0.00     0.049 A 
ATOM     39  N   UNL     1      13.800  -4.582  12.541  1.00  0.00    -0.248 NA
ATOM     40  C   UNL     1      12.421  -2.818  13.198  1.00  0.00     0.031 C 
ATOM     41  C   UNL     1      10.301  -6.522  10.528  1.00  0.00     0.029 A 
ATOM     42  N   UNL     1      12.469  -6.733  11.030  1.00  0.00    -0.354 N 
ATOM     43  C   UNL     1      14.554  -3.637  13.227  1.00  0.00     0.074 A 
ATOM     44  C   UNL     1      13.669  -2.539  13.545  1.00  0.00     0.031 C 
ATOM     45  C   UNL     1      10.722  -7.688  10.012  1.00  0.00     0.029 A 
ATOM     46  C   UNL     1      12.144  -7.851  10.300  1.00  0.00     0.049 A 
ATOM     47  H   UNL     1      13.373  -6.564  11.383  1.00  0.00     0.167 HD
ATOM     48  C   UNL     1      15.860  -3.692  13.585  1.00  0.00     0.037 A 
ATOM     49  C   UNL     1      12.907  -8.888   9.902  1.00  0.00     0.037 A 
ATOM     50  C   UNL     1      16.729  -4.798  13.278  1.00  0.00     0.049 A 
ATOM     51  C   UNL     1      14.360  -8.918  10.293  1.00  0.00     0.074 A 
ATOM     52  C   UNL     1      18.056  -4.972  13.630  1.00  0.00     0.029 A 
ATOM     53  N   UNL     1      16.361  -5.916  12.543  1.00  0.00    -0.354 N 
ATOM     54  N   UNL     1      15.045  -8.042  10.989  1.00  0.00    -0.248 NA
ATOM     55  C   UNL     1      15.143 -10.080   9.852  1.00  0.00     0.031 C 
ATOM     56  C   UNL     1      18.504  -6.170  13.064  1.00  0.00     0.029 A 
ATOM     57  C   UNL     1      17.440  -6.774  12.413  1.00  0.00     0.049 A 
ATOM     58  H   UNL     1      15.464  -6.076  12.169  1.00  0.00     0.167 HD
ATOM     59  C   UNL     1      16.329  -8.565  11.101  1.00  0.00     0.074 A 
ATOM     60  C   UNL     1      16.322  -9.836  10.406  1.00  0.00     0.031 C 
ATOM     61  C   UNL     1      17.414  -8.043  11.727  1.00  0.00     0.037 A 
BRANCH  48  62
ATOM     62  C   UNL     1      16.422  -2.522  14.348  1.00  0.00     0.058 A 
ATOM     63  C   UNL     1      16.018  -2.233  15.662  1.00  0.00     0.135 A 
ATOM     64  C   UNL     1      17.393  -1.689  13.767  1.00  0.00     0.135 A 
ATOM     65  F   UNL     1      15.083  -2.985  16.264  1.00  0.00    -0.206 F 
ATOM     66  C   UNL     1      16.526  -1.141  16.358  1.00  0.00     0.059 A 
ATOM     67  C   UNL     1      17.940  -0.611  14.456  1.00  0.00     0.059 A 
ATOM     68  F   UNL     1      17.817  -1.917  12.514  1.00  0.00    -0.206 F 
ATOM     69  C   UNL     1      17.486  -0.334  15.745  1.00  0.00     0.060 A 
BRANCH  69  70
ATOM     70  S   UNL     1      18.130   1.083  16.659  1.00  0.00     0.124 S 
ATOM     71  O   UNL     1      16.983   1.986  16.641  1.00  0.00    -0.237 OA
ATOM     72  O   UNL     1      18.453   0.496  17.956  1.00  0.00    -0.237 OA
ATOM     73  O   UNL     1      19.276   1.510  15.864  1.00  0.00    -0.744 OA
ENDBRANCH  69  70
ENDBRANCH  48  62
BRANCH  49  74
ATOM     74  C   UNL     1      12.303  -9.996   9.113  1.00  0.00     0.058 A 
ATOM     75  C   UNL     1      12.139 -11.272   9.671  1.00  0.00     0.135 A 
ATOM     76  C   UNL     1      11.865  -9.800   7.794  1.00  0.00     0.135 A 
ATOM     77  F   UNL     1      12.547 -11.512  10.927  1.00  0.00    -0.206 F 
ATOM     78  C   UNL     1      11.580 -12.320   8.947  1.00  0.00     0.059 A 
ATOM     79  C   UNL     1      11.276 -10.824   7.058  1.00  0.00     0.059 A 
ATOM     80  F   UNL     1      11.982  -8.593   7.218  1.00  0.00    -0.206 F 
ATOM     81  C   UNL     1      11.147 -12.084   7.641  1.00  0.00     0.060 A 
BRANCH  81  82
ATOM     82  S   UNL     1      10.378 -13.438   6.726  1.00  0.00     0.124 S 
ATOM     83  O   UNL     1      11.522 -14.304   6.466  1.00  0.00    -0.237 OA
ATOM     84  O   UNL     1       9.402 -13.940   7.689  1.00  0.00    -0.237 OA
ATOM     85  O   UNL     1       9.810 -12.773   5.558  1.00  0.00    -0.744 OA
ENDBRANCH  81  82
ENDBRANCH  49  74
BRANCH  61  86
ATOM     86  C   UNL     1      18.674  -8.866  11.736  1.00  0.00     0.058 A 
ATOM     87  C   UNL     1      19.446  -9.058  10.579  1.00  0.00     0.135 A 
ATOM     88  C   UNL     1      19.142  -9.426  12.936  1.00  0.00     0.135 A 
ATOM     89  F   UNL     1      19.041  -8.550   9.404  1.00  0.00    -0.206 F 
ATOM     90  C   UNL     1      20.623  -9.799  10.607  1.00  0.00     0.059 A 
ATOM     91  C   UNL     1      20.333 -10.143  12.993  1.00  0.00     0.059 A 
ATOM     92  F   UNL     1      18.449  -9.264  14.074  1.00  0.00    -0.206 F 
ATOM     93  C   UNL     1      21.061 -10.335  11.820  1.00  0.00     0.060 A 
BRANCH  93  94
ATOM     94  S   UNL     1      22.607 -11.264  11.847  1.00  0.00     0.124 S 
ATOM     95  O   UNL     1      22.221 -12.498  11.171  1.00  0.00    -0.237 OA
ATOM     96  O   UNL     1      23.510 -10.390  11.105  1.00  0.00    -0.237 OA
ATOM     97  O   UNL     1      22.901 -11.395  13.271  1.00  0.00    -0.744 OA
ENDBRANCH  93  94
ENDBRANCH  61  86
ENDBRANCH  35  36
ENDBRANCH  27  30
ENDBRANCH  25  26
ENDBRANCH  24  25
ENDBRANCH  23  24
ENDBRANCH   1  23
TORSDOF 20
