REMARK SMILES C[C@H](NC(=O)c1cccc(NC(=O)c2ccccc2C(=O)NCCCCCCNC(=O)c2ccc(-c3c4nc(c(-c5c(F)cc(S(=O)(=O)[O-])cc5F)c5ccc([nH]5)c(-c5c(F)cc(S(=O)(=O)[O-])cc5F)c5nc(c(-c6c(F)cc(S(=O)(=O)[O-])cc6F)c6ccc3[nH]6)C=C5)C=C4)cc2)c1)c1ccccc1
REMARK SMILES IDX 24 1 23 2 22 3 20 4 21 5 19 7 14 8 15 9 16 10 18 11 17 12
REMARK SMILES IDX 12 13 11 14 13 16 10 17 6 18 7 19 98 20 8 21 9 22 4 23 3 24
REMARK SMILES IDX 5 26 2 27 1 28 99 29 100 30 104 31 101 32 103 33 102 34
REMARK SMILES IDX 25 35 26 36 27 37 28 38 29 39 30 40 31 42 32 43 33 44 97 45
REMARK SMILES IDX 34 46 96 47 35 48 36 49 37 50 90 51 38 52 95 53 89 54 91 55
REMARK SMILES IDX 39 56 94 57 88 58 87 59 40 61 74 62 53 63 73 64 54 65 57 66
REMARK SMILES IDX 72 67 92 68 55 69 56 70 71 72 93 73 58 74 41 75 42 76 51 77
REMARK SMILES IDX 43 78 44 79 50 80 52 81 45 82 46 83 47 84 48 85 49 86 75 87
REMARK SMILES IDX 76 88 85 89 77 90 78 91 84 92 86 93 79 94 80 95 81 96 82 97
REMARK SMILES IDX 83 98 59 99 60 100 69 101 61 102 62 103 68 104 70 105 63 106
REMARK SMILES IDX 64 107 65 108 66 109 67 110
REMARK H PARENT 22 6 11 15 3 25 29 41 91 60 57 71
REMARK Flexibility Score: inf
ROOT
ATOM      1  C   UNL     1       1.627   5.295   4.307  1.00  0.00     0.021 C 
ENDROOT
BRANCH   1   2
ATOM      2  C   UNL     1       2.026   5.666   2.882  1.00  0.00     0.116 C 
BRANCH   2   3
ATOM      3  N   UNL     1       0.963   5.537   1.909  1.00  0.00    -0.352 N 
ATOM      4  C   UNL     1       0.823   6.120   0.676  1.00  0.00     0.252 C 
ATOM      5  O   UNL     1      -0.200   5.869   0.035  1.00  0.00    -0.269 OA
ATOM      6  H   UNL     1       0.227   4.939   2.174  1.00  0.00     0.163 HD
BRANCH   4   7
ATOM      7  C   UNL     1       1.790   7.108   0.118  1.00  0.00     0.052 A 
ATOM      8  C   UNL     1       3.192   7.023   0.122  1.00  0.00     0.052 A 
ATOM      9  C   UNL     1       3.958   8.095  -0.381  1.00  0.00     0.014 A 
ATOM     10  C   UNL     1       3.351   9.186  -0.998  1.00  0.00     0.001 A 
ATOM     11  C   UNL     1       1.197   8.199  -0.555  1.00  0.00     0.014 A 
ATOM     12  C   UNL     1       1.968   9.220  -1.119  1.00  0.00     0.001 A 
BRANCH   8  13
ATOM     13  C   UNL     1       4.001   5.885   0.596  1.00  0.00     0.256 C 
ATOM     14  N   UNL     1       3.838   4.587   0.166  1.00  0.00    -0.322 N 
ATOM     15  H   UNL     1       4.424   3.941   0.622  1.00  0.00     0.170 HD
ATOM     16  O   UNL     1       4.850   6.125   1.458  1.00  0.00    -0.269 OA
BRANCH  14  17
ATOM     17  C   UNL     1       2.998   4.006  -0.798  1.00  0.00     0.042 A 
ATOM     18  C   UNL     1       1.714   2.053  -1.451  1.00  0.00     0.041 A 
ATOM     19  C   UNL     1       1.060   2.807  -2.426  1.00  0.00     0.014 A 
ATOM     20  C   UNL     1       2.728   2.635  -0.678  1.00  0.00     0.040 A 
ATOM     21  C   UNL     1       1.424   4.133  -2.635  1.00  0.00     0.003 A 
ATOM     22  C   UNL     1       2.405   4.722  -1.837  1.00  0.00     0.026 A 
BRANCH  18  23
ATOM     23  C   UNL     1       1.408   0.613  -1.408  1.00  0.00     0.251 C 
ATOM     24  N   UNL     1       0.694   0.011  -0.410  1.00  0.00    -0.346 N 
ATOM     25  H   UNL     1       0.518  -0.938  -0.607  1.00  0.00     0.164 HD
ATOM     26  O   UNL     1       1.783  -0.070  -2.361  1.00  0.00    -0.269 OA
BRANCH  24  27
ATOM     27  C   UNL     1       0.127   0.413   0.870  1.00  0.00     0.109 C 
ATOM     28  C   UNL     1       0.738   1.627   1.524  1.00  0.00     0.036 C 
BRANCH  27  29
ATOM     29  C   UNL     1      -1.391   0.421   0.911  1.00  0.00    -0.026 A 
ATOM     30  C   UNL     1      -2.140   1.611   0.916  1.00  0.00     0.006 A 
ATOM     31  C   UNL     1      -2.073  -0.794   1.090  1.00  0.00     0.006 A 
ATOM     32  C   UNL     1      -3.515   1.588   1.162  1.00  0.00     0.000 A 
ATOM     33  C   UNL     1      -3.450  -0.816   1.323  1.00  0.00     0.000 A 
ATOM     34  C   UNL     1      -4.167   0.376   1.374  1.00  0.00     0.000 A 
ENDBRANCH  27  29
ENDBRANCH  24  27
ENDBRANCH  18  23
ENDBRANCH  14  17
ENDBRANCH   8  13
ENDBRANCH   4   7
ENDBRANCH   2   3
ENDBRANCH   1   2
BRANCH   1  35
ATOM     35  C   UNL     1       1.269   3.823   4.531  1.00  0.00     0.002 C 
BRANCH  35  36
ATOM     36  C   UNL     1       2.285   2.800   4.016  1.00  0.00     0.002 C 
BRANCH  36  37
ATOM     37  C   UNL     1       3.698   2.852   4.564  1.00  0.00     0.021 C 
BRANCH  37  38
ATOM     38  C   UNL     1       3.796   2.855   6.075  1.00  0.00     0.116 C 
BRANCH  38  39
ATOM     39  N   UNL     1       3.112   1.732   6.699  1.00  0.00    -0.352 N 
ATOM     40  C   UNL     1       3.570   0.848   7.650  1.00  0.00     0.251 C 
ATOM     41  H   UNL     1       2.187   1.583   6.396  1.00  0.00     0.163 HD
ATOM     42  O   UNL     1       2.890  -0.111   7.976  1.00  0.00    -0.269 OA
BRANCH  40  43
ATOM     43  C   UNL     1       4.912   1.058   8.239  1.00  0.00     0.039 A 
ATOM     44  C   UNL     1       5.766  -0.037   8.384  1.00  0.00     0.014 A 
ATOM     45  C   UNL     1       5.340   2.337   8.597  1.00  0.00     0.014 A 
ATOM     46  C   UNL     1       7.077   0.169   8.818  1.00  0.00     0.010 A 
ATOM     47  C   UNL     1       6.674   2.554   8.912  1.00  0.00     0.010 A 
ATOM     48  C   UNL     1       7.554   1.471   9.044  1.00  0.00    -0.014 A 
BRANCH  48  49
ATOM     49  C   UNL     1       8.960   1.726   9.444  1.00  0.00     0.031 A 
ATOM     50  C   UNL     1       9.249   2.407  10.756  1.00  0.00     0.074 A 
ATOM     51  C   UNL     1       9.964   1.414   8.601  1.00  0.00     0.049 A 
ATOM     52  N   UNL     1      10.397   2.785  11.255  1.00  0.00    -0.248 NA
ATOM     53  C   UNL     1       8.091   2.741  11.604  1.00  0.00     0.031 C 
ATOM     54  C   UNL     1       9.801   0.814   7.273  1.00  0.00     0.029 A 
ATOM     55  N   UNL     1      11.321   1.567   8.728  1.00  0.00    -0.354 N 
ATOM     56  C   UNL     1      10.097   3.417  12.456  1.00  0.00     0.074 A 
ATOM     57  C   UNL     1       8.658   3.431  12.582  1.00  0.00     0.031 C 
ATOM     58  C   UNL     1      11.012   0.623   6.724  1.00  0.00     0.029 A 
ATOM     59  C   UNL     1      12.033   1.123   7.638  1.00  0.00     0.049 A 
ATOM     60  H   UNL     1      11.746   1.957   9.526  1.00  0.00     0.167 HD
ATOM     61  C   UNL     1      10.946   3.913  13.386  1.00  0.00     0.037 A 
ATOM     62  C   UNL     1      13.360   1.126   7.402  1.00  0.00     0.037 A 
ATOM     63  C   UNL     1      12.379   3.858  13.269  1.00  0.00     0.049 A 
ATOM     64  C   UNL     1      14.285   1.664   8.460  1.00  0.00     0.074 A 
ATOM     65  C   UNL     1      13.333   4.262  14.185  1.00  0.00     0.029 A 
ATOM     66  N   UNL     1      13.064   3.367  12.166  1.00  0.00    -0.354 N 
ATOM     67  N   UNL     1      13.988   2.186   9.627  1.00  0.00    -0.248 NA
ATOM     68  C   UNL     1      15.725   1.606   8.176  1.00  0.00     0.031 C 
ATOM     69  C   UNL     1      14.595   4.063  13.616  1.00  0.00     0.029 A 
ATOM     70  C   UNL     1      14.429   3.480  12.370  1.00  0.00     0.049 A 
ATOM     71  H   UNL     1      12.642   2.994  11.359  1.00  0.00     0.167 HD
ATOM     72  C   UNL     1      15.204   2.491  10.228  1.00  0.00     0.074 A 
ATOM     73  C   UNL     1      16.240   2.082   9.301  1.00  0.00     0.031 C 
ATOM     74  C   UNL     1      15.444   3.058  11.436  1.00  0.00     0.037 A 
BRANCH  61  75
ATOM     75  C   UNL     1      10.349   4.549  14.612  1.00  0.00     0.058 A 
ATOM     76  C   UNL     1       9.671   3.793  15.582  1.00  0.00     0.135 A 
ATOM     77  C   UNL     1      10.486   5.928  14.838  1.00  0.00     0.135 A 
ATOM     78  F   UNL     1       9.493   2.473  15.410  1.00  0.00    -0.206 F 
ATOM     79  C   UNL     1       9.125   4.385  16.717  1.00  0.00     0.059 A 
ATOM     80  C   UNL     1       9.976   6.537  15.981  1.00  0.00     0.059 A 
ATOM     81  F   UNL     1      11.122   6.700  13.943  1.00  0.00    -0.206 F 
ATOM     82  C   UNL     1       9.285   5.758  16.908  1.00  0.00     0.060 A 
BRANCH  82  83
ATOM     83  S   UNL     1       8.583   6.507  18.393  1.00  0.00     0.124 S 
ATOM     84  O   UNL     1       7.155   6.462  18.095  1.00  0.00    -0.237 OA
ATOM     85  O   UNL     1       9.039   5.602  19.443  1.00  0.00    -0.237 OA
ATOM     86  O   UNL     1       9.177   7.840  18.416  1.00  0.00    -0.744 OA
ENDBRANCH  82  83
ENDBRANCH  61  75
BRANCH  62  87
ATOM     87  C   UNL     1      13.891   0.581   6.123  1.00  0.00     0.058 A 
ATOM     88  C   UNL     1      14.626  -0.614   6.095  1.00  0.00     0.135 A 
ATOM     89  C   UNL     1      13.669   1.238   4.902  1.00  0.00     0.135 A 
ATOM     90  F   UNL     1      14.870  -1.278   7.235  1.00  0.00    -0.206 F 
ATOM     91  C   UNL     1      15.142  -1.127   4.909  1.00  0.00     0.059 A 
ATOM     92  C   UNL     1      14.149   0.730   3.699  1.00  0.00     0.059 A 
ATOM     93  F   UNL     1      12.955   2.374   4.870  1.00  0.00    -0.206 F 
ATOM     94  C   UNL     1      14.896  -0.447   3.714  1.00  0.00     0.060 A 
BRANCH  94  95
ATOM     95  S   UNL     1      15.537  -1.143   2.175  1.00  0.00     0.124 S 
ATOM     96  O   UNL     1      16.965  -0.877   2.305  1.00  0.00    -0.237 OA
ATOM     97  O   UNL     1      15.135  -2.542   2.281  1.00  0.00    -0.237 OA
ATOM     98  O   UNL     1      14.842  -0.374   1.146  1.00  0.00    -0.744 OA
ENDBRANCH  94  95
ENDBRANCH  62  87
BRANCH  74  99
ATOM     99  C   UNL     1      16.880   3.234  11.845  1.00  0.00     0.058 A 
ATOM    100  C   UNL     1      17.708   4.195  11.245  1.00  0.00     0.135 A 
ATOM    101  C   UNL     1      17.419   2.464  12.889  1.00  0.00     0.135 A 
ATOM    102  F   UNL     1      17.244   4.955  10.240  1.00  0.00    -0.206 F 
ATOM    103  C   UNL     1      19.029   4.367  11.646  1.00  0.00     0.059 A 
ATOM    104  C   UNL     1      18.726   2.640  13.328  1.00  0.00     0.059 A 
ATOM    105  F   UNL     1      16.665   1.540  13.506  1.00  0.00    -0.206 F 
ATOM    106  C   UNL     1      19.528   3.586  12.690  1.00  0.00     0.060 A 
BRANCH 106 107
ATOM    107  S   UNL     1      21.235   3.839  13.220  1.00  0.00     0.124 S 
ATOM    108  O   UNL     1      21.977   3.232  12.120  1.00  0.00    -0.237 OA
ATOM    109  O   UNL     1      21.319   5.293  13.316  1.00  0.00    -0.237 OA
ATOM    110  O   UNL     1      21.305   3.127  14.493  1.00  0.00    -0.744 OA
ENDBRANCH 106 107
ENDBRANCH  74  99
ENDBRANCH  48  49
ENDBRANCH  40  43
ENDBRANCH  38  39
ENDBRANCH  37  38
ENDBRANCH  36  37
ENDBRANCH  35  36
ENDBRANCH   1  35
TORSDOF 21
