REMARK SMILES NS(=O)(=O)c1ccc(-n2ccnc2-c2ccc(O)c(C(=O)NCCCCCCNC(=O)c3ccc(-c4c5nc(c(-c6c(F)cc(S(=O)(=O)[O-])cc6F)c6ccc([nH]6)c(-c6c(F)cc(S(=O)(=O)[O-])cc6F)c6nc(c(-c7c(F)cc(S(=O)(=O)[O-])cc7F)c7ccc4[nH]7)C=C6)C=C5)cc3)c2)cc1
REMARK SMILES IDX 25 1 24 2 23 3 22 4 20 5 21 6 19 8 14 9 15 10 98 11 16 12
REMARK SMILES IDX 17 13 13 14 9 15 10 16 11 17 12 18 8 19 5 20 6 21 100 22
REMARK SMILES IDX 7 23 99 24 2 25 3 26 4 27 1 28 18 31 26 33 27 34 28 35 29 36
REMARK SMILES IDX 30 37 31 39 32 40 33 41 97 42 34 43 96 44 35 45 36 46 37 47
REMARK SMILES IDX 90 48 38 49 95 50 89 51 91 52 39 53 94 54 88 55 87 56 40 58
REMARK SMILES IDX 74 59 53 60 73 61 54 62 57 63 72 64 92 65 55 66 56 67 71 69
REMARK SMILES IDX 93 70 58 71 41 72 42 73 51 74 43 75 44 76 50 77 52 78 45 79
REMARK SMILES IDX 46 80 47 81 48 82 49 83 75 84 76 85 85 86 77 87 78 88 84 89
REMARK SMILES IDX 86 90 79 91 80 92 81 93 82 94 83 95 59 96 60 97 69 98 61 99
REMARK SMILES IDX 62 100 68 101 70 102 63 103 64 104 65 105 66 106 67 107
REMARK H PARENT 22 7 1 29 1 30 18 32 29 38 91 57 57 68
REMARK Flexibility Score: inf
ROOT
ATOM      1  C   UNL     1      -3.173   2.484  -6.188  1.00  0.00     0.002 C 
ENDROOT
BRANCH   1   2
ATOM      2  C   UNL     1      -2.114   1.728  -6.984  1.00  0.00     0.021 C 
BRANCH   2   3
ATOM      3  C   UNL     1      -1.638   0.394  -6.423  1.00  0.00     0.116 C 
BRANCH   3   4
ATOM      4  N   UNL     1      -2.649  -0.651  -6.344  1.00  0.00    -0.352 N 
ATOM      5  C   UNL     1      -2.588  -2.010  -6.589  1.00  0.00     0.255 C 
ATOM      6  O   UNL     1      -3.619  -2.676  -6.461  1.00  0.00    -0.269 OA
ATOM      7  H   UNL     1      -3.538  -0.332  -6.066  1.00  0.00     0.163 HD
BRANCH   5   8
ATOM      8  C   UNL     1      -1.359  -2.716  -7.057  1.00  0.00     0.082 A 
ATOM      9  C   UNL     1       1.066  -2.728  -7.425  1.00  0.00     0.019 A 
ATOM     10  C   UNL     1       0.934  -3.873  -8.212  1.00  0.00     0.016 A 
ATOM     11  C   UNL     1      -0.085  -2.215  -6.804  1.00  0.00     0.029 A 
ATOM     12  C   UNL     1      -0.316  -4.487  -8.354  1.00  0.00     0.048 A 
ATOM     13  C   UNL     1      -1.454  -3.905  -7.790  1.00  0.00     0.128 A 
BRANCH   9  14
ATOM     14  C   UNL     1       2.330  -1.966  -7.379  1.00  0.00     0.144 A 
ATOM     15  N   UNL     1       2.752  -1.141  -6.332  1.00  0.00    -0.300 N 
ATOM     16  C   UNL     1       3.645  -0.246  -6.871  1.00  0.00     0.113 A 
ATOM     17  C   UNL     1       3.881  -0.689  -8.150  1.00  0.00     0.132 A 
ATOM     18  N   UNL     1       3.104  -1.778  -8.435  1.00  0.00    -0.236 NA
BRANCH  15  19
ATOM     19  C   UNL     1       2.304  -1.165  -4.986  1.00  0.00     0.047 A 
ATOM     20  C   UNL     1       1.183  -1.246  -2.445  1.00  0.00     0.082 A 
ATOM     21  C   UNL     1       1.480  -2.441  -3.103  1.00  0.00     0.024 A 
ATOM     22  C   UNL     1       1.463  -0.009  -3.038  1.00  0.00     0.024 A 
ATOM     23  C   UNL     1       2.035  -2.401  -4.378  1.00  0.00     0.028 A 
ATOM     24  C   UNL     1       2.047   0.034  -4.308  1.00  0.00     0.028 A 
BRANCH  20  25
ATOM     25  S   UNL     1       0.502  -1.325  -0.816  1.00  0.00     0.238 S 
ATOM     26  O   UNL     1       1.026  -2.509  -0.151  1.00  0.00    -0.207 OA
ATOM     27  O   UNL     1      -0.896  -1.024  -0.883  1.00  0.00    -0.207 OA
BRANCH  25  28
ATOM     28  N   UNL     1       1.235  -0.037  -0.026  1.00  0.00    -0.225 NA
ATOM     29  H   UNL     1       0.903   0.004   0.937  1.00  0.00     0.137 HD
ATOM     30  H   UNL     1       1.001   0.833  -0.504  1.00  0.00     0.137 HD
ENDBRANCH  25  28
ENDBRANCH  20  25
ENDBRANCH  15  19
ENDBRANCH   9  14
BRANCH  13  31
ATOM     31  O   UNL     1      -2.640  -4.557  -8.004  1.00  0.00    -0.507 OA
ATOM     32  H   UNL     1      -2.656  -5.351  -8.501  1.00  0.00     0.293 HD
ENDBRANCH  13  31
ENDBRANCH   5   8
ENDBRANCH   3   4
ENDBRANCH   2   3
ENDBRANCH   1   2
BRANCH   1  33
ATOM     33  C   UNL     1      -2.916   2.704  -4.690  1.00  0.00     0.002 C 
BRANCH  33  34
ATOM     34  C   UNL     1      -1.566   3.296  -4.263  1.00  0.00     0.021 C 
BRANCH  34  35
ATOM     35  C   UNL     1      -1.242   4.654  -4.863  1.00  0.00     0.116 C 
BRANCH  35  36
ATOM     36  N   UNL     1      -2.147   5.724  -4.434  1.00  0.00    -0.352 N 
ATOM     37  C   UNL     1      -2.122   7.061  -4.804  1.00  0.00     0.251 C 
ATOM     38  H   UNL     1      -2.860   5.462  -3.807  1.00  0.00     0.163 HD
ATOM     39  O   UNL     1      -2.673   7.916  -4.120  1.00  0.00    -0.269 OA
BRANCH  37  40
ATOM     40  C   UNL     1      -1.423   7.427  -6.050  1.00  0.00     0.039 A 
ATOM     41  C   UNL     1      -0.663   8.591  -6.192  1.00  0.00     0.014 A 
ATOM     42  C   UNL     1      -1.515   6.515  -7.092  1.00  0.00     0.014 A 
ATOM     43  C   UNL     1       0.055   8.777  -7.374  1.00  0.00     0.010 A 
ATOM     44  C   UNL     1      -0.615   6.567  -8.112  1.00  0.00     0.010 A 
ATOM     45  C   UNL     1       0.079   7.746  -8.325  1.00  0.00    -0.014 A 
BRANCH  45  46
ATOM     46  C   UNL     1       0.856   7.818  -9.552  1.00  0.00     0.031 A 
ATOM     47  C   UNL     1       2.308   8.050  -9.351  1.00  0.00     0.074 A 
ATOM     48  C   UNL     1       0.341   7.439 -10.745  1.00  0.00     0.049 A 
ATOM     49  N   UNL     1       2.977   9.122  -9.612  1.00  0.00    -0.248 NA
ATOM     50  C   UNL     1       3.081   7.032  -8.619  1.00  0.00     0.031 C 
ATOM     51  C   UNL     1      -0.982   6.870 -11.045  1.00  0.00     0.029 A 
ATOM     52  N   UNL     1       0.957   7.382 -11.953  1.00  0.00    -0.354 N 
ATOM     53  C   UNL     1       4.302   8.822  -9.316  1.00  0.00     0.074 A 
ATOM     54  C   UNL     1       4.270   7.629  -8.511  1.00  0.00     0.031 C 
ATOM     55  C   UNL     1      -0.974   6.312 -12.276  1.00  0.00     0.029 A 
ATOM     56  C   UNL     1       0.281   6.644 -12.921  1.00  0.00     0.049 A 
ATOM     57  H   UNL     1       1.815   7.829 -12.131  1.00  0.00     0.167 HD
ATOM     58  C   UNL     1       5.327   9.432  -9.976  1.00  0.00     0.037 A 
ATOM     59  C   UNL     1       0.743   6.320 -14.155  1.00  0.00     0.037 A 
ATOM     60  C   UNL     1       4.858  10.581 -10.714  1.00  0.00     0.049 A 
ATOM     61  C   UNL     1       1.832   7.288 -14.463  1.00  0.00     0.074 A 
ATOM     62  C   UNL     1       4.201  11.748 -10.372  1.00  0.00     0.029 A 
ATOM     63  N   UNL     1       4.670  10.436 -12.070  1.00  0.00    -0.354 N 
ATOM     64  N   UNL     1       1.631   8.572 -14.614  1.00  0.00    -0.248 NA
ATOM     65  C   UNL     1       3.188   6.912 -14.093  1.00  0.00     0.031 C 
ATOM     66  C   UNL     1       3.245  11.949 -11.412  1.00  0.00     0.029 A 
ATOM     67  C   UNL     1       3.431  10.948 -12.367  1.00  0.00     0.049 A 
ATOM     68  H   UNL     1       5.306  10.039 -12.708  1.00  0.00     0.167 HD
ATOM     69  C   UNL     1       2.692   9.183 -13.959  1.00  0.00     0.074 A 
ATOM     70  C   UNL     1       3.654   8.107 -13.716  1.00  0.00     0.031 C 
ATOM     71  C   UNL     1       2.570  10.430 -13.411  1.00  0.00     0.037 A 
BRANCH  58  72
ATOM     72  C   UNL     1       6.665   8.793 -10.260  1.00  0.00     0.058 A 
ATOM     73  C   UNL     1       7.712   9.588 -10.771  1.00  0.00     0.135 A 
ATOM     74  C   UNL     1       6.880   7.398 -10.310  1.00  0.00     0.135 A 
ATOM     75  F   UNL     1       7.612  10.927 -10.778  1.00  0.00    -0.206 F 
ATOM     76  C   UNL     1       8.851   9.036 -11.357  1.00  0.00     0.059 A 
ATOM     77  C   UNL     1       8.033   6.828 -10.837  1.00  0.00     0.059 A 
ATOM     78  F   UNL     1       5.945   6.514  -9.943  1.00  0.00    -0.206 F 
ATOM     79  C   UNL     1       8.994   7.652 -11.398  1.00  0.00     0.060 A 
BRANCH  79  80
ATOM     80  S   UNL     1      10.410   6.934 -12.245  1.00  0.00     0.124 S 
ATOM     81  O   UNL     1      10.117   7.269 -13.634  1.00  0.00    -0.237 OA
ATOM     82  O   UNL     1      11.523   7.652 -11.633  1.00  0.00    -0.237 OA
ATOM     83  O   UNL     1      10.321   5.518 -11.903  1.00  0.00    -0.744 OA
ENDBRANCH  79  80
ENDBRANCH  58  72
BRANCH  59  84
ATOM     84  C   UNL     1       0.566   5.033 -14.882  1.00  0.00     0.058 A 
ATOM     85  C   UNL     1       0.905   4.906 -16.241  1.00  0.00     0.135 A 
ATOM     86  C   UNL     1       0.326   3.827 -14.190  1.00  0.00     0.135 A 
ATOM     87  F   UNL     1       1.169   5.998 -16.973  1.00  0.00    -0.206 F 
ATOM     88  C   UNL     1       1.047   3.659 -16.864  1.00  0.00     0.059 A 
ATOM     89  C   UNL     1       0.455   2.574 -14.790  1.00  0.00     0.059 A 
ATOM     90  F   UNL     1       0.048   3.826 -12.877  1.00  0.00    -0.206 F 
ATOM     91  C   UNL     1       0.841   2.495 -16.123  1.00  0.00     0.060 A 
BRANCH  91  92
ATOM     92  S   UNL     1       1.195   0.885 -16.869  1.00  0.00     0.124 S 
ATOM     93  O   UNL     1       0.128   0.768 -17.856  1.00  0.00    -0.237 OA
ATOM     94  O   UNL     1       2.539   1.082 -17.404  1.00  0.00    -0.237 OA
ATOM     95  O   UNL     1       1.106  -0.038 -15.741  1.00  0.00    -0.744 OA
ENDBRANCH  91  92
ENDBRANCH  59  84
BRANCH  71  96
ATOM     96  C   UNL     1       1.341  11.246 -13.739  1.00  0.00     0.058 A 
ATOM     97  C   UNL     1       0.028  10.897 -13.373  1.00  0.00     0.135 A 
ATOM     98  C   UNL     1       1.523  12.517 -14.303  1.00  0.00     0.135 A 
ATOM     99  F   UNL     1      -0.227   9.749 -12.733  1.00  0.00    -0.206 F 
ATOM    100  C   UNL     1      -1.056  11.751 -13.594  1.00  0.00     0.059 A 
ATOM    101  C   UNL     1       0.463  13.398 -14.506  1.00  0.00     0.059 A 
ATOM    102  F   UNL     1       2.758  12.942 -14.616  1.00  0.00    -0.206 F 
ATOM    103  C   UNL     1      -0.828  13.003 -14.161  1.00  0.00     0.060 A 
BRANCH 103 104
ATOM    104  S   UNL     1      -2.217  14.135 -14.387  1.00  0.00     0.124 S 
ATOM    105  O   UNL     1      -2.963  13.495 -15.465  1.00  0.00    -0.237 OA
ATOM    106  O   UNL     1      -2.859  14.116 -13.075  1.00  0.00    -0.237 OA
ATOM    107  O   UNL     1      -1.574  15.399 -14.738  1.00  0.00    -0.744 OA
ENDBRANCH 103 104
ENDBRANCH  71  96
ENDBRANCH  45  46
ENDBRANCH  37  40
ENDBRANCH  35  36
ENDBRANCH  34  35
ENDBRANCH  33  34
ENDBRANCH   1  33
TORSDOF 21
