REMARK SMILES Cc1cccc(C[N@@H+](C)C[C@]2(C(=O)NCCCCCCNC(=O)c3ccc(-c4c5nc(c(-c6c(F)cc(S(=O)(=O)[O-])cc6F)c6ccc([nH]6)c(-c6c(F)cc(S(=O)(=O)[O-])cc6F)c6nc(c(-c7c(F)cc(S(=O)(=O)[O-])cc7F)c7ccc4[nH]7)C=C6)C=C5)cc3)CCC[C@H](C)C2)n1
REMARK SMILES IDX 17 1 16 2 15 3 14 4 12 5 13 6 11 8 90 9 95 10 91 11 93 12
REMARK SMILES IDX 92 13 94 14 10 15 8 16 9 17 7 19 6 20 1 21 2 22 3 23 96 24
REMARK SMILES IDX 4 25 5 26 18 27 19 28 20 29 21 30 22 31 23 33 24 34 25 35
REMARK SMILES IDX 89 36 26 37 88 38 27 39 28 40 29 41 82 42 30 43 87 44 81 45
REMARK SMILES IDX 83 46 31 47 86 48 80 49 79 50 32 52 66 53 45 54 65 55 46 56
REMARK SMILES IDX 49 57 64 58 84 59 47 60 48 61 63 63 85 64 50 65 33 66 34 67
REMARK SMILES IDX 43 68 35 69 36 70 42 71 44 72 37 73 38 74 39 75 40 76 41 77
REMARK SMILES IDX 67 78 68 79 77 80 69 81 70 82 76 83 78 84 71 85 72 86 73 87
REMARK SMILES IDX 74 88 75 89 51 90 52 91 61 92 53 93 54 94 60 95 62 96 55 97
REMARK SMILES IDX 56 98 57 99 58 100 59 101
REMARK H PARENT 14 7 8 18 21 32 83 51 49 62
REMARK Flexibility Score: inf
ROOT
ATOM      1  C   UNL     1       2.884   5.588   0.234  1.00  0.00     0.002 C 
ENDROOT
BRANCH   1   2
ATOM      2  C   UNL     1       1.643   5.794   1.100  1.00  0.00     0.021 C 
BRANCH   2   3
ATOM      3  C   UNL     1       0.762   4.562   1.228  1.00  0.00     0.116 C 
BRANCH   3   4
ATOM      4  N   UNL     1       1.278   3.594   2.168  1.00  0.00    -0.355 N 
ATOM      5  C   UNL     1       0.636   2.829   3.091  1.00  0.00     0.231 C 
ATOM      6  O   UNL     1       1.300   1.890   3.552  1.00  0.00    -0.274 OA
ATOM      7  H   UNL     1       2.254   3.467   2.134  1.00  0.00     0.163 HD
BRANCH   5   8
ATOM      8  C   UNL     1      -0.818   3.105   3.581  1.00  0.00     0.098 C 
ATOM      9  C   UNL     1      -1.054   2.239   4.872  1.00  0.00     0.023 C 
ATOM     10  C   UNL     1      -1.070   4.572   4.009  1.00  0.00     0.026 C 
ATOM     11  C   UNL     1      -0.237   2.687   6.091  1.00  0.00     0.002 C 
ATOM     12  C   UNL     1      -0.174   5.032   5.170  1.00  0.00    -0.013 C 
ATOM     13  C   UNL     1      -0.425   4.166   6.404  1.00  0.00     0.003 C 
ATOM     14  C   UNL     1      -0.422   6.508   5.486  1.00  0.00     0.007 C 
BRANCH   8  15
ATOM     15  C   UNL     1      -1.848   2.565   2.515  1.00  0.00     0.279 C 
BRANCH  15  16
ATOM     16  N   UNL     1      -1.860   3.219   1.199  1.00  0.00    -0.331 N 
ATOM     17  C   UNL     1      -2.830   4.314   1.108  1.00  0.00     0.333 C 
ATOM     18  H   UNL     1      -0.910   3.587   1.143  1.00  0.00     0.348 HD
BRANCH  16  19
ATOM     19  C   UNL     1      -2.043   2.324   0.031  1.00  0.00     0.319 C 
BRANCH  19  20
ATOM     20  C   UNL     1      -1.233   1.034  -0.002  1.00  0.00     0.095 A 
ATOM     21  C   UNL     1       2.320   0.060   0.003  1.00  0.00     0.067 C 
ATOM     22  C   UNL     1       0.825  -0.051  -0.011  1.00  0.00     0.038 A 
ATOM     23  C   UNL     1       0.212  -1.300  -0.007  1.00  0.00     0.023 A 
ATOM     24  N   UNL     1       0.123   1.110  -0.020  1.00  0.00    -0.252 NA
ATOM     25  C   UNL     1      -1.175  -1.365  -0.012  1.00  0.00     0.004 A 
ATOM     26  C   UNL     1      -1.909  -0.186  -0.009  1.00  0.00     0.030 A 
ENDBRANCH  19  20
ENDBRANCH  16  19
ENDBRANCH  15  16
ENDBRANCH   8  15
ENDBRANCH   5   8
ENDBRANCH   3   4
ENDBRANCH   2   3
ENDBRANCH   1   2
BRANCH   1  27
ATOM     27  C   UNL     1       2.615   5.044  -1.175  1.00  0.00     0.002 C 
BRANCH  27  28
ATOM     28  C   UNL     1       1.559   5.799  -1.989  1.00  0.00     0.021 C 
BRANCH  28  29
ATOM     29  C   UNL     1       1.803   7.297  -2.135  1.00  0.00     0.116 C 
BRANCH  29  30
ATOM     30  N   UNL     1       3.105   7.587  -2.713  1.00  0.00    -0.352 N 
ATOM     31  C   UNL     1       3.426   8.339  -3.812  1.00  0.00     0.251 C 
ATOM     32  H   UNL     1       3.871   7.184  -2.244  1.00  0.00     0.163 HD
ATOM     33  O   UNL     1       4.572   8.309  -4.261  1.00  0.00    -0.269 OA
BRANCH  31  34
ATOM     34  C   UNL     1       2.395   9.168  -4.469  1.00  0.00     0.039 A 
ATOM     35  C   UNL     1       2.305   9.150  -5.862  1.00  0.00     0.014 A 
ATOM     36  C   UNL     1       1.525   9.962  -3.716  1.00  0.00     0.014 A 
ATOM     37  C   UNL     1       1.301   9.882  -6.498  1.00  0.00     0.010 A 
ATOM     38  C   UNL     1       0.481  10.634  -4.347  1.00  0.00     0.010 A 
ATOM     39  C   UNL     1       0.358  10.600  -5.744  1.00  0.00    -0.014 A 
BRANCH  39  40
ATOM     40  C   UNL     1      -0.781  11.290  -6.402  1.00  0.00     0.031 A 
ATOM     41  C   UNL     1      -0.923  12.784  -6.314  1.00  0.00     0.074 A 
ATOM     42  C   UNL     1      -1.729  10.555  -7.018  1.00  0.00     0.049 A 
ATOM     43  N   UNL     1      -1.878  13.550  -6.774  1.00  0.00    -0.248 NA
ATOM     44  C   UNL     1       0.134  13.510  -5.592  1.00  0.00     0.031 C 
ATOM     45  C   UNL     1      -1.731   9.093  -7.116  1.00  0.00     0.029 A 
ATOM     46  N   UNL     1      -2.880  10.931  -7.663  1.00  0.00    -0.354 N 
ATOM     47  C   UNL     1      -1.548  14.843  -6.386  1.00  0.00     0.074 A 
ATOM     48  C   UNL     1      -0.329  14.752  -5.612  1.00  0.00     0.031 C 
ATOM     49  C   UNL     1      -2.821   8.699  -7.792  1.00  0.00     0.029 A 
ATOM     50  C   UNL     1      -3.618   9.872  -8.137  1.00  0.00     0.049 A 
ATOM     51  H   UNL     1      -3.152  11.871  -7.775  1.00  0.00     0.167 HD
ATOM     52  C   UNL     1      -2.193  16.001  -6.666  1.00  0.00     0.037 A 
ATOM     53  C   UNL     1      -4.810   9.844  -8.764  1.00  0.00     0.037 A 
ATOM     54  C   UNL     1      -3.399  16.080  -7.451  1.00  0.00     0.049 A 
ATOM     55  C   UNL     1      -5.508  11.141  -9.066  1.00  0.00     0.074 A 
ATOM     56  C   UNL     1      -4.087  17.210  -7.857  1.00  0.00     0.029 A 
ATOM     57  N   UNL     1      -4.105  14.988  -7.935  1.00  0.00    -0.354 N 
ATOM     58  N   UNL     1      -5.136  12.364  -8.771  1.00  0.00    -0.248 NA
ATOM     59  C   UNL     1      -6.783  11.058  -9.790  1.00  0.00     0.031 C 
ATOM     60  C   UNL     1      -5.241  16.800  -8.533  1.00  0.00     0.029 A 
ATOM     61  C   UNL     1      -5.242  15.416  -8.604  1.00  0.00     0.049 A 
ATOM     62  H   UNL     1      -3.838  14.047  -7.821  1.00  0.00     0.167 HD
ATOM     63  C   UNL     1      -6.122  13.198  -9.287  1.00  0.00     0.074 A 
ATOM     64  C   UNL     1      -7.096  12.340  -9.929  1.00  0.00     0.031 C 
ATOM     65  C   UNL     1      -6.210  14.550  -9.232  1.00  0.00     0.037 A 
BRANCH  52  66
ATOM     66  C   UNL     1      -1.617  17.276  -6.109  1.00  0.00     0.058 A 
ATOM     67  C   UNL     1      -0.397  17.802  -6.565  1.00  0.00     0.135 A 
ATOM     68  C   UNL     1      -2.310  17.999  -5.123  1.00  0.00     0.135 A 
ATOM     69  F   UNL     1       0.315  17.149  -7.497  1.00  0.00    -0.206 F 
ATOM     70  C   UNL     1       0.133  18.976  -6.039  1.00  0.00     0.059 A 
ATOM     71  C   UNL     1      -1.815  19.193  -4.606  1.00  0.00     0.059 A 
ATOM     72  F   UNL     1      -3.482  17.546  -4.651  1.00  0.00    -0.206 F 
ATOM     73  C   UNL     1      -0.583  19.664  -5.057  1.00  0.00     0.060 A 
BRANCH  73  74
ATOM     74  S   UNL     1       0.122  21.181  -4.380  1.00  0.00     0.124 S 
ATOM     75  O   UNL     1       1.221  20.656  -3.575  1.00  0.00    -0.237 OA
ATOM     76  O   UNL     1       0.510  21.909  -5.583  1.00  0.00    -0.237 OA
ATOM     77  O   UNL     1      -0.983  21.764  -3.627  1.00  0.00    -0.744 OA
ENDBRANCH  73  74
ENDBRANCH  52  66
BRANCH  53  78
ATOM     78  C   UNL     1      -5.409   8.537  -9.144  1.00  0.00     0.058 A 
ATOM     79  C   UNL     1      -5.492   8.137 -10.486  1.00  0.00     0.135 A 
ATOM     80  C   UNL     1      -5.873   7.642  -8.166  1.00  0.00     0.135 A 
ATOM     81  F   UNL     1      -5.070   8.960 -11.458  1.00  0.00    -0.206 F 
ATOM     82  C   UNL     1      -6.020   6.901 -10.847  1.00  0.00     0.059 A 
ATOM     83  C   UNL     1      -6.378   6.390  -8.500  1.00  0.00     0.059 A 
ATOM     84  F   UNL     1      -5.800   7.969  -6.867  1.00  0.00    -0.206 F 
ATOM     85  C   UNL     1      -6.453   6.031  -9.845  1.00  0.00     0.060 A 
BRANCH  85  86
ATOM     86  S   UNL     1      -7.071   4.401 -10.319  1.00  0.00     0.124 S 
ATOM     87  O   UNL     1      -8.357   4.737 -10.919  1.00  0.00    -0.237 OA
ATOM     88  O   UNL     1      -6.037   3.938 -11.239  1.00  0.00    -0.237 OA
ATOM     89  O   UNL     1      -7.135   3.684  -9.048  1.00  0.00    -0.744 OA
ENDBRANCH  85  86
ENDBRANCH  53  78
BRANCH  65  90
ATOM     90  C   UNL     1      -7.397  15.194  -9.898  1.00  0.00     0.058 A 
ATOM     91  C   UNL     1      -8.689  15.096  -9.358  1.00  0.00     0.135 A 
ATOM     92  C   UNL     1      -7.229  15.967 -11.059  1.00  0.00     0.135 A 
ATOM     93  F   UNL     1      -8.907  14.364  -8.255  1.00  0.00    -0.206 F 
ATOM     94  C   UNL     1      -9.776  15.724  -9.958  1.00  0.00     0.059 A 
ATOM     95  C   UNL     1      -8.297  16.628 -11.657  1.00  0.00     0.059 A 
ATOM     96  F   UNL     1      -6.013  16.102 -11.612  1.00  0.00    -0.206 F 
ATOM     97  C   UNL     1      -9.569  16.492 -11.105  1.00  0.00     0.060 A 
BRANCH  97  98
ATOM     98  S   UNL     1     -10.983  17.332 -11.849  1.00  0.00     0.124 S 
ATOM     99  O   UNL     1     -11.715  16.214 -12.436  1.00  0.00    -0.237 OA
ATOM    100  O   UNL     1     -11.612  17.965 -10.694  1.00  0.00    -0.237 OA
ATOM    101  O   UNL     1     -10.370  18.251 -12.804  1.00  0.00    -0.744 OA
ENDBRANCH  97  98
ENDBRANCH  65  90
ENDBRANCH  39  40
ENDBRANCH  31  34
ENDBRANCH  29  30
ENDBRANCH  28  29
ENDBRANCH  27  28
ENDBRANCH   1  27
TORSDOF 20
