REMARK SMILES O=C(NCCCCCCNC(=O)[C@H]1Cc2c([nH]c3ccccc23)[C@H](c2c[nH]c3ccccc23)[NH2+]1)c1ccc(-c2c3nc(c(-c4c(F)cc(S(=O)(=O)[O-])cc4F)c4ccc([nH]4)c(-c4c(F)cc(S(=O)(=O)[O-])cc4F)c4nc(c(-c5c(F)cc(S(=O)(=O)[O-])cc5F)c5ccc2[nH]5)C=C4)C=C3)cc1
REMARK SMILES IDX 5 1 4 2 3 3 1 4 2 5 35 7 36 8 100 9 37 10 99 11 38 12 39 13
REMARK SMILES IDX 40 14 93 15 41 16 98 17 92 18 94 19 42 20 97 21 91 22 90 23
REMARK SMILES IDX 43 25 77 26 56 27 76 28 57 29 60 30 75 31 95 32 58 33 59 34
REMARK SMILES IDX 74 36 96 37 61 38 44 39 45 40 54 41 46 42 47 43 53 44 55 45
REMARK SMILES IDX 48 46 49 47 50 48 51 49 52 50 78 51 79 52 88 53 80 54 81 55
REMARK SMILES IDX 87 56 89 57 82 58 83 59 84 60 85 61 86 62 62 63 63 64 72 65
REMARK SMILES IDX 64 66 65 67 71 68 73 69 66 70 67 71 68 72 69 73 70 74 6 75
REMARK SMILES IDX 7 76 8 77 9 78 10 79 11 80 12 82 13 83 14 84 34 85 15 86
REMARK SMILES IDX 24 87 16 90 23 91 17 92 18 93 22 94 19 96 21 97 20 98 25 99
REMARK SMILES IDX 26 100 33 101 27 102 28 103 32 104 29 106 31 107 30 108
REMARK H PARENT 3 6 94 24 60 35 10 81 34 88 34 89 17 95 27 105
REMARK Flexibility Score: inf
ROOT
ATOM      1  C   UNL     1       4.522   1.928   1.685  1.00  0.00     0.021 C 
ENDROOT
BRANCH   1   2
ATOM      2  C   UNL     1       4.352   0.537   1.088  1.00  0.00     0.116 C 
BRANCH   2   3
ATOM      3  N   UNL     1       2.950   0.164   0.983  1.00  0.00    -0.352 N 
ATOM      4  O   UNL     1       1.016  -0.261  -0.096  1.00  0.00    -0.269 OA
ATOM      5  C   UNL     1       2.241  -0.193  -0.136  1.00  0.00     0.251 C 
ATOM      6  H   UNL     1       2.443   0.168   1.827  1.00  0.00     0.163 HD
BRANCH   5   7
ATOM      7  C   UNL     1       2.967  -0.485  -1.390  1.00  0.00     0.039 A 
ATOM      8  C   UNL     1       4.107  -1.294  -1.370  1.00  0.00     0.014 A 
ATOM      9  C   UNL     1       2.497   0.045  -2.594  1.00  0.00     0.014 A 
ATOM     10  C   UNL     1       4.840  -1.482  -2.535  1.00  0.00     0.010 A 
ATOM     11  C   UNL     1       3.191  -0.213  -3.778  1.00  0.00     0.010 A 
ATOM     12  C   UNL     1       4.375  -0.967  -3.755  1.00  0.00    -0.014 A 
BRANCH  12  13
ATOM     13  C   UNL     1       5.088  -1.315  -5.009  1.00  0.00     0.031 A 
ATOM     14  C   UNL     1       5.766  -0.263  -5.839  1.00  0.00     0.074 A 
ATOM     15  C   UNL     1       5.111  -2.607  -5.390  1.00  0.00     0.049 A 
ATOM     16  N   UNL     1       6.409  -0.399  -6.971  1.00  0.00    -0.248 NA
ATOM     17  C   UNL     1       5.712   1.121  -5.343  1.00  0.00     0.031 C 
ATOM     18  C   UNL     1       4.470  -3.709  -4.664  1.00  0.00     0.029 A 
ATOM     19  N   UNL     1       5.692  -3.219  -6.470  1.00  0.00    -0.354 N 
ATOM     20  C   UNL     1       6.820   0.877  -7.334  1.00  0.00     0.074 A 
ATOM     21  C   UNL     1       6.336   1.781  -6.311  1.00  0.00     0.031 C 
ATOM     22  C   UNL     1       4.719  -4.861  -5.302  1.00  0.00     0.029 A 
ATOM     23  C   UNL     1       5.477  -4.576  -6.513  1.00  0.00     0.049 A 
ATOM     24  H   UNL     1       6.214  -2.733  -7.149  1.00  0.00     0.167 HD
ATOM     25  C   UNL     1       7.539   1.254  -8.420  1.00  0.00     0.037 A 
ATOM     26  C   UNL     1       5.823  -5.488  -7.440  1.00  0.00     0.037 A 
ATOM     27  C   UNL     1       8.023   0.337  -9.423  1.00  0.00     0.049 A 
ATOM     28  C   UNL     1       6.592  -5.038  -8.647  1.00  0.00     0.074 A 
ATOM     29  C   UNL     1       8.800   0.612 -10.535  1.00  0.00     0.029 A 
ATOM     30  N   UNL     1       7.768  -1.027  -9.443  1.00  0.00    -0.354 N 
ATOM     31  N   UNL     1       7.012  -3.833  -8.951  1.00  0.00    -0.248 NA
ATOM     32  C   UNL     1       6.931  -6.065  -9.640  1.00  0.00     0.031 C 
ATOM     33  C   UNL     1       8.971  -0.575 -11.254  1.00  0.00     0.029 A 
ATOM     34  C   UNL     1       8.346  -1.602 -10.564  1.00  0.00     0.049 A 
ATOM     35  H   UNL     1       7.252  -1.515  -8.762  1.00  0.00     0.167 HD
ATOM     36  C   UNL     1       7.677  -3.959 -10.164  1.00  0.00     0.074 A 
ATOM     37  C   UNL     1       7.620  -5.361 -10.527  1.00  0.00     0.031 C 
ATOM     38  C   UNL     1       8.279  -3.000 -10.910  1.00  0.00     0.037 A 
BRANCH  25  39
ATOM     39  C   UNL     1       7.833   2.719  -8.598  1.00  0.00     0.058 A 
ATOM     40  C   UNL     1       8.757   3.394  -7.786  1.00  0.00     0.135 A 
ATOM     41  C   UNL     1       7.224   3.444  -9.637  1.00  0.00     0.135 A 
ATOM     42  F   UNL     1       9.360   2.754  -6.771  1.00  0.00    -0.206 F 
ATOM     43  C   UNL     1       9.051   4.740  -7.981  1.00  0.00     0.059 A 
ATOM     44  C   UNL     1       7.522   4.785  -9.866  1.00  0.00     0.059 A 
ATOM     45  F   UNL     1       6.334   2.849 -10.445  1.00  0.00    -0.206 F 
ATOM     46  C   UNL     1       8.428   5.428  -9.025  1.00  0.00     0.060 A 
BRANCH  46  47
ATOM     47  S   UNL     1       8.829   7.172  -9.270  1.00  0.00     0.124 S 
ATOM     48  O   UNL     1       8.150   7.788  -8.133  1.00  0.00    -0.237 OA
ATOM     49  O   UNL     1      10.287   7.169  -9.210  1.00  0.00    -0.237 OA
ATOM     50  O   UNL     1       8.259   7.473 -10.579  1.00  0.00    -0.744 OA
ENDBRANCH  46  47
ENDBRANCH  25  39
BRANCH  26  51
ATOM     51  C   UNL     1       5.421  -6.908  -7.261  1.00  0.00     0.058 A 
ATOM     52  C   UNL     1       6.372  -7.901  -6.988  1.00  0.00     0.135 A 
ATOM     53  C   UNL     1       4.072  -7.292  -7.329  1.00  0.00     0.135 A 
ATOM     54  F   UNL     1       7.673  -7.583  -6.916  1.00  0.00    -0.206 F 
ATOM     55  C   UNL     1       6.002  -9.229  -6.802  1.00  0.00     0.059 A 
ATOM     56  C   UNL     1       3.675  -8.608  -7.117  1.00  0.00     0.059 A 
ATOM     57  F   UNL     1       3.122  -6.375  -7.568  1.00  0.00    -0.206 F 
ATOM     58  C   UNL     1       4.650  -9.572  -6.866  1.00  0.00     0.060 A 
BRANCH  58  59
ATOM     59  S   UNL     1       4.176 -11.290  -6.576  1.00  0.00     0.124 S 
ATOM     60  O   UNL     1       4.601 -11.923  -7.819  1.00  0.00    -0.237 OA
ATOM     61  O   UNL     1       4.954 -11.627  -5.388  1.00  0.00    -0.237 OA
ATOM     62  O   UNL     1       2.733 -11.209  -6.369  1.00  0.00    -0.744 OA
ENDBRANCH  58  59
ENDBRANCH  26  51
BRANCH  38  63
ATOM     63  C   UNL     1       8.943  -3.439 -12.185  1.00  0.00     0.058 A 
ATOM     64  C   UNL     1       8.196  -3.802 -13.316  1.00  0.00     0.135 A 
ATOM     65  C   UNL     1      10.343  -3.447 -12.291  1.00  0.00     0.135 A 
ATOM     66  F   UNL     1       6.855  -3.822 -13.263  1.00  0.00    -0.206 F 
ATOM     67  C   UNL     1       8.815  -4.175 -14.505  1.00  0.00     0.059 A 
ATOM     68  C   UNL     1      10.982  -3.789 -13.477  1.00  0.00     0.059 A 
ATOM     69  F   UNL     1      11.103  -3.102 -11.239  1.00  0.00    -0.206 F 
ATOM     70  C   UNL     1      10.209  -4.161 -14.576  1.00  0.00     0.060 A 
BRANCH  70  71
ATOM     71  S   UNL     1      10.999  -4.603 -16.138  1.00  0.00     0.124 S 
ATOM     72  O   UNL     1      10.807  -6.049 -16.166  1.00  0.00    -0.237 OA
ATOM     73  O   UNL     1      10.220  -3.840 -17.109  1.00  0.00    -0.237 OA
ATOM     74  O   UNL     1      12.378  -4.156 -15.960  1.00  0.00    -0.744 OA
ENDBRANCH  70  71
ENDBRANCH  38  63
ENDBRANCH  12  13
ENDBRANCH   5   7
ENDBRANCH   2   3
ENDBRANCH   1   2
BRANCH   1  75
ATOM     75  C   UNL     1       4.061   2.045   3.139  1.00  0.00     0.002 C 
BRANCH  75  76
ATOM     76  C   UNL     1       4.746   1.078   4.110  1.00  0.00     0.002 C 
BRANCH  76  77
ATOM     77  C   UNL     1       6.279   1.109   4.075  1.00  0.00     0.021 C 
BRANCH  77  78
ATOM     78  C   UNL     1       6.874   2.475   4.416  1.00  0.00     0.116 C 
BRANCH  78  79
ATOM     79  N   UNL     1       6.674   2.774   5.823  1.00  0.00    -0.351 N 
ATOM     80  C   UNL     1       7.597   2.910   6.818  1.00  0.00     0.278 C 
ATOM     81  H   UNL     1       5.736   2.896   6.098  1.00  0.00     0.163 HD
ATOM     82  O   UNL     1       7.186   3.116   7.964  1.00  0.00    -0.268 OA
BRANCH  80  83
ATOM     83  C   UNL     1       9.104   2.875   6.512  1.00  0.00     0.277 C 
ATOM     84  C   UNL     1       9.566   1.460   6.085  1.00  0.00     0.114 C 
ATOM     85  N   UNL     1       9.409   3.989   5.568  1.00  0.00    -0.324 N 
ATOM     86  C   UNL     1      10.863   1.543   5.361  1.00  0.00    -0.006 A 
ATOM     87  C   UNL     1      10.828   4.121   5.232  1.00  0.00     0.264 C 
ATOM     88  H   UNL     1       9.098   4.863   5.993  1.00  0.00     0.347 HD
ATOM     89  H   UNL     1       8.921   3.777   4.697  1.00  0.00     0.347 HD
ATOM     90  C   UNL     1      11.409   2.758   4.996  1.00  0.00     0.083 A 
ATOM     91  C   UNL     1      11.714   0.513   4.879  1.00  0.00     0.003 A 
ATOM     92  N   UNL     1      12.565   2.500   4.310  1.00  0.00    -0.353 N 
ATOM     93  C   UNL     1      12.785   1.141   4.240  1.00  0.00     0.046 A 
ATOM     94  C   UNL     1      11.673  -0.894   4.908  1.00  0.00     0.010 A 
ATOM     95  H   UNL     1      13.155   3.186   3.922  1.00  0.00     0.166 HD
ATOM     96  C   UNL     1      13.833   0.428   3.648  1.00  0.00     0.026 A 
ATOM     97  C   UNL     1      12.710  -1.622   4.313  1.00  0.00     0.001 A 
ATOM     98  C   UNL     1      13.776  -0.968   3.699  1.00  0.00     0.002 A 
BRANCH  87  99
ATOM     99  C   UNL     1      11.625   4.963   6.218  1.00  0.00     0.041 A 
ATOM    100  C   UNL     1      12.928   5.376   5.958  1.00  0.00     0.093 A 
ATOM    101  C   UNL     1      11.287   5.554   7.502  1.00  0.00     0.009 A 
ATOM    102  N   UNL     1      13.401   6.088   7.019  1.00  0.00    -0.361 N 
ATOM    103  C   UNL     1      12.427   6.215   7.975  1.00  0.00     0.046 A 
ATOM    104  C   UNL     1      10.139   5.614   8.330  1.00  0.00     0.011 A 
ATOM    105  H   UNL     1      14.310   6.458   7.089  1.00  0.00     0.166 HD
ATOM    106  C   UNL     1      12.486   6.875   9.211  1.00  0.00     0.026 A 
ATOM    107  C   UNL     1      10.179   6.264   9.571  1.00  0.00     0.001 A 
ATOM    108  C   UNL     1      11.342   6.881  10.007  1.00  0.00     0.002 A 
ENDBRANCH  87  99
ENDBRANCH  80  83
ENDBRANCH  78  79
ENDBRANCH  77  78
ENDBRANCH  76  77
ENDBRANCH  75  76
ENDBRANCH   1  75
TORSDOF 17
