REMARK SMILES O=C(NCCCCCCNC(=O)[C@@H]1CCN(c2ncnc3c2CCCCC3)C1)c1ccc(-c2c3nc(c(-c4c(F)cc(S(=O)(=O)[O-])cc4F)c4ccc([nH]4)c(-c4c(F)cc(S(=O)(=O)[O-])cc4F)c4nc(c(-c5c(F)cc(S(=O)(=O)[O-])cc5F)c5ccc2[nH]5)C=C4)C=C3)cc1
REMARK SMILES IDX 7 1 6 2 5 3 4 4 3 5 1 6 2 7 29 9 30 10 94 11 31 12 93 13
REMARK SMILES IDX 32 14 33 15 34 16 87 17 35 18 92 19 86 20 88 21 36 22 91 23
REMARK SMILES IDX 85 24 84 25 37 27 71 28 50 29 70 30 51 31 54 32 69 33 89 34
REMARK SMILES IDX 52 35 53 36 68 38 90 39 55 40 38 41 39 42 48 43 40 44 41 45
REMARK SMILES IDX 47 46 49 47 42 48 43 49 44 50 45 51 46 52 72 53 73 54 82 55
REMARK SMILES IDX 74 56 75 57 81 58 83 59 76 60 77 61 78 62 79 63 80 64 56 65
REMARK SMILES IDX 57 66 66 67 58 68 59 69 65 70 67 71 60 72 61 73 62 74 63 75
REMARK SMILES IDX 64 76 8 77 9 78 10 79 11 80 12 82 13 83 14 84 28 85 15 86
REMARK SMILES IDX 16 87 17 88 18 89 22 90 19 91 21 92 20 93 23 94 24 95 25 96
REMARK SMILES IDX 27 98 26 99
REMARK H PARENT 3 8 88 26 54 37 10 81
REMARK Flexibility Score: 90.00
ROOT
ATOM      1  C   UNL     1       4.963   3.990  -1.480  1.00  0.00     0.002 C 
ENDROOT
BRANCH   1   2
ATOM      2  C   UNL     1       4.308   2.941  -2.386  1.00  0.00     0.002 C 
BRANCH   2   3
ATOM      3  C   UNL     1       4.741   1.501  -2.114  1.00  0.00     0.021 C 
BRANCH   3   4
ATOM      4  C   UNL     1       4.459   1.022  -0.696  1.00  0.00     0.116 C 
BRANCH   4   5
ATOM      5  N   UNL     1       3.033   0.961  -0.417  1.00  0.00    -0.352 N 
ATOM      6  O   UNL     1       1.054  -0.050  -0.027  1.00  0.00    -0.269 OA
ATOM      7  C   UNL     1       2.282  -0.113  -0.009  1.00  0.00     0.251 C 
ATOM      8  H   UNL     1       2.539   1.804  -0.538  1.00  0.00     0.163 HD
BRANCH   7   9
ATOM      9  C   UNL     1       2.961  -1.346   0.440  1.00  0.00     0.039 A 
ATOM     10  C   UNL     1       4.058  -1.271   1.301  1.00  0.00     0.014 A 
ATOM     11  C   UNL     1       2.490  -2.588   0.005  1.00  0.00     0.014 A 
ATOM     12  C   UNL     1       4.760  -2.424   1.626  1.00  0.00     0.010 A 
ATOM     13  C   UNL     1       3.145  -3.756   0.405  1.00  0.00     0.010 A 
ATOM     14  C   UNL     1       4.297  -3.681   1.203  1.00  0.00    -0.014 A 
BRANCH  14  15
ATOM     15  C   UNL     1       4.986  -4.901   1.693  1.00  0.00     0.031 A 
ATOM     16  C   UNL     1       5.722  -5.815   0.758  1.00  0.00     0.074 A 
ATOM     17  C   UNL     1       4.969  -5.150   3.018  1.00  0.00     0.049 A 
ATOM     18  N   UNL     1       6.429  -6.879   1.041  1.00  0.00    -0.248 NA
ATOM     19  C   UNL     1       5.655  -5.503  -0.678  1.00  0.00     0.031 C 
ATOM     20  C   UNL     1       4.273  -4.331   4.014  1.00  0.00     0.029 A 
ATOM     21  N   UNL     1       5.567  -6.135   3.759  1.00  0.00    -0.354 N 
ATOM     22  C   UNL     1       6.891  -7.366  -0.176  1.00  0.00     0.074 A 
ATOM     23  C   UNL     1       6.350  -6.503  -1.205  1.00  0.00     0.031 C 
ATOM     24  C   UNL     1       4.532  -4.811   5.237  1.00  0.00     0.029 A 
ATOM     25  C   UNL     1       5.357  -6.008   5.111  1.00  0.00     0.049 A 
ATOM     26  H   UNL     1       6.097  -6.864   3.361  1.00  0.00     0.167 HD
ATOM     27  C   UNL     1       7.700  -8.428  -0.406  1.00  0.00     0.037 A 
ATOM     28  C   UNL     1       5.772  -6.770   6.140  1.00  0.00     0.037 A 
ATOM     29  C   UNL     1       8.224  -9.281   0.631  1.00  0.00     0.049 A 
ATOM     30  C   UNL     1       6.631  -7.967   5.855  1.00  0.00     0.074 A 
ATOM     31  C   UNL     1       9.069 -10.370   0.503  1.00  0.00     0.029 A 
ATOM     32  N   UNL     1       7.945  -9.152   1.986  1.00  0.00    -0.354 N 
ATOM     33  N   UNL     1       7.088  -8.392   4.702  1.00  0.00    -0.248 NA
ATOM     34  C   UNL     1       7.029  -8.790   7.004  1.00  0.00     0.031 C 
ATOM     35  C   UNL     1       9.255 -10.931   1.770  1.00  0.00     0.029 A 
ATOM     36  C   UNL     1       8.579 -10.157   2.699  1.00  0.00     0.049 A 
ATOM     37  H   UNL     1       7.380  -8.449   2.381  1.00  0.00     0.167 HD
ATOM     38  C   UNL     1       7.842  -9.524   4.986  1.00  0.00     0.074 A 
ATOM     39  C   UNL     1       7.789  -9.710   6.422  1.00  0.00     0.031 C 
ATOM     40  C   UNL     1       8.517 -10.331   4.131  1.00  0.00     0.037 A 
BRANCH  27  41
ATOM     41  C   UNL     1       8.060  -8.741  -1.835  1.00  0.00     0.058 A 
ATOM     42  C   UNL     1       8.915  -7.911  -2.579  1.00  0.00     0.135 A 
ATOM     43  C   UNL     1       7.584  -9.908  -2.454  1.00  0.00     0.135 A 
ATOM     44  F   UNL     1       9.393  -6.777  -2.043  1.00  0.00    -0.206 F 
ATOM     45  C   UNL     1       9.260  -8.212  -3.893  1.00  0.00     0.059 A 
ATOM     46  C   UNL     1       7.939 -10.244  -3.759  1.00  0.00     0.059 A 
ATOM     47  F   UNL     1       6.767 -10.741  -1.790  1.00  0.00    -0.206 F 
ATOM     48  C   UNL     1       8.766  -9.380  -4.475  1.00  0.00     0.060 A 
BRANCH  48  49
ATOM     49  S   UNL     1       9.216  -9.745  -6.185  1.00  0.00     0.124 S 
ATOM     50  O   UNL     1       8.489  -8.704  -6.905  1.00  0.00    -0.237 OA
ATOM     51  O   UNL     1      10.668  -9.602  -6.160  1.00  0.00    -0.237 OA
ATOM     52  O   UNL     1       8.725 -11.105  -6.385  1.00  0.00    -0.744 OA
ENDBRANCH  48  49
ENDBRANCH  27  41
BRANCH  28  53
ATOM     53  C   UNL     1       5.389  -6.390   7.525  1.00  0.00     0.058 A 
ATOM     54  C   UNL     1       6.335  -5.868   8.417  1.00  0.00     0.135 A 
ATOM     55  C   UNL     1       4.052  -6.458   7.952  1.00  0.00     0.135 A 
ATOM     56  F   UNL     1       7.625  -5.787   8.056  1.00  0.00    -0.206 F 
ATOM     57  C   UNL     1       5.970  -5.417   9.681  1.00  0.00     0.059 A 
ATOM     58  C   UNL     1       3.659  -5.988   9.200  1.00  0.00     0.059 A 
ATOM     59  F   UNL     1       3.106  -6.934   7.127  1.00  0.00    -0.206 F 
ATOM     60  C   UNL     1       4.626  -5.468  10.058  1.00  0.00     0.060 A 
BRANCH  60  61
ATOM     61  S   UNL     1       4.155  -4.791  11.665  1.00  0.00     0.124 S 
ATOM     62  O   UNL     1       4.761  -5.753  12.578  1.00  0.00    -0.237 OA
ATOM     63  O   UNL     1       4.771  -3.469  11.628  1.00  0.00    -0.237 OA
ATOM     64  O   UNL     1       2.696  -4.797  11.618  1.00  0.00    -0.744 OA
ENDBRANCH  60  61
ENDBRANCH  28  53
BRANCH  40  65
ATOM     65  C   UNL     1       9.278 -11.489   4.718  1.00  0.00     0.058 A 
ATOM     66  C   UNL     1       8.622 -12.632   5.199  1.00  0.00     0.135 A 
ATOM     67  C   UNL     1      10.682 -11.492   4.707  1.00  0.00     0.135 A 
ATOM     68  F   UNL     1       7.281 -12.675   5.241  1.00  0.00    -0.206 F 
ATOM     69  C   UNL     1       9.333 -13.739   5.650  1.00  0.00     0.059 A 
ATOM     70  C   UNL     1      11.413 -12.599   5.127  1.00  0.00     0.059 A 
ATOM     71  F   UNL     1      11.358 -10.425   4.251  1.00  0.00    -0.206 F 
ATOM     72  C   UNL     1      10.729 -13.718   5.598  1.00  0.00     0.060 A 
BRANCH  72  73
ATOM     73  S   UNL     1      11.633 -15.191   6.120  1.00  0.00     0.124 S 
ATOM     74  O   UNL     1      11.393 -15.190   7.559  1.00  0.00    -0.237 OA
ATOM     75  O   UNL     1      10.965 -16.247   5.366  1.00  0.00    -0.237 OA
ATOM     76  O   UNL     1      13.007 -14.910   5.713  1.00  0.00    -0.744 OA
ENDBRANCH  72  73
ENDBRANCH  40  65
ENDBRANCH  14  15
ENDBRANCH   7   9
ENDBRANCH   4   5
ENDBRANCH   3   4
ENDBRANCH   2   3
ENDBRANCH   1   2
BRANCH   1  77
ATOM     77  C   UNL     1       6.498   3.988  -1.490  1.00  0.00     0.021 C 
BRANCH  77  78
ATOM     78  C   UNL     1       7.113   4.123  -2.884  1.00  0.00     0.116 C 
BRANCH  78  79
ATOM     79  N   UNL     1       6.693   5.362  -3.512  1.00  0.00    -0.356 N 
ATOM     80  C   UNL     1       7.404   6.497  -3.747  1.00  0.00     0.224 C 
ATOM     81  H   UNL     1       5.756   5.383  -3.813  1.00  0.00     0.163 HD
ATOM     82  O   UNL     1       6.800   7.498  -4.133  1.00  0.00    -0.275 OA
BRANCH  80  83
ATOM     83  C   UNL     1       8.904   6.471  -3.553  1.00  0.00     0.099 C 
ATOM     84  C   UNL     1       9.483   7.891  -3.455  1.00  0.00     0.037 C 
ATOM     85  C   UNL     1       9.572   5.846  -4.796  1.00  0.00     0.131 C 
ATOM     86  C   UNL     1       9.869   8.210  -4.893  1.00  0.00     0.119 C 
ATOM     87  N   UNL     1      10.401   6.926  -5.305  1.00  0.00    -0.355 N 
BRANCH  87  88
ATOM     88  C   UNL     1      11.197   6.794  -6.410  1.00  0.00     0.135 A 
ATOM     89  N   UNL     1      10.689   6.165  -7.483  1.00  0.00    -0.219 NA
ATOM     90  C   UNL     1      12.513   7.261  -6.384  1.00  0.00     0.016 A 
ATOM     91  C   UNL     1      11.488   6.056  -8.551  1.00  0.00     0.224 A 
ATOM     92  C   UNL     1      13.254   7.088  -7.548  1.00  0.00     0.049 A 
ATOM     93  N   UNL     1      12.748   6.498  -8.649  1.00  0.00    -0.241 NA
BRANCH  90  94
ATOM     94  C   UNL     1      13.149   7.817  -5.136  1.00  0.00     0.041 C 
BRANCH  94  95
ATOM     95  C   UNL     1      14.225   6.892  -4.571  1.00  0.00     0.005 C 
BRANCH  95  96
ATOM     96  C   UNL     1      15.579   7.054  -5.254  1.00  0.00     0.001 CG0
ATOM     97  G   UNL     1      15.606   6.656  -6.730  1.00  0.00     0.000 G0
ENDBRANCH  95  96
ENDBRANCH  94  95
ENDBRANCH  90  94
BRANCH  92  98
ATOM     98  C   UNL     1      14.701   7.505  -7.625  1.00  0.00     0.057 C 
BRANCH  98  99
ATOM     99  C   UNL     1      15.606   6.656  -6.730  1.00  0.00     0.006 CG0
ATOM    100  G   UNL     1      15.579   7.054  -5.254  1.00  0.00     0.000 G0
ENDBRANCH  98  99
ENDBRANCH  92  98
ENDBRANCH  87  88
ENDBRANCH  80  83
ENDBRANCH  78  79
ENDBRANCH  77  78
ENDBRANCH   1  77
TORSDOF 17
