REMARK SMILES COc1ccc(/C=C2/SC(=S)N(c3ccc(C(=O)NCCCCCCNC(=O)c4ccc(-c5c6nc(c(-c7c(F)cc(S(=O)(=O)[O-])cc7F)c7ccc([nH]7)c(-c7c(F)cc(S(=O)(=O)[O-])cc7F)c7nc(c(-c8c(F)cc(S(=O)(=O)[O-])cc8F)c8ccc5[nH]8)C=C7)C=C6)cc4)c(O)c3)C2=O)cc1OC
REMARK SMILES IDX 22 1 21 2 20 3 19 4 17 5 18 6 16 8 13 9 14 10 97 11 15 12
REMARK SMILES IDX 95 13 12 14 7 15 8 16 9 17 98 18 10 19 99 20 11 21 6 22 3 23
REMARK SMILES IDX 4 24 101 25 5 26 100 27 2 28 1 29 102 30 103 31 96 32 23 34
REMARK SMILES IDX 24 35 25 36 26 37 27 38 28 40 29 41 30 42 94 43 31 44 93 45
REMARK SMILES IDX 32 46 33 47 34 48 87 49 35 50 92 51 86 52 88 53 36 54 91 55
REMARK SMILES IDX 85 56 84 57 37 59 71 60 50 61 70 62 51 63 54 64 69 65 89 66
REMARK SMILES IDX 52 67 53 68 68 70 90 71 55 72 38 73 39 74 48 75 40 76 41 77
REMARK SMILES IDX 47 78 49 79 42 80 43 81 44 82 45 83 46 84 72 85 73 86 82 87
REMARK SMILES IDX 74 88 75 89 81 90 83 91 76 92 77 93 78 94 79 95 80 96 56 97
REMARK SMILES IDX 57 98 66 99 58 100 59 101 65 102 67 103 60 104 61 105 62 106
REMARK SMILES IDX 63 107 64 108
REMARK H PARENT 19 7 96 33 26 39 88 58 54 69
REMARK Flexibility Score: inf
ROOT
ATOM      1  C   UNL     1      11.891   7.023  -2.425  1.00  0.00     0.002 C 
ENDROOT
BRANCH   1   2
ATOM      2  C   UNL     1      10.826   6.895  -1.330  1.00  0.00     0.021 C 
BRANCH   2   3
ATOM      3  C   UNL     1      10.009   8.175  -1.119  1.00  0.00     0.116 C 
BRANCH   3   4
ATOM      4  N   UNL     1       8.936   8.235  -2.091  1.00  0.00    -0.352 N 
ATOM      5  C   UNL     1       7.599   7.957  -1.995  1.00  0.00     0.255 C 
ATOM      6  O   UNL     1       6.937   8.033  -3.034  1.00  0.00    -0.269 OA
ATOM      7  H   UNL     1       9.221   8.531  -2.985  1.00  0.00     0.163 HD
BRANCH   5   8
ATOM      8  C   UNL     1       6.881   7.683  -0.716  1.00  0.00     0.081 A 
ATOM      9  C   UNL     1       5.250   7.307   1.565  1.00  0.00     0.054 A 
ATOM     10  C   UNL     1       4.757   8.000   0.460  1.00  0.00     0.028 A 
ATOM     11  C   UNL     1       6.540   6.767   1.517  1.00  0.00     0.073 A 
ATOM     12  C   UNL     1       5.575   8.207  -0.653  1.00  0.00     0.020 A 
ATOM     13  C   UNL     1       7.328   6.913   0.365  1.00  0.00     0.130 A 
BRANCH   9  14
ATOM     14  N   UNL     1       4.410   7.028   2.672  1.00  0.00    -0.261 N 
ATOM     15  C   UNL     1       1.909   4.812   4.050  1.00  0.00     0.029 C 
ATOM     16  C   UNL     1       2.711   5.857   3.800  1.00  0.00     0.081 C 
ATOM     17  S   UNL     1       3.387   6.850   5.035  1.00  0.00    -0.054 SA
ATOM     18  C   UNL     1       3.280   6.245   2.475  1.00  0.00     0.270 C 
ATOM     19  C   UNL     1       4.648   7.469   3.962  1.00  0.00     0.152 C 
ATOM     20  O   UNL     1       2.795   5.914   1.404  1.00  0.00    -0.268 OA
ATOM     21  S   UNL     1       5.853   8.484   4.521  1.00  0.00    -0.051 S 
BRANCH  15  22
ATOM     22  C   UNL     1       1.577   3.799   3.043  1.00  0.00    -0.020 A 
ATOM     23  C   UNL     1       1.081   1.937   1.006  1.00  0.00     0.160 A 
ATOM     24  C   UNL     1       0.072   2.815   1.434  1.00  0.00     0.051 A 
ATOM     25  C   UNL     1       2.348   1.982   1.597  1.00  0.00     0.161 A 
ATOM     26  C   UNL     1       0.316   3.739   2.455  1.00  0.00     0.012 A 
ATOM     27  C   UNL     1       2.575   2.908   2.622  1.00  0.00     0.058 A 
BRANCH  23  28
ATOM     28  O   UNL     1       0.831   1.124  -0.068  1.00  0.00    -0.493 OA
ATOM     29  C   UNL     1      -0.127   0.113   0.235  1.00  0.00     0.278 C 
ENDBRANCH  23  28
BRANCH  25  30
ATOM     30  O   UNL     1       3.460   1.239   1.308  1.00  0.00    -0.493 OA
ATOM     31  C   UNL     1       3.330   0.137   0.424  1.00  0.00     0.278 C 
ENDBRANCH  25  30
ENDBRANCH  15  22
ENDBRANCH   9  14
BRANCH  13  32
ATOM     32  O   UNL     1       8.497   6.209   0.310  1.00  0.00    -0.507 OA
ATOM     33  H   UNL     1       9.050   6.279  -0.443  1.00  0.00     0.293 HD
ENDBRANCH  13  32
ENDBRANCH   5   8
ENDBRANCH   3   4
ENDBRANCH   2   3
ENDBRANCH   1   2
BRANCH   1  34
ATOM     34  C   UNL     1      13.058   7.951  -2.073  1.00  0.00     0.002 C 
BRANCH  34  35
ATOM     35  C   UNL     1      13.813   7.593  -0.788  1.00  0.00     0.021 C 
BRANCH  35  36
ATOM     36  C   UNL     1      14.412   6.188  -0.764  1.00  0.00     0.116 C 
BRANCH  36  37
ATOM     37  N   UNL     1      15.414   6.014  -1.802  1.00  0.00    -0.352 N 
ATOM     38  C   UNL     1      16.720   5.611  -1.698  1.00  0.00     0.251 C 
ATOM     39  H   UNL     1      15.110   6.217  -2.716  1.00  0.00     0.163 HD
ATOM     40  O   UNL     1      17.475   5.752  -2.656  1.00  0.00    -0.269 OA
BRANCH  38  41
ATOM     41  C   UNL     1      17.226   5.013  -0.442  1.00  0.00     0.039 A 
ATOM     42  C   UNL     1      18.501   5.369   0.004  1.00  0.00     0.014 A 
ATOM     43  C   UNL     1      16.478   4.064   0.265  1.00  0.00     0.014 A 
ATOM     44  C   UNL     1      19.012   4.801   1.173  1.00  0.00     0.010 A 
ATOM     45  C   UNL     1      16.965   3.543   1.464  1.00  0.00     0.010 A 
ATOM     46  C   UNL     1      18.243   3.896   1.922  1.00  0.00    -0.014 A 
BRANCH  46  47
ATOM     47  C   UNL     1      18.779   3.311   3.177  1.00  0.00     0.031 A 
ATOM     48  C   UNL     1      19.090   1.841   3.264  1.00  0.00     0.074 A 
ATOM     49  C   UNL     1      18.964   4.105   4.250  1.00  0.00     0.049 A 
ATOM     50  N   UNL     1      19.585   1.161   4.266  1.00  0.00    -0.248 NA
ATOM     51  C   UNL     1      18.785   1.025   2.078  1.00  0.00     0.031 C 
ATOM     52  C   UNL     1      18.639   5.532   4.309  1.00  0.00     0.029 A 
ATOM     53  N   UNL     1      19.470   3.828   5.494  1.00  0.00    -0.354 N 
ATOM     54  C   UNL     1      19.645  -0.160   3.837  1.00  0.00     0.074 A 
ATOM     55  C   UNL     1      19.086  -0.194   2.502  1.00  0.00     0.031 C 
ATOM     56  C   UNL     1      18.982   6.011   5.516  1.00  0.00     0.029 A 
ATOM     57  C   UNL     1      19.532   4.924   6.321  1.00  0.00     0.049 A 
ATOM     58  H   UNL     1      19.762   2.929   5.768  1.00  0.00     0.167 HD
ATOM     59  C   UNL     1      20.143  -1.242   4.484  1.00  0.00     0.037 A 
ATOM     60  C   UNL     1      19.992   5.042   7.581  1.00  0.00     0.037 A 
ATOM     61  C   UNL     1      20.721  -1.198   5.803  1.00  0.00     0.049 A 
ATOM     62  C   UNL     1      20.580   3.838   8.262  1.00  0.00     0.074 A 
ATOM     63  C   UNL     1      21.300  -2.227   6.526  1.00  0.00     0.029 A 
ATOM     64  N   UNL     1      20.796  -0.063   6.596  1.00  0.00    -0.354 N 
ATOM     65  N   UNL     1      20.688   2.610   7.816  1.00  0.00    -0.248 NA
ATOM     66  C   UNL     1      21.124   4.040   9.612  1.00  0.00     0.031 C 
ATOM     67  C   UNL     1      21.700  -1.719   7.768  1.00  0.00     0.029 A 
ATOM     68  C   UNL     1      21.403  -0.366   7.804  1.00  0.00     0.049 A 
ATOM     69  H   UNL     1      20.467   0.829   6.338  1.00  0.00     0.167 HD
ATOM     70  C   UNL     1      21.328   1.895   8.822  1.00  0.00     0.074 A 
ATOM     71  C   UNL     1      21.600   2.835   9.892  1.00  0.00     0.031 C 
ATOM     72  C   UNL     1      21.660   0.581   8.859  1.00  0.00     0.037 A 
BRANCH  59  73
ATOM     73  C   UNL     1      20.096  -2.562   3.765  1.00  0.00     0.058 A 
ATOM     74  C   UNL     1      20.930  -2.830   2.667  1.00  0.00     0.135 A 
ATOM     75  C   UNL     1      19.227  -3.580   4.189  1.00  0.00     0.135 A 
ATOM     76  F   UNL     1      21.769  -1.887   2.210  1.00  0.00    -0.206 F 
ATOM     77  C   UNL     1      20.881  -4.047   1.995  1.00  0.00     0.059 A 
ATOM     78  C   UNL     1      19.180  -4.815   3.548  1.00  0.00     0.059 A 
ATOM     79  F   UNL     1      18.408  -3.378   5.234  1.00  0.00    -0.206 F 
ATOM     80  C   UNL     1      20.000  -5.033   2.441  1.00  0.00     0.060 A 
BRANCH  80  81
ATOM     81  S   UNL     1      19.944  -6.607   1.558  1.00  0.00     0.124 S 
ATOM     82  O   UNL     1      19.200  -6.240   0.357  1.00  0.00    -0.237 OA
ATOM     83  O   UNL     1      21.359  -6.906   1.359  1.00  0.00    -0.237 OA
ATOM     84  O   UNL     1      19.245  -7.491   2.485  1.00  0.00    -0.744 OA
ENDBRANCH  80  81
ENDBRANCH  59  73
BRANCH  60  85
ATOM     85  C   UNL     1      19.956   6.364   8.259  1.00  0.00     0.058 A 
ATOM     86  C   UNL     1      21.131   7.102   8.463  1.00  0.00     0.135 A 
ATOM     87  C   UNL     1      18.746   6.924   8.694  1.00  0.00     0.135 A 
ATOM     88  F   UNL     1      22.312   6.604   8.067  1.00  0.00    -0.206 F 
ATOM     89  C   UNL     1      21.112   8.344   9.089  1.00  0.00     0.059 A 
ATOM     90  C   UNL     1      18.698   8.175   9.303  1.00  0.00     0.059 A 
ATOM     91  F   UNL     1      17.592   6.265   8.504  1.00  0.00    -0.206 F 
ATOM     92  C   UNL     1      19.888   8.873   9.504  1.00  0.00     0.060 A 
BRANCH  92  93
ATOM     93  S   UNL     1      19.863  10.511  10.264  1.00  0.00     0.124 S 
ATOM     94  O   UNL     1      20.355  10.219  11.606  1.00  0.00    -0.237 OA
ATOM     95  O   UNL     1      20.768  11.265   9.403  1.00  0.00    -0.237 OA
ATOM     96  O   UNL     1      18.459  10.898  10.175  1.00  0.00    -0.744 OA
ENDBRANCH  92  93
ENDBRANCH  60  85
BRANCH  72  97
ATOM     97  C   UNL     1      22.369   0.092  10.091  1.00  0.00     0.058 A 
ATOM     98  C   UNL     1      21.694  -0.072  11.310  1.00  0.00     0.135 A 
ATOM     99  C   UNL     1      23.735  -0.228  10.047  1.00  0.00     0.135 A 
ATOM    100  F   UNL     1      20.388   0.224  11.405  1.00  0.00    -0.206 F 
ATOM    101  C   UNL     1      22.358  -0.502  12.455  1.00  0.00     0.059 A 
ATOM    102  C   UNL     1      24.414  -0.682  11.174  1.00  0.00     0.059 A 
ATOM    103  F   UNL     1      24.424  -0.099   8.902  1.00  0.00    -0.206 F 
ATOM    104  C   UNL     1      23.720  -0.798  12.378  1.00  0.00     0.060 A 
BRANCH 104 105
ATOM    105  S   UNL     1      24.574  -1.355  13.868  1.00  0.00     0.124 S 
ATOM    106  O   UNL     1      24.767  -0.097  14.581  1.00  0.00    -0.237 OA
ATOM    107  O   UNL     1      23.609  -2.277  14.459  1.00  0.00    -0.237 OA
ATOM    108  O   UNL     1      25.788  -1.977  13.348  1.00  0.00    -0.744 OA
ENDBRANCH 104 105
ENDBRANCH  72  97
ENDBRANCH  46  47
ENDBRANCH  38  41
ENDBRANCH  36  37
ENDBRANCH  35  36
ENDBRANCH  34  35
ENDBRANCH   1  34
TORSDOF 21
