REMARK SMILES CC(C)[C@H](C(=O)NCCCCCCNC(=O)c1ccc(-c2c3nc(c(-c4c(F)cc(S(=O)(=O)[O-])cc4F)c4ccc([nH]4)c(-c4c(F)cc(S(=O)(=O)[O-])cc4F)c4nc(c(-c5c(F)cc(S(=O)(=O)[O-])cc5F)c5ccc2[nH]5)C=C4)C=C3)cc1)[NH+]1CC2(CCCCCC2)C1
REMARK SMILES IDX 10 1 9 2 8 3 7 4 5 5 6 6 4 8 2 9 1 10 3 11 83 12 84 13 92 14
REMARK SMILES IDX 85 16 86 17 87 18 88 19 91 21 90 22 89 23 11 25 12 26 13 27
REMARK SMILES IDX 14 28 15 29 16 31 17 32 18 33 82 34 19 35 81 36 20 37 21 38
REMARK SMILES IDX 22 39 75 40 23 41 80 42 74 43 76 44 24 45 79 46 73 47 72 48
REMARK SMILES IDX 25 50 59 51 38 52 58 53 39 54 42 55 57 56 77 57 40 58 41 59
REMARK SMILES IDX 56 61 78 62 43 63 26 64 27 65 36 66 28 67 29 68 35 69 37 70
REMARK SMILES IDX 30 71 31 72 32 73 33 74 34 75 60 76 61 77 70 78 62 79 63 80
REMARK SMILES IDX 69 81 71 82 64 83 65 84 66 85 67 86 68 87 44 88 45 89 54 90
REMARK SMILES IDX 46 91 47 92 53 93 55 94 48 95 49 96 50 97 51 98 52 99
REMARK H PARENT 7 7 83 15 14 30 76 49 42 60
REMARK Flexibility Score: 90.00
ROOT
ATOM      1  C   UNL     1       2.713   3.593  -1.328  1.00  0.00     0.002 C 
ENDROOT
BRANCH   1   2
ATOM      2  C   UNL     1       1.195   3.626  -1.092  1.00  0.00     0.021 C 
BRANCH   2   3
ATOM      3  C   UNL     1       0.558   2.247  -1.031  1.00  0.00     0.116 C 
BRANCH   3   4
ATOM      4  N   UNL     1       1.206   1.462  -0.013  1.00  0.00    -0.351 N 
ATOM      5  C   UNL     1       0.705   0.992   1.153  1.00  0.00     0.278 C 
ATOM      6  O   UNL     1       1.548   0.785   2.033  1.00  0.00    -0.268 OA
ATOM      7  H   UNL     1       2.147   1.233  -0.192  1.00  0.00     0.163 HD
BRANCH   5   8
ATOM      8  C   UNL     1      -0.817   0.625   1.271  1.00  0.00     0.276 C 
BRANCH   8   9
ATOM      9  C   UNL     1      -1.097  -0.574   0.288  1.00  0.00     0.051 C 
ATOM     10  C   UNL     1      -1.343  -0.232  -1.188  1.00  0.00     0.014 C 
ATOM     11  C   UNL     1      -0.039  -1.699   0.291  1.00  0.00     0.014 C 
ENDBRANCH   8   9
BRANCH   8  12
ATOM     12  N   UNL     1      -1.104   0.547   2.737  1.00  0.00    -0.323 N 
ATOM     13  C   UNL     1      -0.464  -0.559   3.408  1.00  0.00     0.275 C 
ATOM     14  C   UNL     1      -2.395   0.151   3.316  1.00  0.00     0.275 C 
ATOM     15  H   UNL     1      -0.860   1.530   2.858  1.00  0.00     0.348 HD
ATOM     16  C   UNL     1      -1.846  -1.339   3.594  1.00  0.00     0.068 C 
BRANCH  16  17
ATOM     17  C   UNL     1      -2.504  -2.196   2.496  1.00  0.00     0.019 C 
BRANCH  17  18
ATOM     18  C   UNL     1      -3.197  -3.505   2.782  1.00  0.00     0.001 C 
BRANCH  18  19
ATOM     19  C   UNL     1      -2.160  -4.575   3.054  1.00  0.00     0.000 CG0
ATOM     20  G   UNL     1      -1.694  -4.582   4.497  1.00  0.00     0.000 G0
ENDBRANCH  18  19
ENDBRANCH  17  18
ENDBRANCH  16  17
BRANCH  16  21
ATOM     21  C   UNL     1      -1.425  -2.053   4.907  1.00  0.00     0.019 C 
BRANCH  21  22
ATOM     22  C   UNL     1      -2.080  -3.356   5.334  1.00  0.00     0.001 C 
BRANCH  22  23
ATOM     23  C   UNL     1      -1.694  -4.582   4.497  1.00  0.00     0.000 CG0
ATOM     24  G   UNL     1      -2.160  -4.575   3.054  1.00  0.00     0.000 G0
ENDBRANCH  22  23
ENDBRANCH  21  22
ENDBRANCH  16  21
ENDBRANCH   8  12
ENDBRANCH   5   8
ENDBRANCH   3   4
ENDBRANCH   2   3
ENDBRANCH   1   2
BRANCH   1  25
ATOM     25  C   UNL     1       3.170   2.728  -2.510  1.00  0.00     0.002 C 
BRANCH  25  26
ATOM     26  C   UNL     1       2.487   3.052  -3.838  1.00  0.00     0.021 C 
BRANCH  26  27
ATOM     27  C   UNL     1       2.556   4.519  -4.223  1.00  0.00     0.116 C 
BRANCH  27  28
ATOM     28  N   UNL     1       3.924   4.964  -4.423  1.00  0.00    -0.352 N 
ATOM     29  C   UNL     1       4.423   5.716  -5.463  1.00  0.00     0.251 C 
ATOM     30  H   UNL     1       4.572   4.696  -3.732  1.00  0.00     0.163 HD
ATOM     31  O   UNL     1       5.618   5.868  -5.611  1.00  0.00    -0.269 OA
BRANCH  29  32
ATOM     32  C   UNL     1       3.453   6.308  -6.410  1.00  0.00     0.039 A 
ATOM     33  C   UNL     1       3.617   6.086  -7.777  1.00  0.00     0.014 A 
ATOM     34  C   UNL     1       2.352   7.020  -5.925  1.00  0.00     0.014 A 
ATOM     35  C   UNL     1       2.641   6.543  -8.664  1.00  0.00     0.010 A 
ATOM     36  C   UNL     1       1.346   7.402  -6.801  1.00  0.00     0.010 A 
ATOM     37  C   UNL     1       1.486   7.178  -8.180  1.00  0.00    -0.014 A 
BRANCH  37  38
ATOM     38  C   UNL     1       0.418   7.661  -9.089  1.00  0.00     0.031 A 
ATOM     39  C   UNL     1       0.120   9.134  -9.153  1.00  0.00     0.074 A 
ATOM     40  C   UNL     1      -0.332   6.781  -9.781  1.00  0.00     0.049 A 
ATOM     41  N   UNL     1      -0.860   9.754  -9.755  1.00  0.00    -0.248 NA
ATOM     42  C   UNL     1       1.028  10.023  -8.409  1.00  0.00     0.031 C 
ATOM     43  C   UNL     1      -0.155   5.327  -9.778  1.00  0.00     0.029 A 
ATOM     44  N   UNL     1      -1.409   6.981 -10.607  1.00  0.00    -0.354 N 
ATOM     45  C   UNL     1      -0.701  11.099  -9.444  1.00  0.00     0.074 A 
ATOM     46  C   UNL     1       0.437  11.198  -8.556  1.00  0.00     0.031 C 
ATOM     47  C   UNL     1      -1.082   4.770 -10.575  1.00  0.00     0.029 A 
ATOM     48  C   UNL     1      -1.947   5.819 -11.107  1.00  0.00     0.049 A 
ATOM     49  H   UNL     1      -1.764   7.874 -10.823  1.00  0.00     0.167 HD
ATOM     50  C   UNL     1      -1.424  12.159  -9.878  1.00  0.00     0.037 A 
ATOM     51  C   UNL     1      -3.025   5.621 -11.891  1.00  0.00     0.037 A 
ATOM     52  C   UNL     1      -2.535  12.051 -10.784  1.00  0.00     0.049 A 
ATOM     53  C   UNL     1      -3.823   6.813 -12.351  1.00  0.00     0.074 A 
ATOM     54  C   UNL     1      -3.308  13.064 -11.321  1.00  0.00     0.029 A 
ATOM     55  N   UNL     1      -3.029  10.857 -11.292  1.00  0.00    -0.354 N 
ATOM     56  N   UNL     1      -3.637   8.083 -12.079  1.00  0.00    -0.248 NA
ATOM     57  C   UNL     1      -4.975   6.548 -13.224  1.00  0.00     0.031 C 
ATOM     58  C   UNL     1      -4.297  12.482 -12.120  1.00  0.00     0.029 A 
ATOM     59  C   UNL     1      -4.105  11.109 -12.125  1.00  0.00     0.049 A 
ATOM     60  H   UNL     1      -2.667   9.964 -11.090  1.00  0.00     0.167 HD
ATOM     61  C   UNL     1      -4.622   8.770 -12.781  1.00  0.00     0.074 A 
ATOM     62  C   UNL     1      -5.403   7.775 -13.486  1.00  0.00     0.031 C 
ATOM     63  C   UNL     1      -4.854  10.105 -12.841  1.00  0.00     0.037 A 
BRANCH  50  64
ATOM     64  C   UNL     1      -1.032  13.521  -9.376  1.00  0.00     0.058 A 
ATOM     65  C   UNL     1       0.168  14.135  -9.768  1.00  0.00     0.135 A 
ATOM     66  C   UNL     1      -1.876  14.232  -8.508  1.00  0.00     0.135 A 
ATOM     67  F   UNL     1       1.022  13.494 -10.583  1.00  0.00    -0.206 F 
ATOM     68  C   UNL     1       0.534  15.389  -9.291  1.00  0.00     0.059 A 
ATOM     69  C   UNL     1      -1.545  15.501  -8.043  1.00  0.00     0.059 A 
ATOM     70  F   UNL     1      -3.036  13.692  -8.099  1.00  0.00    -0.206 F 
ATOM     71  C   UNL     1      -0.329  16.064  -8.427  1.00  0.00     0.060 A 
BRANCH  71  72
ATOM     72  S   UNL     1       0.162  17.689  -7.815  1.00  0.00     0.124 S 
ATOM     73  O   UNL     1       1.212  17.336  -6.864  1.00  0.00    -0.237 OA
ATOM     74  O   UNL     1       0.609  18.359  -9.032  1.00  0.00    -0.237 OA
ATOM     75  O   UNL     1      -1.065  18.217  -7.227  1.00  0.00    -0.744 OA
ENDBRANCH  71  72
ENDBRANCH  50  64
BRANCH  51  76
ATOM     76  C   UNL     1      -3.401   4.244 -12.308  1.00  0.00     0.058 A 
ATOM     77  C   UNL     1      -3.246   3.828 -13.639  1.00  0.00     0.135 A 
ATOM     78  C   UNL     1      -3.908   3.312 -11.388  1.00  0.00     0.135 A 
ATOM     79  F   UNL     1      -2.770   4.683 -14.557  1.00  0.00    -0.206 F 
ATOM     80  C   UNL     1      -3.597   2.546 -14.048  1.00  0.00     0.059 A 
ATOM     81  C   UNL     1      -4.242   2.016 -11.768  1.00  0.00     0.059 A 
ATOM     82  F   UNL     1      -4.059   3.654 -10.099  1.00  0.00    -0.206 F 
ATOM     83  C   UNL     1      -4.092   1.645 -13.104  1.00  0.00     0.060 A 
BRANCH  83  84
ATOM     84  S   UNL     1      -4.503  -0.031 -13.638  1.00  0.00     0.124 S 
ATOM     85  O   UNL     1      -5.721   0.196 -14.406  1.00  0.00    -0.237 OA
ATOM     86  O   UNL     1      -3.321  -0.404 -14.409  1.00  0.00    -0.237 OA
ATOM     87  O   UNL     1      -4.674  -0.751 -12.379  1.00  0.00    -0.744 OA
ENDBRANCH  83  84
ENDBRANCH  51  76
BRANCH  63  88
ATOM     88  C   UNL     1      -5.955  10.585 -13.745  1.00  0.00     0.058 A 
ATOM     89  C   UNL     1      -7.308  10.435 -13.409  1.00  0.00     0.135 A 
ATOM     90  C   UNL     1      -5.642  11.289 -14.920  1.00  0.00     0.135 A 
ATOM     91  F   UNL     1      -7.660   9.764 -12.301  1.00  0.00    -0.206 F 
ATOM     92  C   UNL     1      -8.316  10.959 -14.213  1.00  0.00     0.059 A 
ATOM     93  C   UNL     1      -6.632  11.844 -15.723  1.00  0.00     0.059 A 
ATOM     94  F   UNL     1      -4.361  11.468 -15.280  1.00  0.00    -0.206 F 
ATOM     95  C   UNL     1      -7.967  11.670 -15.364  1.00  0.00     0.060 A 
BRANCH  95  96
ATOM     96  S   UNL     1      -9.282  12.402 -16.360  1.00  0.00     0.124 S 
ATOM     97  O   UNL     1      -9.858  11.224 -17.000  1.00  0.00    -0.237 OA
ATOM     98  O   UNL     1     -10.116  13.047 -15.350  1.00  0.00    -0.237 OA
ATOM     99  O   UNL     1      -8.568  13.314 -17.249  1.00  0.00    -0.744 OA
ENDBRANCH  95  96
ENDBRANCH  63  88
ENDBRANCH  37  38
ENDBRANCH  29  32
ENDBRANCH  27  28
ENDBRANCH  26  27
ENDBRANCH  25  26
ENDBRANCH   1  25
TORSDOF 18
