REMARK SMILES O=C(NCCCCCCNC(=O)c1cnccc1C(=O)Nc1ccc(Cl)c(Cl)c1)c1ccc(-c2c3nc(c(-c4c(F)cc(S(=O)(=O)[O-])cc4F)c4ccc([nH]4)c(-c4c(F)cc(S(=O)(=O)[O-])cc4F)c4nc(c(-c5c(F)cc(S(=O)(=O)[O-])cc5F)c5ccc2[nH]5)C=C4)C=C3)cc1
REMARK SMILES IDX 6 1 5 2 4 3 3 4 1 5 2 6 30 8 31 9 95 10 32 11 94 12 33 13
REMARK SMILES IDX 34 14 35 15 88 16 36 17 93 18 87 19 89 20 37 21 92 22 86 23
REMARK SMILES IDX 85 24 38 26 72 27 51 28 71 29 52 30 55 31 70 32 90 33 53 34
REMARK SMILES IDX 54 35 69 37 91 38 56 39 39 40 40 41 49 42 41 43 42 44 48 45
REMARK SMILES IDX 50 46 43 47 44 48 45 49 46 50 47 51 73 52 74 53 83 54 75 55
REMARK SMILES IDX 76 56 82 57 84 58 77 59 78 60 79 61 80 62 81 63 57 64 58 65
REMARK SMILES IDX 67 66 59 67 60 68 66 69 68 70 61 71 62 72 63 73 64 74 65 75
REMARK SMILES IDX 7 76 8 77 9 78 10 79 11 80 12 82 13 83 14 84 18 85 15 86
REMARK SMILES IDX 17 87 16 88 19 89 20 90 21 91 22 93 23 94 29 95 24 96 27 97
REMARK SMILES IDX 25 98 28 99 26 100
REMARK H PARENT 3 7 89 25 55 36 10 81 21 92
REMARK Flexibility Score: inf
ROOT
ATOM      1  C   UNL     1       4.566  -2.187  -3.067  1.00  0.00     0.002 C 
ENDROOT
BRANCH   1   2
ATOM      2  C   UNL     1       4.870  -2.092  -1.576  1.00  0.00     0.021 C 
BRANCH   2   3
ATOM      3  C   UNL     1       4.478  -0.783  -0.911  1.00  0.00     0.116 C 
BRANCH   3   4
ATOM      4  N   UNL     1       3.052  -0.504  -0.948  1.00  0.00    -0.352 N 
ATOM      5  O   UNL     1       1.078   0.218  -0.104  1.00  0.00    -0.269 OA
ATOM      6  C   UNL     1       2.293   0.108   0.025  1.00  0.00     0.251 C 
ATOM      7  H   UNL     1       2.574  -0.785  -1.762  1.00  0.00     0.163 HD
BRANCH   6   8
ATOM      8  C   UNL     1       2.967   0.587   1.252  1.00  0.00     0.039 A 
ATOM      9  C   UNL     1       4.128   1.359   1.159  1.00  0.00     0.014 A 
ATOM     10  C   UNL     1       2.481   0.189   2.500  1.00  0.00     0.014 A 
ATOM     11  C   UNL     1       4.889   1.591   2.298  1.00  0.00     0.010 A 
ATOM     12  C   UNL     1       3.202   0.506   3.655  1.00  0.00     0.010 A 
ATOM     13  C   UNL     1       4.433   1.175   3.560  1.00  0.00    -0.014 A 
BRANCH  13  14
ATOM     14  C   UNL     1       5.244   1.496   4.763  1.00  0.00     0.031 A 
ATOM     15  C   UNL     1       5.861   0.413   5.606  1.00  0.00     0.074 A 
ATOM     16  C   UNL     1       5.457   2.793   5.062  1.00  0.00     0.049 A 
ATOM     17  N   UNL     1       6.619   0.530   6.667  1.00  0.00    -0.248 NA
ATOM     18  C   UNL     1       5.590  -0.979   5.216  1.00  0.00     0.031 C 
ATOM     19  C   UNL     1       4.901   3.928   4.320  1.00  0.00     0.029 A 
ATOM     20  N   UNL     1       6.215   3.378   6.042  1.00  0.00    -0.354 N 
ATOM     21  C   UNL     1       6.890  -0.766   7.091  1.00  0.00     0.074 A 
ATOM     22  C   UNL     1       6.204  -1.656   6.178  1.00  0.00     0.031 C 
ATOM     23  C   UNL     1       5.388   5.068   4.829  1.00  0.00     0.029 A 
ATOM     24  C   UNL     1       6.234   4.750   5.973  1.00  0.00     0.049 A 
ATOM     25  H   UNL     1       6.699   2.865   6.729  1.00  0.00     0.167 HD
ATOM     26  C   UNL     1       7.643  -1.173   8.142  1.00  0.00     0.037 A 
ATOM     27  C   UNL     1       6.855   5.657   6.749  1.00  0.00     0.037 A 
ATOM     28  C   UNL     1       8.344  -0.279   9.030  1.00  0.00     0.049 A 
ATOM     29  C   UNL     1       7.684   5.180   7.903  1.00  0.00     0.074 A 
ATOM     30  C   UNL     1       9.160  -0.593  10.103  1.00  0.00     0.029 A 
ATOM     31  N   UNL     1       8.312   1.107   8.948  1.00  0.00    -0.354 N 
ATOM     32  N   UNL     1       7.938   3.949   8.280  1.00  0.00    -0.248 NA
ATOM     33  C   UNL     1       8.303   6.212   8.745  1.00  0.00     0.031 C 
ATOM     34  C   UNL     1       9.594   0.602  10.690  1.00  0.00     0.029 A 
ATOM     35  C   UNL     1       9.079   1.661   9.960  1.00  0.00     0.049 A 
ATOM     36  H   UNL     1       7.816   1.620   8.270  1.00  0.00     0.167 HD
ATOM     37  C   UNL     1       8.753   4.057   9.399  1.00  0.00     0.074 A 
ATOM     38  C   UNL     1       8.966   5.474   9.625  1.00  0.00     0.031 C 
ATOM     39  C   UNL     1       9.274   3.073  10.172  1.00  0.00     0.037 A 
BRANCH  26  40
ATOM     40  C   UNL     1       7.731  -2.651   8.408  1.00  0.00     0.058 A 
ATOM     41  C   UNL     1       8.488  -3.508   7.595  1.00  0.00     0.135 A 
ATOM     42  C   UNL     1       7.071  -3.215   9.514  1.00  0.00     0.135 A 
ATOM     43  F   UNL     1       9.129  -3.026   6.518  1.00  0.00    -0.206 F 
ATOM     44  C   UNL     1       8.565  -4.875   7.849  1.00  0.00     0.059 A 
ATOM     45  C   UNL     1       7.152  -4.575   9.800  1.00  0.00     0.059 A 
ATOM     46  F   UNL     1       6.335  -2.441  10.327  1.00  0.00    -0.206 F 
ATOM     47  C   UNL     1       7.888  -5.400   8.951  1.00  0.00     0.060 A 
BRANCH  47  48
ATOM     48  S   UNL     1       7.984  -7.176   9.263  1.00  0.00     0.124 S 
ATOM     49  O   UNL     1       7.076  -7.698   8.246  1.00  0.00    -0.237 OA
ATOM     50  O   UNL     1       9.400  -7.458   9.051  1.00  0.00    -0.237 OA
ATOM     51  O   UNL     1       7.522  -7.305  10.642  1.00  0.00    -0.744 OA
ENDBRANCH  47  48
ENDBRANCH  26  40
BRANCH  27  52
ATOM     52  C   UNL     1       6.712   7.103   6.444  1.00  0.00     0.058 A 
ATOM     53  C   UNL     1       7.784   7.837   5.916  1.00  0.00     0.135 A 
ATOM     54  C   UNL     1       5.489   7.767   6.628  1.00  0.00     0.135 A 
ATOM     55  F   UNL     1       8.973   7.244   5.725  1.00  0.00    -0.206 F 
ATOM     56  C   UNL     1       7.650   9.180   5.582  1.00  0.00     0.059 A 
ATOM     57  C   UNL     1       5.324   9.102   6.279  1.00  0.00     0.059 A 
ATOM     58  F   UNL     1       4.429   7.101   7.113  1.00  0.00    -0.206 F 
ATOM     59  C   UNL     1       6.414   9.803   5.763  1.00  0.00     0.060 A 
BRANCH  59  60
ATOM     60  S   UNL     1       6.226  11.527   5.261  1.00  0.00     0.124 S 
ATOM     61  O   UNL     1       6.873  12.225   6.366  1.00  0.00    -0.237 OA
ATOM     62  O   UNL     1       6.934  11.557   3.985  1.00  0.00    -0.237 OA
ATOM     63  O   UNL     1       4.778  11.691   5.169  1.00  0.00    -0.744 OA
ENDBRANCH  59  60
ENDBRANCH  27  52
BRANCH  39  64
ATOM     64  C   UNL     1      10.140   3.503  11.321  1.00  0.00     0.058 A 
ATOM     65  C   UNL     1       9.588   4.057  12.487  1.00  0.00     0.135 A 
ATOM     66  C   UNL     1      11.533   3.346  11.261  1.00  0.00     0.135 A 
ATOM     67  F   UNL     1       8.262   4.237  12.588  1.00  0.00    -0.206 F 
ATOM     68  C   UNL     1      10.393   4.468  13.544  1.00  0.00     0.059 A 
ATOM     69  C   UNL     1      12.354   3.729  12.315  1.00  0.00     0.059 A 
ATOM     70  F   UNL     1      12.107   2.814  10.170  1.00  0.00    -0.206 F 
ATOM     71  C   UNL     1      11.776   4.303  13.447  1.00  0.00     0.060 A 
BRANCH  71  72
ATOM     72  S   UNL     1      12.813   4.827  14.829  1.00  0.00     0.124 S 
ATOM     73  O   UNL     1      12.851   6.272  14.634  1.00  0.00    -0.237 OA
ATOM     74  O   UNL     1      12.054   4.363  15.987  1.00  0.00    -0.237 OA
ATOM     75  O   UNL     1      14.071   4.126  14.591  1.00  0.00    -0.744 OA
ENDBRANCH  71  72
ENDBRANCH  39  64
ENDBRANCH  13  14
ENDBRANCH   6   8
ENDBRANCH   3   4
ENDBRANCH   2   3
ENDBRANCH   1   2
BRANCH   1  76
ATOM     76  C   UNL     1       5.022  -1.004  -3.925  1.00  0.00     0.002 C 
BRANCH  76  77
ATOM     77  C   UNL     1       6.513  -0.643  -3.829  1.00  0.00     0.021 C 
BRANCH  77  78
ATOM     78  C   UNL     1       7.463  -1.726  -4.334  1.00  0.00     0.116 C 
BRANCH  78  79
ATOM     79  N   UNL     1       7.279  -1.956  -5.753  1.00  0.00    -0.352 N 
ATOM     80  C   UNL     1       8.105  -2.553  -6.657  1.00  0.00     0.253 C 
ATOM     81  H   UNL     1       6.425  -1.631  -6.120  1.00  0.00     0.163 HD
ATOM     82  O   UNL     1       7.848  -2.458  -7.857  1.00  0.00    -0.269 OA
BRANCH  80  83
ATOM     83  C   UNL     1       9.334  -3.247  -6.262  1.00  0.00     0.070 A 
ATOM     84  C   UNL     1      10.472  -2.797  -6.933  1.00  0.00     0.125 A 
ATOM     85  C   UNL     1       9.489  -4.299  -5.356  1.00  0.00     0.056 A 
ATOM     86  N   UNL     1      11.729  -3.254  -6.718  1.00  0.00    -0.264 NA
ATOM     87  C   UNL     1      10.796  -4.763  -5.105  1.00  0.00     0.035 A 
ATOM     88  C   UNL     1      11.866  -4.215  -5.789  1.00  0.00     0.112 A 
BRANCH  85  89
ATOM     89  C   UNL     1       8.451  -4.934  -4.506  1.00  0.00     0.256 C 
ATOM     90  O   UNL     1       8.778  -5.214  -3.349  1.00  0.00    -0.269 OA
ATOM     91  N   UNL     1       7.142  -5.165  -4.843  1.00  0.00    -0.322 N 
ATOM     92  H   UNL     1       6.587  -5.420  -4.071  1.00  0.00     0.170 HD
BRANCH  91  93
ATOM     93  C   UNL     1       6.424  -5.117  -6.038  1.00  0.00     0.043 A 
ATOM     94  C   UNL     1       6.977  -5.357  -7.291  1.00  0.00     0.028 A 
ATOM     95  C   UNL     1       5.072  -4.768  -5.935  1.00  0.00     0.048 A 
ATOM     96  C   UNL     1       6.210  -5.127  -8.441  1.00  0.00     0.024 A 
ATOM     97  C   UNL     1       4.321  -4.494  -7.079  1.00  0.00     0.061 A 
ATOM     98  C   UNL     1       4.896  -4.659  -8.339  1.00  0.00     0.059 A 
ATOM     99  Cl  UNL     1       2.713  -3.902  -6.853  1.00  0.00    -0.083 Cl
ATOM    100  Cl  UNL     1       4.046  -4.295  -9.796  1.00  0.00    -0.083 Cl
ENDBRANCH  91  93
ENDBRANCH  85  89
ENDBRANCH  80  83
ENDBRANCH  78  79
ENDBRANCH  77  78
ENDBRANCH  76  77
ENDBRANCH   1  76
TORSDOF 18
