REMARK SMILES CCc1c([N+](=O)[O-])cc(C(=O)NCCCCCCNC(=O)c2ccc(-c3c4nc(c(-c5c(F)cc(S(=O)(=O)[O-])cc5F)c5ccc([nH]5)c(-c5c(F)cc(S(=O)(=O)[O-])cc5F)c5nc(c(-c6c(F)cc(S(=O)(=O)[O-])cc6F)c6ccc3[nH]6)C=C5)C=C4)cc2)n1C
REMARK SMILES IDX 16 1 15 2 14 3 13 4 12 5 10 6 11 7 9 9 3 10 4 11 88 12 8 13
REMARK SMILES IDX 89 14 2 15 1 16 5 17 6 18 7 19 17 20 18 21 19 22 20 23 21 25
REMARK SMILES IDX 22 26 23 27 87 28 24 29 86 30 25 31 26 32 27 33 80 34 28 35
REMARK SMILES IDX 85 36 79 37 81 38 29 39 84 40 78 41 77 42 30 44 64 45 43 46
REMARK SMILES IDX 63 47 44 48 47 49 62 50 82 51 45 52 46 53 61 55 83 56 48 57
REMARK SMILES IDX 31 58 32 59 41 60 33 61 34 62 40 63 42 64 35 65 36 66 37 67
REMARK SMILES IDX 38 68 39 69 65 70 66 71 75 72 67 73 68 74 74 75 76 76 69 77
REMARK SMILES IDX 70 78 71 79 72 80 73 81 49 82 50 83 59 84 51 85 52 86 58 87
REMARK SMILES IDX 60 88 53 89 54 90 55 91 56 92 57 93
REMARK H PARENT 12 8 19 24 81 43 47 54
REMARK Flexibility Score: inf
ROOT
ATOM      1  C   UNL     1       1.609   5.417   4.888  1.00  0.00     0.002 C 
ENDROOT
BRANCH   1   2
ATOM      2  C   UNL     1       0.522   4.683   5.678  1.00  0.00     0.002 C 
BRANCH   2   3
ATOM      3  C   UNL     1      -0.207   3.529   4.979  1.00  0.00     0.021 C 
BRANCH   3   4
ATOM      4  C   UNL     1       0.660   2.500   4.256  1.00  0.00     0.116 C 
BRANCH   4   5
ATOM      5  N   UNL     1       1.658   1.878   5.099  1.00  0.00    -0.351 N 
ATOM      6  C   UNL     1       2.218   0.628   5.032  1.00  0.00     0.268 C 
ATOM      7  O   UNL     1       3.012   0.322   5.922  1.00  0.00    -0.268 OA
ATOM      8  H   UNL     1       1.986   2.441   5.837  1.00  0.00     0.163 HD
BRANCH   6   9
ATOM      9  C   UNL     1       1.823  -0.308   3.996  1.00  0.00     0.114 A 
ATOM     10  C   UNL     1       1.164  -1.236   2.017  1.00  0.00     0.096 A 
ATOM     11  C   UNL     1       1.192  -2.247   2.986  1.00  0.00     0.290 A 
ATOM     12  N   UNL     1       1.729  -0.115   2.623  1.00  0.00    -0.338 N 
ATOM     13  C   UNL     1       1.616  -1.662   4.202  1.00  0.00     0.119 A 
ATOM     14  C   UNL     1       2.326   1.015   1.938  1.00  0.00     0.150 C 
BRANCH  10  15
ATOM     15  C   UNL     1       0.635  -1.363   0.604  1.00  0.00     0.058 C 
ATOM     16  C   UNL     1       0.812  -0.222  -0.376  1.00  0.00     0.011 C 
ENDBRANCH  10  15
BRANCH  11  17
ATOM     17  N   UNL     1       0.838  -3.644   2.821  1.00  0.00     0.064 N 
ATOM     18  O   UNL     1       0.217  -3.974   1.803  1.00  0.00    -0.258 OA
ATOM     19  O   UNL     1       1.185  -4.413   3.728  1.00  0.00    -0.258 OA
ENDBRANCH  11  17
ENDBRANCH   6   9
ENDBRANCH   4   5
ENDBRANCH   3   4
ENDBRANCH   2   3
ENDBRANCH   1   2
BRANCH   1  20
ATOM     20  C   UNL     1       1.227   5.963   3.511  1.00  0.00     0.021 C 
BRANCH  20  21
ATOM     21  C   UNL     1      -0.033   6.818   3.436  1.00  0.00     0.116 C 
BRANCH  21  22
ATOM     22  N   UNL     1       0.027   8.015   4.255  1.00  0.00    -0.352 N 
ATOM     23  C   UNL     1      -0.302   9.314   3.941  1.00  0.00     0.251 C 
ATOM     24  H   UNL     1       0.352   7.877   5.173  1.00  0.00     0.163 HD
ATOM     25  O   UNL     1      -0.103  10.201   4.765  1.00  0.00    -0.269 OA
BRANCH  23  26
ATOM     26  C   UNL     1      -0.853   9.658   2.606  1.00  0.00     0.039 A 
ATOM     27  C   UNL     1      -0.348  10.786   1.950  1.00  0.00     0.014 A 
ATOM     28  C   UNL     1      -1.860   8.899   2.003  1.00  0.00     0.014 A 
ATOM     29  C   UNL     1      -0.792  11.105   0.663  1.00  0.00     0.010 A 
ATOM     30  C   UNL     1      -2.262   9.185   0.697  1.00  0.00     0.010 A 
ATOM     31  C   UNL     1      -1.725  10.284   0.010  1.00  0.00    -0.014 A 
BRANCH  31  32
ATOM     32  C   UNL     1      -2.132  10.546  -1.395  1.00  0.00     0.031 A 
ATOM     33  C   UNL     1      -3.544  10.948  -1.718  1.00  0.00     0.074 A 
ATOM     34  C   UNL     1      -1.246  10.349  -2.392  1.00  0.00     0.049 A 
ATOM     35  N   UNL     1      -4.107  11.118  -2.887  1.00  0.00    -0.248 NA
ATOM     36  C   UNL     1      -4.446  11.167  -0.577  1.00  0.00     0.031 C 
ATOM     37  C   UNL     1       0.144   9.922  -2.218  1.00  0.00     0.029 A 
ATOM     38  N   UNL     1      -1.388  10.467  -3.753  1.00  0.00    -0.354 N 
ATOM     39  C   UNL     1      -5.433  11.443  -2.626  1.00  0.00     0.074 A 
ATOM     40  C   UNL     1      -5.597  11.417  -1.187  1.00  0.00     0.031 C 
ATOM     41  C   UNL     1       0.729   9.824  -3.423  1.00  0.00     0.029 A 
ATOM     42  C   UNL     1      -0.250  10.149  -4.456  1.00  0.00     0.049 A 
ATOM     43  H   UNL     1      -2.225  10.753  -4.184  1.00  0.00     0.167 HD
ATOM     44  C   UNL     1      -6.419  11.748  -3.503  1.00  0.00     0.037 A 
ATOM     45  C   UNL     1      -0.022  10.111  -5.783  1.00  0.00     0.037 A 
ATOM     46  C   UNL     1      -6.250  11.807  -4.931  1.00  0.00     0.049 A 
ATOM     47  C   UNL     1      -1.127  10.470  -6.736  1.00  0.00     0.074 A 
ATOM     48  C   UNL     1      -7.178  12.162  -5.895  1.00  0.00     0.029 A 
ATOM     49  N   UNL     1      -5.074  11.507  -5.602  1.00  0.00    -0.354 N 
ATOM     50  N   UNL     1      -2.364  10.813  -6.468  1.00  0.00    -0.248 NA
ATOM     51  C   UNL     1      -0.807  10.438  -8.171  1.00  0.00     0.031 C 
ATOM     52  C   UNL     1      -6.570  12.056  -7.151  1.00  0.00     0.029 A 
ATOM     53  C   UNL     1      -5.255  11.659  -6.967  1.00  0.00     0.049 A 
ATOM     54  H   UNL     1      -4.234  11.228  -5.171  1.00  0.00     0.167 HD
ATOM     55  C   UNL     1      -2.965  11.054  -7.698  1.00  0.00     0.074 A 
ATOM     56  C   UNL     1      -1.955  10.826  -8.711  1.00  0.00     0.031 C 
ATOM     57  C   UNL     1      -4.239  11.432  -7.963  1.00  0.00     0.037 A 
BRANCH  44  58
ATOM     58  C   UNL     1      -7.777  12.045  -2.935  1.00  0.00     0.058 A 
ATOM     59  C   UNL     1      -8.050  13.258  -2.284  1.00  0.00     0.135 A 
ATOM     60  C   UNL     1      -8.823  11.116  -3.060  1.00  0.00     0.135 A 
ATOM     61  F   UNL     1      -7.080  14.172  -2.126  1.00  0.00    -0.206 F 
ATOM     62  C   UNL     1      -9.304  13.528  -1.747  1.00  0.00     0.059 A 
ATOM     63  C   UNL     1     -10.091  11.374  -2.549  1.00  0.00     0.059 A 
ATOM     64  F   UNL     1      -8.614   9.941  -3.674  1.00  0.00    -0.206 F 
ATOM     65  C   UNL     1     -10.317  12.576  -1.878  1.00  0.00     0.060 A 
BRANCH  65  66
ATOM     66  S   UNL     1     -11.938  12.929  -1.166  1.00  0.00     0.124 S 
ATOM     67  O   UNL     1     -11.702  12.640   0.245  1.00  0.00    -0.237 OA
ATOM     68  O   UNL     1     -12.131  14.337  -1.500  1.00  0.00    -0.237 OA
ATOM     69  O   UNL     1     -12.821  11.997  -1.860  1.00  0.00    -0.744 OA
ENDBRANCH  65  66
ENDBRANCH  44  58
BRANCH  45  70
ATOM     70  C   UNL     1       1.321   9.730  -6.288  1.00  0.00     0.058 A 
ATOM     71  C   UNL     1       2.197  10.700  -6.797  1.00  0.00     0.135 A 
ATOM     72  C   UNL     1       1.763   8.400  -6.249  1.00  0.00     0.135 A 
ATOM     73  F   UNL     1       1.812  11.983  -6.859  1.00  0.00    -0.206 F 
ATOM     74  C   UNL     1       3.466  10.364  -7.255  1.00  0.00     0.059 A 
ATOM     75  C   UNL     1       3.034   8.042  -6.685  1.00  0.00     0.059 A 
ATOM     76  F   UNL     1       0.965   7.440  -5.756  1.00  0.00    -0.206 F 
ATOM     77  C   UNL     1       3.877   9.031  -7.192  1.00  0.00     0.060 A 
BRANCH  77  78
ATOM     78  S   UNL     1       5.551   8.608  -7.723  1.00  0.00     0.124 S 
ATOM     79  O   UNL     1       5.400   8.580  -9.173  1.00  0.00    -0.237 OA
ATOM     80  O   UNL     1       6.337   9.714  -7.183  1.00  0.00    -0.237 OA
ATOM     81  O   UNL     1       5.784   7.316  -7.084  1.00  0.00    -0.744 OA
ENDBRANCH  77  78
ENDBRANCH  45  70
BRANCH  57  82
ATOM     82  C   UNL     1      -4.611  11.642  -9.402  1.00  0.00     0.058 A 
ATOM     83  C   UNL     1      -4.873  10.560 -10.254  1.00  0.00     0.135 A 
ATOM     84  C   UNL     1      -4.755  12.939  -9.918  1.00  0.00     0.135 A 
ATOM     85  F   UNL     1      -4.740   9.301  -9.808  1.00  0.00    -0.206 F 
ATOM     86  C   UNL     1      -5.256  10.756 -11.577  1.00  0.00     0.059 A 
ATOM     87  C   UNL     1      -5.153  13.159 -11.233  1.00  0.00     0.059 A 
ATOM     88  F   UNL     1      -4.520  14.007  -9.139  1.00  0.00    -0.206 F 
ATOM     89  C   UNL     1      -5.393  12.060 -12.058  1.00  0.00     0.060 A 
BRANCH  89  90
ATOM     90  S   UNL     1      -5.930  12.308 -13.764  1.00  0.00     0.124 S 
ATOM     91  O   UNL     1      -4.691  12.073 -14.498  1.00  0.00    -0.237 OA
ATOM     92  O   UNL     1      -6.963  11.288 -13.922  1.00  0.00    -0.237 OA
ATOM     93  O   UNL     1      -6.414  13.685 -13.768  1.00  0.00    -0.744 OA
ENDBRANCH  89  90
ENDBRANCH  57  82
ENDBRANCH  31  32
ENDBRANCH  23  26
ENDBRANCH  21  22
ENDBRANCH  20  21
ENDBRANCH   1  20
TORSDOF 18
