REMARK SMILES C#CCNC(=O)C[N@@H+](CC(=O)NCCCCCCNC(=O)c1ccc(-c2c3nc(c(-c4c(F)cc(S(=O)(=O)[O-])cc4F)c4ccc([nH]4)c(-c4c(F)cc(S(=O)(=O)[O-])cc4F)c4nc(c(-c5c(F)cc(S(=O)(=O)[O-])cc5F)c5ccc2[nH]5)C=C4)C=C3)cc1)C(C)(C)C
REMARK SMILES IDX 14 1 13 2 12 3 10 4 11 5 9 7 8 8 7 10 5 11 4 12 6 14 3 15
REMARK SMILES IDX 2 16 1 17 88 18 89 19 90 20 91 21 15 22 16 23 17 24 18 25
REMARK SMILES IDX 19 26 20 27 21 29 22 30 23 31 87 32 24 33 86 34 25 35 26 36
REMARK SMILES IDX 27 37 80 38 28 39 85 40 79 41 81 42 29 43 84 44 78 45 77 46
REMARK SMILES IDX 30 48 64 49 43 50 63 51 44 52 47 53 62 54 82 55 45 56 46 57
REMARK SMILES IDX 61 59 83 60 48 61 31 62 32 63 41 64 33 65 34 66 40 67 42 68
REMARK SMILES IDX 35 69 36 70 37 71 38 72 39 73 65 74 66 75 75 76 67 77 68 78
REMARK SMILES IDX 74 79 76 80 69 81 70 82 71 83 72 84 73 85 49 86 50 87 59 88
REMARK SMILES IDX 51 89 52 90 58 91 60 92 53 93 54 94 55 95 56 96 57 97
REMARK H PARENT 12 6 8 9 4 13 19 28 81 47 47 58
REMARK Flexibility Score: inf
ROOT
ATOM      1  C   UNL     1      -6.190  -3.124  -2.574  1.00  0.00     0.021 C 
ENDROOT
BRANCH   1   2
ATOM      2  C   UNL     1      -5.871  -3.815  -1.246  1.00  0.00     0.116 C 
BRANCH   2   3
ATOM      3  N   UNL     1      -4.911  -4.888  -1.425  1.00  0.00    -0.351 N 
ATOM      4  C   UNL     1      -3.583  -4.968  -1.121  1.00  0.00     0.275 C 
ATOM      5  O   UNL     1      -3.043  -6.068  -1.288  1.00  0.00    -0.269 OA
ATOM      6  H   UNL     1      -5.282  -5.701  -1.837  1.00  0.00     0.163 HD
BRANCH   4   7
ATOM      7  C   UNL     1      -2.794  -3.788  -0.537  1.00  0.00     0.364 C 
BRANCH   7   8
ATOM      8  N   UNL     1      -2.232  -2.790  -1.493  1.00  0.00    -0.315 N 
ATOM      9  H   UNL     1      -1.560  -2.246  -0.951  1.00  0.00     0.349 HD
BRANCH   8  10
ATOM     10  C   UNL     1      -3.264  -1.837  -1.937  1.00  0.00     0.364 C 
BRANCH  10  11
ATOM     11  C   UNL     1      -2.818  -0.407  -2.216  1.00  0.00     0.275 C 
ATOM     12  N   UNL     1      -2.285   0.357  -1.228  1.00  0.00    -0.340 N 
ATOM     13  H   UNL     1      -2.179   1.313  -1.438  1.00  0.00     0.164 HD
ATOM     14  O   UNL     1      -3.048   0.123  -3.307  1.00  0.00    -0.268 OA
BRANCH  12  15
ATOM     15  C   UNL     1      -1.855  -0.046   0.083  1.00  0.00     0.206 C 
BRANCH  15  16
ATOM     16  C   UNL     1      -0.335  -0.046   0.083  1.00  0.00    -0.085 C 
ATOM     17  C   UNL     1       0.969  -0.046   0.083  1.00  0.00     0.006 C 
ENDBRANCH  15  16
ENDBRANCH  12  15
ENDBRANCH  10  11
ENDBRANCH   8  10
BRANCH   8  18
ATOM     18  C   UNL     1      -1.278  -3.289  -2.528  1.00  0.00     0.090 C 
ATOM     19  C   UNL     1      -1.920  -4.137  -3.650  1.00  0.00     0.078 C 
ATOM     20  C   UNL     1      -0.557  -2.112  -3.233  1.00  0.00     0.078 C 
ATOM     21  C   UNL     1      -0.153  -4.123  -1.868  1.00  0.00     0.078 C 
ENDBRANCH   8  18
ENDBRANCH   7   8
ENDBRANCH   4   7
ENDBRANCH   2   3
ENDBRANCH   1   2
BRANCH   1  22
ATOM     22  C   UNL     1      -7.444  -3.616  -3.294  1.00  0.00     0.002 C 
BRANCH  22  23
ATOM     23  C   UNL     1      -8.769  -3.344  -2.582  1.00  0.00     0.002 C 
BRANCH  23  24
ATOM     24  C   UNL     1      -9.016  -1.895  -2.148  1.00  0.00     0.021 C 
BRANCH  24  25
ATOM     25  C   UNL     1      -8.858  -0.833  -3.236  1.00  0.00     0.116 C 
BRANCH  25  26
ATOM     26  N   UNL     1      -9.719  -1.078  -4.380  1.00  0.00    -0.352 N 
ATOM     27  C   UNL     1     -10.739  -0.323  -4.899  1.00  0.00     0.251 C 
ATOM     28  H   UNL     1      -9.541  -1.920  -4.858  1.00  0.00     0.163 HD
ATOM     29  O   UNL     1     -11.469  -0.808  -5.760  1.00  0.00    -0.269 OA
BRANCH  27  30
ATOM     30  C   UNL     1     -10.979   1.058  -4.423  1.00  0.00     0.039 A 
ATOM     31  C   UNL     1     -12.295   1.462  -4.185  1.00  0.00     0.014 A 
ATOM     32  C   UNL     1      -9.930   1.968  -4.263  1.00  0.00     0.014 A 
ATOM     33  C   UNL     1     -12.555   2.761  -3.740  1.00  0.00     0.010 A 
ATOM     34  C   UNL     1     -10.185   3.246  -3.763  1.00  0.00     0.010 A 
ATOM     35  C   UNL     1     -11.501   3.658  -3.503  1.00  0.00    -0.014 A 
BRANCH  35  36
ATOM     36  C   UNL     1     -11.771   5.025  -2.986  1.00  0.00     0.031 A 
ATOM     37  C   UNL     1     -11.487   6.233  -3.839  1.00  0.00     0.074 A 
ATOM     38  C   UNL     1     -12.236   5.179  -1.730  1.00  0.00     0.049 A 
ATOM     39  N   UNL     1     -11.642   7.500  -3.551  1.00  0.00    -0.248 NA
ATOM     40  C   UNL     1     -10.935   5.989  -5.182  1.00  0.00     0.031 C 
ATOM     41  C   UNL     1     -12.491   4.090  -0.783  1.00  0.00     0.029 A 
ATOM     42  N   UNL     1     -12.570   6.310  -1.029  1.00  0.00    -0.354 N 
ATOM     43  C   UNL     1     -11.194   8.203  -4.664  1.00  0.00     0.074 A 
ATOM     44  C   UNL     1     -10.724   7.223  -5.619  1.00  0.00     0.031 C 
ATOM     45  C   UNL     1     -12.956   4.606   0.366  1.00  0.00     0.029 A 
ATOM     46  C   UNL     1     -13.012   6.059   0.249  1.00  0.00     0.049 A 
ATOM     47  H   UNL     1     -12.499   7.217  -1.406  1.00  0.00     0.167 HD
ATOM     48  C   UNL     1     -11.194   9.540  -4.878  1.00  0.00     0.037 A 
ATOM     49  C   UNL     1     -13.417   6.904   1.216  1.00  0.00     0.037 A 
ATOM     50  C   UNL     1     -11.703  10.510  -3.942  1.00  0.00     0.049 A 
ATOM     51  C   UNL     1     -13.454   8.381   0.932  1.00  0.00     0.074 A 
ATOM     52  C   UNL     1     -11.817  11.881  -4.100  1.00  0.00     0.029 A 
ATOM     53  N   UNL     1     -12.188  10.212  -2.678  1.00  0.00    -0.354 N 
ATOM     54  N   UNL     1     -13.098   9.020  -0.157  1.00  0.00    -0.248 NA
ATOM     55  C   UNL     1     -13.963   9.252   2.001  1.00  0.00     0.031 C 
ATOM     56  C   UNL     1     -12.342  12.416  -2.919  1.00  0.00     0.029 A 
ATOM     57  C   UNL     1     -12.591  11.374  -2.040  1.00  0.00     0.049 A 
ATOM     58  H   UNL     1     -12.239   9.309  -2.291  1.00  0.00     0.167 HD
ATOM     59  C   UNL     1     -13.362  10.363   0.087  1.00  0.00     0.074 A 
ATOM     60  C   UNL     1     -13.923  10.443   1.420  1.00  0.00     0.031 C 
ATOM     61  C   UNL     1     -13.156  11.434  -0.717  1.00  0.00     0.037 A 
BRANCH  48  62
ATOM     62  C   UNL     1     -10.645  10.045  -6.183  1.00  0.00     0.058 A 
ATOM     63  C   UNL     1     -11.353   9.894  -7.386  1.00  0.00     0.135 A 
ATOM     64  C   UNL     1      -9.433  10.754  -6.222  1.00  0.00     0.135 A 
ATOM     65  F   UNL     1     -12.509   9.212  -7.408  1.00  0.00    -0.206 F 
ATOM     66  C   UNL     1     -10.875  10.418  -8.582  1.00  0.00     0.059 A 
ATOM     67  C   UNL     1      -8.946  11.306  -7.403  1.00  0.00     0.059 A 
ATOM     68  F   UNL     1      -8.715  10.925  -5.100  1.00  0.00    -0.206 F 
ATOM     69  C   UNL     1      -9.672  11.126  -8.580  1.00  0.00     0.060 A 
BRANCH  69  70
ATOM     70  S   UNL     1      -9.086  11.836 -10.134  1.00  0.00     0.124 S 
ATOM     71  O   UNL     1      -8.611  10.648 -10.836  1.00  0.00    -0.237 OA
ATOM     72  O   UNL     1     -10.295  12.450 -10.674  1.00  0.00    -0.237 OA
ATOM     73  O   UNL     1      -8.048  12.771  -9.710  1.00  0.00    -0.744 OA
ENDBRANCH  69  70
ENDBRANCH  48  62
BRANCH  49  74
ATOM     74  C   UNL     1     -13.842   6.378   2.540  1.00  0.00     0.058 A 
ATOM     75  C   UNL     1     -15.189   6.407   2.931  1.00  0.00     0.135 A 
ATOM     76  C   UNL     1     -12.909   5.853   3.446  1.00  0.00     0.135 A 
ATOM     77  F   UNL     1     -16.118   6.904   2.100  1.00  0.00    -0.206 F 
ATOM     78  C   UNL     1     -15.593   5.962   4.186  1.00  0.00     0.059 A 
ATOM     79  C   UNL     1     -13.292   5.379   4.697  1.00  0.00     0.059 A 
ATOM     80  F   UNL     1     -11.611   5.784   3.111  1.00  0.00    -0.206 F 
ATOM     81  C   UNL     1     -14.635   5.454   5.064  1.00  0.00     0.060 A 
BRANCH  81  82
ATOM     82  S   UNL     1     -15.166   4.857   6.684  1.00  0.00     0.124 S 
ATOM     83  O   UNL     1     -15.345   6.107   7.412  1.00  0.00    -0.237 OA
ATOM     84  O   UNL     1     -16.387   4.125   6.359  1.00  0.00    -0.237 OA
ATOM     85  O   UNL     1     -14.045   4.027   7.116  1.00  0.00    -0.744 OA
ENDBRANCH  81  82
ENDBRANCH  49  74
BRANCH  61  86
ATOM     86  C   UNL     1     -13.571  12.778  -0.188  1.00  0.00     0.058 A 
ATOM     87  C   UNL     1     -12.838  13.433   0.813  1.00  0.00     0.135 A 
ATOM     88  C   UNL     1     -14.704  13.427  -0.706  1.00  0.00     0.135 A 
ATOM     89  F   UNL     1     -11.750  12.852   1.343  1.00  0.00    -0.206 F 
ATOM     90  C   UNL     1     -13.233  14.671   1.308  1.00  0.00     0.059 A 
ATOM     91  C   UNL     1     -15.102  14.676  -0.243  1.00  0.00     0.059 A 
ATOM     92  F   UNL     1     -15.432  12.848  -1.673  1.00  0.00    -0.206 F 
ATOM     93  C   UNL     1     -14.370  15.283   0.777  1.00  0.00     0.060 A 
BRANCH  93  94
ATOM     94  S   UNL     1     -14.872  16.893   1.421  1.00  0.00     0.124 S 
ATOM     95  O   UNL     1     -15.511  16.519   2.678  1.00  0.00    -0.237 OA
ATOM     96  O   UNL     1     -13.599  17.596   1.542  1.00  0.00    -0.237 OA
ATOM     97  O   UNL     1     -15.767  17.406   0.388  1.00  0.00    -0.744 OA
ENDBRANCH  93  94
ENDBRANCH  61  86
ENDBRANCH  35  36
ENDBRANCH  27  30
ENDBRANCH  25  26
ENDBRANCH  24  25
ENDBRANCH  23  24
ENDBRANCH  22  23
ENDBRANCH   1  22
TORSDOF 22
