REMARK SMILES Cn1c(=O)c(=O)n(C)c2cc(S(=O)(=O)N3CCC[C@H]3C(=O)NCCCCCCNC(=O)c3ccc(-c4c5nc(c(-c6c(F)cc(S(=O)(=O)[O-])cc6F)c6ccc([nH]6)c(-c6c(F)cc(S(=O)(=O)[O-])cc6F)c6nc(c(-c7c(F)cc(S(=O)(=O)[O-])cc7F)c7ccc4[nH]7)C=C6)C=C5)cc3)ccc21
REMARK SMILES IDX 26 1 25 2 24 3 23 4 22 5 20 6 21 7 19 9 15 10 16 11 17 12
REMARK SMILES IDX 18 13 12 14 13 15 14 16 11 17 1 18 2 19 3 20 100 21 4 22
REMARK SMILES IDX 5 23 9 24 99 25 6 26 7 27 10 28 98 29 8 30 27 31 28 32 29 33
REMARK SMILES IDX 30 34 31 36 32 37 33 38 97 39 34 40 96 41 35 42 36 43 37 44
REMARK SMILES IDX 90 45 38 46 95 47 89 48 91 49 39 50 94 51 88 52 87 53 40 55
REMARK SMILES IDX 74 56 53 57 73 58 54 59 57 60 72 61 92 62 55 63 56 64 71 66
REMARK SMILES IDX 93 67 58 68 41 69 42 70 51 71 43 72 44 73 50 74 52 75 45 76
REMARK SMILES IDX 46 77 47 78 48 79 49 80 75 81 76 82 85 83 77 84 78 85 84 86
REMARK SMILES IDX 86 87 79 88 80 89 81 90 82 91 83 92 59 93 60 94 69 95 61 96
REMARK SMILES IDX 62 97 68 98 70 99 63 100 64 101 65 102 66 103 67 104
REMARK H PARENT 22 8 29 35 91 54 57 65
REMARK Flexibility Score: inf
ROOT
ATOM      1  C   UNL     1      10.562   8.318   1.113  1.00  0.00     0.002 C 
ENDROOT
BRANCH   1   2
ATOM      2  C   UNL     1       9.279   8.721   1.847  1.00  0.00     0.002 C 
BRANCH   2   3
ATOM      3  C   UNL     1       7.974   8.194   1.246  1.00  0.00     0.021 C 
BRANCH   3   4
ATOM      4  C   UNL     1       7.892   6.678   1.099  1.00  0.00     0.116 C 
BRANCH   4   5
ATOM      5  N   UNL     1       7.764   6.025   2.385  1.00  0.00    -0.355 N 
ATOM      6  C   UNL     1       6.981   4.990   2.789  1.00  0.00     0.238 C 
ATOM      7  O   UNL     1       7.080   4.649   3.975  1.00  0.00    -0.273 OA
ATOM      8  H   UNL     1       8.345   6.395   3.088  1.00  0.00     0.163 HD
BRANCH   6   9
ATOM      9  C   UNL     1       6.133   4.155   1.838  1.00  0.00     0.162 C 
ATOM     10  N   UNL     1       5.499   4.810   0.680  1.00  0.00    -0.185 NA
ATOM     11  C   UNL     1       5.921   4.190  -0.587  1.00  0.00     0.103 C 
ATOM     12  C   UNL     1       6.471   2.835  -0.182  1.00  0.00     0.019 C 
ATOM     13  C   UNL     1       6.991   3.037   1.232  1.00  0.00     0.032 C 
BRANCH  10  14
ATOM     14  S   UNL     1       3.994   5.533   0.825  1.00  0.00     0.243 S 
ATOM     15  O   UNL     1       3.838   6.406  -0.319  1.00  0.00    -0.207 OA
ATOM     16  O   UNL     1       3.850   6.021   2.178  1.00  0.00    -0.207 OA
BRANCH  14  17
ATOM     17  C   UNL     1       2.793   4.227   0.621  1.00  0.00     0.084 A 
ATOM     18  C   UNL     1       0.467  -0.242  -0.177  1.00  0.00     0.154 C 
ATOM     19  N   UNL     1       0.038   1.147  -0.267  1.00  0.00    -0.305 N 
ATOM     20  C   UNL     1      -1.251   1.404  -0.723  1.00  0.00     0.316 A 
ATOM     21  C   UNL     1       0.930   2.195   0.074  1.00  0.00     0.068 A 
ATOM     22  O   UNL     1      -2.054   0.521  -1.015  1.00  0.00    -0.263 OA
ATOM     23  C   UNL     1      -1.685   2.870  -0.850  1.00  0.00     0.316 A 
ATOM     24  C   UNL     1       0.578   3.539  -0.150  1.00  0.00     0.069 A 
ATOM     25  C   UNL     1       2.183   1.900   0.630  1.00  0.00     0.030 A 
ATOM     26  O   UNL     1      -2.850   3.108  -1.160  1.00  0.00    -0.263 OA
ATOM     27  N   UNL     1      -0.731   3.859  -0.606  1.00  0.00    -0.305 N 
ATOM     28  C   UNL     1       1.533   4.547   0.098  1.00  0.00     0.050 A 
ATOM     29  C   UNL     1       3.097   2.907   0.918  1.00  0.00     0.024 A 
ATOM     30  C   UNL     1      -1.135   5.247  -0.770  1.00  0.00     0.154 C 
ENDBRANCH  14  17
ENDBRANCH  10  14
ENDBRANCH   6   9
ENDBRANCH   4   5
ENDBRANCH   3   4
ENDBRANCH   2   3
ENDBRANCH   1   2
BRANCH   1  31
ATOM     31  C   UNL     1      10.564   8.550  -0.397  1.00  0.00     0.021 C 
BRANCH  31  32
ATOM     32  C   UNL     1      10.209   9.963  -0.841  1.00  0.00     0.116 C 
BRANCH  32  33
ATOM     33  N   UNL     1      11.163  10.962  -0.387  1.00  0.00    -0.352 N 
ATOM     34  C   UNL     1      11.797  11.940  -1.118  1.00  0.00     0.251 C 
ATOM     35  H   UNL     1      11.385  10.934   0.572  1.00  0.00     0.163 HD
ATOM     36  O   UNL     1      12.668  12.634  -0.606  1.00  0.00    -0.269 OA
BRANCH  34  37
ATOM     37  C   UNL     1      11.445  12.109  -2.545  1.00  0.00     0.039 A 
ATOM     38  C   UNL     1      10.107  12.188  -2.937  1.00  0.00     0.014 A 
ATOM     39  C   UNL     1      12.463  12.114  -3.501  1.00  0.00     0.014 A 
ATOM     40  C   UNL     1       9.782  12.090  -4.285  1.00  0.00     0.010 A 
ATOM     41  C   UNL     1      12.134  12.101  -4.859  1.00  0.00     0.010 A 
ATOM     42  C   UNL     1      10.791  12.031  -5.262  1.00  0.00    -0.014 A 
BRANCH  42  43
ATOM     43  C   UNL     1      10.416  11.872  -6.692  1.00  0.00     0.031 A 
ATOM     44  C   UNL     1      10.791  10.625  -7.450  1.00  0.00     0.074 A 
ATOM     45  C   UNL     1       9.679  12.828  -7.290  1.00  0.00     0.049 A 
ATOM     46  N   UNL     1      10.538  10.310  -8.696  1.00  0.00    -0.248 NA
ATOM     47  C   UNL     1      11.550   9.596  -6.720  1.00  0.00     0.031 C 
ATOM     48  C   UNL     1       9.240  14.072  -6.654  1.00  0.00     0.029 A 
ATOM     49  N   UNL     1       9.147  12.896  -8.552  1.00  0.00    -0.354 N 
ATOM     50  C   UNL     1      11.117   9.063  -8.903  1.00  0.00     0.074 A 
ATOM     51  C   UNL     1      11.762   8.688  -7.663  1.00  0.00     0.031 C 
ATOM     52  C   UNL     1       8.462  14.752  -7.509  1.00  0.00     0.029 A 
ATOM     53  C   UNL     1       8.399  14.027  -8.774  1.00  0.00     0.049 A 
ATOM     54  H   UNL     1       9.288  12.200  -9.234  1.00  0.00     0.167 HD
ATOM     55  C   UNL     1      11.101   8.296 -10.020  1.00  0.00     0.037 A 
ATOM     56  C   UNL     1       7.746  14.445  -9.874  1.00  0.00     0.037 A 
ATOM     57  C   UNL     1      10.437   8.663 -11.244  1.00  0.00     0.049 A 
ATOM     58  C   UNL     1       7.779  13.596 -11.112  1.00  0.00     0.074 A 
ATOM     59  C   UNL     1      10.351   7.945 -12.425  1.00  0.00     0.029 A 
ATOM     60  N   UNL     1       9.741   9.846 -11.446  1.00  0.00    -0.354 N 
ATOM     61  N   UNL     1       8.340  12.424 -11.290  1.00  0.00    -0.248 NA
ATOM     62  C   UNL     1       7.105  14.130 -12.303  1.00  0.00     0.031 C 
ATOM     63  C   UNL     1       9.636   8.710 -13.352  1.00  0.00     0.029 A 
ATOM     64  C   UNL     1       9.239   9.886 -12.737  1.00  0.00     0.049 A 
ATOM     65  H   UNL     1       9.622  10.553 -10.772  1.00  0.00     0.167 HD
ATOM     66  C   UNL     1       8.081  12.077 -12.611  1.00  0.00     0.074 A 
ATOM     67  C   UNL     1       7.295  13.153 -13.179  1.00  0.00     0.031 C 
ATOM     68  C   UNL     1       8.464  10.969 -13.291  1.00  0.00     0.037 A 
BRANCH  55  69
ATOM     69  C   UNL     1      11.825   6.978  -9.978  1.00  0.00     0.058 A 
ATOM     70  C   UNL     1      11.314   5.880  -9.269  1.00  0.00     0.135 A 
ATOM     71  C   UNL     1      13.015   6.793 -10.702  1.00  0.00     0.135 A 
ATOM     72  F   UNL     1      10.190   6.005  -8.546  1.00  0.00    -0.206 F 
ATOM     73  C   UNL     1      11.966   4.650  -9.264  1.00  0.00     0.059 A 
ATOM     74  C   UNL     1      13.671   5.565 -10.731  1.00  0.00     0.059 A 
ATOM     75  F   UNL     1      13.547   7.810 -11.397  1.00  0.00    -0.206 F 
ATOM     76  C   UNL     1      13.143   4.502 -10.000  1.00  0.00     0.060 A 
BRANCH  76  77
ATOM     77  S   UNL     1      13.967   2.895  -9.988  1.00  0.00     0.124 S 
ATOM     78  O   UNL     1      14.489   2.847  -8.625  1.00  0.00    -0.237 OA
ATOM     79  O   UNL     1      12.867   1.980 -10.275  1.00  0.00    -0.237 OA
ATOM     80  O   UNL     1      14.970   3.018 -11.040  1.00  0.00    -0.744 OA
ENDBRANCH  76  77
ENDBRANCH  55  69
BRANCH  56  81
ATOM     81  C   UNL     1       7.008  15.734  -9.844  1.00  0.00     0.058 A 
ATOM     82  C   UNL     1       5.607  15.763  -9.854  1.00  0.00     0.135 A 
ATOM     83  C   UNL     1       7.689  16.959  -9.757  1.00  0.00     0.135 A 
ATOM     84  F   UNL     1       4.912  14.619  -9.944  1.00  0.00    -0.206 F 
ATOM     85  C   UNL     1       4.904  16.961  -9.778  1.00  0.00     0.059 A 
ATOM     86  C   UNL     1       7.010  18.167  -9.654  1.00  0.00     0.059 A 
ATOM     87  F   UNL     1       9.031  16.981  -9.730  1.00  0.00    -0.206 F 
ATOM     88  C   UNL     1       5.616  18.158  -9.670  1.00  0.00     0.060 A 
BRANCH  88  89
ATOM     89  S   UNL     1       4.693  19.701  -9.498  1.00  0.00     0.124 S 
ATOM     90  O   UNL     1       4.162  19.876 -10.845  1.00  0.00    -0.237 OA
ATOM     91  O   UNL     1       3.719  19.361  -8.466  1.00  0.00    -0.237 OA
ATOM     92  O   UNL     1       5.716  20.660  -9.092  1.00  0.00    -0.744 OA
ENDBRANCH  88  89
ENDBRANCH  56  81
BRANCH  68  93
ATOM     93  C   UNL     1       8.038  10.858 -14.727  1.00  0.00     0.058 A 
ATOM     94  C   UNL     1       8.655  11.616 -15.733  1.00  0.00     0.135 A 
ATOM     95  C   UNL     1       7.047   9.939 -15.109  1.00  0.00     0.135 A 
ATOM     96  F   UNL     1       9.602  12.514 -15.417  1.00  0.00    -0.206 F 
ATOM     97  C   UNL     1       8.296  11.477 -17.069  1.00  0.00     0.059 A 
ATOM     98  C   UNL     1       6.689   9.767 -16.442  1.00  0.00     0.059 A 
ATOM     99  F   UNL     1       6.432   9.184 -14.184  1.00  0.00    -0.206 F 
ATOM    100  C   UNL     1       7.314  10.546 -17.414  1.00  0.00     0.060 A 
BRANCH 100 101
ATOM    101  S   UNL     1       6.891  10.345 -19.158  1.00  0.00     0.124 S 
ATOM    102  O   UNL     1       6.146  11.571 -19.423  1.00  0.00    -0.237 OA
ATOM    103  O   UNL     1       8.205  10.252 -19.788  1.00  0.00    -0.237 OA
ATOM    104  O   UNL     1       6.105   9.115 -19.177  1.00  0.00    -0.744 OA
ENDBRANCH 100 101
ENDBRANCH  68  93
ENDBRANCH  42  43
ENDBRANCH  34  37
ENDBRANCH  32  33
ENDBRANCH  31  32
ENDBRANCH   1  31
TORSDOF 18
