REMARK SMILES CC1=C[C@H](C)[C@H](CN2C[C@@]34C=C[C@@H](O3)[C@H](C(=O)NCCCCCCNC(=O)c3ccc(-c5c6nc(c(-c7c(F)cc(S(=O)(=O)[O-])cc7F)c7ccc([nH]7)c(-c7c(F)cc(S(=O)(=O)[O-])cc7F)c7nc(c(-c8c(F)cc(S(=O)(=O)[O-])cc8F)c8ccc5[nH]8)C=C7)C=C6)cc3)[C@@H]4C2=O)[C@H](C)C1
REMARK SMILES IDX 22 1 21 2 20 3 19 4 18 5 16 6 17 7 15 9 8 10 9 11 95 12
REMARK SMILES IDX 10 13 94 14 96 15 11 16 14 17 12 18 13 19 7 20 6 21 1 22
REMARK SMILES IDX 2 23 3 24 99 25 4 26 97 27 5 28 98 29 23 30 24 31 25 32
REMARK SMILES IDX 26 33 27 35 28 36 29 37 93 38 30 39 92 40 31 41 32 42 33 43
REMARK SMILES IDX 86 44 34 45 91 46 85 47 87 48 35 49 90 50 84 51 83 52 36 54
REMARK SMILES IDX 70 55 49 56 69 57 50 58 53 59 68 60 88 61 51 62 52 63 67 65
REMARK SMILES IDX 89 66 54 67 37 68 38 69 47 70 39 71 40 72 46 73 48 74 41 75
REMARK SMILES IDX 42 76 43 77 44 78 45 79 71 80 72 81 81 82 73 83 74 84 80 85
REMARK SMILES IDX 82 86 75 87 76 88 77 89 78 90 79 91 55 92 56 93 65 94 57 95
REMARK SMILES IDX 58 96 64 97 66 98 59 99 60 100 61 101 62 102 63 103
REMARK H PARENT 18 8 25 34 87 53 53 64
REMARK Flexibility Score: inf
ROOT
ATOM      1  C   UNL     1      -9.419   2.562   7.106  1.00  0.00     0.002 C 
ENDROOT
BRANCH   1   2
ATOM      2  C   UNL     1      -8.470   2.654   8.305  1.00  0.00     0.002 C 
BRANCH   2   3
ATOM      3  C   UNL     1      -7.209   1.784   8.199  1.00  0.00     0.021 C 
BRANCH   3   4
ATOM      4  C   UNL     1      -6.308   2.163   7.026  1.00  0.00     0.116 C 
BRANCH   4   5
ATOM      5  N   UNL     1      -5.772   3.483   7.246  1.00  0.00    -0.356 N 
ATOM      6  C   UNL     1      -4.659   3.921   7.862  1.00  0.00     0.227 C 
ATOM      7  O   UNL     1      -4.646   5.128   8.145  1.00  0.00    -0.275 OA
ATOM      8  H   UNL     1      -6.329   4.205   6.874  1.00  0.00     0.163 HD
BRANCH   6   9
ATOM      9  C   UNL     1      -3.417   3.107   8.137  1.00  0.00     0.127 C 
ATOM     10  N   UNL     1      -2.043   1.469   5.042  1.00  0.00    -0.339 N 
ATOM     11  C   UNL     1      -1.316   0.848   6.175  1.00  0.00     0.160 C 
ATOM     12  C   UNL     1      -3.072   2.334   5.524  1.00  0.00     0.230 C 
ATOM     13  C   UNL     1      -2.237   1.172   7.347  1.00  0.00     0.117 C 
ATOM     14  C   UNL     1      -2.680   2.576   6.937  1.00  0.00     0.132 C 
ATOM     15  O   UNL     1      -3.883   2.961   4.860  1.00  0.00    -0.274 OA
ATOM     16  C   UNL     1      -3.369   0.228   7.653  1.00  0.00     0.009 C 
ATOM     17  O   UNL     1      -1.848   1.500   8.693  1.00  0.00    -0.360 OA
ATOM     18  C   UNL     1      -3.958   0.699   8.760  1.00  0.00     0.004 C 
ATOM     19  C   UNL     1      -3.225   1.946   9.126  1.00  0.00     0.155 C 
BRANCH  10  20
ATOM     20  C   UNL     1      -1.444   1.933   3.803  1.00  0.00     0.124 C 
BRANCH  20  21
ATOM     21  C   UNL     1      -0.143   1.314   3.268  1.00  0.00     0.018 C 
ATOM     22  C   UNL     1       1.884  -0.166  -0.449  1.00  0.00     0.039 C 
ATOM     23  C   UNL     1       1.119   0.284   0.761  1.00  0.00    -0.077 C 
ATOM     24  C   UNL     1       0.638  -0.571   1.674  1.00  0.00    -0.025 C 
ATOM     25  C   UNL     1       0.833   1.745   0.846  1.00  0.00     0.034 C 
ATOM     26  C   UNL     1      -0.263  -0.174   2.816  1.00  0.00     0.014 C 
ATOM     27  C   UNL     1       0.604   2.280   2.265  1.00  0.00    -0.005 C 
ATOM     28  C   UNL     1      -1.684  -0.635   2.472  1.00  0.00     0.012 C 
ATOM     29  C   UNL     1       0.027   3.702   2.121  1.00  0.00     0.008 C 
ENDBRANCH  20  21
ENDBRANCH  10  20
ENDBRANCH   6   9
ENDBRANCH   4   5
ENDBRANCH   3   4
ENDBRANCH   2   3
ENDBRANCH   1   2
BRANCH   1  30
ATOM     30  C   UNL     1      -9.863   1.143   6.745  1.00  0.00     0.021 C 
BRANCH  30  31
ATOM     31  C   UNL     1     -10.476   0.353   7.897  1.00  0.00     0.116 C 
BRANCH  31  32
ATOM     32  N   UNL     1     -11.680   0.981   8.414  1.00  0.00    -0.352 N 
ATOM     33  C   UNL     1     -12.902   0.412   8.670  1.00  0.00     0.251 C 
ATOM     34  H   UNL     1     -11.609   1.944   8.606  1.00  0.00     0.163 HD
ATOM     35  O   UNL     1     -13.867   1.117   8.946  1.00  0.00    -0.269 OA
BRANCH  33  36
ATOM     36  C   UNL     1     -13.050  -1.056   8.589  1.00  0.00     0.039 A 
ATOM     37  C   UNL     1     -14.107  -1.588   7.847  1.00  0.00     0.014 A 
ATOM     38  C   UNL     1     -12.144  -1.901   9.240  1.00  0.00     0.014 A 
ATOM     39  C   UNL     1     -14.228  -2.972   7.715  1.00  0.00     0.010 A 
ATOM     40  C   UNL     1     -12.237  -3.279   9.064  1.00  0.00     0.010 A 
ATOM     41  C   UNL     1     -13.281  -3.826   8.302  1.00  0.00    -0.014 A 
BRANCH  41  42
ATOM     42  C   UNL     1     -13.370  -5.298   8.138  1.00  0.00     0.031 A 
ATOM     43  C   UNL     1     -13.675  -6.169   9.324  1.00  0.00     0.074 A 
ATOM     44  C   UNL     1     -13.115  -5.850   6.937  1.00  0.00     0.049 A 
ATOM     45  N   UNL     1     -13.717  -7.473   9.401  1.00  0.00    -0.248 NA
ATOM     46  C   UNL     1     -13.941  -5.482  10.599  1.00  0.00     0.031 C 
ATOM     47  C   UNL     1     -12.764  -5.111   5.722  1.00  0.00     0.029 A 
ATOM     48  N   UNL     1     -13.098  -7.164   6.542  1.00  0.00    -0.354 N 
ATOM     49  C   UNL     1     -13.996  -7.766  10.730  1.00  0.00     0.074 A 
ATOM     50  C   UNL     1     -14.075  -6.503  11.433  1.00  0.00     0.031 C 
ATOM     51  C   UNL     1     -12.578  -5.982   4.716  1.00  0.00     0.029 A 
ATOM     52  C   UNL     1     -12.769  -7.339   5.219  1.00  0.00     0.049 A 
ATOM     53  H   UNL     1     -13.301  -7.911   7.150  1.00  0.00     0.167 HD
ATOM     54  C   UNL     1     -14.187  -8.976  11.308  1.00  0.00     0.037 A 
ATOM     55  C   UNL     1     -12.632  -8.466   4.496  1.00  0.00     0.037 A 
ATOM     56  C   UNL     1     -14.142 -10.226  10.598  1.00  0.00     0.049 A 
ATOM     57  C   UNL     1     -12.874  -9.796   5.154  1.00  0.00     0.074 A 
ATOM     58  C   UNL     1     -14.380 -11.501  11.082  1.00  0.00     0.029 A 
ATOM     59  N   UNL     1     -13.841 -10.360   9.251  1.00  0.00    -0.354 N 
ATOM     60  N   UNL     1     -13.187 -10.052   6.401  1.00  0.00    -0.248 NA
ATOM     61  C   UNL     1     -12.749 -10.990   4.306  1.00  0.00     0.031 C 
ATOM     62  C   UNL     1     -14.199 -12.408  10.032  1.00  0.00     0.029 A 
ATOM     63  C   UNL     1     -13.877 -11.696   8.888  1.00  0.00     0.049 A 
ATOM     64  H   UNL     1     -13.632  -9.615   8.643  1.00  0.00     0.167 HD
ATOM     65  C   UNL     1     -13.315 -11.433   6.485  1.00  0.00     0.074 A 
ATOM     66  C   UNL     1     -13.056 -11.958   5.159  1.00  0.00     0.031 C 
ATOM     67  C   UNL     1     -13.620 -12.198   7.562  1.00  0.00     0.037 A 
BRANCH  54  68
ATOM     68  C   UNL     1     -14.469  -8.999  12.783  1.00  0.00     0.058 A 
ATOM     69  C   UNL     1     -15.708  -8.588  13.300  1.00  0.00     0.135 A 
ATOM     70  C   UNL     1     -13.499  -9.455  13.690  1.00  0.00     0.135 A 
ATOM     71  F   UNL     1     -16.663  -8.127  12.477  1.00  0.00    -0.206 F 
ATOM     72  C   UNL     1     -15.965  -8.599  14.667  1.00  0.00     0.059 A 
ATOM     73  C   UNL     1     -13.743  -9.497  15.059  1.00  0.00     0.059 A 
ATOM     74  F   UNL     1     -12.297  -9.858  13.248  1.00  0.00    -0.206 F 
ATOM     75  C   UNL     1     -14.974  -9.050  15.539  1.00  0.00     0.060 A 
BRANCH  75  76
ATOM     76  S   UNL     1     -15.316  -9.055  17.312  1.00  0.00     0.124 S 
ATOM     77  O   UNL     1     -15.153  -7.643  17.642  1.00  0.00    -0.237 OA
ATOM     78  O   UNL     1     -16.683  -9.565  17.368  1.00  0.00    -0.237 OA
ATOM     79  O   UNL     1     -14.295  -9.948  17.851  1.00  0.00    -0.744 OA
ENDBRANCH  75  76
ENDBRANCH  54  68
BRANCH  55  80
ATOM     80  C   UNL     1     -12.270  -8.382   3.058  1.00  0.00     0.058 A 
ATOM     81  C   UNL     1     -13.225  -8.623   2.061  1.00  0.00     0.135 A 
ATOM     82  C   UNL     1     -10.971  -8.038   2.654  1.00  0.00     0.135 A 
ATOM     83  F   UNL     1     -14.479  -8.960   2.402  1.00  0.00    -0.206 F 
ATOM     84  C   UNL     1     -12.906  -8.537   0.710  1.00  0.00     0.059 A 
ATOM     85  C   UNL     1     -10.631  -7.928   1.309  1.00  0.00     0.059 A 
ATOM     86  F   UNL     1     -10.026  -7.782   3.572  1.00  0.00    -0.206 F 
ATOM     87  C   UNL     1     -11.604  -8.188   0.344  1.00  0.00     0.060 A 
BRANCH  87  88
ATOM     88  S   UNL     1     -11.209  -8.022  -1.411  1.00  0.00     0.124 S 
ATOM     89  O   UNL     1     -11.073  -9.417  -1.813  1.00  0.00    -0.237 OA
ATOM     90  O   UNL     1     -12.380  -7.320  -1.927  1.00  0.00    -0.237 OA
ATOM     91  O   UNL     1      -9.976  -7.242  -1.401  1.00  0.00    -0.744 OA
ENDBRANCH  87  88
ENDBRANCH  55  80
BRANCH  67  92
ATOM     92  C   UNL     1     -13.711 -13.681   7.347  1.00  0.00     0.058 A 
ATOM     93  C   UNL     1     -12.560 -14.473   7.218  1.00  0.00     0.135 A 
ATOM     94  C   UNL     1     -14.960 -14.320   7.317  1.00  0.00     0.135 A 
ATOM     95  F   UNL     1     -11.344 -13.906   7.234  1.00  0.00    -0.206 F 
ATOM     96  C   UNL     1     -12.645 -15.851   7.050  1.00  0.00     0.059 A 
ATOM     97  C   UNL     1     -15.068 -15.699   7.168  1.00  0.00     0.059 A 
ATOM     98  F   UNL     1     -16.089 -13.605   7.444  1.00  0.00    -0.206 F 
ATOM     99  C   UNL     1     -13.904 -16.455   7.025  1.00  0.00     0.060 A 
BRANCH  99 100
ATOM    100  S   UNL     1     -14.005 -18.248   6.840  1.00  0.00     0.124 S 
ATOM    101  O   UNL     1     -13.783 -18.408   5.407  1.00  0.00    -0.237 OA
ATOM    102  O   UNL     1     -12.926 -18.716   7.705  1.00  0.00    -0.237 OA
ATOM    103  O   UNL     1     -15.352 -18.560   7.307  1.00  0.00    -0.744 OA
ENDBRANCH  99 100
ENDBRANCH  67  92
ENDBRANCH  41  42
ENDBRANCH  33  36
ENDBRANCH  31  32
ENDBRANCH  30  31
ENDBRANCH   1  30
TORSDOF 18
