REMARK SMILES CC1(C)O[C@@H]2C[C@@H]3[C@H]4CCC5=CC(=O)C=C[C@@]5(C)[C@]4(F)[C@H](O)C[C@]3(C)[C@]2(C(=O)NCCCCCCNC(=O)c2ccc(-c3c4nc(c(-c5c(F)cc(S(=O)(=O)[O-])cc5F)c5ccc([nH]5)c(-c5c(F)cc(S(=O)(=O)[O-])cc5F)c5nc(c(-c6c(F)cc(S(=O)(=O)[O-])cc6F)c6ccc3[nH]6)C=C5)C=C4)cc2)O1
REMARK SMILES IDX 33 1 32 2 31 3 30 4 29 5 27 6 28 7 26 9 1 10 2 11 4 12
REMARK SMILES IDX 105 13 3 14 5 15 6 16 24 17 7 18 23 19 25 20 8 21 21 22 9 23
REMARK SMILES IDX 19 24 10 25 17 26 20 27 11 28 16 29 18 30 12 31 15 32 13 33
REMARK SMILES IDX 14 34 22 35 34 37 35 38 36 39 37 40 38 42 39 43 40 44 104 45
REMARK SMILES IDX 41 46 103 47 42 48 43 49 44 50 97 51 45 52 102 53 96 54
REMARK SMILES IDX 98 55 46 56 101 57 95 58 94 59 47 61 81 62 60 63 80 64 61 65
REMARK SMILES IDX 64 66 79 67 99 68 62 69 63 70 78 72 100 73 65 74 48 75 49 76
REMARK SMILES IDX 58 77 50 78 51 79 57 80 59 81 52 82 53 83 54 84 55 85 56 86
REMARK SMILES IDX 82 87 83 88 92 89 84 90 85 91 91 92 93 93 86 94 87 95 88 96
REMARK SMILES IDX 89 97 90 98 66 99 67 100 76 101 68 102 69 103 75 104 77 105
REMARK SMILES IDX 70 106 71 107 72 108 73 109 74 110
REMARK H PARENT 29 8 22 36 36 41 98 60 64 71
REMARK Flexibility Score: inf
ROOT
ATOM      1  C   UNL     1      -5.902  -0.179  -3.942  1.00  0.00     0.002 C 
ENDROOT
BRANCH   1   2
ATOM      2  C   UNL     1      -4.595  -0.914  -3.622  1.00  0.00     0.002 C 
BRANCH   2   3
ATOM      3  C   UNL     1      -3.385   0.010  -3.443  1.00  0.00     0.021 C 
BRANCH   3   4
ATOM      4  C   UNL     1      -3.647   1.131  -2.448  1.00  0.00     0.116 C 
BRANCH   4   5
ATOM      5  N   UNL     1      -3.727   0.582  -1.124  1.00  0.00    -0.353 N 
ATOM      6  C   UNL     1      -2.891   0.673  -0.078  1.00  0.00     0.255 C 
ATOM      7  O   UNL     1      -3.066  -0.186   0.800  1.00  0.00    -0.272 OA
ATOM      8  H   UNL     1      -4.535   0.046  -0.955  1.00  0.00     0.163 HD
BRANCH   6   9
ATOM      9  C   UNL     1      -1.882   1.805   0.143  1.00  0.00     0.181 C 
ATOM     10  C   UNL     1       0.324  -0.298  -0.691  1.00  0.00     0.075 C 
ATOM     11  C   UNL     1       0.314   1.006   0.093  1.00  0.00     0.164 C 
ATOM     12  O   UNL     1       0.313   2.070  -0.856  1.00  0.00    -0.344 OA
ATOM     13  O   UNL     1      -0.852   1.101   0.921  1.00  0.00    -0.331 OA
ATOM     14  C   UNL     1       1.565   1.073   0.973  1.00  0.00     0.075 C 
ATOM     15  C   UNL     1      -1.028   2.600  -0.911  1.00  0.00     0.164 C 
ATOM     16  C   UNL     1      -0.950   4.102  -0.375  1.00  0.00     0.040 C 
ATOM     17  C   UNL     1      -2.536   2.960   1.017  1.00  0.00     0.014 C 
ATOM     18  C   UNL     1      -1.270   3.863   1.117  1.00  0.00     0.008 C 
ATOM     19  C   UNL     1      -3.190   2.670   2.384  1.00  0.00     0.046 C 
ATOM     20  C   UNL     1      -3.696   3.630   0.199  1.00  0.00     0.015 C 
ATOM     21  C   UNL     1      -0.511   3.959   2.470  1.00  0.00     0.035 C 
ATOM     22  C   UNL     1      -2.273   2.499   3.578  1.00  0.00     0.154 C 
ATOM     23  C   UNL     1       0.464   5.125   2.544  1.00  0.00     0.012 C 
ATOM     24  C   UNL     1      -1.306   3.719   3.753  1.00  0.00     0.152 C 
ATOM     25  C   UNL     1       1.539   4.776   3.571  1.00  0.00     0.032 C 
ATOM     26  C   UNL     1      -0.303   3.578   4.989  1.00  0.00     0.044 C 
ATOM     27  F   UNL     1      -2.081   4.837   3.939  1.00  0.00    -0.239 F 
ATOM     28  C   UNL     1       0.951   4.465   4.918  1.00  0.00    -0.053 C 
ATOM     29  C   UNL     1      -1.019   3.907   6.294  1.00  0.00    -0.009 C 
ATOM     30  C   UNL     1       0.243   2.116   5.138  1.00  0.00     0.024 C 
ATOM     31  C   UNL     1       1.584   4.843   6.046  1.00  0.00     0.052 C 
ATOM     32  C   UNL     1      -0.338   3.964   7.448  1.00  0.00     0.048 C 
ATOM     33  C   UNL     1       1.079   4.403   7.376  1.00  0.00     0.178 C 
ATOM     34  O   UNL     1       1.766   4.511   8.384  1.00  0.00    -0.290 OA
BRANCH  22  35
ATOM     35  O   UNL     1      -1.652   1.221   3.479  1.00  0.00    -0.390 OA
ATOM     36  H   UNL     1      -1.139   1.174   2.657  1.00  0.00     0.211 HD
ENDBRANCH  22  35
ENDBRANCH   6   9
ENDBRANCH   4   5
ENDBRANCH   3   4
ENDBRANCH   2   3
ENDBRANCH   1   2
BRANCH   1  37
ATOM     37  C   UNL     1      -5.795   0.825  -5.093  1.00  0.00     0.021 C 
BRANCH  37  38
ATOM     38  C   UNL     1      -5.251   0.226  -6.382  1.00  0.00     0.116 C 
BRANCH  38  39
ATOM     39  N   UNL     1      -6.103  -0.844  -6.872  1.00  0.00    -0.352 N 
ATOM     40  C   UNL     1      -6.683  -0.966  -8.103  1.00  0.00     0.251 C 
ATOM     41  H   UNL     1      -6.287  -1.573  -6.236  1.00  0.00     0.163 HD
ATOM     42  O   UNL     1      -7.566  -1.808  -8.295  1.00  0.00    -0.269 OA
BRANCH  40  43
ATOM     43  C   UNL     1      -6.257  -0.066  -9.189  1.00  0.00     0.039 A 
ATOM     44  C   UNL     1      -7.226   0.595  -9.942  1.00  0.00     0.014 A 
ATOM     45  C   UNL     1      -4.895   0.155  -9.427  1.00  0.00     0.014 A 
ATOM     46  C   UNL     1      -6.830   1.526 -10.902  1.00  0.00     0.010 A 
ATOM     47  C   UNL     1      -4.506   1.139 -10.328  1.00  0.00     0.010 A 
ATOM     48  C   UNL     1      -5.469   1.832 -11.075  1.00  0.00    -0.014 A 
BRANCH  48  49
ATOM     49  C   UNL     1      -5.036   2.888 -12.024  1.00  0.00     0.031 A 
ATOM     50  C   UNL     1      -4.173   2.535 -13.203  1.00  0.00     0.074 A 
ATOM     51  C   UNL     1      -5.365   4.173 -11.779  1.00  0.00     0.049 A 
ATOM     52  N   UNL     1      -3.637   3.325 -14.097  1.00  0.00    -0.248 NA
ATOM     53  C   UNL     1      -3.847   1.111 -13.388  1.00  0.00     0.031 C 
ATOM     54  C   UNL     1      -6.156   4.641 -10.637  1.00  0.00     0.029 A 
ATOM     55  N   UNL     1      -5.065   5.322 -12.466  1.00  0.00    -0.354 N 
ATOM     56  C   UNL     1      -2.902   2.500 -14.939  1.00  0.00     0.074 A 
ATOM     57  C   UNL     1      -3.019   1.154 -14.422  1.00  0.00     0.031 C 
ATOM     58  C   UNL     1      -6.290   5.974 -10.712  1.00  0.00     0.029 A 
ATOM     59  C   UNL     1      -5.560   6.463 -11.877  1.00  0.00     0.049 A 
ATOM     60  H   UNL     1      -4.544   5.330 -13.301  1.00  0.00     0.167 HD
ATOM     61  C   UNL     1      -2.208   2.834 -16.052  1.00  0.00     0.037 A 
ATOM     62  C   UNL     1      -5.425   7.757 -12.224  1.00  0.00     0.037 A 
ATOM     63  C   UNL     1      -2.118   4.175 -16.570  1.00  0.00     0.049 A 
ATOM     64  C   UNL     1      -4.641   8.103 -13.462  1.00  0.00     0.074 A 
ATOM     65  C   UNL     1      -1.503   4.605 -17.733  1.00  0.00     0.029 A 
ATOM     66  N   UNL     1      -2.648   5.301 -15.957  1.00  0.00    -0.354 N 
ATOM     67  N   UNL     1      -4.021   7.300 -14.294  1.00  0.00    -0.248 NA
ATOM     68  C   UNL     1      -4.539   9.526 -13.811  1.00  0.00     0.031 C 
ATOM     69  C   UNL     1      -1.607   5.998 -17.791  1.00  0.00     0.029 A 
ATOM     70  C   UNL     1      -2.342   6.430 -16.698  1.00  0.00     0.049 A 
ATOM     71  H   UNL     1      -3.165   5.297 -15.120  1.00  0.00     0.167 HD
ATOM     72  C   UNL     1      -3.476   8.118 -15.277  1.00  0.00     0.074 A 
ATOM     73  C   UNL     1      -3.854   9.477 -14.945  1.00  0.00     0.031 C 
ATOM     74  C   UNL     1      -2.729   7.777 -16.356  1.00  0.00     0.037 A 
BRANCH  61  75
ATOM     75  C   UNL     1      -1.485   1.739 -16.789  1.00  0.00     0.058 A 
ATOM     76  C   UNL     1      -2.175   0.746 -17.503  1.00  0.00     0.135 A 
ATOM     77  C   UNL     1      -0.081   1.718 -16.831  1.00  0.00     0.135 A 
ATOM     78  F   UNL     1      -3.517   0.708 -17.485  1.00  0.00    -0.206 F 
ATOM     79  C   UNL     1      -1.499  -0.239 -18.216  1.00  0.00     0.059 A 
ATOM     80  C   UNL     1       0.615   0.761 -17.562  1.00  0.00     0.059 A 
ATOM     81  F   UNL     1       0.628   2.642 -16.164  1.00  0.00    -0.206 F 
ATOM     82  C   UNL     1      -0.104  -0.220 -18.243  1.00  0.00     0.060 A 
BRANCH  82  83
ATOM     83  S   UNL     1       0.755  -1.492 -19.193  1.00  0.00     0.124 S 
ATOM     84  O   UNL     1       0.513  -2.678 -18.377  1.00  0.00    -0.237 OA
ATOM     85  O   UNL     1       0.055  -1.450 -20.473  1.00  0.00    -0.237 OA
ATOM     86  O   UNL     1       2.137  -1.023 -19.221  1.00  0.00    -0.744 OA
ENDBRANCH  82  83
ENDBRANCH  61  75
BRANCH  62  87
ATOM     87  C   UNL     1      -6.041   8.821 -11.386  1.00  0.00     0.058 A 
ATOM     88  C   UNL     1      -7.117   9.587 -11.858  1.00  0.00     0.135 A 
ATOM     89  C   UNL     1      -5.569   9.089 -10.091  1.00  0.00     0.135 A 
ATOM     90  F   UNL     1      -7.601   9.374 -13.091  1.00  0.00    -0.206 F 
ATOM     91  C   UNL     1      -7.690  10.594 -11.088  1.00  0.00     0.059 A 
ATOM     92  C   UNL     1      -6.144  10.070  -9.290  1.00  0.00     0.059 A 
ATOM     93  F   UNL     1      -4.553   8.373  -9.583  1.00  0.00    -0.206 F 
ATOM     94  C   UNL     1      -7.197  10.826  -9.802  1.00  0.00     0.060 A 
BRANCH  94  95
ATOM     95  S   UNL     1      -7.973  12.107  -8.794  1.00  0.00     0.124 S 
ATOM     96  O   UNL     1      -7.510  13.322  -9.455  1.00  0.00    -0.237 OA
ATOM     97  O   UNL     1      -9.391  11.796  -8.945  1.00  0.00    -0.237 OA
ATOM     98  O   UNL     1      -7.424  11.864  -7.463  1.00  0.00    -0.744 OA
ENDBRANCH  94  95
ENDBRANCH  62  87
BRANCH  74  99
ATOM     99  C   UNL     1      -2.289   8.882 -17.277  1.00  0.00     0.058 A 
ATOM    100  C   UNL     1      -1.297   9.802 -16.904  1.00  0.00     0.135 A 
ATOM    101  C   UNL     1      -2.818   8.979 -18.575  1.00  0.00     0.135 A 
ATOM    102  F   UNL     1      -0.764   9.759 -15.672  1.00  0.00    -0.206 F 
ATOM    103  C   UNL     1      -0.857  10.790 -17.778  1.00  0.00     0.059 A 
ATOM    104  C   UNL     1      -2.370   9.938 -19.477  1.00  0.00     0.059 A 
ATOM    105  F   UNL     1      -3.763   8.118 -18.986  1.00  0.00    -0.206 F 
ATOM    106  C   UNL     1      -1.395  10.845 -19.066  1.00  0.00     0.060 A 
BRANCH 106 107
ATOM    107  S   UNL     1      -0.777  12.101 -20.206  1.00  0.00     0.124 S 
ATOM    108  O   UNL     1      -1.352  13.318 -19.642  1.00  0.00    -0.237 OA
ATOM    109  O   UNL     1       0.669  11.960 -20.069  1.00  0.00    -0.237 OA
ATOM    110  O   UNL     1      -1.323  11.689 -21.495  1.00  0.00    -0.744 OA
ENDBRANCH 106 107
ENDBRANCH  74  99
ENDBRANCH  48  49
ENDBRANCH  40  43
ENDBRANCH  38  39
ENDBRANCH  37  38
ENDBRANCH   1  37
TORSDOF 17
