REMARK SMILES Cc1ncc(CO)c([C@H]2[NH2+][C@@H](C(=O)NCCCCCCNC(=O)c3ccc(-c4c5nc(c(-c6c(F)cc(S(=O)(=O)[O-])cc6F)c6ccc([nH]6)c(-c6c(F)cc(S(=O)(=O)[O-])cc6F)c6nc(c(-c7c(F)cc(S(=O)(=O)[O-])cc7F)c7ccc4[nH]7)C=C6)C=C5)cc3)Cc3[nH]cnc32)c1O
REMARK SMILES IDX 17 1 16 2 15 3 14 4 12 5 13 6 11 8 9 9 10 10 95 11 91 14
REMARK SMILES IDX 94 15 90 16 92 17 93 18 8 20 1 21 2 22 3 23 96 24 4 25 5 26
REMARK SMILES IDX 97 27 6 29 7 30 18 32 19 33 20 34 21 35 22 36 23 38 24 39
REMARK SMILES IDX 25 40 89 41 26 42 88 43 27 44 28 45 29 46 82 47 30 48 87 49
REMARK SMILES IDX 81 50 83 51 31 52 86 53 80 54 79 55 32 57 66 58 45 59 65 60
REMARK SMILES IDX 46 61 49 62 64 63 84 64 47 65 48 66 63 68 85 69 50 70 33 71
REMARK SMILES IDX 34 72 43 73 35 74 36 75 42 76 44 77 37 78 38 79 39 80 40 81
REMARK SMILES IDX 41 82 67 83 68 84 77 85 69 86 70 87 76 88 78 89 71 90 72 91
REMARK SMILES IDX 73 92 74 93 75 94 51 95 52 96 61 97 53 98 54 99 60 100
REMARK SMILES IDX 62 101 55 102 56 103 57 104 58 105 59 106
REMARK H PARENT 14 7 10 12 10 13 92 19 97 28 7 31 21 37 83 56 49 67
REMARK Flexibility Score: inf
ROOT
ATOM      1  C   UNL     1      -6.716   2.314   1.644  1.00  0.00     0.002 C 
ENDROOT
BRANCH   1   2
ATOM      2  C   UNL     1      -5.558   2.515   0.664  1.00  0.00     0.021 C 
BRANCH   2   3
ATOM      3  C   UNL     1      -4.761   3.794   0.904  1.00  0.00     0.116 C 
BRANCH   3   4
ATOM      4  N   UNL     1      -4.081   3.787   2.192  1.00  0.00    -0.351 N 
ATOM      5  C   UNL     1      -2.754   3.943   2.493  1.00  0.00     0.278 C 
ATOM      6  O   UNL     1      -2.419   3.963   3.678  1.00  0.00    -0.268 OA
ATOM      7  H   UNL     1      -4.669   3.648   2.970  1.00  0.00     0.163 HD
BRANCH   5   8
ATOM      8  C   UNL     1      -1.764   4.060   1.339  1.00  0.00     0.279 C 
ATOM      9  C   UNL     1      -0.126   2.894   0.068  1.00  0.00     0.270 C 
ATOM     10  N   UNL     1      -0.693   3.032   1.442  1.00  0.00    -0.324 N 
ATOM     11  C   UNL     1       0.517   4.204  -0.294  1.00  0.00     0.124 A 
ATOM     12  H   UNL     1       0.029   3.336   2.096  1.00  0.00     0.347 HD
ATOM     13  H   UNL     1      -1.058   2.144   1.788  1.00  0.00     0.347 HD
ATOM     14  C   UNL     1      -0.048   5.388   0.179  1.00  0.00     0.051 A 
ATOM     15  N   UNL     1       1.371   4.488  -1.331  1.00  0.00    -0.235 NA
ATOM     16  C   UNL     1      -1.167   5.476   1.176  1.00  0.00     0.131 C 
ATOM     17  N   UNL     1       0.510   6.395  -0.543  1.00  0.00    -0.348 N 
ATOM     18  C   UNL     1       1.363   5.803  -1.438  1.00  0.00     0.197 A 
ATOM     19  H   UNL     1       0.337   7.359  -0.444  1.00  0.00     0.167 HD
BRANCH   9  20
ATOM     20  C   UNL     1       0.503   1.539  -0.103  1.00  0.00     0.066 A 
ATOM     21  C   UNL     1      -1.170  -1.934  -0.112  1.00  0.00     0.071 C 
ATOM     22  C   UNL     1      -0.130  -0.851  -0.150  1.00  0.00     0.079 A 
ATOM     23  N   UNL     1       1.159  -1.226  -0.098  1.00  0.00    -0.257 NA
ATOM     24  C   UNL     1      -0.471   0.495  -0.184  1.00  0.00     0.146 A 
ATOM     25  C   UNL     1       2.092  -0.243  -0.070  1.00  0.00     0.118 A 
ATOM     26  C   UNL     1       1.840   1.140  -0.041  1.00  0.00     0.009 A 
BRANCH  24  27
ATOM     27  O   UNL     1      -1.805   0.842  -0.230  1.00  0.00    -0.505 OA
ATOM     28  H   UNL     1      -2.462   0.176  -0.283  1.00  0.00     0.293 HD
ENDBRANCH  24  27
BRANCH  26  29
ATOM     29  C   UNL     1       3.033   2.038   0.081  1.00  0.00     0.194 C 
BRANCH  29  30
ATOM     30  O   UNL     1       3.734   1.756   1.293  1.00  0.00    -0.392 OA
ATOM     31  H   UNL     1       3.146   1.906   2.049  1.00  0.00     0.211 HD
ENDBRANCH  29  30
ENDBRANCH  26  29
ENDBRANCH   9  20
ENDBRANCH   5   8
ENDBRANCH   3   4
ENDBRANCH   2   3
ENDBRANCH   1   2
BRANCH   1  32
ATOM     32  C   UNL     1      -7.639   3.528   1.834  1.00  0.00     0.002 C 
BRANCH  32  33
ATOM     33  C   UNL     1      -8.253   4.126   0.558  1.00  0.00     0.021 C 
BRANCH  33  34
ATOM     34  C   UNL     1      -9.224   3.192  -0.140  1.00  0.00     0.116 C 
BRANCH  34  35
ATOM     35  N   UNL     1     -10.431   2.946   0.654  1.00  0.00    -0.352 N 
ATOM     36  C   UNL     1     -11.527   2.156   0.333  1.00  0.00     0.251 C 
ATOM     37  H   UNL     1     -10.471   3.399   1.527  1.00  0.00     0.163 HD
ATOM     38  O   UNL     1     -12.602   2.320   0.877  1.00  0.00    -0.269 OA
BRANCH  36  39
ATOM     39  C   UNL     1     -11.335   1.095  -0.674  1.00  0.00     0.039 A 
ATOM     40  C   UNL     1     -12.304   0.762  -1.626  1.00  0.00     0.014 A 
ATOM     41  C   UNL     1     -10.105   0.450  -0.656  1.00  0.00     0.014 A 
ATOM     42  C   UNL     1     -11.985  -0.193  -2.592  1.00  0.00     0.010 A 
ATOM     43  C   UNL     1      -9.713  -0.276  -1.738  1.00  0.00     0.010 A 
ATOM     44  C   UNL     1     -10.679  -0.701  -2.636  1.00  0.00    -0.014 A 
BRANCH  44  45
ATOM     45  C   UNL     1     -10.216  -1.633  -3.652  1.00  0.00     0.031 A 
ATOM     46  C   UNL     1     -10.254  -1.083  -5.031  1.00  0.00     0.074 A 
ATOM     47  C   UNL     1      -9.526  -2.746  -3.306  1.00  0.00     0.049 A 
ATOM     48  N   UNL     1     -11.025  -1.431  -6.006  1.00  0.00    -0.248 NA
ATOM     49  C   UNL     1      -9.465   0.133  -5.307  1.00  0.00     0.031 C 
ATOM     50  C   UNL     1      -9.136  -3.197  -1.959  1.00  0.00     0.029 A 
ATOM     51  N   UNL     1      -8.921  -3.667  -4.101  1.00  0.00    -0.354 N 
ATOM     52  C   UNL     1     -10.622  -0.658  -7.093  1.00  0.00     0.074 A 
ATOM     53  C   UNL     1      -9.865   0.434  -6.544  1.00  0.00     0.031 C 
ATOM     54  C   UNL     1      -8.188  -4.156  -2.049  1.00  0.00     0.029 A 
ATOM     55  C   UNL     1      -8.030  -4.516  -3.443  1.00  0.00     0.049 A 
ATOM     56  H   UNL     1      -9.097  -3.730  -5.067  1.00  0.00     0.167 HD
ATOM     57  C   UNL     1     -10.689  -1.144  -8.364  1.00  0.00     0.037 A 
ATOM     58  C   UNL     1      -7.216  -5.438  -4.020  1.00  0.00     0.037 A 
ATOM     59  C   UNL     1     -11.514  -2.327  -8.413  1.00  0.00     0.049 A 
ATOM     60  C   UNL     1      -7.781  -5.706  -5.368  1.00  0.00     0.074 A 
ATOM     61  C   UNL     1     -12.837  -2.608  -8.134  1.00  0.00     0.029 A 
ATOM     62  N   UNL     1     -10.862  -3.537  -8.407  1.00  0.00    -0.354 N 
ATOM     63  N   UNL     1      -8.953  -6.248  -5.565  1.00  0.00    -0.248 NA
ATOM     64  C   UNL     1      -7.259  -4.930  -6.481  1.00  0.00     0.031 C 
ATOM     65  C   UNL     1     -12.822  -3.899  -7.525  1.00  0.00     0.029 A 
ATOM     66  C   UNL     1     -11.509  -4.374  -7.534  1.00  0.00     0.049 A 
ATOM     67  H   UNL     1     -10.065  -3.764  -8.939  1.00  0.00     0.167 HD
ATOM     68  C   UNL     1      -9.496  -5.551  -6.635  1.00  0.00     0.074 A 
ATOM     69  C   UNL     1      -8.373  -4.810  -7.208  1.00  0.00     0.031 C 
ATOM     70  C   UNL     1     -10.850  -5.413  -6.767  1.00  0.00     0.037 A 
BRANCH  57  71
ATOM     71  C   UNL     1      -9.705  -0.808  -9.468  1.00  0.00     0.058 A 
ATOM     72  C   UNL     1      -9.957  -1.279 -10.774  1.00  0.00     0.135 A 
ATOM     73  C   UNL     1      -8.408  -0.287  -9.258  1.00  0.00     0.135 A 
ATOM     74  F   UNL     1     -11.153  -1.800 -11.094  1.00  0.00    -0.206 F 
ATOM     75  C   UNL     1      -8.976  -1.301 -11.768  1.00  0.00     0.059 A 
ATOM     76  C   UNL     1      -7.434  -0.248 -10.249  1.00  0.00     0.059 A 
ATOM     77  F   UNL     1      -7.979   0.124  -8.060  1.00  0.00    -0.206 F 
ATOM     78  C   UNL     1      -7.712  -0.794 -11.489  1.00  0.00     0.060 A 
BRANCH  78  79
ATOM     79  S   UNL     1      -6.416  -0.901 -12.733  1.00  0.00     0.124 S 
ATOM     80  O   UNL     1      -6.188  -2.340 -12.792  1.00  0.00    -0.237 OA
ATOM     81  O   UNL     1      -7.066  -0.306 -13.896  1.00  0.00    -0.237 OA
ATOM     82  O   UNL     1      -5.331  -0.112 -12.156  1.00  0.00    -0.744 OA
ENDBRANCH  78  79
ENDBRANCH  57  71
BRANCH  58  83
ATOM     83  C   UNL     1      -5.822  -5.808  -3.650  1.00  0.00     0.058 A 
ATOM     84  C   UNL     1      -5.197  -6.948  -4.192  1.00  0.00     0.135 A 
ATOM     85  C   UNL     1      -4.973  -4.891  -2.997  1.00  0.00     0.135 A 
ATOM     86  F   UNL     1      -5.924  -7.864  -4.850  1.00  0.00    -0.206 F 
ATOM     87  C   UNL     1      -3.810  -7.140  -4.140  1.00  0.00     0.059 A 
ATOM     88  C   UNL     1      -3.591  -5.064  -2.926  1.00  0.00     0.059 A 
ATOM     89  F   UNL     1      -5.455  -3.746  -2.490  1.00  0.00    -0.206 F 
ATOM     90  C   UNL     1      -3.011  -6.178  -3.524  1.00  0.00     0.060 A 
BRANCH  90  91
ATOM     91  S   UNL     1      -1.209  -6.318  -3.616  1.00  0.00     0.124 S 
ATOM     92  O   UNL     1      -0.950  -7.450  -2.734  1.00  0.00    -0.237 OA
ATOM     93  O   UNL     1      -0.991  -6.555  -5.039  1.00  0.00    -0.237 OA
ATOM     94  O   UNL     1      -0.750  -5.021  -3.126  1.00  0.00    -0.744 OA
ENDBRANCH  90  91
ENDBRANCH  58  83
BRANCH  70  95
ATOM     95  C   UNL     1     -11.738  -6.276  -5.899  1.00  0.00     0.058 A 
ATOM     96  C   UNL     1     -11.858  -6.153  -4.501  1.00  0.00     0.135 A 
ATOM     97  C   UNL     1     -12.623  -7.157  -6.534  1.00  0.00     0.135 A 
ATOM     98  F   UNL     1     -11.117  -5.269  -3.821  1.00  0.00    -0.206 F 
ATOM     99  C   UNL     1     -12.793  -6.890  -3.769  1.00  0.00     0.059 A 
ATOM    100  C   UNL     1     -13.582  -7.881  -5.830  1.00  0.00     0.059 A 
ATOM    101  F   UNL     1     -12.601  -7.278  -7.872  1.00  0.00    -0.206 F 
ATOM    102  C   UNL     1     -13.656  -7.750  -4.446  1.00  0.00     0.060 A 
BRANCH 102 103
ATOM    103  S   UNL     1     -14.925  -8.639  -3.516  1.00  0.00     0.124 S 
ATOM    104  O   UNL     1     -14.134  -9.614  -2.772  1.00  0.00    -0.237 OA
ATOM    105  O   UNL     1     -15.537  -7.579  -2.719  1.00  0.00    -0.237 OA
ATOM    106  O   UNL     1     -15.784  -9.197  -4.558  1.00  0.00    -0.744 OA
ENDBRANCH 102 103
ENDBRANCH  70  95
ENDBRANCH  44  45
ENDBRANCH  36  39
ENDBRANCH  34  35
ENDBRANCH  33  34
ENDBRANCH  32  33
ENDBRANCH   1  32
TORSDOF 20
