REMARK SMILES O=C(NCCCCCCNC(=O)c1c(F)cccc1NC(=O)c1ccc(Cl)nc1)c1ccc(-c2c3nc(c(-c4c(F)cc(S(=O)(=O)[O-])cc4F)c4ccc([nH]4)c(-c4c(F)cc(S(=O)(=O)[O-])cc4F)c4nc(c(-c5c(F)cc(S(=O)(=O)[O-])cc5F)c5ccc2[nH]5)C=C4)C=C3)cc1
REMARK SMILES IDX 6 1 5 2 4 3 3 4 1 5 2 6 30 8 31 9 95 10 32 11 94 12 33 13
REMARK SMILES IDX 34 14 35 15 88 16 36 17 93 18 87 19 89 20 37 21 92 22 86 23
REMARK SMILES IDX 85 24 38 26 72 27 51 28 71 29 52 30 55 31 70 32 90 33 53 34
REMARK SMILES IDX 54 35 69 37 91 38 56 39 39 40 40 41 49 42 41 43 42 44 48 45
REMARK SMILES IDX 50 46 43 47 44 48 45 49 46 50 47 51 73 52 74 53 83 54 75 55
REMARK SMILES IDX 76 56 82 57 84 58 77 59 78 60 79 61 80 62 81 63 57 64 58 65
REMARK SMILES IDX 67 66 59 67 60 68 66 69 68 70 61 71 62 72 63 73 64 74 65 75
REMARK SMILES IDX 7 76 8 77 9 78 10 79 11 80 12 82 13 83 14 84 19 85 15 86
REMARK SMILES IDX 16 87 18 88 17 89 20 90 21 91 22 93 23 94 24 95 29 96 25 97
REMARK SMILES IDX 28 98 26 99 27 100
REMARK H PARENT 3 7 89 25 55 36 10 81 20 92
REMARK Flexibility Score: inf
ROOT
ATOM      1  C   UNL     1       4.090  -3.412  -2.192  1.00  0.00     0.002 C 
ENDROOT
BRANCH   1   2
ATOM      2  C   UNL     1       4.571  -2.703  -0.925  1.00  0.00     0.021 C 
BRANCH   2   3
ATOM      3  C   UNL     1       4.380  -1.191  -0.902  1.00  0.00     0.116 C 
BRANCH   3   4
ATOM      4  N   UNL     1       2.982  -0.792  -0.935  1.00  0.00    -0.352 N 
ATOM      5  O   UNL     1       1.079   0.175  -0.212  1.00  0.00    -0.269 OA
ATOM      6  C   UNL     1       2.297   0.059  -0.099  1.00  0.00     0.251 C 
ATOM      7  H   UNL     1       2.449  -1.189  -1.661  1.00  0.00     0.163 HD
BRANCH   6   8
ATOM      8  C   UNL     1       3.018   0.806   0.957  1.00  0.00     0.039 A 
ATOM      9  C   UNL     1       4.229   1.446   0.685  1.00  0.00     0.014 A 
ATOM     10  C   UNL     1       2.472   0.864   2.243  1.00  0.00     0.014 A 
ATOM     11  C   UNL     1       4.966   2.001   1.726  1.00  0.00     0.010 A 
ATOM     12  C   UNL     1       3.178   1.496   3.274  1.00  0.00     0.010 A 
ATOM     13  C   UNL     1       4.451   2.032   3.034  1.00  0.00    -0.014 A 
BRANCH  13  14
ATOM     14  C   UNL     1       5.258   2.653   4.117  1.00  0.00     0.031 A 
ATOM     15  C   UNL     1       5.796   1.829   5.257  1.00  0.00     0.074 A 
ATOM     16  C   UNL     1       5.560   3.964   4.035  1.00  0.00     0.049 A 
ATOM     17  N   UNL     1       6.569   2.200   6.247  1.00  0.00    -0.248 NA
ATOM     18  C   UNL     1       5.416   0.409   5.297  1.00  0.00     0.031 C 
ATOM     19  C   UNL     1       5.090   4.868   2.983  1.00  0.00     0.029 A 
ATOM     20  N   UNL     1       6.355   4.756   4.823  1.00  0.00    -0.354 N 
ATOM     21  C   UNL     1       6.757   1.069   7.032  1.00  0.00     0.074 A 
ATOM     22  C   UNL     1       5.994   0.003   6.420  1.00  0.00     0.031 C 
ATOM     23  C   UNL     1       5.655   6.072   3.153  1.00  0.00     0.029 A 
ATOM     24  C   UNL     1       6.484   6.042   4.354  1.00  0.00     0.049 A 
ATOM     25  H   UNL     1       6.791   4.435   5.645  1.00  0.00     0.167 HD
ATOM     26  C   UNL     1       7.507   0.929   8.152  1.00  0.00     0.037 A 
ATOM     27  C   UNL     1       7.191   7.084   4.832  1.00  0.00     0.037 A 
ATOM     28  C   UNL     1       8.277   1.990   8.751  1.00  0.00     0.049 A 
ATOM     29  C   UNL     1       8.014   6.906   6.074  1.00  0.00     0.074 A 
ATOM     30  C   UNL     1       9.071   1.944   9.885  1.00  0.00     0.029 A 
ATOM     31  N   UNL     1       8.354   3.287   8.265  1.00  0.00    -0.354 N 
ATOM     32  N   UNL     1       8.178   5.827   6.802  1.00  0.00    -0.248 NA
ATOM     33  C   UNL     1       8.743   8.083   6.563  1.00  0.00     0.031 C 
ATOM     34  C   UNL     1       9.605   3.219  10.099  1.00  0.00     0.029 A 
ATOM     35  C   UNL     1       9.176   4.051   9.078  1.00  0.00     0.049 A 
ATOM     36  H   UNL     1       7.893   3.617   7.460  1.00  0.00     0.167 HD
ATOM     37  C   UNL     1       9.034   6.193   7.833  1.00  0.00     0.074 A 
ATOM     38  C   UNL     1       9.369   7.587   7.623  1.00  0.00     0.031 C 
ATOM     39  C   UNL     1       9.496   5.440   8.861  1.00  0.00     0.037 A 
BRANCH  26  40
ATOM     40  C   UNL     1       7.531  -0.422   8.812  1.00  0.00     0.058 A 
ATOM     41  C   UNL     1       6.873  -0.634  10.034  1.00  0.00     0.135 A 
ATOM     42  C   UNL     1       8.242  -1.498   8.257  1.00  0.00     0.135 A 
ATOM     43  F   UNL     1       6.174   0.359  10.607  1.00  0.00    -0.206 F 
ATOM     44  C   UNL     1       6.922  -1.863  10.685  1.00  0.00     0.059 A 
ATOM     45  C   UNL     1       8.288  -2.742   8.880  1.00  0.00     0.059 A 
ATOM     46  F   UNL     1       8.872  -1.355   7.080  1.00  0.00    -0.206 F 
ATOM     47  C   UNL     1       7.633  -2.912  10.100  1.00  0.00     0.060 A 
BRANCH  47  48
ATOM     48  S   UNL     1       7.642  -4.519  10.924  1.00  0.00     0.124 S 
ATOM     49  O   UNL     1       8.556  -4.281  12.035  1.00  0.00    -0.237 OA
ATOM     50  O   UNL     1       6.237  -4.692  11.280  1.00  0.00    -0.237 OA
ATOM     51  O   UNL     1       8.130  -5.425   9.888  1.00  0.00    -0.744 OA
ENDBRANCH  47  48
ENDBRANCH  26  40
BRANCH  27  52
ATOM     52  C   UNL     1       7.159   8.376   4.101  1.00  0.00     0.058 A 
ATOM     53  C   UNL     1       6.001   9.168   4.079  1.00  0.00     0.135 A 
ATOM     54  C   UNL     1       8.261   8.801   3.344  1.00  0.00     0.135 A 
ATOM     55  F   UNL     1       4.918   8.796   4.779  1.00  0.00    -0.206 F 
ATOM     56  C   UNL     1       5.921  10.316   3.301  1.00  0.00     0.059 A 
ATOM     57  C   UNL     1       8.213   9.960   2.575  1.00  0.00     0.059 A 
ATOM     58  F   UNL     1       9.392   8.080   3.344  1.00  0.00    -0.206 F 
ATOM     59  C   UNL     1       7.029  10.697   2.542  1.00  0.00     0.060 A 
BRANCH  59  60
ATOM     60  S   UNL     1       6.892  12.166   1.501  1.00  0.00     0.124 S 
ATOM     61  O   UNL     1       6.025  11.682   0.431  1.00  0.00    -0.237 OA
ATOM     62  O   UNL     1       6.295  13.136   2.413  1.00  0.00    -0.237 OA
ATOM     63  O   UNL     1       8.274  12.436   1.117  1.00  0.00    -0.744 OA
ENDBRANCH  59  60
ENDBRANCH  27  52
BRANCH  39  64
ATOM     64  C   UNL     1      10.423   6.104   9.838  1.00  0.00     0.058 A 
ATOM     65  C   UNL     1      11.793   5.797   9.842  1.00  0.00     0.135 A 
ATOM     66  C   UNL     1       9.947   7.004  10.804  1.00  0.00     0.135 A 
ATOM     67  F   UNL     1      12.297   4.941   8.940  1.00  0.00    -0.206 F 
ATOM     68  C   UNL     1      12.658   6.353  10.779  1.00  0.00     0.059 A 
ATOM     69  C   UNL     1      10.798   7.588  11.738  1.00  0.00     0.059 A 
ATOM     70  F   UNL     1       8.647   7.338  10.832  1.00  0.00    -0.206 F 
ATOM     71  C   UNL     1      12.150   7.244  11.725  1.00  0.00     0.060 A 
BRANCH  71  72
ATOM     72  S   UNL     1      13.290   7.978  12.918  1.00  0.00     0.124 S 
ATOM     73  O   UNL     1      13.524   6.864  13.830  1.00  0.00    -0.237 OA
ATOM     74  O   UNL     1      14.421   8.358  12.076  1.00  0.00    -0.237 OA
ATOM     75  O   UNL     1      12.528   9.094  13.470  1.00  0.00    -0.744 OA
ENDBRANCH  71  72
ENDBRANCH  39  64
ENDBRANCH  13  14
ENDBRANCH   6   8
ENDBRANCH   3   4
ENDBRANCH   2   3
ENDBRANCH   1   2
BRANCH   1  76
ATOM     76  C   UNL     1       4.666  -2.893  -3.512  1.00  0.00     0.002 C 
BRANCH  76  77
ATOM     77  C   UNL     1       6.191  -2.786  -3.583  1.00  0.00     0.021 C 
BRANCH  77  78
ATOM     78  C   UNL     1       6.953  -4.070  -3.268  1.00  0.00     0.116 C 
BRANCH  78  79
ATOM     79  N   UNL     1       6.747  -5.106  -4.271  1.00  0.00    -0.352 N 
ATOM     80  C   UNL     1       7.694  -5.845  -4.941  1.00  0.00     0.256 C 
ATOM     81  H   UNL     1       5.810  -5.302  -4.499  1.00  0.00     0.163 HD
ATOM     82  O   UNL     1       7.375  -6.602  -5.853  1.00  0.00    -0.269 OA
BRANCH  80  83
ATOM     83  C   UNL     1       9.120  -5.634  -4.637  1.00  0.00     0.099 A 
ATOM     84  C   UNL     1       9.566  -5.866  -3.333  1.00  0.00     0.138 A 
ATOM     85  C   UNL     1      10.000  -5.145  -5.620  1.00  0.00     0.057 A 
ATOM     86  F   UNL     1       8.751  -6.406  -2.415  1.00  0.00    -0.206 F 
ATOM     87  C   UNL     1      10.847  -5.499  -2.945  1.00  0.00     0.040 A 
ATOM     88  C   UNL     1      11.249  -4.684  -5.186  1.00  0.00     0.027 A 
ATOM     89  C   UNL     1      11.676  -4.868  -3.865  1.00  0.00     0.005 A 
BRANCH  85  90
ATOM     90  N   UNL     1       9.583  -5.119  -6.976  1.00  0.00    -0.321 N 
ATOM     91  C   UNL     1      10.255  -4.924  -8.162  1.00  0.00     0.257 C 
ATOM     92  H   UNL     1       8.617  -5.270  -7.093  1.00  0.00     0.170 HD
ATOM     93  O   UNL     1       9.641  -4.785  -9.218  1.00  0.00    -0.269 OA
BRANCH  91  94
ATOM     94  C   UNL     1      11.720  -4.924  -8.227  1.00  0.00     0.058 A 
ATOM     95  C   UNL     1      12.492  -5.983  -7.741  1.00  0.00     0.018 A 
ATOM     96  C   UNL     1      12.364  -3.825  -8.777  1.00  0.00     0.126 A 
ATOM     97  C   UNL     1      13.879  -5.855  -7.737  1.00  0.00     0.042 A 
ATOM     98  N   UNL     1      13.711  -3.679  -8.788  1.00  0.00    -0.244 NA
ATOM     99  C   UNL     1      14.428  -4.691  -8.254  1.00  0.00     0.129 A 
ATOM    100  Cl  UNL     1      16.122  -4.428  -8.220  1.00  0.00    -0.062 Cl
ENDBRANCH  91  94
ENDBRANCH  85  90
ENDBRANCH  80  83
ENDBRANCH  78  79
ENDBRANCH  77  78
ENDBRANCH  76  77
ENDBRANCH   1  76
TORSDOF 18
