REMARK SMILES Cc1noc(C)c1CCC(=O)N1CCC2(CC1)NC(=O)C[C@@H]2C(=O)NCCCCCCNC(=O)c1ccc(-c2c3nc(c(-c4c(F)cc(S(=O)(=O)[O-])cc4F)c4ccc([nH]4)c(-c4c(F)cc(S(=O)(=O)[O-])cc4F)c4nc(c(-c5c(F)cc(S(=O)(=O)[O-])cc5F)c5ccc2[nH]5)C=C4)C=C3)cc1
REMARK SMILES IDX 28 1 27 2 26 3 25 4 23 5 24 6 22 8 10 9 11 10 12 11 13 12
REMARK SMILES IDX 17 13 14 14 16 15 15 16 18 17 19 18 21 20 20 21 9 22 8 23
REMARK SMILES IDX 7 24 1 25 2 26 3 27 4 28 5 29 6 30 29 31 30 32 31 33 32 34
REMARK SMILES IDX 33 35 34 37 35 38 36 39 100 40 37 41 99 42 38 43 39 44 40 45
REMARK SMILES IDX 93 46 41 47 98 48 92 49 94 50 42 51 97 52 91 53 90 54 43 56
REMARK SMILES IDX 77 57 56 58 76 59 57 60 60 61 75 62 95 63 58 64 59 65 74 67
REMARK SMILES IDX 96 68 61 69 44 70 45 71 54 72 46 73 47 74 53 75 55 76 48 77
REMARK SMILES IDX 49 78 50 79 51 80 52 81 78 82 79 83 88 84 80 85 81 86 87 87
REMARK SMILES IDX 89 88 82 89 83 90 84 91 85 92 86 93 62 94 63 95 72 96 64 97
REMARK SMILES IDX 65 98 71 99 73 100 66 101 67 102 68 103 69 104 70 105
REMARK H PARENT 25 7 18 19 32 36 94 55 60 66
REMARK Flexibility Score: inf
ROOT
ATOM      1  C   UNL     1      -7.129   1.011  -3.745  1.00  0.00     0.002 C 
ENDROOT
BRANCH   1   2
ATOM      2  C   UNL     1      -6.209  -0.212  -3.750  1.00  0.00     0.021 C 
BRANCH   2   3
ATOM      3  C   UNL     1      -5.383  -0.352  -2.490  1.00  0.00     0.116 C 
BRANCH   3   4
ATOM      4  N   UNL     1      -5.306  -1.655  -1.880  1.00  0.00    -0.356 N 
ATOM      5  C   UNL     1      -4.382  -1.883  -0.900  1.00  0.00     0.226 C 
ATOM      6  O   UNL     1      -4.826  -1.965   0.254  1.00  0.00    -0.275 OA
ATOM      7  H   UNL     1      -5.913  -2.374  -2.167  1.00  0.00     0.163 HD
BRANCH   5   8
ATOM      8  C   UNL     1      -2.928  -2.321  -1.161  1.00  0.00     0.113 C 
ATOM      9  C   UNL     1      -1.097   2.253  -1.524  1.00  0.00     0.222 C 
ATOM     10  O   UNL     1      -2.102   2.958  -1.652  1.00  0.00    -0.275 OA
ATOM     11  N   UNL     1      -1.075   0.915  -1.956  1.00  0.00    -0.343 N 
ATOM     12  C   UNL     1      -2.222   0.537  -2.735  1.00  0.00     0.122 C 
ATOM     13  C   UNL     1      -0.502  -0.121  -1.118  1.00  0.00     0.122 C 
ATOM     14  C   UNL     1      -2.177  -0.871  -3.324  1.00  0.00     0.051 C 
ATOM     15  C   UNL     1      -0.525  -1.538  -1.669  1.00  0.00     0.051 C 
ATOM     16  C   UNL     1      -1.893  -1.947  -2.279  1.00  0.00     0.055 C 
ATOM     17  N   UNL     1      -1.657  -3.211  -2.958  1.00  0.00    -0.350 N 
ATOM     18  C   UNL     1      -2.122  -4.314  -2.299  1.00  0.00     0.221 C 
ATOM     19  H   UNL     1      -1.197  -3.268  -3.827  1.00  0.00     0.164 HD
ATOM     20  C   UNL     1      -3.011  -3.870  -1.186  1.00  0.00     0.116 C 
ATOM     21  O   UNL     1      -1.853  -5.464  -2.588  1.00  0.00    -0.275 OA
BRANCH   9  22
ATOM     22  C   UNL     1       0.168   2.838  -0.937  1.00  0.00     0.105 C 
BRANCH  22  23
ATOM     23  C   UNL     1       0.158   2.970   0.584  1.00  0.00     0.051 C 
BRANCH  23  24
ATOM     24  C   UNL     1       0.344   1.688   1.326  1.00  0.00     0.018 A 
ATOM     25  C   UNL     1      -2.068   1.232   2.263  1.00  0.00     0.071 C 
ATOM     26  C   UNL     1      -0.623   0.952   2.074  1.00  0.00     0.084 A 
ATOM     27  N   UNL     1      -0.107  -0.188   2.550  1.00  0.00    -0.085 NA
ATOM     28  O   UNL     1       1.200  -0.225   2.114  1.00  0.00    -0.361 OA
ATOM     29  C   UNL     1       1.467   0.882   1.372  1.00  0.00     0.137 A 
ATOM     30  C   UNL     1       2.794   0.912   0.723  1.00  0.00     0.091 C 
ENDBRANCH  23  24
ENDBRANCH  22  23
ENDBRANCH   9  22
ENDBRANCH   5   8
ENDBRANCH   3   4
ENDBRANCH   2   3
ENDBRANCH   1   2
BRANCH   1  31
ATOM     31  C   UNL     1      -6.554   2.354  -3.264  1.00  0.00     0.002 C 
BRANCH  31  32
ATOM     32  C   UNL     1      -5.339   2.923  -4.001  1.00  0.00     0.021 C 
BRANCH  32  33
ATOM     33  C   UNL     1      -5.450   3.027  -5.519  1.00  0.00     0.116 C 
BRANCH  33  34
ATOM     34  N   UNL     1      -6.694   3.637  -5.958  1.00  0.00    -0.352 N 
ATOM     35  C   UNL     1      -6.926   4.701  -6.792  1.00  0.00     0.251 C 
ATOM     36  H   UNL     1      -7.507   3.216  -5.596  1.00  0.00     0.163 HD
ATOM     37  O   UNL     1      -8.070   5.128  -6.923  1.00  0.00    -0.269 OA
BRANCH  35  38
ATOM     38  C   UNL     1      -5.811   5.352  -7.511  1.00  0.00     0.039 A 
ATOM     39  C   UNL     1      -5.754   6.749  -7.530  1.00  0.00     0.014 A 
ATOM     40  C   UNL     1      -4.839   4.602  -8.175  1.00  0.00     0.014 A 
ATOM     41  C   UNL     1      -4.680   7.393  -8.148  1.00  0.00     0.010 A 
ATOM     42  C   UNL     1      -3.737   5.242  -8.739  1.00  0.00     0.010 A 
ATOM     43  C   UNL     1      -3.640   6.642  -8.719  1.00  0.00    -0.014 A 
BRANCH  43  44
ATOM     44  C   UNL     1      -2.423   7.297  -9.262  1.00  0.00     0.031 A 
ATOM     45  C   UNL     1      -2.094   7.194 -10.725  1.00  0.00     0.074 A 
ATOM     46  C   UNL     1      -1.569   7.907  -8.415  1.00  0.00     0.049 A 
ATOM     47  N   UNL     1      -1.021   7.589 -11.359  1.00  0.00    -0.248 NA
ATOM     48  C   UNL     1      -3.093   6.539 -11.584  1.00  0.00     0.031 C 
ATOM     49  C   UNL     1      -1.764   8.037  -6.969  1.00  0.00     0.029 A 
ATOM     50  N   UNL     1      -0.357   8.510  -8.640  1.00  0.00    -0.354 N 
ATOM     51  C   UNL     1      -1.205   7.218 -12.685  1.00  0.00     0.074 A 
ATOM     52  C   UNL     1      -2.477   6.530 -12.758  1.00  0.00     0.031 C 
ATOM     53  C   UNL     1      -0.714   8.683  -6.439  1.00  0.00     0.029 A 
ATOM     54  C   UNL     1       0.251   8.971  -7.495  1.00  0.00     0.049 A 
ATOM     55  H   UNL     1       0.040   8.604  -9.536  1.00  0.00     0.167 HD
ATOM     56  C   UNL     1      -0.394   7.445 -13.746  1.00  0.00     0.037 A 
ATOM     57  C   UNL     1       1.460   9.537  -7.312  1.00  0.00     0.037 A 
ATOM     58  C   UNL     1       0.860   8.148 -13.664  1.00  0.00     0.049 A 
ATOM     59  C   UNL     1       2.354   9.756  -8.502  1.00  0.00     0.074 A 
ATOM     60  C   UNL     1       1.723   8.489 -14.692  1.00  0.00     0.029 A 
ATOM     61  N   UNL     1       1.436   8.611 -12.490  1.00  0.00    -0.354 N 
ATOM     62  N   UNL     1       2.134   9.458  -9.760  1.00  0.00    -0.248 NA
ATOM     63  C   UNL     1       3.659  10.382  -8.250  1.00  0.00     0.031 C 
ATOM     64  C   UNL     1       2.845   9.110 -14.133  1.00  0.00     0.029 A 
ATOM     65  C   UNL     1       2.658   9.204 -12.763  1.00  0.00     0.049 A 
ATOM     66  H   UNL     1       1.035   8.531 -11.594  1.00  0.00     0.167 HD
ATOM     67  C   UNL     1       3.265   9.877 -10.453  1.00  0.00     0.074 A 
ATOM     68  C   UNL     1       4.160  10.463  -9.476  1.00  0.00     0.031 C 
ATOM     69  C   UNL     1       3.538   9.783 -11.777  1.00  0.00     0.037 A 
BRANCH  56  70
ATOM     70  C   UNL     1      -0.833   6.926 -15.088  1.00  0.00     0.058 A 
ATOM     71  C   UNL     1      -1.911   7.495 -15.784  1.00  0.00     0.135 A 
ATOM     72  C   UNL     1      -0.136   5.876 -15.709  1.00  0.00     0.135 A 
ATOM     73  F   UNL     1      -2.620   8.493 -15.233  1.00  0.00    -0.206 F 
ATOM     74  C   UNL     1      -2.301   7.024 -17.034  1.00  0.00     0.059 A 
ATOM     75  C   UNL     1      -0.491   5.407 -16.971  1.00  0.00     0.059 A 
ATOM     76  F   UNL     1       0.903   5.295 -15.089  1.00  0.00    -0.206 F 
ATOM     77  C   UNL     1      -1.584   5.980 -17.619  1.00  0.00     0.060 A 
BRANCH  77  78
ATOM     78  S   UNL     1      -2.099   5.386 -19.245  1.00  0.00     0.124 S 
ATOM     79  O   UNL     1      -3.336   4.684 -18.918  1.00  0.00    -0.237 OA
ATOM     80  O   UNL     1      -2.255   6.628 -19.995  1.00  0.00    -0.237 OA
ATOM     81  O   UNL     1      -0.989   4.538 -19.666  1.00  0.00    -0.744 OA
ENDBRANCH  77  78
ENDBRANCH  56  70
BRANCH  57  82
ATOM     82  C   UNL     1       1.895   9.929  -5.944  1.00  0.00     0.058 A 
ATOM     83  C   UNL     1       2.011  11.278  -5.580  1.00  0.00     0.135 A 
ATOM     84  C   UNL     1       2.187   8.962  -4.969  1.00  0.00     0.135 A 
ATOM     85  F   UNL     1       1.751  12.239  -6.480  1.00  0.00    -0.206 F 
ATOM     86  C   UNL     1       2.413  11.657  -4.303  1.00  0.00     0.059 A 
ATOM     87  C   UNL     1       2.565   9.316  -3.678  1.00  0.00     0.059 A 
ATOM     88  F   UNL     1       2.079   7.656  -5.261  1.00  0.00    -0.206 F 
ATOM     89  C   UNL     1       2.685  10.667  -3.357  1.00  0.00     0.060 A 
BRANCH  89  90
ATOM     90  S   UNL     1       3.158  11.168  -1.688  1.00  0.00     0.124 S 
ATOM     91  O   UNL     1       4.518  11.649  -1.900  1.00  0.00    -0.237 OA
ATOM     92  O   UNL     1       2.159  12.186  -1.378  1.00  0.00    -0.237 OA
ATOM     93  O   UNL     1       3.039   9.930  -0.921  1.00  0.00    -0.744 OA
ENDBRANCH  89  90
ENDBRANCH  57  82
BRANCH  69  94
ATOM     94  C   UNL     1       4.850  10.337 -12.258  1.00  0.00     0.058 A 
ATOM     95  C   UNL     1       6.062   9.674 -12.008  1.00  0.00     0.135 A 
ATOM     96  C   UNL     1       4.889  11.502 -13.041  1.00  0.00     0.135 A 
ATOM     97  F   UNL     1       6.081   8.562 -11.256  1.00  0.00    -0.206 F 
ATOM     98  C   UNL     1       7.267  10.151 -12.511  1.00  0.00     0.059 A 
ATOM     99  C   UNL     1       6.079  11.982 -13.576  1.00  0.00     0.059 A 
ATOM    100  F   UNL     1       3.757  12.170 -13.314  1.00  0.00    -0.206 F 
ATOM    101  C   UNL     1       7.265  11.302 -13.301  1.00  0.00     0.060 A 
BRANCH 101 102
ATOM    102  S   UNL     1       8.829  11.875 -13.997  1.00  0.00     0.124 S 
ATOM    103  O   UNL     1       9.499  12.409 -12.816  1.00  0.00    -0.237 OA
ATOM    104  O   UNL     1       9.394  10.646 -14.545  1.00  0.00    -0.237 OA
ATOM    105  O   UNL     1       8.419  12.866 -14.988  1.00  0.00    -0.744 OA
ENDBRANCH 101 102
ENDBRANCH  69  94
ENDBRANCH  43  44
ENDBRANCH  35  38
ENDBRANCH  33  34
ENDBRANCH  32  33
ENDBRANCH  31  32
ENDBRANCH   1  31
TORSDOF 19
