REMARK SMILES CC1(C)[C@H](C(=O)NCCCCCCNC(=O)c2ccc(-c3c4nc(c(-c5c(F)cc(S(=O)(=O)[O-])cc5F)c5ccc([nH]5)c(-c5c(F)cc(S(=O)(=O)[O-])cc5F)c5nc(c(-c6c(F)cc(S(=O)(=O)[O-])cc6F)c6ccc3[nH]6)C=C5)C=C4)cc2)[C@H]1C(=O)Nc1ccccc1C(=O)Nc1nccs1
REMARK SMILES IDX 10 1 9 2 8 3 7 4 5 5 6 6 4 8 1 9 2 10 3 11 83 12 84 13 85 14
REMARK SMILES IDX 86 15 87 17 88 18 92 19 89 20 91 21 90 22 93 23 94 24 95 25
REMARK SMILES IDX 96 27 97 28 100 29 98 30 99 31 11 32 12 33 13 34 14 35 15 36
REMARK SMILES IDX 16 38 17 39 18 40 82 41 19 42 81 43 20 44 21 45 22 46 75 47
REMARK SMILES IDX 23 48 80 49 74 50 76 51 24 52 79 53 73 54 72 55 25 57 59 58
REMARK SMILES IDX 38 59 58 60 39 61 42 62 57 63 77 64 40 65 41 66 56 68 78 69
REMARK SMILES IDX 43 70 26 71 27 72 36 73 28 74 29 75 35 76 37 77 30 78 31 79
REMARK SMILES IDX 32 80 33 81 34 82 60 83 61 84 70 85 62 86 63 87 69 88 71 89
REMARK SMILES IDX 64 90 65 91 66 92 67 93 68 94 44 95 45 96 54 97 46 98 47 99
REMARK SMILES IDX 53 100 55 101 48 102 49 103 50 104 51 105 52 106
REMARK H PARENT 7 7 86 16 95 26 14 37 76 56 42 67
REMARK Flexibility Score: inf
ROOT
ATOM      1  C   UNL     1      -0.955   5.303  -1.780  1.00  0.00     0.002 C 
ENDROOT
BRANCH   1   2
ATOM      2  C   UNL     1      -0.404   4.123  -0.975  1.00  0.00     0.021 C 
BRANCH   2   3
ATOM      3  C   UNL     1      -1.504   3.237  -0.397  1.00  0.00     0.116 C 
BRANCH   3   4
ATOM      4  N   UNL     1      -2.082   2.459  -1.452  1.00  0.00    -0.356 N 
ATOM      5  C   UNL     1      -1.717   1.255  -1.961  1.00  0.00     0.224 C 
ATOM      6  O   UNL     1      -2.145   0.967  -3.072  1.00  0.00    -0.275 OA
ATOM      7  H   UNL     1      -2.873   2.863  -1.876  1.00  0.00     0.163 HD
BRANCH   5   8
ATOM      8  C   UNL     1      -0.940   0.232  -1.248  1.00  0.00     0.098 C 
ATOM      9  C   UNL     1       1.300  -0.825  -1.375  1.00  0.00     0.013 C 
ATOM     10  C   UNL     1       0.418   0.161  -0.640  1.00  0.00    -0.011 C 
ATOM     11  C   UNL     1       1.282   1.319  -0.154  1.00  0.00     0.013 C 
ATOM     12  C   UNL     1      -0.845  -0.024   0.243  1.00  0.00     0.098 C 
BRANCH  12  13
ATOM     13  C   UNL     1      -1.986  -0.889   0.616  1.00  0.00     0.228 C 
ATOM     14  O   UNL     1      -3.017  -0.323   0.985  1.00  0.00    -0.274 OA
ATOM     15  N   UNL     1      -2.031  -2.239   0.507  1.00  0.00    -0.325 N 
ATOM     16  H   UNL     1      -2.912  -2.626   0.715  1.00  0.00     0.169 HD
BRANCH  15  17
ATOM     17  C   UNL     1      -1.072  -3.184   0.159  1.00  0.00     0.054 A 
ATOM     18  C   UNL     1      -1.574  -4.143  -0.742  1.00  0.00     0.027 A 
ATOM     19  C   UNL     1       0.272  -3.221   0.552  1.00  0.00     0.063 A 
ATOM     20  C   UNL     1      -0.719  -4.986  -1.438  1.00  0.00     0.002 A 
ATOM     21  C   UNL     1       1.124  -4.077  -0.180  1.00  0.00     0.016 A 
ATOM     22  C   UNL     1       0.642  -4.916  -1.192  1.00  0.00     0.001 A 
BRANCH  19  23
ATOM     23  C   UNL     1       0.948  -2.402   1.619  1.00  0.00     0.259 C 
ATOM     24  O   UNL     1       2.158  -2.176   1.506  1.00  0.00    -0.269 OA
ATOM     25  N   UNL     1       0.316  -1.814   2.680  1.00  0.00    -0.298 N 
ATOM     26  H   UNL     1       0.756  -1.018   3.056  1.00  0.00     0.172 HD
BRANCH  25  27
ATOM     27  C   UNL     1      -0.843  -2.193   3.280  1.00  0.00     0.189 A 
ATOM     28  N   UNL     1      -1.520  -3.304   3.154  1.00  0.00    -0.229 NA
ATOM     29  S   UNL     1      -1.497  -1.000   4.314  1.00  0.00    -0.105 S 
ATOM     30  C   UNL     1      -2.707  -3.177   3.852  1.00  0.00     0.125 A 
ATOM     31  C   UNL     1      -2.903  -1.967   4.486  1.00  0.00     0.088 A 
ENDBRANCH  25  27
ENDBRANCH  19  23
ENDBRANCH  15  17
ENDBRANCH  12  13
ENDBRANCH   5   8
ENDBRANCH   3   4
ENDBRANCH   2   3
ENDBRANCH   1   2
BRANCH   1  32
ATOM     32  C   UNL     1      -1.905   6.203  -0.987  1.00  0.00     0.002 C 
BRANCH  32  33
ATOM     33  C   UNL     1      -1.335   6.692   0.347  1.00  0.00     0.021 C 
BRANCH  33  34
ATOM     34  C   UNL     1      -0.025   7.458   0.208  1.00  0.00     0.116 C 
BRANCH  34  35
ATOM     35  N   UNL     1      -0.189   8.629  -0.636  1.00  0.00    -0.352 N 
ATOM     36  C   UNL     1      -0.002   9.949  -0.323  1.00  0.00     0.251 C 
ATOM     37  H   UNL     1      -0.474   8.449  -1.561  1.00  0.00     0.163 HD
ATOM     38  O   UNL     1      -0.458  10.825  -1.051  1.00  0.00    -0.269 OA
BRANCH  36  39
ATOM     39  C   UNL     1       0.750  10.304   0.897  1.00  0.00     0.039 A 
ATOM     40  C   UNL     1       0.279  11.337   1.707  1.00  0.00     0.014 A 
ATOM     41  C   UNL     1       1.926   9.623   1.228  1.00  0.00     0.014 A 
ATOM     42  C   UNL     1       0.971  11.662   2.874  1.00  0.00     0.010 A 
ATOM     43  C   UNL     1       2.566   9.893   2.431  1.00  0.00     0.010 A 
ATOM     44  C   UNL     1       2.105  10.926   3.259  1.00  0.00    -0.014 A 
BRANCH  44  45
ATOM     45  C   UNL     1       2.828  11.238   4.517  1.00  0.00     0.031 A 
ATOM     46  C   UNL     1       4.256  11.711   4.469  1.00  0.00     0.074 A 
ATOM     47  C   UNL     1       2.211  11.048   5.700  1.00  0.00     0.049 A 
ATOM     48  N   UNL     1       5.064  11.993   5.458  1.00  0.00    -0.248 NA
ATOM     49  C   UNL     1       4.865  11.861   3.138  1.00  0.00     0.031 C 
ATOM     50  C   UNL     1       0.846  10.545   5.871  1.00  0.00     0.029 A 
ATOM     51  N   UNL     1       2.652  11.250   6.983  1.00  0.00    -0.354 N 
ATOM     52  C   UNL     1       6.274  12.343   4.871  1.00  0.00     0.074 A 
ATOM     53  C   UNL     1       6.114  12.180   3.443  1.00  0.00     0.031 C 
ATOM     54  C   UNL     1       0.553  10.504   7.181  1.00  0.00     0.029 A 
ATOM     55  C   UNL     1       1.719  10.937   7.943  1.00  0.00     0.049 A 
ATOM     56  H   UNL     1       3.552  11.588   7.196  1.00  0.00     0.167 HD
ATOM     57  C   UNL     1       7.408  12.784   5.467  1.00  0.00     0.037 A 
ATOM     58  C   UNL     1       1.798  10.986   9.287  1.00  0.00     0.037 A 
ATOM     59  C   UNL     1       7.549  12.963   6.889  1.00  0.00     0.049 A 
ATOM     60  C   UNL     1       3.070  11.477   9.925  1.00  0.00     0.074 A 
ATOM     61  C   UNL     1       8.635  13.458   7.589  1.00  0.00     0.029 A 
ATOM     62  N   UNL     1       6.576  12.652   7.829  1.00  0.00    -0.354 N 
ATOM     63  N   UNL     1       4.183  11.868   9.351  1.00  0.00    -0.248 NA
ATOM     64  C   UNL     1       3.093  11.545  11.392  1.00  0.00     0.031 C 
ATOM     65  C   UNL     1       8.341  13.394   8.955  1.00  0.00     0.029 A 
ATOM     66  C   UNL     1       7.046  12.921   9.104  1.00  0.00     0.049 A 
ATOM     67  H   UNL     1       5.684  12.293   7.620  1.00  0.00     0.167 HD
ATOM     68  C   UNL     1       5.027  12.259  10.385  1.00  0.00     0.074 A 
ATOM     69  C   UNL     1       4.290  12.070  11.617  1.00  0.00     0.031 C 
ATOM     70  C   UNL     1       6.296  12.734  10.321  1.00  0.00     0.037 A 
BRANCH  57  71
ATOM     71  C   UNL     1       8.585  13.107   4.586  1.00  0.00     0.058 A 
ATOM     72  C   UNL     1       8.577  14.209   3.714  1.00  0.00     0.135 A 
ATOM     73  C   UNL     1       9.755  12.332   4.646  1.00  0.00     0.135 A 
ATOM     74  F   UNL     1       7.480  14.975   3.601  1.00  0.00    -0.206 F 
ATOM     75  C   UNL     1       9.675  14.515   2.917  1.00  0.00     0.059 A 
ATOM     76  C   UNL     1      10.877  12.639   3.882  1.00  0.00     0.059 A 
ATOM     77  F   UNL     1       9.819  11.266   5.460  1.00  0.00    -0.206 F 
ATOM     78  C   UNL     1      10.823  13.726   3.010  1.00  0.00     0.060 A 
BRANCH  78  79
ATOM     79  S   UNL     1      12.245  14.149   1.982  1.00  0.00     0.124 S 
ATOM     80  O   UNL     1      11.767  13.773   0.655  1.00  0.00    -0.237 OA
ATOM     81  O   UNL     1      12.385  15.582   2.222  1.00  0.00    -0.237 OA
ATOM     82  O   UNL     1      13.316  13.318   2.522  1.00  0.00    -0.744 OA
ENDBRANCH  78  79
ENDBRANCH  57  71
BRANCH  58  83
ATOM     83  C   UNL     1       0.633  10.576  10.117  1.00  0.00     0.058 A 
ATOM     84  C   UNL     1      -0.088  11.515  10.869  1.00  0.00     0.135 A 
ATOM     85  C   UNL     1       0.215   9.237  10.172  1.00  0.00     0.135 A 
ATOM     86  F   UNL     1       0.274  12.807  10.854  1.00  0.00    -0.206 F 
ATOM     87  C   UNL     1      -1.167  11.140  11.665  1.00  0.00     0.059 A 
ATOM     88  C   UNL     1      -0.879   8.842  10.936  1.00  0.00     0.059 A 
ATOM     89  F   UNL     1       0.858   8.300   9.457  1.00  0.00    -0.206 F 
ATOM     90  C   UNL     1      -1.556   9.800  11.690  1.00  0.00     0.060 A 
BRANCH  90  91
ATOM     91  S   UNL     1      -2.979   9.330  12.696  1.00  0.00     0.124 S 
ATOM     92  O   UNL     1      -2.440   9.456  14.045  1.00  0.00    -0.237 OA
ATOM     93  O   UNL     1      -3.971  10.328  12.308  1.00  0.00    -0.237 OA
ATOM     94  O   UNL     1      -3.266   7.968  12.255  1.00  0.00    -0.744 OA
ENDBRANCH  90  91
ENDBRANCH  58  83
BRANCH  70  95
ATOM     95  C   UNL     1       6.955  13.125  11.617  1.00  0.00     0.058 A 
ATOM     96  C   UNL     1       7.354  12.172  12.566  1.00  0.00     0.135 A 
ATOM     97  C   UNL     1       7.227  14.476  11.891  1.00  0.00     0.135 A 
ATOM     98  F   UNL     1       7.114  10.867  12.356  1.00  0.00    -0.206 F 
ATOM     99  C   UNL     1       7.968  12.545  13.757  1.00  0.00     0.059 A 
ATOM    100  C   UNL     1       7.870  14.870  13.060  1.00  0.00     0.059 A 
ATOM    101  F   UNL     1       6.879  15.429  11.012  1.00  0.00    -0.206 F 
ATOM    102  C   UNL     1       8.223  13.898  13.995  1.00  0.00     0.060 A 
BRANCH 102 103
ATOM    103  S   UNL     1       9.037  14.367  15.535  1.00  0.00     0.124 S 
ATOM    104  O   UNL     1       7.970  14.157  16.508  1.00  0.00    -0.237 OA
ATOM    105  O   UNL     1      10.149  13.422  15.600  1.00  0.00    -0.237 OA
ATOM    106  O   UNL     1       9.417  15.758  15.310  1.00  0.00    -0.744 OA
ENDBRANCH 102 103
ENDBRANCH  70  95
ENDBRANCH  44  45
ENDBRANCH  36  39
ENDBRANCH  34  35
ENDBRANCH  33  34
ENDBRANCH  32  33
ENDBRANCH   1  32
TORSDOF 20
