REMARK SMILES [NH3+][C@@H]1C=C[C@H](C(=O)N(CC(=O)NCCCCCCNC(=O)c2ccc(-c3c4nc(c(-c5c(F)cc(S(=O)(=O)[O-])cc5F)c5ccc([nH]5)c(-c5c(F)cc(S(=O)(=O)[O-])cc5F)c5nc(c(-c6c(F)cc(S(=O)(=O)[O-])cc6F)c6ccc3[nH]6)C=C5)C=C4)cc2)c2ccccc2)C1
REMARK SMILES IDX 15 1 14 2 13 3 12 4 10 5 11 6 9 8 8 9 6 10 7 11 5 12 2 13
REMARK SMILES IDX 3 14 94 15 4 16 1 17 88 21 89 22 93 23 90 24 92 25 91 26
REMARK SMILES IDX 16 27 17 28 18 29 19 30 20 31 21 33 22 34 23 35 87 36 24 37
REMARK SMILES IDX 86 38 25 39 26 40 27 41 80 42 28 43 85 44 79 45 81 46 29 47
REMARK SMILES IDX 84 48 78 49 77 50 30 52 64 53 43 54 63 55 44 56 47 57 62 58
REMARK SMILES IDX 82 59 45 60 46 61 61 63 83 64 48 65 31 66 32 67 41 68 33 69
REMARK SMILES IDX 34 70 40 71 42 72 35 73 36 74 37 75 38 76 39 77 65 78 66 79
REMARK SMILES IDX 75 80 67 81 68 82 74 83 76 84 69 85 70 86 71 87 72 88 73 89
REMARK SMILES IDX 49 90 50 91 59 92 51 93 52 94 58 95 60 96 53 97 54 98 55 99
REMARK SMILES IDX 56 100 57 101
REMARK H PARENT 12 7 1 18 1 19 1 20 19 32 81 51 47 62
REMARK Flexibility Score: inf
ROOT
ATOM      1  C   UNL     1       2.906   1.954   4.484  1.00  0.00     0.002 C 
ENDROOT
BRANCH   1   2
ATOM      2  C   UNL     1       2.125   0.638   4.460  1.00  0.00     0.021 C 
BRANCH   2   3
ATOM      3  C   UNL     1       2.409  -0.232   3.246  1.00  0.00     0.116 C 
BRANCH   3   4
ATOM      4  N   UNL     1       3.563  -1.096   3.356  1.00  0.00    -0.355 N 
ATOM      5  C   UNL     1       3.644  -2.443   3.151  1.00  0.00     0.240 C 
ATOM      6  O   UNL     1       4.757  -2.901   2.864  1.00  0.00    -0.273 OA
ATOM      7  H   UNL     1       4.404  -0.653   3.613  1.00  0.00     0.163 HD
BRANCH   5   8
ATOM      8  C   UNL     1       2.418  -3.382   3.185  1.00  0.00     0.225 C 
BRANCH   8   9
ATOM      9  N   UNL     1       1.273  -3.057   4.046  1.00  0.00    -0.303 N 
BRANCH   9  10
ATOM     10  C   UNL     1       0.025  -2.589   3.608  1.00  0.00     0.234 C 
ATOM     11  O   UNL     1      -0.830  -2.245   4.441  1.00  0.00    -0.274 OA
BRANCH  10  12
ATOM     12  C   UNL     1      -0.394  -2.563   2.094  1.00  0.00     0.108 C 
ATOM     13  C   UNL     1      -0.090  -0.770   0.356  1.00  0.00     0.205 C 
ATOM     14  C   UNL     1      -1.377  -0.638   1.074  1.00  0.00     0.033 C 
ATOM     15  C   UNL     1       0.509  -2.063   0.944  1.00  0.00     0.087 C 
ATOM     16  C   UNL     1      -1.572  -1.622   1.956  1.00  0.00    -0.012 C 
BRANCH  13  17
ATOM     17  N   UNL     1       0.763   0.383   0.582  1.00  0.00    -0.352 N 
ATOM     18  H   UNL     1       0.328   1.212   0.178  1.00  0.00     0.345 HD
ATOM     19  H   UNL     1       1.670   0.226   0.142  1.00  0.00     0.345 HD
ATOM     20  H   UNL     1       0.891   0.520   1.585  1.00  0.00     0.345 HD
ENDBRANCH  13  17
ENDBRANCH  10  12
ENDBRANCH   9  10
BRANCH   9  21
ATOM     21  C   UNL     1       1.479  -3.317   5.460  1.00  0.00     0.044 A 
ATOM     22  C   UNL     1       2.689  -3.008   6.104  1.00  0.00     0.026 A 
ATOM     23  C   UNL     1       0.484  -3.942   6.227  1.00  0.00     0.026 A 
ATOM     24  C   UNL     1       2.888  -3.285   7.461  1.00  0.00     0.002 A 
ATOM     25  C   UNL     1       0.690  -4.243   7.580  1.00  0.00     0.002 A 
ATOM     26  C   UNL     1       1.890  -3.909   8.198  1.00  0.00     0.000 A 
ENDBRANCH   9  21
ENDBRANCH   8   9
ENDBRANCH   5   8
ENDBRANCH   3   4
ENDBRANCH   2   3
ENDBRANCH   1   2
BRANCH   1  27
ATOM     27  C   UNL     1       2.757   2.838   3.237  1.00  0.00     0.002 C 
BRANCH  27  28
ATOM     28  C   UNL     1       1.323   3.219   2.858  1.00  0.00     0.021 C 
BRANCH  28  29
ATOM     29  C   UNL     1       0.571   4.033   3.906  1.00  0.00     0.116 C 
BRANCH  29  30
ATOM     30  N   UNL     1       1.264   5.269   4.242  1.00  0.00    -0.352 N 
ATOM     31  C   UNL     1       0.829   6.567   4.200  1.00  0.00     0.251 C 
ATOM     32  H   UNL     1       2.192   5.153   4.550  1.00  0.00     0.163 HD
ATOM     33  O   UNL     1       1.644   7.482   4.337  1.00  0.00    -0.269 OA
BRANCH  31  34
ATOM     34  C   UNL     1      -0.599   6.879   3.977  1.00  0.00     0.039 A 
ATOM     35  C   UNL     1      -0.935   7.955   3.150  1.00  0.00     0.014 A 
ATOM     36  C   UNL     1      -1.607   6.139   4.602  1.00  0.00     0.014 A 
ATOM     37  C   UNL     1      -2.278   8.251   2.905  1.00  0.00     0.010 A 
ATOM     38  C   UNL     1      -2.943   6.385   4.295  1.00  0.00     0.010 A 
ATOM     39  C   UNL     1      -3.293   7.448   3.450  1.00  0.00    -0.014 A 
BRANCH  39  40
ATOM     40  C   UNL     1      -4.725   7.707   3.148  1.00  0.00     0.031 A 
ATOM     41  C   UNL     1      -5.675   8.085   4.253  1.00  0.00     0.074 A 
ATOM     42  C   UNL     1      -5.180   7.545   1.890  1.00  0.00     0.049 A 
ATOM     43  N   UNL     1      -6.967   8.288   4.199  1.00  0.00    -0.248 NA
ATOM     44  C   UNL     1      -5.104   8.227   5.603  1.00  0.00     0.031 C 
ATOM     45  C   UNL     1      -4.366   7.136   0.742  1.00  0.00     0.029 A 
ATOM     46  N   UNL     1      -6.439   7.694   1.364  1.00  0.00    -0.354 N 
ATOM     47  C   UNL     1      -7.363   8.567   5.502  1.00  0.00     0.074 A 
ATOM     48  C   UNL     1      -6.186   8.454   6.334  1.00  0.00     0.031 C 
ATOM     49  C   UNL     1      -5.140   7.092  -0.354  1.00  0.00     0.029 A 
ATOM     50  C   UNL     1      -6.511   7.427   0.017  1.00  0.00     0.049 A 
ATOM     51  H   UNL     1      -7.218   7.967   1.901  1.00  0.00     0.167 HD
ATOM     52  C   UNL     1      -8.591   8.910   5.959  1.00  0.00     0.037 A 
ATOM     53  C   UNL     1      -7.564   7.441  -0.823  1.00  0.00     0.037 A 
ATOM     54  C   UNL     1      -9.754   9.043   5.119  1.00  0.00     0.049 A 
ATOM     55  C   UNL     1      -8.920   7.820  -0.291  1.00  0.00     0.074 A 
ATOM     56  C   UNL     1     -11.031   9.440   5.475  1.00  0.00     0.029 A 
ATOM     57  N   UNL     1      -9.783   8.779   3.757  1.00  0.00    -0.354 N 
ATOM     58  N   UNL     1      -9.264   8.143   0.933  1.00  0.00    -0.248 NA
ATOM     59  C   UNL     1     -10.030   7.842  -1.253  1.00  0.00     0.031 C 
ATOM     60  C   UNL     1     -11.843   9.371   4.338  1.00  0.00     0.029 A 
ATOM     61  C   UNL     1     -11.061   8.984   3.262  1.00  0.00     0.049 A 
ATOM     62  H   UNL     1      -9.010   8.489   3.221  1.00  0.00     0.167 HD
ATOM     63  C   UNL     1     -10.623   8.436   0.882  1.00  0.00     0.074 A 
ATOM     64  C   UNL     1     -11.034   8.263  -0.496  1.00  0.00     0.031 C 
ATOM     65  C   UNL     1     -11.454   8.815   1.885  1.00  0.00     0.037 A 
BRANCH  52  66
ATOM     66  C   UNL     1      -8.742   9.170   7.434  1.00  0.00     0.058 A 
ATOM     67  C   UNL     1      -8.173  10.299   8.046  1.00  0.00     0.135 A 
ATOM     68  C   UNL     1      -9.500   8.304   8.239  1.00  0.00     0.135 A 
ATOM     69  F   UNL     1      -7.426  11.153   7.329  1.00  0.00    -0.206 F 
ATOM     70  C   UNL     1      -8.325  10.543   9.407  1.00  0.00     0.059 A 
ATOM     71  C   UNL     1      -9.691   8.545   9.597  1.00  0.00     0.059 A 
ATOM     72  F   UNL     1     -10.068   7.210   7.707  1.00  0.00    -0.206 F 
ATOM     73  C   UNL     1      -9.087   9.661  10.174  1.00  0.00     0.060 A 
BRANCH  73  74
ATOM     74  S   UNL     1      -9.283  10.002  11.936  1.00  0.00     0.124 S 
ATOM     75  O   UNL     1      -7.952   9.685  12.444  1.00  0.00    -0.237 OA
ATOM     76  O   UNL     1      -9.643  11.416  11.942  1.00  0.00    -0.237 OA
ATOM     77  O   UNL     1     -10.344   9.086  12.344  1.00  0.00    -0.744 OA
ENDBRANCH  73  74
ENDBRANCH  52  66
BRANCH  53  78
ATOM     78  C   UNL     1      -7.374   7.108  -2.261  1.00  0.00     0.058 A 
ATOM     79  C   UNL     1      -7.489   8.094  -3.252  1.00  0.00     0.135 A 
ATOM     80  C   UNL     1      -7.061   5.803  -2.672  1.00  0.00     0.135 A 
ATOM     81  F   UNL     1      -7.793   9.355  -2.910  1.00  0.00    -0.206 F 
ATOM     82  C   UNL     1      -7.319   7.797  -4.601  1.00  0.00     0.059 A 
ATOM     83  C   UNL     1      -6.859   5.487  -4.012  1.00  0.00     0.059 A 
ATOM     84  F   UNL     1      -6.921   4.825  -1.763  1.00  0.00    -0.206 F 
ATOM     85  C   UNL     1      -7.001   6.489  -4.971  1.00  0.00     0.060 A 
BRANCH  85  86
ATOM     86  S   UNL     1      -6.735   6.124  -6.719  1.00  0.00     0.124 S 
ATOM     87  O   UNL     1      -8.095   6.184  -7.242  1.00  0.00    -0.237 OA
ATOM     88  O   UNL     1      -5.845   7.206  -7.126  1.00  0.00    -0.237 OA
ATOM     89  O   UNL     1      -6.125   4.797  -6.696  1.00  0.00    -0.744 OA
ENDBRANCH  85  86
ENDBRANCH  53  78
BRANCH  65  90
ATOM     90  C   UNL     1     -12.885   9.108   1.526  1.00  0.00     0.058 A 
ATOM     91  C   UNL     1     -13.787   8.087   1.190  1.00  0.00     0.135 A 
ATOM     92  C   UNL     1     -13.371  10.425   1.569  1.00  0.00     0.135 A 
ATOM     93  F   UNL     1     -13.373   6.812   1.127  1.00  0.00    -0.206 F 
ATOM     94  C   UNL     1     -15.117   8.364   0.887  1.00  0.00     0.059 A 
ATOM     95  C   UNL     1     -14.703  10.721   1.299  1.00  0.00     0.059 A 
ATOM     96  F   UNL     1     -12.553  11.438   1.895  1.00  0.00    -0.206 F 
ATOM     97  C   UNL     1     -15.566   9.684   0.946  1.00  0.00     0.060 A 
BRANCH  97  98
ATOM     98  S   UNL     1     -17.301  10.025   0.582  1.00  0.00     0.124 S 
ATOM     99  O   UNL     1     -17.337   9.849  -0.866  1.00  0.00    -0.237 OA
ATOM    100  O   UNL     1     -17.991   9.003   1.363  1.00  0.00    -0.237 OA
ATOM    101  O   UNL     1     -17.485  11.395   1.052  1.00  0.00    -0.744 OA
ENDBRANCH  97  98
ENDBRANCH  65  90
ENDBRANCH  39  40
ENDBRANCH  31  34
ENDBRANCH  29  30
ENDBRANCH  28  29
ENDBRANCH  27  28
ENDBRANCH   1  27
TORSDOF 21
