REMARK SMILES Cc1ccc(CNC(=O)NC[C@@H](CC(C)C)C(=O)NCCCCCCNC(=O)c2ccc(-c3c4nc(c(-c5c(F)cc(S(=O)(=O)[O-])cc5F)c5ccc([nH]5)c(-c5c(F)cc(S(=O)(=O)[O-])cc5F)c5nc(c(-c6c(F)cc(S(=O)(=O)[O-])cc6F)c6ccc3[nH]6)C=C5)C=C4)cc2)s1
REMARK SMILES IDX 22 1 21 2 20 3 19 4 17 5 18 6 12 8 11 9 10 10 7 11 8 12 9 14
REMARK SMILES IDX 6 16 5 17 1 18 2 19 3 20 95 21 4 22 13 23 14 24 15 25 16 26
REMARK SMILES IDX 23 27 24 28 25 29 26 30 27 31 28 33 29 34 30 35 94 36 31 37
REMARK SMILES IDX 93 38 32 39 33 40 34 41 87 42 35 43 92 44 86 45 88 46 36 47
REMARK SMILES IDX 91 48 85 49 84 50 37 52 71 53 50 54 70 55 51 56 54 57 69 58
REMARK SMILES IDX 89 59 52 60 53 61 68 63 90 64 55 65 38 66 39 67 48 68 40 69
REMARK SMILES IDX 41 70 47 71 49 72 42 73 43 74 44 75 45 76 46 77 72 78 73 79
REMARK SMILES IDX 82 80 74 81 75 82 81 83 83 84 76 85 77 86 78 87 79 88 80 89
REMARK SMILES IDX 56 90 57 91 66 92 58 93 59 94 65 95 67 96 60 97 61 98 62 99
REMARK SMILES IDX 63 100 64 101
REMARK H PARENT 19 7 7 13 10 15 26 32 88 51 54 62
REMARK Flexibility Score: inf
ROOT
ATOM      1  C   UNL     1      -0.630   1.837  -5.821  1.00  0.00     0.002 C 
ENDROOT
BRANCH   1   2
ATOM      2  C   UNL     1      -0.719   2.230  -4.344  1.00  0.00     0.021 C 
BRANCH   2   3
ATOM      3  C   UNL     1      -2.027   2.896  -3.948  1.00  0.00     0.116 C 
BRANCH   3   4
ATOM      4  N   UNL     1      -3.143   1.974  -3.904  1.00  0.00    -0.356 N 
ATOM      5  C   UNL     1      -4.322   2.036  -3.231  1.00  0.00     0.224 C 
ATOM      6  O   UNL     1      -5.174   1.189  -3.520  1.00  0.00    -0.275 OA
ATOM      7  H   UNL     1      -3.029   1.166  -4.454  1.00  0.00     0.163 HD
BRANCH   5   8
ATOM      8  C   UNL     1      -4.635   3.094  -2.175  1.00  0.00     0.098 C 
BRANCH   8   9
ATOM      9  C   UNL     1      -3.501   3.326  -1.168  1.00  0.00     0.131 C 
BRANCH   9  10
ATOM     10  N   UNL     1      -3.979   3.453   0.200  1.00  0.00    -0.337 N 
ATOM     11  N   UNL     1      -3.116   1.565   1.324  1.00  0.00    -0.333 N 
ATOM     12  C   UNL     1      -3.653   2.790   1.319  1.00  0.00     0.315 C 
ATOM     13  H   UNL     1      -2.652   1.342   2.163  1.00  0.00     0.165 HD
ATOM     14  O   UNL     1      -3.861   3.342   2.401  1.00  0.00    -0.249 OA
ATOM     15  H   UNL     1      -4.664   4.149   0.326  1.00  0.00     0.165 HD
BRANCH  11  16
ATOM     16  C   UNL     1      -3.080   0.500   0.344  1.00  0.00     0.164 C 
BRANCH  16  17
ATOM     17  C   UNL     1      -1.689  -0.050   0.206  1.00  0.00     0.024 A 
ATOM     18  C   UNL     1       2.237  -0.103  -0.021  1.00  0.00     0.056 C 
ATOM     19  C   UNL     1       0.767  -0.346   0.026  1.00  0.00     0.002 A 
ATOM     20  C   UNL     1       0.096  -1.549   0.020  1.00  0.00     0.015 A 
ATOM     21  S   UNL     1      -0.316   0.976   0.095  1.00  0.00    -0.144 S 
ATOM     22  C   UNL     1      -1.316  -1.379   0.121  1.00  0.00     0.017 A 
ENDBRANCH  16  17
ENDBRANCH  11  16
ENDBRANCH   9  10
ENDBRANCH   8   9
BRANCH   8  23
ATOM     23  C   UNL     1      -5.276   4.394  -2.729  1.00  0.00     0.018 C 
BRANCH  23  24
ATOM     24  C   UNL     1      -4.464   5.223  -3.746  1.00  0.00    -0.017 C 
ATOM     25  C   UNL     1      -4.736   4.784  -5.191  1.00  0.00     0.007 C 
ATOM     26  C   UNL     1      -4.788   6.717  -3.635  1.00  0.00     0.007 C 
ENDBRANCH  23  24
ENDBRANCH   8  23
ENDBRANCH   5   8
ENDBRANCH   3   4
ENDBRANCH   2   3
ENDBRANCH   1   2
BRANCH   1  27
ATOM     27  C   UNL     1      -0.979   2.935  -6.833  1.00  0.00     0.002 C 
BRANCH  27  28
ATOM     28  C   UNL     1      -0.265   4.277  -6.645  1.00  0.00     0.021 C 
BRANCH  28  29
ATOM     29  C   UNL     1       1.252   4.199  -6.547  1.00  0.00     0.116 C 
BRANCH  29  30
ATOM     30  N   UNL     1       1.854   3.561  -7.702  1.00  0.00    -0.352 N 
ATOM     31  C   UNL     1       2.959   3.941  -8.422  1.00  0.00     0.251 C 
ATOM     32  H   UNL     1       1.408   2.740  -8.013  1.00  0.00     0.163 HD
ATOM     33  O   UNL     1       3.239   3.360  -9.463  1.00  0.00    -0.269 OA
BRANCH  31  34
ATOM     34  C   UNL     1       3.791   5.069  -7.947  1.00  0.00     0.039 A 
ATOM     35  C   UNL     1       4.232   6.015  -8.875  1.00  0.00     0.014 A 
ATOM     36  C   UNL     1       4.142   5.190  -6.599  1.00  0.00     0.014 A 
ATOM     37  C   UNL     1       4.994   7.102  -8.444  1.00  0.00     0.010 A 
ATOM     38  C   UNL     1       4.827   6.317  -6.159  1.00  0.00     0.010 A 
ATOM     39  C   UNL     1       5.280   7.274  -7.080  1.00  0.00    -0.014 A 
BRANCH  39  40
ATOM     40  C   UNL     1       6.091   8.424  -6.603  1.00  0.00     0.031 A 
ATOM     41  C   UNL     1       7.422   8.177  -5.944  1.00  0.00     0.074 A 
ATOM     42  C   UNL     1       5.615   9.678  -6.723  1.00  0.00     0.049 A 
ATOM     43  N   UNL     1       8.255   9.035  -5.414  1.00  0.00    -0.248 NA
ATOM     44  C   UNL     1       7.863   6.776  -5.840  1.00  0.00     0.031 C 
ATOM     45  C   UNL     1       4.323  10.040  -7.310  1.00  0.00     0.029 A 
ATOM     46  N   UNL     1       6.160  10.882  -6.356  1.00  0.00    -0.354 N 
ATOM     47  C   UNL     1       9.307   8.280  -4.909  1.00  0.00     0.074 A 
ATOM     48  C   UNL     1       8.976   6.891  -5.132  1.00  0.00     0.031 C 
ATOM     49  C   UNL     1       4.190  11.377  -7.290  1.00  0.00     0.029 A 
ATOM     50  C   UNL     1       5.366  11.964  -6.654  1.00  0.00     0.049 A 
ATOM     51  H   UNL     1       7.039  10.964  -5.919  1.00  0.00     0.167 HD
ATOM     52  C   UNL     1      10.460   8.706  -4.339  1.00  0.00     0.037 A 
ATOM     53  C   UNL     1       5.562  13.279  -6.437  1.00  0.00     0.037 A 
ATOM     54  C   UNL     1      10.790  10.092  -4.138  1.00  0.00     0.049 A 
ATOM     55  C   UNL     1       6.842  13.728  -5.784  1.00  0.00     0.074 A 
ATOM     56  C   UNL     1      11.947  10.633  -3.605  1.00  0.00     0.029 A 
ATOM     57  N   UNL     1       9.963  11.158  -4.462  1.00  0.00    -0.354 N 
ATOM     58  N   UNL     1       7.850  13.003  -5.358  1.00  0.00    -0.248 NA
ATOM     59  C   UNL     1       7.017  15.174  -5.590  1.00  0.00     0.031 C 
ATOM     60  C   UNL     1      11.798  12.023  -3.560  1.00  0.00     0.029 A 
ATOM     61  C   UNL     1      10.575  12.353  -4.123  1.00  0.00     0.049 A 
ATOM     62  H   UNL     1       9.071  11.077  -4.871  1.00  0.00     0.167 HD
ATOM     63  C   UNL     1       8.795  13.907  -4.883  1.00  0.00     0.074 A 
ATOM     64  C   UNL     1       8.239  15.231  -5.080  1.00  0.00     0.031 C 
ATOM     65  C   UNL     1      10.014  13.665  -4.340  1.00  0.00     0.037 A 
BRANCH  52  66
ATOM     66  C   UNL     1      11.446   7.657  -3.895  1.00  0.00     0.058 A 
ATOM     67  C   UNL     1      12.133   6.851  -4.818  1.00  0.00     0.135 A 
ATOM     68  C   UNL     1      11.722   7.465  -2.531  1.00  0.00     0.135 A 
ATOM     69  F   UNL     1      11.899   6.978  -6.134  1.00  0.00    -0.206 F 
ATOM     70  C   UNL     1      13.026   5.867  -4.405  1.00  0.00     0.059 A 
ATOM     71  C   UNL     1      12.637   6.510  -2.097  1.00  0.00     0.059 A 
ATOM     72  F   UNL     1      11.096   8.206  -1.603  1.00  0.00    -0.206 F 
ATOM     73  C   UNL     1      13.270   5.703  -3.041  1.00  0.00     0.060 A 
BRANCH  73  74
ATOM     74  S   UNL     1      14.425   4.417  -2.523  1.00  0.00     0.124 S 
ATOM     75  O   UNL     1      13.655   3.208  -2.795  1.00  0.00    -0.237 OA
ATOM     76  O   UNL     1      15.567   4.651  -3.401  1.00  0.00    -0.237 OA
ATOM     77  O   UNL     1      14.652   4.711  -1.112  1.00  0.00    -0.744 OA
ENDBRANCH  73  74
ENDBRANCH  52  66
BRANCH  53  78
ATOM     78  C   UNL     1       4.539  14.268  -6.873  1.00  0.00     0.058 A 
ATOM     79  C   UNL     1       4.794  15.150  -7.934  1.00  0.00     0.135 A 
ATOM     80  C   UNL     1       3.284  14.346  -6.248  1.00  0.00     0.135 A 
ATOM     81  F   UNL     1       5.980  15.119  -8.560  1.00  0.00    -0.206 F 
ATOM     82  C   UNL     1       3.853  16.088  -8.346  1.00  0.00     0.059 A 
ATOM     83  C   UNL     1       2.316  15.255  -6.662  1.00  0.00     0.059 A 
ATOM     84  F   UNL     1       2.981  13.512  -5.240  1.00  0.00    -0.206 F 
ATOM     85  C   UNL     1       2.614  16.131  -7.705  1.00  0.00     0.060 A 
BRANCH  85  86
ATOM     86  S   UNL     1       1.385  17.322  -8.279  1.00  0.00     0.124 S 
ATOM     87  O   UNL     1       1.958  18.581  -7.817  1.00  0.00    -0.237 OA
ATOM     88  O   UNL     1       1.399  17.104  -9.722  1.00  0.00    -0.237 OA
ATOM     89  O   UNL     1       0.164  16.897  -7.600  1.00  0.00    -0.744 OA
ENDBRANCH  85  86
ENDBRANCH  53  78
BRANCH  65  90
ATOM     90  C   UNL     1      10.861  14.853  -3.971  1.00  0.00     0.058 A 
ATOM     91  C   UNL     1      10.550  15.680  -2.881  1.00  0.00     0.135 A 
ATOM     92  C   UNL     1      12.032  15.136  -4.694  1.00  0.00     0.135 A 
ATOM     93  F   UNL     1       9.440  15.459  -2.159  1.00  0.00    -0.206 F 
ATOM     94  C   UNL     1      11.355  16.761  -2.537  1.00  0.00     0.059 A 
ATOM     95  C   UNL     1      12.869  16.191  -4.348  1.00  0.00     0.059 A 
ATOM     96  F   UNL     1      12.383  14.370  -5.740  1.00  0.00    -0.206 F 
ATOM     97  C   UNL     1      12.515  17.007  -3.276  1.00  0.00     0.060 A 
BRANCH  97  98
ATOM     98  S   UNL     1      13.566  18.394  -2.799  1.00  0.00     0.124 S 
ATOM     99  O   UNL     1      12.766  19.534  -3.236  1.00  0.00    -0.237 OA
ATOM    100  O   UNL     1      13.682  18.216  -1.355  1.00  0.00    -0.237 OA
ATOM    101  O   UNL     1      14.795  18.165  -3.553  1.00  0.00    -0.744 OA
ENDBRANCH  97  98
ENDBRANCH  65  90
ENDBRANCH  39  40
ENDBRANCH  31  34
ENDBRANCH  29  30
ENDBRANCH  28  29
ENDBRANCH  27  28
ENDBRANCH   1  27
TORSDOF 22
