REMARK SMILES CO[C@@H]1C[C@H](C(=O)NCCCCCCNC(=O)c2ccc(-c3c4nc(c(-c5c(F)cc(S(=O)(=O)[O-])cc5F)c5ccc([nH]5)c(-c5c(F)cc(S(=O)(=O)[O-])cc5F)c5nc(c(-c6c(F)cc(S(=O)(=O)[O-])cc6F)c6ccc3[nH]6)C=C5)C=C4)cc2)N(C(=O)c2ccc([N+](=O)[O-])s2)C1
REMARK SMILES IDX 11 1 10 2 9 3 8 4 6 5 7 6 5 8 3 9 4 10 95 11 84 12 2 13 1 14
REMARK SMILES IDX 85 15 86 16 87 17 88 18 94 19 89 20 90 21 91 22 92 23 93 24
REMARK SMILES IDX 12 25 13 26 14 27 15 28 16 29 17 31 18 32 19 33 83 34 20 35
REMARK SMILES IDX 82 36 21 37 22 38 23 39 76 40 24 41 81 42 75 43 77 44 25 45
REMARK SMILES IDX 80 46 74 47 73 48 26 50 60 51 39 52 59 53 40 54 43 55 58 56
REMARK SMILES IDX 78 57 41 58 42 59 57 61 79 62 44 63 27 64 28 65 37 66 29 67
REMARK SMILES IDX 30 68 36 69 38 70 31 71 32 72 33 73 34 74 35 75 61 76 62 77
REMARK SMILES IDX 71 78 63 79 64 80 70 81 72 82 65 83 66 84 67 85 68 86 69 87
REMARK SMILES IDX 45 88 46 89 55 90 47 91 48 92 54 93 56 94 49 95 50 96 51 97
REMARK SMILES IDX 52 98 53 99
REMARK H PARENT 8 7 15 30 77 49 43 60
REMARK Flexibility Score: inf
ROOT
ATOM      1  C   UNL     1      -1.008   1.354  -1.609  1.00  0.00     0.002 C 
ENDROOT
BRANCH   1   2
ATOM      2  C   UNL     1      -0.429   0.640  -0.382  1.00  0.00     0.021 C 
BRANCH   2   3
ATOM      3  C   UNL     1       0.254  -0.704  -0.666  1.00  0.00     0.116 C 
BRANCH   3   4
ATOM      4  N   UNL     1       1.601  -0.500  -1.173  1.00  0.00    -0.354 N 
ATOM      5  C   UNL     1       2.836  -0.769  -0.686  1.00  0.00     0.242 C 
ATOM      6  O   UNL     1       3.775  -0.239  -1.302  1.00  0.00    -0.273 OA
ATOM      7  H   UNL     1       1.620  -0.075  -2.061  1.00  0.00     0.163 HD
BRANCH   5   8
ATOM      8  C   UNL     1       3.177  -1.572   0.596  1.00  0.00     0.177 C 
ATOM      9  C   UNL     1       2.171  -0.711   2.603  1.00  0.00     0.139 C 
ATOM     10  C   UNL     1       3.479  -0.706   1.813  1.00  0.00     0.069 C 
ATOM     11  C   UNL     1       1.596  -2.115   2.330  1.00  0.00     0.152 C 
ATOM     12  N   UNL     1       2.270  -2.585   1.122  1.00  0.00    -0.323 N 
BRANCH   9  13
ATOM     13  O   UNL     1       1.264   0.293   2.159  1.00  0.00    -0.380 OA
ATOM     14  C   UNL     1       1.764   1.621   2.296  1.00  0.00     0.195 C 
ENDBRANCH   9  13
BRANCH  12  15
ATOM     15  C   UNL     1       2.283  -3.942   0.814  1.00  0.00     0.264 C 
ATOM     16  O   UNL     1       1.395  -4.695   1.189  1.00  0.00    -0.268 OA
BRANCH  15  17
ATOM     17  C   UNL     1       3.501  -4.426   0.182  1.00  0.00     0.099 A 
ATOM     18  C   UNL     1       4.759  -4.507   0.757  1.00  0.00     0.033 A 
ATOM     19  S   UNL     1       3.506  -4.962  -1.438  1.00  0.00    -0.058 S 
ATOM     20  C   UNL     1       5.753  -4.912  -0.178  1.00  0.00     0.099 A 
ATOM     21  C   UNL     1       5.195  -5.183  -1.410  1.00  0.00     0.324 A 
BRANCH  21  22
ATOM     22  N   UNL     1       5.910  -5.594  -2.590  1.00  0.00     0.074 N 
ATOM     23  O   UNL     1       7.148  -5.585  -2.510  1.00  0.00    -0.258 OA
ATOM     24  O   UNL     1       5.261  -5.927  -3.588  1.00  0.00    -0.258 OA
ENDBRANCH  21  22
ENDBRANCH  15  17
ENDBRANCH  12  15
ENDBRANCH   5   8
ENDBRANCH   3   4
ENDBRANCH   2   3
ENDBRANCH   1   2
BRANCH   1  25
ATOM     25  C   UNL     1      -2.280   0.736  -2.196  1.00  0.00     0.002 C 
BRANCH  25  26
ATOM     26  C   UNL     1      -3.439   0.525  -1.216  1.00  0.00     0.021 C 
BRANCH  26  27
ATOM     27  C   UNL     1      -3.854   1.750  -0.402  1.00  0.00     0.116 C 
BRANCH  27  28
ATOM     28  N   UNL     1      -4.361   2.826  -1.237  1.00  0.00    -0.352 N 
ATOM     29  C   UNL     1      -5.593   3.433  -1.228  1.00  0.00     0.251 C 
ATOM     30  H   UNL     1      -3.728   3.171  -1.907  1.00  0.00     0.163 HD
ATOM     31  O   UNL     1      -5.900   4.205  -2.132  1.00  0.00    -0.269 OA
BRANCH  29  32
ATOM     32  C   UNL     1      -6.558   3.147  -0.143  1.00  0.00     0.039 A 
ATOM     33  C   UNL     1      -7.885   2.862  -0.478  1.00  0.00     0.014 A 
ATOM     34  C   UNL     1      -6.168   3.192   1.199  1.00  0.00     0.014 A 
ATOM     35  C   UNL     1      -8.809   2.572   0.529  1.00  0.00     0.010 A 
ATOM     36  C   UNL     1      -7.079   2.852   2.199  1.00  0.00     0.010 A 
ATOM     37  C   UNL     1      -8.409   2.545   1.875  1.00  0.00    -0.014 A 
BRANCH  37  38
ATOM     38  C   UNL     1      -9.374   2.210   2.954  1.00  0.00     0.031 A 
ATOM     39  C   UNL     1      -9.783   3.257   3.953  1.00  0.00     0.074 A 
ATOM     40  C   UNL     1      -9.841   0.952   3.066  1.00  0.00     0.049 A 
ATOM     41  N   UNL     1     -10.565   3.144   4.996  1.00  0.00    -0.248 NA
ATOM     42  C   UNL     1      -9.217   4.603   3.770  1.00  0.00     0.031 C 
ATOM     43  C   UNL     1      -9.480  -0.165   2.191  1.00  0.00     0.029 A 
ATOM     44  N   UNL     1     -10.709   0.396   3.973  1.00  0.00    -0.354 N 
ATOM     45  C   UNL     1     -10.577   4.396   5.599  1.00  0.00     0.074 A 
ATOM     46  C   UNL     1      -9.687   5.241   4.832  1.00  0.00     0.031 C 
ATOM     47  C   UNL     1     -10.128  -1.269   2.598  1.00  0.00     0.029 A 
ATOM     48  C   UNL     1     -10.930  -0.946   3.775  1.00  0.00     0.049 A 
ATOM     49  H   UNL     1     -11.132   0.910   4.697  1.00  0.00     0.167 HD
ATOM     50  C   UNL     1     -11.282   4.811   6.680  1.00  0.00     0.037 A 
ATOM     51  C   UNL     1     -11.690  -1.819   4.464  1.00  0.00     0.037 A 
ATOM     52  C   UNL     1     -12.184   3.974   7.427  1.00  0.00     0.049 A 
ATOM     53  C   UNL     1     -12.488  -1.330   5.642  1.00  0.00     0.074 A 
ATOM     54  C   UNL     1     -12.977   4.312   8.511  1.00  0.00     0.029 A 
ATOM     55  N   UNL     1     -12.418   2.632   7.166  1.00  0.00    -0.354 N 
ATOM     56  N   UNL     1     -12.527  -0.129   6.167  1.00  0.00    -0.248 NA
ATOM     57  C   UNL     1     -13.353  -2.310   6.313  1.00  0.00     0.031 C 
ATOM     58  C   UNL     1     -13.671   3.167   8.920  1.00  0.00     0.029 A 
ATOM     59  C   UNL     1     -13.336   2.125   8.070  1.00  0.00     0.049 A 
ATOM     60  H   UNL     1     -11.993   2.116   6.443  1.00  0.00     0.167 HD
ATOM     61  C   UNL     1     -13.434  -0.204   7.218  1.00  0.00     0.074 A 
ATOM     62  C   UNL     1     -13.930  -1.565   7.246  1.00  0.00     0.031 C 
ATOM     63  C   UNL     1     -13.822   0.768   8.081  1.00  0.00     0.037 A 
BRANCH  50  64
ATOM     64  C   UNL     1     -11.104   6.241   7.110  1.00  0.00     0.058 A 
ATOM     65  C   UNL     1     -11.629   7.303   6.357  1.00  0.00     0.135 A 
ATOM     66  C   UNL     1     -10.409   6.554   8.289  1.00  0.00     0.135 A 
ATOM     67  F   UNL     1     -12.289   7.059   5.214  1.00  0.00    -0.206 F 
ATOM     68  C   UNL     1     -11.438   8.628   6.735  1.00  0.00     0.059 A 
ATOM     69  C   UNL     1     -10.227   7.872   8.700  1.00  0.00     0.059 A 
ATOM     70  F   UNL     1      -9.888   5.577   9.047  1.00  0.00    -0.206 F 
ATOM     71  C   UNL     1     -10.729   8.903   7.906  1.00  0.00     0.060 A 
BRANCH  71  72
ATOM     72  S   UNL     1     -10.470  10.626   8.376  1.00  0.00     0.124 S 
ATOM     73  O   UNL     1      -9.402  11.018   7.461  1.00  0.00    -0.237 OA
ATOM     74  O   UNL     1     -11.775  11.224   8.119  1.00  0.00    -0.237 OA
ATOM     75  O   UNL     1     -10.091  10.540   9.783  1.00  0.00    -0.744 OA
ENDBRANCH  71  72
ENDBRANCH  50  64
BRANCH  51  76
ATOM     76  C   UNL     1     -11.752  -3.239   4.034  1.00  0.00     0.058 A 
ATOM     77  C   UNL     1     -12.888  -3.748   3.388  1.00  0.00     0.135 A 
ATOM     78  C   UNL     1     -10.666  -4.105   4.231  1.00  0.00     0.135 A 
ATOM     79  F   UNL     1     -13.953  -2.959   3.184  1.00  0.00    -0.206 F 
ATOM     80  C   UNL     1     -12.950  -5.070   2.958  1.00  0.00     0.059 A 
ATOM     81  C   UNL     1     -10.696  -5.425   3.792  1.00  0.00     0.059 A 
ATOM     82  F   UNL     1      -9.550  -3.660   4.830  1.00  0.00    -0.206 F 
ATOM     83  C   UNL     1     -11.846  -5.900   3.162  1.00  0.00     0.060 A 
BRANCH  83  84
ATOM     84  S   UNL     1     -11.908  -7.595   2.541  1.00  0.00     0.124 S 
ATOM     85  O   UNL     1     -12.755  -8.241   3.536  1.00  0.00    -0.237 OA
ATOM     86  O   UNL     1     -12.499  -7.418   1.218  1.00  0.00    -0.237 OA
ATOM     87  O   UNL     1     -10.506  -8.002   2.542  1.00  0.00    -0.744 OA
ENDBRANCH  83  84
ENDBRANCH  51  76
BRANCH  63  88
ATOM     88  C   UNL     1     -14.848   0.400   9.115  1.00  0.00     0.058 A 
ATOM     89  C   UNL     1     -14.515  -0.370  10.239  1.00  0.00     0.135 A 
ATOM     90  C   UNL     1     -16.168   0.864   9.002  1.00  0.00     0.135 A 
ATOM     91  F   UNL     1     -13.267  -0.842  10.389  1.00  0.00    -0.206 F 
ATOM     92  C   UNL     1     -15.461  -0.686  11.208  1.00  0.00     0.059 A 
ATOM     93  C   UNL     1     -17.126   0.577   9.970  1.00  0.00     0.059 A 
ATOM     94  F   UNL     1     -16.535   1.612   7.950  1.00  0.00    -0.206 F 
ATOM     95  C   UNL     1     -16.765  -0.209  11.064  1.00  0.00     0.060 A 
BRANCH  95  96
ATOM     96  S   UNL     1     -17.979  -0.597  12.343  1.00  0.00     0.124 S 
ATOM     97  O   UNL     1     -18.314  -1.980  12.019  1.00  0.00    -0.237 OA
ATOM     98  O   UNL     1     -17.217  -0.402  13.572  1.00  0.00    -0.237 OA
ATOM     99  O   UNL     1     -19.040   0.378  12.110  1.00  0.00    -0.744 OA
ENDBRANCH  95  96
ENDBRANCH  63  88
ENDBRANCH  37  38
ENDBRANCH  29  32
ENDBRANCH  27  28
ENDBRANCH  26  27
ENDBRANCH  25  26
ENDBRANCH   1  25
TORSDOF 20
