REMARK SMILES O=C(NCCCCCCNC(=O)[C@H]1[C@@H](C(=O)Nc2cc(F)ccc2F)[C@@H]2C=C[C@H]1O2)c1ccc(-c2c3nc(c(-c4c(F)cc(S(=O)(=O)[O-])cc4F)c4ccc([nH]4)c(-c4c(F)cc(S(=O)(=O)[O-])cc4F)c4nc(c(-c5c(F)cc(S(=O)(=O)[O-])cc5F)c5ccc2[nH]5)C=C4)C=C3)cc1
REMARK SMILES IDX 6 1 5 2 4 3 3 4 1 5 2 6 31 8 32 9 96 10 33 11 95 12 34 13
REMARK SMILES IDX 35 14 36 15 89 16 37 17 94 18 88 19 90 20 38 21 93 22 87 23
REMARK SMILES IDX 86 24 39 26 73 27 52 28 72 29 53 30 56 31 71 32 91 33 54 34
REMARK SMILES IDX 55 35 70 37 92 38 57 39 40 40 41 41 50 42 42 43 43 44 49 45
REMARK SMILES IDX 51 46 44 47 45 48 46 49 47 50 48 51 74 52 75 53 84 54 76 55
REMARK SMILES IDX 77 56 83 57 85 58 78 59 79 60 80 61 81 62 82 63 58 64 59 65
REMARK SMILES IDX 68 66 60 67 61 68 67 69 69 70 62 71 63 72 64 73 65 74 66 75
REMARK SMILES IDX 7 76 8 77 9 78 10 79 11 80 12 82 13 83 14 84 29 85 26 86
REMARK SMILES IDX 28 87 30 88 27 89 15 90 16 91 17 92 18 94 19 95 24 96 20 97
REMARK SMILES IDX 23 98 25 99 21 100 22 101
REMARK H PARENT 3 7 90 25 56 36 10 81 17 93
REMARK Flexibility Score: inf
ROOT
ATOM      1  C   UNL     1       6.451  12.291   1.883  1.00  0.00     0.002 C 
ENDROOT
BRANCH   1   2
ATOM      2  C   UNL     1       4.962  12.123   2.180  1.00  0.00     0.021 C 
BRANCH   2   3
ATOM      3  C   UNL     1       4.517  12.662   3.529  1.00  0.00     0.116 C 
BRANCH   3   4
ATOM      4  N   UNL     1       4.645  14.106   3.625  1.00  0.00    -0.352 N 
ATOM      5  O   UNL     1       3.913  16.214   3.961  1.00  0.00    -0.269 OA
ATOM      6  C   UNL     1       3.717  15.014   4.081  1.00  0.00     0.251 C 
ATOM      7  H   UNL     1       5.504  14.482   3.325  1.00  0.00     0.163 HD
BRANCH   6   8
ATOM      8  C   UNL     1       2.467  14.511   4.697  1.00  0.00     0.039 A 
ATOM      9  C   UNL     1       2.512  13.493   5.652  1.00  0.00     0.014 A 
ATOM     10  C   UNL     1       1.243  15.056   4.302  1.00  0.00     0.014 A 
ATOM     11  C   UNL     1       1.329  12.935   6.121  1.00  0.00     0.010 A 
ATOM     12  C   UNL     1       0.056  14.552   4.842  1.00  0.00     0.010 A 
ATOM     13  C   UNL     1       0.089  13.477   5.744  1.00  0.00    -0.014 A 
BRANCH  13  14
ATOM     14  C   UNL     1      -1.145  12.976   6.399  1.00  0.00     0.031 A 
ATOM     15  C   UNL     1      -2.220  12.272   5.620  1.00  0.00     0.074 A 
ATOM     16  C   UNL     1      -1.273  13.161   7.729  1.00  0.00     0.049 A 
ATOM     17  N   UNL     1      -3.353  11.780   6.050  1.00  0.00    -0.248 NA
ATOM     18  C   UNL     1      -2.005  12.101   4.174  1.00  0.00     0.031 C 
ATOM     19  C   UNL     1      -0.298  13.853   8.579  1.00  0.00     0.029 A 
ATOM     20  N   UNL     1      -2.258  12.781   8.602  1.00  0.00    -0.354 N 
ATOM     21  C   UNL     1      -3.996  11.260   4.933  1.00  0.00     0.074 A 
ATOM     22  C   UNL     1      -3.132  11.509   3.799  1.00  0.00     0.031 C 
ATOM     23  C   UNL     1      -0.715  13.816   9.851  1.00  0.00     0.029 A 
ATOM     24  C   UNL     1      -2.015  13.160   9.901  1.00  0.00     0.049 A 
ATOM     25  H   UNL     1      -3.062  12.284   8.325  1.00  0.00     0.167 HD
ATOM     26  C   UNL     1      -5.195  10.633   4.869  1.00  0.00     0.037 A 
ATOM     27  C   UNL     1      -2.767  13.023  11.008  1.00  0.00     0.037 A 
ATOM     28  C   UNL     1      -6.036  10.376   6.013  1.00  0.00     0.049 A 
ATOM     29  C   UNL     1      -4.097  12.336  10.899  1.00  0.00     0.074 A 
ATOM     30  C   UNL     1      -7.243   9.698   6.056  1.00  0.00     0.029 A 
ATOM     31  N   UNL     1      -5.765  10.789   7.309  1.00  0.00    -0.354 N 
ATOM     32  N   UNL     1      -4.664  11.807   9.841  1.00  0.00    -0.248 NA
ATOM     33  C   UNL     1      -4.892  12.231  12.129  1.00  0.00     0.031 C 
ATOM     34  C   UNL     1      -7.724   9.743   7.369  1.00  0.00     0.029 A 
ATOM     35  C   UNL     1      -6.795  10.405   8.154  1.00  0.00     0.049 A 
ATOM     36  H   UNL     1      -4.960  11.282   7.588  1.00  0.00     0.167 HD
ATOM     37  C   UNL     1      -5.878  11.296  10.281  1.00  0.00     0.074 A 
ATOM     38  C   UNL     1      -5.951  11.556  11.704  1.00  0.00     0.031 C 
ATOM     39  C   UNL     1      -6.849  10.673   9.569  1.00  0.00     0.037 A 
BRANCH  26  40
ATOM     40  C   UNL     1      -5.694  10.180   3.523  1.00  0.00     0.058 A 
ATOM     41  C   UNL     1      -5.156   9.059   2.875  1.00  0.00     0.135 A 
ATOM     42  C   UNL     1      -6.794  10.817   2.924  1.00  0.00     0.135 A 
ATOM     43  F   UNL     1      -4.096   8.421   3.396  1.00  0.00    -0.206 F 
ATOM     44  C   UNL     1      -5.689   8.585   1.680  1.00  0.00     0.059 A 
ATOM     45  C   UNL     1      -7.357  10.348   1.740  1.00  0.00     0.059 A 
ATOM     46  F   UNL     1      -7.347  11.896   3.502  1.00  0.00    -0.206 F 
ATOM     47  C   UNL     1      -6.794   9.232   1.124  1.00  0.00     0.060 A 
BRANCH  47  48
ATOM     48  S   UNL     1      -7.501   8.574  -0.403  1.00  0.00     0.124 S 
ATOM     49  O   UNL     1      -6.480   8.944  -1.379  1.00  0.00    -0.237 OA
ATOM     50  O   UNL     1      -7.608   7.149  -0.107  1.00  0.00    -0.237 OA
ATOM     51  O   UNL     1      -8.771   9.283  -0.524  1.00  0.00    -0.744 OA
ENDBRANCH  47  48
ENDBRANCH  26  40
BRANCH  27  52
ATOM     52  C   UNL     1      -2.291  13.575  12.303  1.00  0.00     0.058 A 
ATOM     53  C   UNL     1      -1.935  12.733  13.365  1.00  0.00     0.135 A 
ATOM     54  C   UNL     1      -2.181  14.961  12.501  1.00  0.00     0.135 A 
ATOM     55  F   UNL     1      -2.023  11.401  13.225  1.00  0.00    -0.206 F 
ATOM     56  C   UNL     1      -1.513  13.244  14.588  1.00  0.00     0.059 A 
ATOM     57  C   UNL     1      -1.733  15.495  13.703  1.00  0.00     0.059 A 
ATOM     58  F   UNL     1      -2.489  15.809  11.507  1.00  0.00    -0.206 F 
ATOM     59  C   UNL     1      -1.419  14.628  14.748  1.00  0.00     0.060 A 
BRANCH  59  60
ATOM     60  S   UNL     1      -0.852  15.284  16.331  1.00  0.00     0.124 S 
ATOM     61  O   UNL     1      -2.038  15.108  17.160  1.00  0.00    -0.237 OA
ATOM     62  O   UNL     1       0.279  14.414  16.639  1.00  0.00    -0.237 OA
ATOM     63  O   UNL     1      -0.501  16.665  16.013  1.00  0.00    -0.744 OA
ENDBRANCH  59  60
ENDBRANCH  27  52
BRANCH  39  64
ATOM     64  C   UNL     1      -8.061  10.211  10.327  1.00  0.00     0.058 A 
ATOM     65  C   UNL     1      -9.021  11.118  10.800  1.00  0.00     0.135 A 
ATOM     66  C   UNL     1      -8.277   8.843  10.558  1.00  0.00     0.135 A 
ATOM     67  F   UNL     1      -8.854  12.437  10.613  1.00  0.00    -0.206 F 
ATOM     68  C   UNL     1     -10.143  10.688  11.499  1.00  0.00     0.059 A 
ATOM     69  C   UNL     1      -9.406   8.388  11.232  1.00  0.00     0.059 A 
ATOM     70  F   UNL     1      -7.392   7.934  10.120  1.00  0.00    -0.206 F 
ATOM     71  C   UNL     1     -10.326   9.320  11.710  1.00  0.00     0.060 A 
BRANCH  71  72
ATOM     72  S   UNL     1     -11.799   8.771  12.598  1.00  0.00     0.124 S 
ATOM     73  O   UNL     1     -11.460   9.124  13.973  1.00  0.00    -0.237 OA
ATOM     74  O   UNL     1     -12.853   9.568  11.980  1.00  0.00    -0.237 OA
ATOM     75  O   UNL     1     -11.854   7.340  12.312  1.00  0.00    -0.744 OA
ENDBRANCH  71  72
ENDBRANCH  39  64
ENDBRANCH  13  14
ENDBRANCH   6   8
ENDBRANCH   3   4
ENDBRANCH   2   3
ENDBRANCH   1   2
BRANCH   1  76
ATOM     76  C   UNL     1       7.401  11.706   2.934  1.00  0.00     0.002 C 
BRANCH  76  77
ATOM     77  C   UNL     1       7.169  10.232   3.297  1.00  0.00     0.021 C 
BRANCH  77  78
ATOM     78  C   UNL     1       7.092   9.279   2.106  1.00  0.00     0.116 C 
BRANCH  78  79
ATOM     79  N   UNL     1       8.284   9.352   1.286  1.00  0.00    -0.356 N 
ATOM     80  C   UNL     1       8.887   8.394   0.539  1.00  0.00     0.227 C 
ATOM     81  H   UNL     1       8.725  10.233   1.269  1.00  0.00     0.163 HD
ATOM     82  O   UNL     1       9.525   8.796  -0.434  1.00  0.00    -0.275 OA
BRANCH  80  83
ATOM     83  C   UNL     1       8.628   6.926   0.792  1.00  0.00     0.127 C 
ATOM     84  C   UNL     1       9.587   5.906   0.096  1.00  0.00     0.127 C 
ATOM     85  C   UNL     1       8.700   6.439   2.253  1.00  0.00     0.155 C 
ATOM     86  C   UNL     1       9.888   4.929   1.228  1.00  0.00     0.155 C 
ATOM     87  C   UNL     1       7.918   5.160   2.357  1.00  0.00     0.004 C 
ATOM     88  O   UNL     1      10.017   5.857   2.328  1.00  0.00    -0.365 OA
ATOM     89  C   UNL     1       8.637   4.236   1.699  1.00  0.00     0.004 C 
BRANCH  84  90
ATOM     90  C   UNL     1      10.825   6.396  -0.671  1.00  0.00     0.231 C 
ATOM     91  O   UNL     1      10.929   6.063  -1.862  1.00  0.00    -0.274 OA
ATOM     92  N   UNL     1      11.779   7.250  -0.199  1.00  0.00    -0.323 N 
ATOM     93  H   UNL     1      12.322   7.669  -0.905  1.00  0.00     0.170 HD
BRANCH  92  94
ATOM     94  C   UNL     1      12.136   7.645   1.098  1.00  0.00     0.080 A 
ATOM     95  C   UNL     1      12.508   6.725   2.072  1.00  0.00     0.068 A 
ATOM     96  C   UNL     1      12.226   9.011   1.397  1.00  0.00     0.146 A 
ATOM     97  C   UNL     1      12.793   7.165   3.363  1.00  0.00     0.125 A 
ATOM     98  C   UNL     1      12.499   9.452   2.691  1.00  0.00     0.044 A 
ATOM     99  F   UNL     1      11.999   9.927   0.445  1.00  0.00    -0.205 F 
ATOM    100  F   UNL     1      13.100   6.270   4.311  1.00  0.00    -0.207 F 
ATOM    101  C   UNL     1      12.761   8.517   3.689  1.00  0.00     0.042 A 
ENDBRANCH  92  94
ENDBRANCH  84  90
ENDBRANCH  80  83
ENDBRANCH  78  79
ENDBRANCH  77  78
ENDBRANCH  76  77
ENDBRANCH   1  76
TORSDOF 18
