REMARK SMILES C[C@@H]1CN(C(=O)C[NH+]2CCC(CC(=O)NCCCCCCNC(=O)c3ccc(-c4c5nc(c(-c6c(F)cc(S(=O)(=O)[O-])cc6F)c6ccc([nH]6)c(-c6c(F)cc(S(=O)(=O)[O-])cc6F)c6nc(c(-c7c(F)cc(S(=O)(=O)[O-])cc7F)c7ccc4[nH]7)C=C6)C=C5)cc3)CC2)C[C@@H](C)O1
REMARK SMILES IDX 18 1 17 2 16 3 15 4 13 5 14 6 12 8 11 9 8 10 9 11 92 12
REMARK SMILES IDX 10 14 91 15 7 16 5 17 1 18 2 19 3 20 96 21 4 22 94 23 93 24
REMARK SMILES IDX 95 25 6 26 19 27 20 28 21 29 22 30 23 31 24 33 25 34 26 35
REMARK SMILES IDX 90 36 27 37 89 38 28 39 29 40 30 41 83 42 31 43 88 44 82 45
REMARK SMILES IDX 84 46 32 47 87 48 81 49 80 50 33 52 67 53 46 54 66 55 47 56
REMARK SMILES IDX 50 57 65 58 85 59 48 60 49 61 64 63 86 64 51 65 34 66 35 67
REMARK SMILES IDX 44 68 36 69 37 70 43 71 45 72 38 73 39 74 40 75 41 76 42 77
REMARK SMILES IDX 68 78 69 79 78 80 70 81 71 82 77 83 79 84 72 85 73 86 74 87
REMARK SMILES IDX 75 88 76 89 52 90 53 91 62 92 54 93 55 94 61 95 63 96 56 97
REMARK SMILES IDX 57 98 58 99 59 100 60 101
REMARK H PARENT 15 7 8 13 22 32 84 51 50 62
REMARK Flexibility Score: inf
ROOT
ATOM      1  C   UNL     1      -2.429  -4.935  -6.683  1.00  0.00     0.002 C 
ENDROOT
BRANCH   1   2
ATOM      2  C   UNL     1      -2.374  -4.600  -5.194  1.00  0.00     0.021 C 
BRANCH   2   3
ATOM      3  C   UNL     1      -3.154  -5.574  -4.309  1.00  0.00     0.116 C 
BRANCH   3   4
ATOM      4  N   UNL     1      -2.295  -6.663  -3.882  1.00  0.00    -0.356 N 
ATOM      5  C   UNL     1      -1.770  -6.923  -2.654  1.00  0.00     0.220 C 
ATOM      6  O   UNL     1      -0.940  -7.828  -2.545  1.00  0.00    -0.275 OA
ATOM      7  H   UNL     1      -2.057  -7.309  -4.585  1.00  0.00     0.163 HD
BRANCH   5   8
ATOM      8  C   UNL     1      -2.221  -6.131  -1.445  1.00  0.00     0.104 C 
BRANCH   8   9
ATOM      9  C   UNL     1      -1.288  -4.969  -1.066  1.00  0.00     0.009 C 
ATOM     10  N   UNL     1      -1.041  -2.165  -0.094  1.00  0.00    -0.327 N 
ATOM     11  C   UNL     1      -0.793  -3.317   0.773  1.00  0.00     0.262 C 
ATOM     12  C   UNL     1      -0.736  -2.486  -1.489  1.00  0.00     0.262 C 
ATOM     13  H   UNL     1      -0.399  -1.427   0.194  1.00  0.00     0.348 HD
ATOM     14  C   UNL     1      -1.583  -4.555   0.380  1.00  0.00     0.066 C 
ATOM     15  C   UNL     1      -1.427  -3.756  -1.998  1.00  0.00     0.066 C 
BRANCH  10  16
ATOM     16  C   UNL     1      -2.387  -1.581   0.087  1.00  0.00     0.363 C 
BRANCH  16  17
ATOM     17  C   UNL     1      -2.360  -0.051  -0.086  1.00  0.00     0.277 C 
ATOM     18  C   UNL     1       1.216   0.210   0.406  1.00  0.00     0.040 C 
ATOM     19  C   UNL     1       0.561   0.731   1.686  1.00  0.00     0.135 C 
ATOM     20  C   UNL     1      -0.857   0.194   1.936  1.00  0.00     0.151 C 
ATOM     21  O   UNL     1       0.544   2.170   1.711  1.00  0.00    -0.372 OA
ATOM     22  N   UNL     1      -1.765   0.706   0.915  1.00  0.00    -0.333 N 
ATOM     23  C   UNL     1      -0.378   2.758   0.766  1.00  0.00     0.135 C 
ATOM     24  C   UNL     1      -1.802   2.168   0.880  1.00  0.00     0.151 C 
ATOM     25  C   UNL     1      -0.389   4.252   1.065  1.00  0.00     0.040 C 
ATOM     26  O   UNL     1      -2.907   0.468  -1.062  1.00  0.00    -0.268 OA
ENDBRANCH  16  17
ENDBRANCH  10  16
ENDBRANCH   8   9
ENDBRANCH   5   8
ENDBRANCH   3   4
ENDBRANCH   2   3
ENDBRANCH   1   2
BRANCH   1  27
ATOM     27  C   UNL     1      -3.801  -4.740  -7.332  1.00  0.00     0.002 C 
BRANCH  27  28
ATOM     28  C   UNL     1      -4.419  -3.349  -7.157  1.00  0.00     0.021 C 
BRANCH  28  29
ATOM     29  C   UNL     1      -3.525  -2.183  -7.577  1.00  0.00     0.116 C 
BRANCH  29  30
ATOM     30  N   UNL     1      -3.114  -2.289  -8.968  1.00  0.00    -0.352 N 
ATOM     31  C   UNL     1      -3.387  -1.462 -10.027  1.00  0.00     0.251 C 
ATOM     32  H   UNL     1      -2.557  -3.072  -9.181  1.00  0.00     0.163 HD
ATOM     33  O   UNL     1      -3.147  -1.837 -11.171  1.00  0.00    -0.269 OA
BRANCH  31  34
ATOM     34  C   UNL     1      -3.977  -0.127  -9.792  1.00  0.00     0.039 A 
ATOM     35  C   UNL     1      -5.035   0.295 -10.602  1.00  0.00     0.014 A 
ATOM     36  C   UNL     1      -3.473   0.717  -8.798  1.00  0.00     0.014 A 
ATOM     37  C   UNL     1      -5.622   1.541 -10.378  1.00  0.00     0.010 A 
ATOM     38  C   UNL     1      -4.100   1.933  -8.535  1.00  0.00     0.010 A 
ATOM     39  C   UNL     1      -5.178   2.359  -9.325  1.00  0.00    -0.014 A 
BRANCH  39  40
ATOM     40  C   UNL     1      -5.841   3.655  -9.034  1.00  0.00     0.031 A 
ATOM     41  C   UNL     1      -5.091   4.948  -9.206  1.00  0.00     0.074 A 
ATOM     42  C   UNL     1      -7.102   3.661  -8.559  1.00  0.00     0.049 A 
ATOM     43  N   UNL     1      -5.490   6.171  -8.965  1.00  0.00    -0.248 NA
ATOM     44  C   UNL     1      -3.705   4.854  -9.691  1.00  0.00     0.031 C 
ATOM     45  C   UNL     1      -7.911   2.468  -8.296  1.00  0.00     0.029 A 
ATOM     46  N   UNL     1      -7.922   4.702  -8.204  1.00  0.00    -0.354 N 
ATOM     47  C   UNL     1      -4.404   6.989  -9.254  1.00  0.00     0.074 A 
ATOM     48  C   UNL     1      -3.315   6.120  -9.645  1.00  0.00     0.031 C 
ATOM     49  C   UNL     1      -9.115   2.845  -7.838  1.00  0.00     0.029 A 
ATOM     50  C   UNL     1      -9.155   4.301  -7.746  1.00  0.00     0.049 A 
ATOM     51  H   UNL     1      -7.653   5.646  -8.270  1.00  0.00     0.167 HD
ATOM     52  C   UNL     1      -4.329   8.341  -9.217  1.00  0.00     0.037 A 
ATOM     53  C   UNL     1     -10.200   5.025  -7.298  1.00  0.00     0.037 A 
ATOM     54  C   UNL     1      -5.426   9.200  -8.851  1.00  0.00     0.049 A 
ATOM     55  C   UNL     1     -10.098   6.526  -7.283  1.00  0.00     0.074 A 
ATOM     56  C   UNL     1      -5.472  10.583  -8.849  1.00  0.00     0.029 A 
ATOM     57  N   UNL     1      -6.668   8.758  -8.420  1.00  0.00    -0.354 N 
ATOM     58  N   UNL     1      -9.087   7.286  -7.632  1.00  0.00    -0.248 NA
ATOM     59  C   UNL     1     -11.280   7.268  -6.823  1.00  0.00     0.031 C 
ATOM     60  C   UNL     1      -6.729  10.978  -8.379  1.00  0.00     0.029 A 
ATOM     61  C   UNL     1      -7.482   9.842  -8.131  1.00  0.00     0.049 A 
ATOM     62  H   UNL     1      -6.933   7.814  -8.333  1.00  0.00     0.167 HD
ATOM     63  C   UNL     1      -9.518   8.596  -7.453  1.00  0.00     0.074 A 
ATOM     64  C   UNL     1     -10.886   8.524  -6.981  1.00  0.00     0.031 C 
ATOM     65  C   UNL     1      -8.842   9.753  -7.662  1.00  0.00     0.037 A 
BRANCH  52  66
ATOM     66  C   UNL     1      -3.018   8.978  -9.588  1.00  0.00     0.058 A 
ATOM     67  C   UNL     1      -2.553   8.989 -10.913  1.00  0.00     0.135 A 
ATOM     68  C   UNL     1      -2.234   9.621  -8.615  1.00  0.00     0.135 A 
ATOM     69  F   UNL     1      -3.255   8.377 -11.880  1.00  0.00    -0.206 F 
ATOM     70  C   UNL     1      -1.347   9.589 -11.257  1.00  0.00     0.059 A 
ATOM     71  C   UNL     1      -1.036  10.251  -8.941  1.00  0.00     0.059 A 
ATOM     72  F   UNL     1      -2.631   9.642  -7.333  1.00  0.00    -0.206 F 
ATOM     73  C   UNL     1      -0.594  10.218 -10.263  1.00  0.00     0.060 A 
BRANCH  73  74
ATOM     74  S   UNL     1       0.965  11.001 -10.727  1.00  0.00     0.124 S 
ATOM     75  O   UNL     1       1.824   9.839 -10.931  1.00  0.00    -0.237 OA
ATOM     76  O   UNL     1       0.599  11.738 -11.933  1.00  0.00    -0.237 OA
ATOM     77  O   UNL     1       1.290  11.826  -9.567  1.00  0.00    -0.744 OA
ENDBRANCH  73  74
ENDBRANCH  52  66
BRANCH  53  78
ATOM     78  C   UNL     1     -11.439   4.338  -6.851  1.00  0.00     0.058 A 
ATOM     79  C   UNL     1     -12.612   4.394  -7.617  1.00  0.00     0.135 A 
ATOM     80  C   UNL     1     -11.471   3.596  -5.660  1.00  0.00     0.135 A 
ATOM     81  F   UNL     1     -12.633   5.095  -8.761  1.00  0.00    -0.206 F 
ATOM     82  C   UNL     1     -13.778   3.751  -7.214  1.00  0.00     0.059 A 
ATOM     83  C   UNL     1     -12.617   2.924  -5.247  1.00  0.00     0.059 A 
ATOM     84  F   UNL     1     -10.369   3.496  -4.900  1.00  0.00    -0.206 F 
ATOM     85  C   UNL     1     -13.770   3.016  -6.027  1.00  0.00     0.060 A 
BRANCH  85  86
ATOM     86  S   UNL     1     -15.272   2.141  -5.537  1.00  0.00     0.124 S 
ATOM     87  O   UNL     1     -16.108   3.236  -5.060  1.00  0.00    -0.237 OA
ATOM     88  O   UNL     1     -15.688   1.518  -6.790  1.00  0.00    -0.237 OA
ATOM     89  O   UNL     1     -14.800   1.213  -4.513  1.00  0.00    -0.744 OA
ENDBRANCH  85  86
ENDBRANCH  53  78
BRANCH  65  90
ATOM     90  C   UNL     1      -9.579  11.037  -7.403  1.00  0.00     0.058 A 
ATOM     91  C   UNL     1      -9.855  11.477  -6.099  1.00  0.00     0.135 A 
ATOM     92  C   UNL     1      -9.976  11.857  -8.471  1.00  0.00     0.135 A 
ATOM     93  F   UNL     1      -9.502  10.726  -5.044  1.00  0.00    -0.206 F 
ATOM     94  C   UNL     1     -10.520  12.676  -5.864  1.00  0.00     0.059 A 
ATOM     95  C   UNL     1     -10.620  13.072  -8.258  1.00  0.00     0.059 A 
ATOM     96  F   UNL     1      -9.728  11.487  -9.737  1.00  0.00    -0.206 F 
ATOM     97  C   UNL     1     -10.899  13.466  -6.950  1.00  0.00     0.060 A 
BRANCH  97  98
ATOM     98  S   UNL     1     -11.738  15.033  -6.631  1.00  0.00     0.124 S 
ATOM     99  O   UNL     1     -13.079  14.582  -6.277  1.00  0.00    -0.237 OA
ATOM    100  O   UNL     1     -10.949  15.595  -5.539  1.00  0.00    -0.237 OA
ATOM    101  O   UNL     1     -11.629  15.741  -7.903  1.00  0.00    -0.744 OA
ENDBRANCH  97  98
ENDBRANCH  65  90
ENDBRANCH  39  40
ENDBRANCH  31  34
ENDBRANCH  29  30
ENDBRANCH  28  29
ENDBRANCH  27  28
ENDBRANCH   1  27
TORSDOF 19
