REMARK SMILES Cc1n[nH]c(C)c1C(=O)N1CC(n2cc(C(=O)NCCCCCCNC(=O)c3ccc(-c4c5nc(c(-c6c(F)cc(S(=O)(=O)[O-])cc6F)c6ccc([nH]6)c(-c6c(F)cc(S(=O)(=O)[O-])cc6F)c6nc(c(-c7c(F)cc(S(=O)(=O)[O-])cc7F)c7ccc4[nH]7)C=C6)C=C5)cc3)nn2)C1
REMARK SMILES IDX 22 1 21 2 20 3 19 4 18 5 16 6 17 7 15 9 13 10 14 11 95 12
REMARK SMILES IDX 94 13 12 14 8 15 9 16 10 17 11 18 96 19 7 20 1 21 2 22 3 23
REMARK SMILES IDX 4 24 5 25 6 27 23 28 24 29 25 30 26 31 27 33 28 34 29 35
REMARK SMILES IDX 93 36 30 37 92 38 31 39 32 40 33 41 86 42 34 43 91 44 85 45
REMARK SMILES IDX 87 46 35 47 90 48 84 49 83 50 36 52 70 53 49 54 69 55 50 56
REMARK SMILES IDX 53 57 68 58 88 59 51 60 52 61 67 63 89 64 54 65 37 66 38 67
REMARK SMILES IDX 47 68 39 69 40 70 46 71 48 72 41 73 42 74 43 75 44 76 45 77
REMARK SMILES IDX 71 78 72 79 81 80 73 81 74 82 80 83 82 84 75 85 76 86 77 87
REMARK SMILES IDX 78 88 79 89 55 90 56 91 65 92 57 93 58 94 64 95 66 96 59 97
REMARK SMILES IDX 60 98 61 99 62 100 63 101
REMARK H PARENT 18 8 4 26 25 32 87 51 53 62
REMARK Flexibility Score: inf
ROOT
ATOM      1  C   UNL     1       7.845  -6.168   6.390  1.00  0.00     0.002 C 
ENDROOT
BRANCH   1   2
ATOM      2  C   UNL     1       7.099  -7.279   5.637  1.00  0.00     0.002 C 
BRANCH   2   3
ATOM      3  C   UNL     1       5.985  -6.823   4.687  1.00  0.00     0.021 C 
BRANCH   3   4
ATOM      4  C   UNL     1       6.447  -5.883   3.577  1.00  0.00     0.116 C 
BRANCH   4   5
ATOM      5  N   UNL     1       7.199  -6.586   2.554  1.00  0.00    -0.351 N 
ATOM      6  C   UNL     1       7.051  -6.580   1.184  1.00  0.00     0.273 C 
ATOM      7  O   UNL     1       7.961  -7.052   0.507  1.00  0.00    -0.267 OA
ATOM      8  H   UNL     1       7.928  -7.155   2.891  1.00  0.00     0.163 HD
BRANCH   6   9
ATOM      9  C   UNL     1       5.865  -5.983   0.586  1.00  0.00     0.170 A 
ATOM     10  N   UNL     1       3.882  -5.248   0.102  1.00  0.00    -0.245 N 
ATOM     11  C   UNL     1       4.540  -6.079   0.965  1.00  0.00     0.145 A 
ATOM     12  N   UNL     1       4.728  -4.725  -0.804  1.00  0.00    -0.066 NA
ATOM     13  N   UNL     1       5.940  -5.192  -0.538  1.00  0.00    -0.125 NA
BRANCH  10  14
ATOM     14  C   UNL     1       2.513  -4.850   0.260  1.00  0.00     0.148 C 
ATOM     15  C   UNL     1       0.295  -2.529  -0.559  1.00  0.00     0.257 C 
ATOM     16  O   UNL     1      -0.700  -3.079  -1.024  1.00  0.00    -0.269 OA
ATOM     17  N   UNL     1       1.494  -3.200  -0.486  1.00  0.00    -0.334 N 
ATOM     18  C   UNL     1       1.803  -4.504  -1.058  1.00  0.00     0.149 C 
ATOM     19  C   UNL     1       2.425  -3.346   0.615  1.00  0.00     0.149 C 
BRANCH  15  20
ATOM     20  C   UNL     1       0.252  -1.128  -0.132  1.00  0.00     0.083 A 
ATOM     21  C   UNL     1      -2.352  -0.837   0.081  1.00  0.00     0.069 C 
ATOM     22  C   UNL     1      -0.940  -0.371   0.118  1.00  0.00     0.072 A 
ATOM     23  N   UNL     1      -0.677   0.910   0.403  1.00  0.00    -0.180 NA
ATOM     24  N   UNL     1       0.650   0.991   0.320  1.00  0.00    -0.282 N 
ATOM     25  C   UNL     1       1.269  -0.188   0.004  1.00  0.00     0.045 A 
ATOM     26  H   UNL     1       1.145   1.829   0.473  1.00  0.00     0.190 HD
ATOM     27  C   UNL     1       2.739  -0.219  -0.173  1.00  0.00     0.067 C 
ENDBRANCH  15  20
ENDBRANCH  10  14
ENDBRANCH   6   9
ENDBRANCH   4   5
ENDBRANCH   3   4
ENDBRANCH   2   3
ENDBRANCH   1   2
BRANCH   1  28
ATOM     28  C   UNL     1       6.980  -5.137   7.127  1.00  0.00     0.021 C 
BRANCH  28  29
ATOM     29  C   UNL     1       6.139  -5.701   8.269  1.00  0.00     0.116 C 
BRANCH  29  30
ATOM     30  N   UNL     1       6.962  -6.225   9.351  1.00  0.00    -0.352 N 
ATOM     31  C   UNL     1       6.608  -7.085  10.366  1.00  0.00     0.251 C 
ATOM     32  H   UNL     1       7.899  -5.923   9.357  1.00  0.00     0.163 HD
ATOM     33  O   UNL     1       7.320  -7.185  11.360  1.00  0.00    -0.269 OA
BRANCH  31  34
ATOM     34  C   UNL     1       5.352  -7.855  10.267  1.00  0.00     0.039 A 
ATOM     35  C   UNL     1       4.462  -7.871  11.341  1.00  0.00     0.014 A 
ATOM     36  C   UNL     1       5.050  -8.552   9.099  1.00  0.00     0.014 A 
ATOM     37  C   UNL     1       3.229  -8.515  11.203  1.00  0.00     0.010 A 
ATOM     38  C   UNL     1       3.795  -9.127   8.938  1.00  0.00     0.010 A 
ATOM     39  C   UNL     1       2.872  -9.128   9.990  1.00  0.00    -0.014 A 
BRANCH  39  40
ATOM     40  C   UNL     1       1.507  -9.668   9.829  1.00  0.00     0.031 A 
ATOM     41  C   UNL     1       0.356  -8.783  10.207  1.00  0.00     0.074 A 
ATOM     42  C   UNL     1       1.174 -10.793   9.156  1.00  0.00     0.049 A 
ATOM     43  N   UNL     1      -0.601  -9.023  11.048  1.00  0.00    -0.248 NA
ATOM     44  C   UNL     1       0.250  -7.474   9.544  1.00  0.00     0.031 C 
ATOM     45  C   UNL     1       2.042 -11.678   8.377  1.00  0.00     0.029 A 
ATOM     46  N   UNL     1      -0.076 -11.304   8.921  1.00  0.00    -0.354 N 
ATOM     47  C   UNL     1      -1.526  -7.992  10.895  1.00  0.00     0.074 A 
ATOM     48  C   UNL     1      -0.914  -7.024  10.016  1.00  0.00     0.031 C 
ATOM     49  C   UNL     1       1.281 -12.441   7.564  1.00  0.00     0.029 A 
ATOM     50  C   UNL     1      -0.119 -12.218   7.882  1.00  0.00     0.049 A 
ATOM     51  H   UNL     1      -0.870 -11.045   9.442  1.00  0.00     0.167 HD
ATOM     52  C   UNL     1      -2.804  -8.059  11.364  1.00  0.00     0.037 A 
ATOM     53  C   UNL     1      -1.217 -12.733   7.281  1.00  0.00     0.037 A 
ATOM     54  C   UNL     1      -3.009  -9.130  12.301  1.00  0.00     0.049 A 
ATOM     55  C   UNL     1      -2.362 -12.616   8.213  1.00  0.00     0.074 A 
ATOM     56  C   UNL     1      -2.429  -9.526  13.491  1.00  0.00     0.029 A 
ATOM     57  N   UNL     1      -3.820 -10.175  11.933  1.00  0.00    -0.354 N 
ATOM     58  N   UNL     1      -2.490 -13.295   9.320  1.00  0.00    -0.248 NA
ATOM     59  C   UNL     1      -3.296 -11.512   8.050  1.00  0.00     0.031 C 
ATOM     60  C   UNL     1      -2.543 -10.948  13.514  1.00  0.00     0.029 A 
ATOM     61  C   UNL     1      -3.175 -11.320  12.329  1.00  0.00     0.049 A 
ATOM     62  H   UNL     1      -4.690 -10.115  11.476  1.00  0.00     0.167 HD
ATOM     63  C   UNL     1      -3.233 -12.478  10.153  1.00  0.00     0.074 A 
ATOM     64  C   UNL     1      -3.827 -11.482   9.273  1.00  0.00     0.031 C 
ATOM     65  C   UNL     1      -3.061 -12.505  11.508  1.00  0.00     0.037 A 
BRANCH  52  66
ATOM     66  C   UNL     1      -3.970  -7.320  10.756  1.00  0.00     0.058 A 
ATOM     67  C   UNL     1      -5.136  -7.094  11.515  1.00  0.00     0.135 A 
ATOM     68  C   UNL     1      -4.078  -7.084   9.369  1.00  0.00     0.135 A 
ATOM     69  F   UNL     1      -5.140  -7.315  12.839  1.00  0.00    -0.206 F 
ATOM     70  C   UNL     1      -6.343  -6.709  10.929  1.00  0.00     0.059 A 
ATOM     71  C   UNL     1      -5.260  -6.657   8.770  1.00  0.00     0.059 A 
ATOM     72  F   UNL     1      -3.061  -7.350   8.536  1.00  0.00    -0.206 F 
ATOM     73  C   UNL     1      -6.399  -6.514   9.552  1.00  0.00     0.060 A 
BRANCH  73  74
ATOM     74  S   UNL     1      -7.977  -6.125   8.769  1.00  0.00     0.124 S 
ATOM     75  O   UNL     1      -8.555  -7.456   8.620  1.00  0.00    -0.237 OA
ATOM     76  O   UNL     1      -8.614  -5.259   9.755  1.00  0.00    -0.237 OA
ATOM     77  O   UNL     1      -7.573  -5.464   7.532  1.00  0.00    -0.744 OA
ENDBRANCH  73  74
ENDBRANCH  52  66
BRANCH  53  78
ATOM     78  C   UNL     1      -1.373 -13.167   5.872  1.00  0.00     0.058 A 
ATOM     79  C   UNL     1      -2.444 -13.984   5.473  1.00  0.00     0.135 A 
ATOM     80  C   UNL     1      -0.610 -12.588   4.837  1.00  0.00     0.135 A 
ATOM     81  F   UNL     1      -3.247 -14.543   6.390  1.00  0.00    -0.206 F 
ATOM     82  C   UNL     1      -2.757 -14.194   4.128  1.00  0.00     0.059 A 
ATOM     83  C   UNL     1      -0.889 -12.800   3.490  1.00  0.00     0.059 A 
ATOM     84  F   UNL     1       0.382 -11.724   5.105  1.00  0.00    -0.206 F 
ATOM     85  C   UNL     1      -1.980 -13.588   3.142  1.00  0.00     0.060 A 
BRANCH  85  86
ATOM     86  S   UNL     1      -2.471 -13.729   1.410  1.00  0.00     0.124 S 
ATOM     87  O   UNL     1      -2.153 -15.123   1.121  1.00  0.00    -0.237 OA
ATOM     88  O   UNL     1      -3.889 -13.394   1.463  1.00  0.00    -0.237 OA
ATOM     89  O   UNL     1      -1.626 -12.743   0.739  1.00  0.00    -0.744 OA
ENDBRANCH  85  86
ENDBRANCH  53  78
BRANCH  65  90
ATOM     90  C   UNL     1      -2.395 -13.705  12.120  1.00  0.00     0.058 A 
ATOM     91  C   UNL     1      -1.067 -14.084  11.859  1.00  0.00     0.135 A 
ATOM     92  C   UNL     1      -3.085 -14.426  13.107  1.00  0.00     0.135 A 
ATOM     93  F   UNL     1      -0.302 -13.374  11.017  1.00  0.00    -0.206 F 
ATOM     94  C   UNL     1      -0.471 -15.166  12.506  1.00  0.00     0.059 A 
ATOM     95  C   UNL     1      -2.499 -15.491  13.789  1.00  0.00     0.059 A 
ATOM     96  F   UNL     1      -4.334 -14.070  13.452  1.00  0.00    -0.206 F 
ATOM     97  C   UNL     1      -1.196 -15.867  13.469  1.00  0.00     0.060 A 
BRANCH  97  98
ATOM     98  S   UNL     1      -0.395 -17.212  14.371  1.00  0.00     0.124 S 
ATOM     99  O   UNL     1      -0.528 -18.326  13.439  1.00  0.00    -0.237 OA
ATOM    100  O   UNL     1       0.962 -16.709  14.567  1.00  0.00    -0.237 OA
ATOM    101  O   UNL     1      -1.190 -17.318  15.593  1.00  0.00    -0.744 OA
ENDBRANCH  97  98
ENDBRANCH  65  90
ENDBRANCH  39  40
ENDBRANCH  31  34
ENDBRANCH  29  30
ENDBRANCH  28  29
ENDBRANCH   1  28
TORSDOF 18
