REMARK SMILES Cc1cccc(CC(=O)N[C@H]2CCCCC[C@@H]2C(=O)NCCCCCCNC(=O)c2ccc(-c3c4nc(c(-c5c(F)cc(S(=O)(=O)[O-])cc5F)c5ccc([nH]5)c(-c5c(F)cc(S(=O)(=O)[O-])cc5F)c5nc(c(-c6c(F)cc(S(=O)(=O)[O-])cc6F)c6ccc3[nH]6)C=C5)C=C4)cc2)c1
REMARK SMILES IDX 23 1 22 2 21 3 20 4 18 5 19 6 17 8 11 9 10 10 8 11 9 12 7 14
REMARK SMILES IDX 6 15 1 16 2 17 3 18 96 19 4 20 5 21 12 22 13 23 14 24 16 26
REMARK SMILES IDX 15 27 24 29 25 30 26 31 27 32 28 33 29 35 30 36 31 37 95 38
REMARK SMILES IDX 32 39 94 40 33 41 34 42 35 43 88 44 36 45 93 46 87 47 89 48
REMARK SMILES IDX 37 49 92 50 86 51 85 52 38 54 72 55 51 56 71 57 52 58 55 59
REMARK SMILES IDX 70 60 90 61 53 62 54 63 69 65 91 66 56 67 39 68 40 69 49 70
REMARK SMILES IDX 41 71 42 72 48 73 50 74 43 75 44 76 45 77 46 78 47 79 73 80
REMARK SMILES IDX 74 81 83 82 75 83 76 84 82 85 84 86 77 87 78 88 79 89 80 90
REMARK SMILES IDX 81 91 57 92 58 93 67 94 59 95 60 96 66 97 68 98 61 99 62 100
REMARK SMILES IDX 63 101 64 102 65 103
REMARK H PARENT 20 7 10 13 27 34 89 53 55 64
REMARK Flexibility Score: 100.00
ROOT
ATOM      1  C   UNL     1      -2.088   8.863  -2.438  1.00  0.00     0.002 C 
ENDROOT
BRANCH   1   2
ATOM      2  C   UNL     1      -1.224   7.697  -1.929  1.00  0.00     0.021 C 
BRANCH   2   3
ATOM      3  C   UNL     1      -1.956   6.358  -1.827  1.00  0.00     0.116 C 
BRANCH   3   4
ATOM      4  N   UNL     1      -1.764   5.526  -2.999  1.00  0.00    -0.356 N 
ATOM      5  C   UNL     1      -1.129   4.365  -3.274  1.00  0.00     0.225 C 
ATOM      6  O   UNL     1      -1.395   3.911  -4.398  1.00  0.00    -0.275 OA
ATOM      7  H   UNL     1      -2.207   5.901  -3.794  1.00  0.00     0.163 HD
BRANCH   5   8
ATOM      8  C   UNL     1      -0.101   3.619  -2.374  1.00  0.00     0.101 C 
BRANCH   8   9
ATOM      9  C   UNL     1      -0.328   2.095  -2.590  1.00  0.00     0.094 C 
BRANCH   9  10
ATOM     10  N   UNL     1       0.204   1.523  -3.853  1.00  0.00    -0.352 N 
ATOM     11  C   UNL     1       1.384   1.391  -4.508  1.00  0.00     0.224 C 
ATOM     12  O   UNL     1       1.341   0.772  -5.581  1.00  0.00    -0.275 OA
ATOM     13  H   UNL     1      -0.523   1.114  -4.374  1.00  0.00     0.163 HD
BRANCH  11  14
ATOM     14  C   UNL     1       2.718   1.909  -4.008  1.00  0.00     0.135 C 
BRANCH  14  15
ATOM     15  C   UNL     1       2.905   3.402  -4.105  1.00  0.00    -0.038 A 
ATOM     16  C   UNL     1       3.679   6.256  -1.706  1.00  0.00     0.044 C 
ATOM     17  C   UNL     1       3.384   5.510  -2.974  1.00  0.00    -0.051 A 
ATOM     18  C   UNL     1       2.971   6.203  -4.116  1.00  0.00     0.003 A 
ATOM     19  C   UNL     1       3.403   4.110  -3.000  1.00  0.00     0.007 A 
ATOM     20  C   UNL     1       2.582   5.507  -5.260  1.00  0.00     0.001 A 
ATOM     21  C   UNL     1       2.541   4.113  -5.255  1.00  0.00     0.004 A 
ENDBRANCH  14  15
ENDBRANCH  11  14
ENDBRANCH   9  10
BRANCH   9  22
ATOM     22  C   UNL     1      -0.196   1.116  -1.414  1.00  0.00     0.026 C 
BRANCH  22  23
ATOM     23  C   UNL     1       1.101   1.115  -0.629  1.00  0.00     0.002 C 
BRANCH  23  24
ATOM     24  C   UNL     1       1.139   2.184   0.446  1.00  0.00     0.000 CG0
ATOM     25  G   UNL     1       1.202   3.600  -0.093  1.00  0.00     0.000 G0
ENDBRANCH  23  24
ENDBRANCH  22  23
ENDBRANCH   9  22
ENDBRANCH   8   9
BRANCH   8  26
ATOM     26  C   UNL     1       0.003   4.076  -0.915  1.00  0.00     0.015 C 
BRANCH  26  27
ATOM     27  C   UNL     1       1.202   3.600  -0.093  1.00  0.00     0.001 CG0
ATOM     28  G   UNL     1       1.139   2.184   0.446  1.00  0.00     0.000 G0
ENDBRANCH  26  27
ENDBRANCH   8  26
ENDBRANCH   5   8
ENDBRANCH   3   4
ENDBRANCH   2   3
ENDBRANCH   1   2
BRANCH   1  29
ATOM     29  C   UNL     1      -3.445   9.081  -1.742  1.00  0.00     0.002 C 
BRANCH  29  30
ATOM     30  C   UNL     1      -3.453   8.977  -0.214  1.00  0.00     0.021 C 
BRANCH  30  31
ATOM     31  C   UNL     1      -2.700  10.108   0.470  1.00  0.00     0.116 C 
BRANCH  31  32
ATOM     32  N   UNL     1      -3.574  11.014   1.198  1.00  0.00    -0.352 N 
ATOM     33  C   UNL     1      -3.167  11.953   2.133  1.00  0.00     0.251 C 
ATOM     34  H   UNL     1      -4.538  10.955   1.010  1.00  0.00     0.163 HD
ATOM     35  O   UNL     1      -3.861  12.334   3.058  1.00  0.00    -0.269 OA
BRANCH  33  36
ATOM     36  C   UNL     1      -1.874  12.607   1.844  1.00  0.00     0.039 A 
ATOM     37  C   UNL     1      -1.914  13.892   1.288  1.00  0.00     0.014 A 
ATOM     38  C   UNL     1      -0.705  11.853   1.845  1.00  0.00     0.014 A 
ATOM     39  C   UNL     1      -0.807  14.366   0.589  1.00  0.00     0.010 A 
ATOM     40  C   UNL     1       0.356  12.288   1.077  1.00  0.00     0.010 A 
ATOM     41  C   UNL     1       0.293  13.527   0.420  1.00  0.00    -0.014 A 
BRANCH  41  42
ATOM     42  C   UNL     1       1.400  13.817  -0.482  1.00  0.00     0.031 A 
ATOM     43  C   UNL     1       2.721  14.204   0.059  1.00  0.00     0.074 A 
ATOM     44  C   UNL     1       1.261  13.633  -1.813  1.00  0.00     0.049 A 
ATOM     45  N   UNL     1       3.618  14.841  -0.615  1.00  0.00    -0.248 NA
ATOM     46  C   UNL     1       3.131  13.916   1.428  1.00  0.00     0.031 C 
ATOM     47  C   UNL     1       2.330  13.546  -2.805  1.00  0.00     0.029 A 
ATOM     48  N   UNL     1       0.091  13.685  -2.571  1.00  0.00    -0.354 N 
ATOM     49  C   UNL     1       4.794  14.784   0.095  1.00  0.00     0.074 A 
ATOM     50  C   UNL     1       4.424  14.252   1.388  1.00  0.00     0.031 C 
ATOM     51  C   UNL     1       1.822  13.800  -4.019  1.00  0.00     0.029 A 
ATOM     52  C   UNL     1       0.440  14.201  -3.833  1.00  0.00     0.049 A 
ATOM     53  H   UNL     1      -0.809  13.413  -2.278  1.00  0.00     0.167 HD
ATOM     54  C   UNL     1       5.974  15.058  -0.532  1.00  0.00     0.037 A 
ATOM     55  C   UNL     1      -0.095  15.371  -4.291  1.00  0.00     0.037 A 
ATOM     56  C   UNL     1       5.763  15.445  -1.926  1.00  0.00     0.049 A 
ATOM     57  C   UNL     1       0.921  16.460  -4.557  1.00  0.00     0.074 A 
ATOM     58  C   UNL     1       5.881  14.762  -3.127  1.00  0.00     0.029 A 
ATOM     59  N   UNL     1       5.077  16.620  -2.218  1.00  0.00    -0.354 N 
ATOM     60  N   UNL     1       2.157  16.440  -4.139  1.00  0.00    -0.248 NA
ATOM     61  C   UNL     1       0.618  17.666  -5.317  1.00  0.00     0.031 C 
ATOM     62  C   UNL     1       5.268  15.534  -4.144  1.00  0.00     0.029 A 
ATOM     63  C   UNL     1       4.771  16.688  -3.565  1.00  0.00     0.049 A 
ATOM     64  H   UNL     1       4.843  17.310  -1.556  1.00  0.00     0.167 HD
ATOM     65  C   UNL     1       2.801  17.601  -4.509  1.00  0.00     0.074 A 
ATOM     66  C   UNL     1       1.799  18.309  -5.284  1.00  0.00     0.031 C 
ATOM     67  C   UNL     1       4.093  17.856  -4.121  1.00  0.00     0.037 A 
BRANCH  54  68
ATOM     68  C   UNL     1       7.319  14.674   0.052  1.00  0.00     0.058 A 
ATOM     69  C   UNL     1       8.371  14.215  -0.769  1.00  0.00     0.135 A 
ATOM     70  C   UNL     1       7.611  14.683   1.431  1.00  0.00     0.135 A 
ATOM     71  F   UNL     1       8.288  14.246  -2.105  1.00  0.00    -0.206 F 
ATOM     72  C   UNL     1       9.557  13.683  -0.261  1.00  0.00     0.059 A 
ATOM     73  C   UNL     1       8.767  14.105   1.969  1.00  0.00     0.059 A 
ATOM     74  F   UNL     1       6.792  15.284   2.306  1.00  0.00    -0.206 F 
ATOM     75  C   UNL     1       9.730  13.591   1.112  1.00  0.00     0.060 A 
BRANCH  75  76
ATOM     76  S   UNL     1      11.212  12.783   1.745  1.00  0.00     0.124 S 
ATOM     77  O   UNL     1      11.213  11.520   1.012  1.00  0.00    -0.237 OA
ATOM     78  O   UNL     1      12.256  13.732   1.377  1.00  0.00    -0.237 OA
ATOM     79  O   UNL     1      10.947  12.664   3.177  1.00  0.00    -0.744 OA
ENDBRANCH  75  76
ENDBRANCH  54  68
BRANCH  55  80
ATOM     80  C   UNL     1      -1.503  15.572  -3.850  1.00  0.00     0.058 A 
ATOM     81  C   UNL     1      -2.475  14.688  -4.359  1.00  0.00     0.135 A 
ATOM     82  C   UNL     1      -1.800  16.244  -2.657  1.00  0.00     0.135 A 
ATOM     83  F   UNL     1      -2.249  14.036  -5.512  1.00  0.00    -0.206 F 
ATOM     84  C   UNL     1      -3.607  14.345  -3.627  1.00  0.00     0.059 A 
ATOM     85  C   UNL     1      -2.938  15.922  -1.911  1.00  0.00     0.059 A 
ATOM     86  F   UNL     1      -0.918  17.104  -2.128  1.00  0.00    -0.206 F 
ATOM     87  C   UNL     1      -3.788  14.914  -2.369  1.00  0.00     0.060 A 
BRANCH  87  88
ATOM     88  S   UNL     1      -5.052  14.200  -1.286  1.00  0.00     0.124 S 
ATOM     89  O   UNL     1      -6.255  14.317  -2.103  1.00  0.00    -0.237 OA
ATOM     90  O   UNL     1      -4.555  12.838  -1.088  1.00  0.00    -0.237 OA
ATOM     91  O   UNL     1      -5.004  15.055  -0.107  1.00  0.00    -0.744 OA
ENDBRANCH  87  88
ENDBRANCH  55  80
BRANCH  67  92
ATOM     92  C   UNL     1       4.907  19.146  -4.266  1.00  0.00     0.058 A 
ATOM     93  C   UNL     1       4.400  20.403  -4.635  1.00  0.00     0.135 A 
ATOM     94  C   UNL     1       6.292  19.159  -3.925  1.00  0.00     0.135 A 
ATOM     95  F   UNL     1       3.103  20.597  -4.891  1.00  0.00    -0.206 F 
ATOM     96  C   UNL     1       5.194  21.555  -4.712  1.00  0.00     0.059 A 
ATOM     97  C   UNL     1       7.088  20.305  -3.938  1.00  0.00     0.059 A 
ATOM     98  F   UNL     1       6.940  18.051  -3.539  1.00  0.00    -0.206 F 
ATOM     99  C   UNL     1       6.536  21.500  -4.357  1.00  0.00     0.060 A 
BRANCH  99 100
ATOM    100  S   UNL     1       7.528  23.003  -4.379  1.00  0.00     0.124 S 
ATOM    101  O   UNL     1       7.877  23.103  -5.793  1.00  0.00    -0.237 OA
ATOM    102  O   UNL     1       6.590  24.008  -3.888  1.00  0.00    -0.237 OA
ATOM    103  O   UNL     1       8.632  22.695  -3.476  1.00  0.00    -0.744 OA
ENDBRANCH  99 100
ENDBRANCH  67  92
ENDBRANCH  41  42
ENDBRANCH  33  36
ENDBRANCH  31  32
ENDBRANCH  30  31
ENDBRANCH  29  30
ENDBRANCH   1  29
TORSDOF 19
