REMARK SMILES O=C(NCCCCCCNC(=O)[C@@H](CCOCCO)c1cccc(F)c1)c1ccc(-c2c3nc(c(-c4c(F)cc(S(=O)(=O)[O-])cc4F)c4ccc([nH]4)c(-c4c(F)cc(S(=O)(=O)[O-])cc4F)c4nc(c(-c5c(F)cc(S(=O)(=O)[O-])cc5F)c5ccc2[nH]5)C=C4)C=C3)cc1
REMARK SMILES IDX 8 1 7 2 6 3 5 4 4 5 3 6 1 7 2 8 27 10 28 11 92 12 29 13
REMARK SMILES IDX 91 14 30 15 31 16 32 17 85 18 33 19 90 20 84 21 86 22 34 23
REMARK SMILES IDX 89 24 83 25 82 26 35 28 69 29 48 30 68 31 49 32 52 33 67 34
REMARK SMILES IDX 87 35 50 36 51 37 66 39 88 40 53 41 36 42 37 43 46 44 38 45
REMARK SMILES IDX 39 46 45 47 47 48 40 49 41 50 42 51 43 52 44 53 70 54 71 55
REMARK SMILES IDX 80 56 72 57 73 58 79 59 81 60 74 61 75 62 76 63 77 64 78 65
REMARK SMILES IDX 54 66 55 67 64 68 56 69 57 70 63 71 65 72 58 73 59 74 60 75
REMARK SMILES IDX 61 76 62 77 9 78 10 79 11 80 12 82 13 83 14 84 15 85 16 86
REMARK SMILES IDX 17 87 18 88 19 89 20 91 21 92 26 93 22 94 24 95 23 96 25 97
REMARK H PARENT 3 9 86 27 52 38 10 81 19 90
REMARK Flexibility Score: inf
ROOT
ATOM      1  C   UNL     1       5.465   4.506  -2.368  1.00  0.00     0.021 C 
ENDROOT
BRANCH   1   2
ATOM      2  C   UNL     1       4.036   3.934  -2.336  1.00  0.00     0.002 C 
BRANCH   2   3
ATOM      3  C   UNL     1       3.787   2.577  -3.005  1.00  0.00     0.002 C 
BRANCH   3   4
ATOM      4  C   UNL     1       4.513   1.377  -2.410  1.00  0.00     0.021 C 
BRANCH   4   5
ATOM      5  C   UNL     1       4.291   1.107  -0.931  1.00  0.00     0.116 C 
BRANCH   5   6
ATOM      6  N   UNL     1       2.894   0.914  -0.585  1.00  0.00    -0.352 N 
ATOM      7  O   UNL     1       1.068  -0.167   0.170  1.00  0.00    -0.269 OA
ATOM      8  C   UNL     1       2.285  -0.122   0.091  1.00  0.00     0.251 C 
ATOM      9  H   UNL     1       2.288   1.633  -0.879  1.00  0.00     0.163 HD
BRANCH   8  10
ATOM     10  C   UNL     1       3.115  -1.187   0.704  1.00  0.00     0.039 A 
ATOM     11  C   UNL     1       4.292  -0.868   1.380  1.00  0.00     0.014 A 
ATOM     12  C   UNL     1       2.702  -2.521   0.614  1.00  0.00     0.014 A 
ATOM     13  C   UNL     1       5.132  -1.880   1.820  1.00  0.00     0.010 A 
ATOM     14  C   UNL     1       3.495  -3.536   1.164  1.00  0.00     0.010 A 
ATOM     15  C   UNL     1       4.727  -3.224   1.755  1.00  0.00    -0.014 A 
BRANCH  15  16
ATOM     16  C   UNL     1       5.572  -4.247   2.425  1.00  0.00     0.031 A 
ATOM     17  C   UNL     1       6.239  -5.352   1.655  1.00  0.00     0.074 A 
ATOM     18  C   UNL     1       5.782  -4.112   3.752  1.00  0.00     0.049 A 
ATOM     19  N   UNL     1       7.055  -6.276   2.096  1.00  0.00    -0.248 NA
ATOM     20  C   UNL     1       5.958  -5.443   0.213  1.00  0.00     0.031 C 
ATOM     21  C   UNL     1       5.170  -3.080   4.596  1.00  0.00     0.029 A 
ATOM     22  N   UNL     1       6.589  -4.804   4.617  1.00  0.00    -0.354 N 
ATOM     23  C   UNL     1       7.381  -7.059   0.995  1.00  0.00     0.074 A 
ATOM     24  C   UNL     1       6.652  -6.521  -0.134  1.00  0.00     0.031 C 
ATOM     25  C   UNL     1       5.685  -3.152   5.830  1.00  0.00     0.029 A 
ATOM     26  C   UNL     1       6.594  -4.289   5.893  1.00  0.00     0.049 A 
ATOM     27  H   UNL     1       7.115  -5.592   4.351  1.00  0.00     0.167 HD
ATOM     28  C   UNL     1       8.221  -8.120   0.938  1.00  0.00     0.037 A 
ATOM     29  C   UNL     1       7.243  -4.694   7.000  1.00  0.00     0.037 A 
ATOM     30  C   UNL     1       8.950  -8.634   2.072  1.00  0.00     0.049 A 
ATOM     31  C   UNL     1       8.134  -5.897   6.908  1.00  0.00     0.074 A 
ATOM     32  C   UNL     1       9.840  -9.694   2.111  1.00  0.00     0.029 A 
ATOM     33  N   UNL     1       8.879  -8.128   3.362  1.00  0.00    -0.354 N 
ATOM     34  N   UNL     1       8.441  -6.613   5.853  1.00  0.00    -0.248 NA
ATOM     35  C   UNL     1       8.756  -6.357   8.155  1.00  0.00     0.031 C 
ATOM     36  C   UNL     1      10.268  -9.861   3.432  1.00  0.00     0.029 A 
ATOM     37  C   UNL     1       9.689  -8.870   4.208  1.00  0.00     0.049 A 
ATOM     38  H   UNL     1       8.334  -7.356   3.637  1.00  0.00     0.167 HD
ATOM     39  C   UNL     1       9.297  -7.606   6.308  1.00  0.00     0.074 A 
ATOM     40  C   UNL     1       9.489  -7.375   7.725  1.00  0.00     0.031 C 
ATOM     41  C   UNL     1       9.863  -8.627   5.618  1.00  0.00     0.037 A 
BRANCH  28  42
ATOM     42  C   UNL     1       8.421  -8.812  -0.384  1.00  0.00     0.058 A 
ATOM     43  C   UNL     1       7.952 -10.121  -0.583  1.00  0.00     0.135 A 
ATOM     44  C   UNL     1       9.191  -8.233  -1.405  1.00  0.00     0.135 A 
ATOM     45  F   UNL     1       7.204 -10.721   0.357  1.00  0.00    -0.206 F 
ATOM     46  C   UNL     1       8.271 -10.845  -1.727  1.00  0.00     0.059 A 
ATOM     47  C   UNL     1       9.504  -8.931  -2.570  1.00  0.00     0.059 A 
ATOM     48  F   UNL     1       9.647  -6.977  -1.277  1.00  0.00    -0.206 F 
ATOM     49  C   UNL     1       9.058 -10.245  -2.711  1.00  0.00     0.060 A 
BRANCH  49  50
ATOM     50  S   UNL     1       9.489 -11.209  -4.176  1.00  0.00     0.124 S 
ATOM     51  O   UNL     1      10.350 -12.244  -3.613  1.00  0.00    -0.237 OA
ATOM     52  O   UNL     1       8.180 -11.654  -4.643  1.00  0.00    -0.237 OA
ATOM     53  O   UNL     1      10.156 -10.237  -5.037  1.00  0.00    -0.744 OA
ENDBRANCH  49  50
ENDBRANCH  28  42
BRANCH  29  54
ATOM     54  C   UNL     1       7.054  -3.966   8.284  1.00  0.00     0.058 A 
ATOM     55  C   UNL     1       5.808  -3.943   8.931  1.00  0.00     0.135 A 
ATOM     56  C   UNL     1       8.114  -3.271   8.886  1.00  0.00     0.135 A 
ATOM     57  F   UNL     1       4.756  -4.580   8.393  1.00  0.00    -0.206 F 
ATOM     58  C   UNL     1       5.613  -3.242  10.114  1.00  0.00     0.059 A 
ATOM     59  C   UNL     1       7.952  -2.592  10.091  1.00  0.00     0.059 A 
ATOM     60  F   UNL     1       9.326  -3.268   8.311  1.00  0.00    -0.206 F 
ATOM     61  C   UNL     1       6.693  -2.574  10.690  1.00  0.00     0.060 A 
BRANCH  61  62
ATOM     62  S   UNL     1       6.425  -1.703  12.248  1.00  0.00     0.124 S 
ATOM     63  O   UNL     1       5.605  -0.577  11.814  1.00  0.00    -0.237 OA
ATOM     64  O   UNL     1       5.744  -2.714  13.049  1.00  0.00    -0.237 OA
ATOM     65  O   UNL     1       7.777  -1.366  12.682  1.00  0.00    -0.744 OA
ENDBRANCH  61  62
ENDBRANCH  29  54
BRANCH  41  66
ATOM     66  C   UNL     1      10.749  -9.565   6.390  1.00  0.00     0.058 A 
ATOM     67  C   UNL     1      12.135  -9.582   6.171  1.00  0.00     0.135 A 
ATOM     68  C   UNL     1      10.219 -10.472   7.322  1.00  0.00     0.135 A 
ATOM     69  F   UNL     1      12.693  -8.739   5.288  1.00  0.00    -0.206 F 
ATOM     70  C   UNL     1      12.965 -10.471   6.845  1.00  0.00     0.059 A 
ATOM     71  C   UNL     1      11.035 -11.348   8.031  1.00  0.00     0.059 A 
ATOM     72  F   UNL     1       8.901 -10.486   7.576  1.00  0.00    -0.206 F 
ATOM     73  C   UNL     1      12.406 -11.347   7.776  1.00  0.00     0.060 A 
BRANCH  73  74
ATOM     74  S   UNL     1      13.505 -12.463   8.673  1.00  0.00     0.124 S 
ATOM     75  O   UNL     1      13.898 -13.400   7.627  1.00  0.00    -0.237 OA
ATOM     76  O   UNL     1      14.549 -11.556   9.140  1.00  0.00    -0.237 OA
ATOM     77  O   UNL     1      12.648 -13.012   9.720  1.00  0.00    -0.744 OA
ENDBRANCH  73  74
ENDBRANCH  41  66
ENDBRANCH  15  16
ENDBRANCH   8  10
ENDBRANCH   5   6
ENDBRANCH   4   5
ENDBRANCH   3   4
ENDBRANCH   2   3
ENDBRANCH   1   2
BRANCH   1  78
ATOM     78  C   UNL     1       6.130   4.512  -3.751  1.00  0.00     0.116 C 
BRANCH  78  79
ATOM     79  N   UNL     1       6.949   5.695  -4.033  1.00  0.00    -0.356 N 
ATOM     80  C   UNL     1       7.965   5.777  -4.963  1.00  0.00     0.227 C 
ATOM     81  H   UNL     1       6.756   6.507  -3.511  1.00  0.00     0.163 HD
ATOM     82  O   UNL     1       7.742   6.510  -5.936  1.00  0.00    -0.274 OA
BRANCH  80  83
ATOM     83  C   UNL     1       9.401   5.208  -4.720  1.00  0.00     0.111 C 
BRANCH  83  84
ATOM     84  C   UNL     1       9.653   4.797  -3.242  1.00  0.00     0.047 C 
BRANCH  84  85
ATOM     85  C   UNL     1       9.106   3.427  -2.799  1.00  0.00     0.161 C 
BRANCH  85  86
ATOM     86  O   UNL     1       8.845   2.657  -3.959  1.00  0.00    -0.379 OA
BRANCH  86  87
ATOM     87  C   UNL     1       8.146   1.436  -3.834  1.00  0.00     0.188 C 
BRANCH  87  88
ATOM     88  C   UNL     1       7.293   1.247  -5.108  1.00  0.00     0.184 C 
BRANCH  88  89
ATOM     89  O   UNL     1       6.993   2.480  -5.763  1.00  0.00    -0.394 OA
ATOM     90  H   UNL     1       6.476   3.045  -5.168  1.00  0.00     0.210 HD
ENDBRANCH  88  89
ENDBRANCH  87  88
ENDBRANCH  86  87
ENDBRANCH  85  86
ENDBRANCH  84  85
ENDBRANCH  83  84
BRANCH  83  91
ATOM     91  C   UNL     1       9.985   4.255  -5.803  1.00  0.00    -0.033 A 
ATOM     92  C   UNL     1       9.563   4.273  -7.142  1.00  0.00     0.005 A 
ATOM     93  C   UNL     1      10.929   3.260  -5.457  1.00  0.00     0.043 A 
ATOM     94  C   UNL     1       9.915   3.239  -8.028  1.00  0.00     0.003 A 
ATOM     95  C   UNL     1      11.216   2.202  -6.316  1.00  0.00     0.123 A 
ATOM     96  C   UNL     1      10.698   2.171  -7.597  1.00  0.00     0.039 A 
ATOM     97  F   UNL     1      11.946   1.171  -5.869  1.00  0.00    -0.207 F 
ENDBRANCH  83  91
ENDBRANCH  80  83
ENDBRANCH  78  79
ENDBRANCH   1  78
TORSDOF 23
