REMARK SMILES CN1C(=O)/C(=C\c2ccc(-c3ccccc3C(=O)NCCCCCCNC(=O)c3ccc(-c4c5nc(c(-c6c(F)cc(S(=O)(=O)[O-])cc6F)c6ccc([nH]6)c(-c6c(F)cc(S(=O)(=O)[O-])cc6F)c6nc(c(-c7c(F)cc(S(=O)(=O)[O-])cc7F)c7ccc4[nH]7)C=C6)C=C5)cc3)o2)C(=O)[NH+]=C1S
REMARK SMILES IDX 22 1 21 2 20 3 19 4 17 5 18 6 16 8 11 9 12 10 13 11 15 12
REMARK SMILES IDX 14 13 10 14 7 15 8 16 95 17 9 18 6 19 1 20 2 21 3 22 99 23
REMARK SMILES IDX 4 24 5 25 98 26 96 27 97 29 100 30 23 32 24 33 25 34 26 35
REMARK SMILES IDX 27 36 28 38 29 39 30 40 94 41 31 42 93 43 32 44 33 45 34 46
REMARK SMILES IDX 87 47 35 48 92 49 86 50 88 51 36 52 91 53 85 54 84 55 37 57
REMARK SMILES IDX 71 58 50 59 70 60 51 61 54 62 69 63 89 64 52 65 53 66 68 68
REMARK SMILES IDX 90 69 55 70 38 71 39 72 48 73 40 74 41 75 47 76 49 77 42 78
REMARK SMILES IDX 43 79 44 80 45 81 46 82 72 83 73 84 82 85 74 86 75 87 81 88
REMARK SMILES IDX 83 89 76 90 77 91 78 92 79 93 80 94 56 95 57 96 66 97 58 98
REMARK SMILES IDX 59 99 65 100 67 101 60 102 61 103 62 104 63 105 64 106
REMARK H PARENT 19 7 98 28 100 31 26 37 88 56 54 67
REMARK Flexibility Score: inf
ROOT
ATOM      1  C   UNL     1      -1.200   1.504   6.587  1.00  0.00     0.002 C 
ENDROOT
BRANCH   1   2
ATOM      2  C   UNL     1      -2.550   1.622   5.873  1.00  0.00     0.021 C 
BRANCH   2   3
ATOM      3  C   UNL     1      -3.272   0.302   5.610  1.00  0.00     0.116 C 
BRANCH   3   4
ATOM      4  N   UNL     1      -4.472   0.078   6.376  1.00  0.00    -0.352 N 
ATOM      5  C   UNL     1      -5.750  -0.352   6.113  1.00  0.00     0.252 C 
ATOM      6  O   UNL     1      -6.348  -0.658   7.158  1.00  0.00    -0.269 OA
ATOM      7  H   UNL     1      -4.343   0.286   7.329  1.00  0.00     0.163 HD
BRANCH   5   8
ATOM      8  C   UNL     1      -6.537  -0.468   4.811  1.00  0.00     0.050 A 
ATOM      9  C   UNL     1      -6.186  -0.335   3.451  1.00  0.00     0.030 A 
ATOM     10  C   UNL     1      -7.178  -0.442   2.437  1.00  0.00     0.013 A 
ATOM     11  C   UNL     1      -8.506  -0.724   2.725  1.00  0.00     0.001 A 
ATOM     12  C   UNL     1      -7.910  -0.767   5.053  1.00  0.00     0.014 A 
ATOM     13  C   UNL     1      -8.871  -0.903   4.042  1.00  0.00     0.001 A 
BRANCH   9  14
ATOM     14  C   UNL     1      -4.862  -0.196   2.908  1.00  0.00     0.135 A 
ATOM     15  C   UNL     1      -3.193   1.017   2.071  1.00  0.00     0.128 A 
ATOM     16  C   UNL     1      -2.782  -0.313   2.165  1.00  0.00     0.051 A 
ATOM     17  O   UNL     1      -4.491   1.063   2.544  1.00  0.00    -0.457 OA
ATOM     18  C   UNL     1      -3.868  -1.095   2.613  1.00  0.00     0.051 A 
BRANCH  15  19
ATOM     19  C   UNL     1      -2.493   2.202   1.703  1.00  0.00     0.071 C 
ATOM     20  C   UNL     1       1.132   0.184  -0.714  1.00  0.00     0.301 C 
ATOM     21  N   UNL     1       0.322   1.358  -0.433  1.00  0.00    -0.189 N 
ATOM     22  C   UNL     1      -0.941   1.143   0.039  1.00  0.00     0.349 C 
ATOM     23  C   UNL     1       0.557   2.614  -0.909  1.00  0.00     0.318 C 
ATOM     24  O   UNL     1      -1.579   0.133  -0.229  1.00  0.00    -0.240 OA
ATOM     25  C   UNL     1      -1.470   2.270   0.833  1.00  0.00     0.157 C 
ATOM     26  N   UNL     1       0.033   3.681  -0.410  1.00  0.00    -0.200 N 
ATOM     27  C   UNL     1      -0.743   3.559   0.708  1.00  0.00     0.347 C 
ATOM     28  H   UNL     1       0.187   4.560  -0.824  1.00  0.00     0.316 HD
ATOM     29  O   UNL     1      -0.821   4.426   1.573  1.00  0.00    -0.241 OA
BRANCH  23  30
ATOM     30  S   UNL     1       1.529   2.761  -2.338  1.00  0.00    -0.055 SA
ATOM     31  H   UNL     1       1.987   1.534  -2.703  1.00  0.00     0.116 HD
ENDBRANCH  23  30
ENDBRANCH  15  19
ENDBRANCH   9  14
ENDBRANCH   5   8
ENDBRANCH   3   4
ENDBRANCH   2   3
ENDBRANCH   1   2
BRANCH   1  32
ATOM     32  C   UNL     1      -0.153   0.568   5.965  1.00  0.00     0.002 C 
BRANCH  32  33
ATOM     33  C   UNL     1       0.237   0.823   4.504  1.00  0.00     0.021 C 
BRANCH  33  34
ATOM     34  C   UNL     1       0.810   2.204   4.185  1.00  0.00     0.116 C 
BRANCH  34  35
ATOM     35  N   UNL     1       2.014   2.489   4.946  1.00  0.00    -0.352 N 
ATOM     36  C   UNL     1       3.309   2.707   4.546  1.00  0.00     0.251 C 
ATOM     37  H   UNL     1       1.877   2.534   5.920  1.00  0.00     0.163 HD
ATOM     38  O   UNL     1       4.197   2.715   5.396  1.00  0.00    -0.269 OA
BRANCH  36  39
ATOM     39  C   UNL     1       3.666   2.920   3.122  1.00  0.00     0.039 A 
ATOM     40  C   UNL     1       4.866   2.382   2.642  1.00  0.00     0.014 A 
ATOM     41  C   UNL     1       2.893   3.717   2.277  1.00  0.00     0.014 A 
ATOM     42  C   UNL     1       5.262   2.596   1.315  1.00  0.00     0.010 A 
ATOM     43  C   UNL     1       3.261   3.877   0.937  1.00  0.00     0.010 A 
ATOM     44  C   UNL     1       4.447   3.315   0.429  1.00  0.00    -0.014 A 
BRANCH  44  45
ATOM     45  C   UNL     1       4.803   3.478  -1.017  1.00  0.00     0.031 A 
ATOM     46  C   UNL     1       4.882   4.852  -1.643  1.00  0.00     0.074 A 
ATOM     47  C   UNL     1       4.928   2.391  -1.812  1.00  0.00     0.049 A 
ATOM     48  N   UNL     1       5.012   5.181  -2.905  1.00  0.00    -0.248 NA
ATOM     49  C   UNL     1       4.766   6.005  -0.737  1.00  0.00     0.031 C 
ATOM     50  C   UNL     1       4.801   0.998  -1.377  1.00  0.00     0.029 A 
ATOM     51  N   UNL     1       5.112   2.288  -3.173  1.00  0.00    -0.354 N 
ATOM     52  C   UNL     1       5.000   6.572  -2.942  1.00  0.00     0.074 A 
ATOM     53  C   UNL     1       4.756   7.021  -1.588  1.00  0.00     0.031 C 
ATOM     54  C   UNL     1       4.865   0.189  -2.446  1.00  0.00     0.029 A 
ATOM     55  C   UNL     1       5.030   0.998  -3.649  1.00  0.00     0.049 A 
ATOM     56  H   UNL     1       5.286   3.065  -3.752  1.00  0.00     0.167 HD
ATOM     57  C   UNL     1       5.218   7.405  -3.991  1.00  0.00     0.037 A 
ATOM     58  C   UNL     1       5.068   0.511  -4.905  1.00  0.00     0.037 A 
ATOM     59  C   UNL     1       5.496   6.965  -5.335  1.00  0.00     0.049 A 
ATOM     60  C   UNL     1       5.283   1.449  -6.062  1.00  0.00     0.074 A 
ATOM     61  C   UNL     1       5.824   7.733  -6.440  1.00  0.00     0.029 A 
ATOM     62  N   UNL     1       5.476   5.646  -5.761  1.00  0.00    -0.354 N 
ATOM     63  N   UNL     1       5.371   2.756  -6.057  1.00  0.00    -0.248 NA
ATOM     64  C   UNL     1       5.434   0.842  -7.393  1.00  0.00     0.031 C 
ATOM     65  C   UNL     1       5.958   6.883  -7.543  1.00  0.00     0.029 A 
ATOM     66  C   UNL     1       5.766   5.580  -7.115  1.00  0.00     0.049 A 
ATOM     67  H   UNL     1       5.283   4.870  -5.186  1.00  0.00     0.167 HD
ATOM     68  C   UNL     1       5.641   3.123  -7.372  1.00  0.00     0.074 A 
ATOM     69  C   UNL     1       5.695   1.901  -8.145  1.00  0.00     0.031 C 
ATOM     70  C   UNL     1       5.839   4.363  -7.883  1.00  0.00     0.037 A 
BRANCH  57  71
ATOM     71  C   UNL     1       5.212   8.888  -3.721  1.00  0.00     0.058 A 
ATOM     72  C   UNL     1       6.221   9.496  -2.955  1.00  0.00     0.135 A 
ATOM     73  C   UNL     1       4.228   9.721  -4.279  1.00  0.00     0.135 A 
ATOM     74  F   UNL     1       7.186   8.751  -2.394  1.00  0.00    -0.206 F 
ATOM     75  C   UNL     1       6.233  10.867  -2.719  1.00  0.00     0.059 A 
ATOM     76  C   UNL     1       4.239  11.100  -4.083  1.00  0.00     0.059 A 
ATOM     77  F   UNL     1       3.245   9.198  -5.029  1.00  0.00    -0.206 F 
ATOM     78  C   UNL     1       5.237  11.661  -3.288  1.00  0.00     0.060 A 
BRANCH  78  79
ATOM     79  S   UNL     1       5.277  13.439  -2.978  1.00  0.00     0.124 S 
ATOM     80  O   UNL     1       4.872  13.499  -1.577  1.00  0.00    -0.237 OA
ATOM     81  O   UNL     1       6.672  13.772  -3.248  1.00  0.00    -0.237 OA
ATOM     82  O   UNL     1       4.312  13.973  -3.934  1.00  0.00    -0.744 OA
ENDBRANCH  78  79
ENDBRANCH  57  71
BRANCH  58  83
ATOM     83  C   UNL     1       4.957  -0.954  -5.136  1.00  0.00     0.058 A 
ATOM     84  C   UNL     1       6.082  -1.705  -5.506  1.00  0.00     0.135 A 
ATOM     85  C   UNL     1       3.737  -1.633  -4.987  1.00  0.00     0.135 A 
ATOM     86  F   UNL     1       7.269  -1.099  -5.665  1.00  0.00    -0.206 F 
ATOM     87  C   UNL     1       6.002  -3.073  -5.740  1.00  0.00     0.059 A 
ATOM     88  C   UNL     1       3.636  -3.006  -5.194  1.00  0.00     0.059 A 
ATOM     89  F   UNL     1       2.636  -0.964  -4.608  1.00  0.00    -0.206 F 
ATOM     90  C   UNL     1       4.774  -3.716  -5.579  1.00  0.00     0.060 A 
BRANCH  90  91
ATOM     91  S   UNL     1       4.698  -5.502  -5.836  1.00  0.00     0.124 S 
ATOM     92  O   UNL     1       4.860  -5.599  -7.281  1.00  0.00    -0.237 OA
ATOM     93  O   UNL     1       5.823  -5.971  -5.032  1.00  0.00    -0.237 OA
ATOM     94  O   UNL     1       3.379  -5.858  -5.322  1.00  0.00    -0.744 OA
ENDBRANCH  90  91
ENDBRANCH  58  83
BRANCH  70  95
ATOM     95  C   UNL     1       6.198   4.469  -9.341  1.00  0.00     0.058 A 
ATOM     96  C   UNL     1       5.262   4.227 -10.359  1.00  0.00     0.135 A 
ATOM     97  C   UNL     1       7.489   4.870  -9.724  1.00  0.00     0.135 A 
ATOM     98  F   UNL     1       4.016   3.833 -10.051  1.00  0.00    -0.206 F 
ATOM     99  C   UNL     1       5.600   4.355 -11.703  1.00  0.00     0.059 A 
ATOM    100  C   UNL     1       7.840   5.033 -11.060  1.00  0.00     0.059 A 
ATOM    101  F   UNL     1       8.422   5.122  -8.792  1.00  0.00    -0.206 F 
ATOM    102  C   UNL     1       6.891   4.763 -12.044  1.00  0.00     0.060 A 
BRANCH 102 103
ATOM    103  S   UNL     1       7.304   4.962 -13.790  1.00  0.00     0.124 S 
ATOM    104  O   UNL     1       7.384   3.574 -14.234  1.00  0.00    -0.237 OA
ATOM    105  O   UNL     1       6.167   5.724 -14.295  1.00  0.00    -0.237 OA
ATOM    106  O   UNL     1       8.572   5.685 -13.760  1.00  0.00    -0.744 OA
ENDBRANCH 102 103
ENDBRANCH  70  95
ENDBRANCH  44  45
ENDBRANCH  36  39
ENDBRANCH  34  35
ENDBRANCH  33  34
ENDBRANCH  32  33
ENDBRANCH   1  32
TORSDOF 19
