REMARK SMILES O=C(NCCCCCCNC(=O)c1cccc(S(=O)(=O)Oc2ccccc2)c1)c1ccc(-c2c3nc(c(-c4c(F)cc(S(=O)(=O)[O-])cc4F)c4ccc([nH]4)c(-c4c(F)cc(S(=O)(=O)[O-])cc4F)c4nc(c(-c5c(F)cc(S(=O)(=O)[O-])cc5F)c5ccc2[nH]5)C=C4)C=C3)cc1
REMARK SMILES IDX 6 1 5 2 4 3 3 4 1 5 2 6 29 8 30 9 94 10 31 11 93 12 32 13
REMARK SMILES IDX 33 14 34 15 87 16 35 17 92 18 86 19 88 20 36 21 91 22 85 23
REMARK SMILES IDX 84 24 37 26 71 27 50 28 70 29 51 30 54 31 69 32 89 33 52 34
REMARK SMILES IDX 53 35 68 37 90 38 55 39 38 40 39 41 48 42 40 43 41 44 47 45
REMARK SMILES IDX 49 46 42 47 43 48 44 49 45 50 46 51 72 52 73 53 82 54 74 55
REMARK SMILES IDX 75 56 81 57 83 58 76 59 77 60 78 61 79 62 80 63 56 64 57 65
REMARK SMILES IDX 66 66 58 67 59 68 65 69 67 70 60 71 61 72 62 73 63 74 64 75
REMARK SMILES IDX 7 76 8 77 9 78 10 79 11 80 12 82 13 83 14 84 28 85 15 86
REMARK SMILES IDX 17 87 16 88 18 89 19 90 20 91 21 92 22 93 23 94 27 95 24 96
REMARK SMILES IDX 26 97 25 98
REMARK H PARENT 3 7 88 25 54 36 10 81
REMARK Flexibility Score: inf
ROOT
ATOM      1  C   UNL     1       4.185  -1.540   3.576  1.00  0.00     0.002 C 
ENDROOT
BRANCH   1   2
ATOM      2  C   UNL     1       4.661  -0.437   2.627  1.00  0.00     0.021 C 
BRANCH   2   3
ATOM      3  C   UNL     1       4.412  -0.699   1.144  1.00  0.00     0.116 C 
BRANCH   3   4
ATOM      4  N   UNL     1       3.000  -0.834   0.835  1.00  0.00    -0.352 N 
ATOM      5  O   UNL     1       1.015  -0.281  -0.066  1.00  0.00    -0.269 OA
ATOM      6  C   UNL     1       2.235  -0.142  -0.070  1.00  0.00     0.251 C 
ATOM      7  H   UNL     1       2.521  -1.523   1.351  1.00  0.00     0.163 HD
BRANCH   6   8
ATOM      8  C   UNL     1       2.872   0.782  -1.033  1.00  0.00     0.039 A 
ATOM      9  C   UNL     1       4.003   0.401  -1.763  1.00  0.00     0.014 A 
ATOM     10  C   UNL     1       2.298   2.040  -1.236  1.00  0.00     0.014 A 
ATOM     11  C   UNL     1       4.617   1.312  -2.621  1.00  0.00     0.010 A 
ATOM     12  C   UNL     1       2.883   2.932  -2.136  1.00  0.00     0.010 A 
ATOM     13  C   UNL     1       4.058   2.583  -2.821  1.00  0.00    -0.014 A 
BRANCH  13  14
ATOM     14  C   UNL     1       4.666   3.532  -3.786  1.00  0.00     0.031 A 
ATOM     15  C   UNL     1       5.288   4.813  -3.311  1.00  0.00     0.074 A 
ATOM     16  C   UNL     1       4.610   3.253  -5.102  1.00  0.00     0.049 A 
ATOM     17  N   UNL     1       5.777   5.803  -4.013  1.00  0.00    -0.248 NA
ATOM     18  C   UNL     1       5.361   5.013  -1.856  1.00  0.00     0.031 C 
ATOM     19  C   UNL     1       4.020   2.045  -5.681  1.00  0.00     0.029 A 
ATOM     20  N   UNL     1       5.034   3.973  -6.190  1.00  0.00    -0.354 N 
ATOM     21  C   UNL     1       6.192   6.755  -3.091  1.00  0.00     0.074 A 
ATOM     22  C   UNL     1       5.883   6.229  -1.777  1.00  0.00     0.031 C 
ATOM     23  C   UNL     1       4.114   2.109  -7.017  1.00  0.00     0.029 A 
ATOM     24  C   UNL     1       4.725   3.381  -7.391  1.00  0.00     0.049 A 
ATOM     25  H   UNL     1       5.513   4.830  -6.117  1.00  0.00     0.167 HD
ATOM     26  C   UNL     1       6.778   7.955  -3.321  1.00  0.00     0.037 A 
ATOM     27  C   UNL     1       4.880   3.825  -8.653  1.00  0.00     0.037 A 
ATOM     28  C   UNL     1       7.087   8.465  -4.632  1.00  0.00     0.049 A 
ATOM     29  C   UNL     1       5.516   5.163  -8.889  1.00  0.00     0.074 A 
ATOM     30  C   UNL     1       7.718   9.650  -4.969  1.00  0.00     0.029 A 
ATOM     31  N   UNL     1       6.777   7.825  -5.824  1.00  0.00    -0.354 N 
ATOM     32  N   UNL     1       5.942   6.034  -8.006  1.00  0.00    -0.248 NA
ATOM     33  C   UNL     1       5.695   5.581 -10.285  1.00  0.00     0.031 C 
ATOM     34  C   UNL     1       7.756   9.744  -6.365  1.00  0.00     0.029 A 
ATOM     35  C   UNL     1       7.185   8.599  -6.898  1.00  0.00     0.049 A 
ATOM     36  H   UNL     1       6.332   6.950  -5.896  1.00  0.00     0.167 HD
ATOM     37  C   UNL     1       6.457   7.097  -8.738  1.00  0.00     0.074 A 
ATOM     38  C   UNL     1       6.292   6.758 -10.138  1.00  0.00     0.031 C 
ATOM     39  C   UNL     1       7.020   8.245  -8.288  1.00  0.00     0.037 A 
BRANCH  26  40
ATOM     40  C   UNL     1       7.090   8.810  -2.124  1.00  0.00     0.058 A 
ATOM     41  C   UNL     1       8.132   8.491  -1.239  1.00  0.00     0.135 A 
ATOM     42  C   UNL     1       6.333   9.962  -1.856  1.00  0.00     0.135 A 
ATOM     43  F   UNL     1       8.880   7.394  -1.442  1.00  0.00    -0.206 F 
ATOM     44  C   UNL     1       8.381   9.256  -0.104  1.00  0.00     0.059 A 
ATOM     45  C   UNL     1       6.580  10.756  -0.740  1.00  0.00     0.059 A 
ATOM     46  F   UNL     1       5.329  10.317  -2.674  1.00  0.00    -0.206 F 
ATOM     47  C   UNL     1       7.591  10.380   0.144  1.00  0.00     0.060 A 
BRANCH  47  48
ATOM     48  S   UNL     1       7.889  11.335   1.647  1.00  0.00     0.124 S 
ATOM     49  O   UNL     1       7.265  10.486   2.657  1.00  0.00    -0.237 OA
ATOM     50  O   UNL     1       9.347  11.404   1.694  1.00  0.00    -0.237 OA
ATOM     51  O   UNL     1       7.213  12.601   1.384  1.00  0.00    -0.744 OA
ENDBRANCH  47  48
ENDBRANCH  26  40
BRANCH  27  52
ATOM     52  C   UNL     1       4.409   2.973  -9.774  1.00  0.00     0.058 A 
ATOM     53  C   UNL     1       5.314   2.248 -10.559  1.00  0.00     0.135 A 
ATOM     54  C   UNL     1       3.037   2.790 -10.012  1.00  0.00     0.135 A 
ATOM     55  F   UNL     1       6.634   2.394 -10.369  1.00  0.00    -0.206 F 
ATOM     56  C   UNL     1       4.877   1.356 -11.533  1.00  0.00     0.059 A 
ATOM     57  C   UNL     1       2.576   1.889 -10.965  1.00  0.00     0.059 A 
ATOM     58  F   UNL     1       2.133   3.451  -9.272  1.00  0.00    -0.206 F 
ATOM     59  C   UNL     1       3.505   1.174 -11.719  1.00  0.00     0.060 A 
BRANCH  59  60
ATOM     60  S   UNL     1       2.948  -0.071 -12.904  1.00  0.00     0.124 S 
ATOM     61  O   UNL     1       3.190   0.604 -14.174  1.00  0.00    -0.237 OA
ATOM     62  O   UNL     1       3.827  -1.197 -12.602  1.00  0.00    -0.237 OA
ATOM     63  O   UNL     1       1.546  -0.269 -12.548  1.00  0.00    -0.744 OA
ENDBRANCH  59  60
ENDBRANCH  27  52
BRANCH  39  64
ATOM     64  C   UNL     1       7.532   9.217  -9.311  1.00  0.00     0.058 A 
ATOM     65  C   UNL     1       6.666  10.064 -10.017  1.00  0.00     0.135 A 
ATOM     66  C   UNL     1       8.914   9.367  -9.515  1.00  0.00     0.135 A 
ATOM     67  F   UNL     1       5.338   9.952  -9.864  1.00  0.00    -0.206 F 
ATOM     68  C   UNL     1       7.153  11.032 -10.890  1.00  0.00     0.059 A 
ATOM     69  C   UNL     1       9.422  10.340 -10.368  1.00  0.00     0.059 A 
ATOM     70  F   UNL     1       9.782   8.582  -8.858  1.00  0.00    -0.206 F 
ATOM     71  C   UNL     1       8.534  11.168 -11.052  1.00  0.00     0.060 A 
BRANCH  71  72
ATOM     72  S   UNL     1       9.157  12.480 -12.126  1.00  0.00     0.124 S 
ATOM     73  O   UNL     1       8.904  11.922 -13.450  1.00  0.00    -0.237 OA
ATOM     74  O   UNL     1       8.325  13.618 -11.747  1.00  0.00    -0.237 OA
ATOM     75  O   UNL     1      10.563  12.588 -11.747  1.00  0.00    -0.744 OA
ENDBRANCH  71  72
ENDBRANCH  39  64
ENDBRANCH  13  14
ENDBRANCH   6   8
ENDBRANCH   3   4
ENDBRANCH   2   3
ENDBRANCH   1   2
BRANCH   1  76
ATOM     76  C   UNL     1       4.721  -2.944   3.285  1.00  0.00     0.002 C 
BRANCH  76  77
ATOM     77  C   UNL     1       6.245  -3.069   3.194  1.00  0.00     0.021 C 
BRANCH  77  78
ATOM     78  C   UNL     1       7.016  -2.575   4.416  1.00  0.00     0.116 C 
BRANCH  78  79
ATOM     79  N   UNL     1       6.704  -3.341   5.611  1.00  0.00    -0.352 N 
ATOM     80  C   UNL     1       7.552  -3.966   6.489  1.00  0.00     0.251 C 
ATOM     81  H   UNL     1       5.745  -3.424   5.820  1.00  0.00     0.163 HD
ATOM     82  O   UNL     1       7.114  -4.712   7.359  1.00  0.00    -0.269 OA
BRANCH  80  83
ATOM     83  C   UNL     1       9.010  -3.752   6.380  1.00  0.00     0.041 A 
ATOM     84  C   UNL     1       9.851  -4.869   6.324  1.00  0.00     0.014 A 
ATOM     85  C   UNL     1       9.541  -2.459   6.359  1.00  0.00     0.037 A 
ATOM     86  C   UNL     1      11.230  -4.697   6.192  1.00  0.00     0.002 A 
ATOM     87  C   UNL     1      10.920  -2.300   6.212  1.00  0.00     0.106 A 
ATOM     88  C   UNL     1      11.767  -3.411   6.123  1.00  0.00     0.024 A 
BRANCH  87  89
ATOM     89  S   UNL     1      11.632  -0.672   6.051  1.00  0.00     0.339 S 
ATOM     90  O   UNL     1      12.269  -0.398   7.322  1.00  0.00    -0.181 OA
ATOM     91  O   UNL     1      12.382  -0.709   4.808  1.00  0.00    -0.181 OA
BRANCH  89  92
ATOM     92  O   UNL     1      10.333   0.303   5.868  1.00  0.00    -0.379 OA
BRANCH  92  93
ATOM     93  C   UNL     1      10.489   1.661   5.791  1.00  0.00     0.142 A 
ATOM     94  C   UNL     1       9.649   2.438   6.592  1.00  0.00     0.048 A 
ATOM     95  C   UNL     1      11.360   2.274   4.891  1.00  0.00     0.048 A 
ATOM     96  C   UNL     1       9.702   3.830   6.513  1.00  0.00     0.004 A 
ATOM     97  C   UNL     1      11.411   3.667   4.815  1.00  0.00     0.004 A 
ATOM     98  C   UNL     1      10.584   4.444   5.625  1.00  0.00     0.000 A 
ENDBRANCH  92  93
ENDBRANCH  89  92
ENDBRANCH  87  89
ENDBRANCH  80  83
ENDBRANCH  78  79
ENDBRANCH  77  78
ENDBRANCH  76  77
ENDBRANCH   1  76
TORSDOF 19
