REMARK SMILES Cn1c(C(=O)N2CCC[C@@H](C(=O)NCCCCCCNC(=O)c3ccc(-c4c5nc(c(-c6c(F)cc(S(=O)(=O)[O-])cc6F)c6ccc([nH]6)c(-c6c(F)cc(S(=O)(=O)[O-])cc6F)c6nc(c(-c7c(F)cc(S(=O)(=O)[O-])cc7F)c7ccc4[nH]7)C=C6)C=C5)cc3)C2)cc2sccc21
REMARK SMILES IDX 17 1 16 2 15 3 14 4 13 5 11 6 12 7 10 9 6 10 7 11 89 12 8 13
REMARK SMILES IDX 9 14 4 15 5 16 3 17 1 18 2 19 95 20 90 21 91 22 94 23 92 24
REMARK SMILES IDX 93 25 18 26 19 27 20 28 21 29 22 31 23 32 24 33 88 34 25 35
REMARK SMILES IDX 87 36 26 37 27 38 28 39 81 40 29 41 86 42 80 43 82 44 30 45
REMARK SMILES IDX 85 46 79 47 78 48 31 50 65 51 44 52 64 53 45 54 48 55 63 56
REMARK SMILES IDX 83 57 46 58 47 59 62 61 84 62 49 63 32 64 33 65 42 66 34 67
REMARK SMILES IDX 35 68 41 69 43 70 36 71 37 72 38 73 39 74 40 75 66 76 67 77
REMARK SMILES IDX 76 78 68 79 69 80 75 81 77 82 70 83 71 84 72 85 73 86 74 87
REMARK SMILES IDX 50 88 51 89 60 90 52 91 53 92 59 93 61 94 54 95 55 96 56 97
REMARK SMILES IDX 57 98 58 99
REMARK H PARENT 13 8 20 30 82 49 48 60
REMARK Flexibility Score: inf
ROOT
ATOM      1  C   UNL     1       2.395  10.803   1.552  1.00  0.00     0.002 C 
ENDROOT
BRANCH   1   2
ATOM      2  C   UNL     1       1.431   9.637   1.817  1.00  0.00     0.002 C 
BRANCH   2   3
ATOM      3  C   UNL     1       1.795   8.297   1.171  1.00  0.00     0.021 C 
BRANCH   3   4
ATOM      4  C   UNL     1       3.205   7.801   1.479  1.00  0.00     0.116 C 
BRANCH   4   5
ATOM      5  N   UNL     1       3.361   7.431   2.877  1.00  0.00    -0.356 N 
ATOM      6  C   UNL     1       3.821   6.287   3.456  1.00  0.00     0.224 C 
ATOM      7  O   UNL     1       3.889   6.258   4.687  1.00  0.00    -0.275 OA
ATOM      8  H   UNL     1       3.086   8.128   3.515  1.00  0.00     0.163 HD
BRANCH   6   9
ATOM      9  C   UNL     1       4.266   5.089   2.628  1.00  0.00     0.098 C 
ATOM     10  N   UNL     1       3.513   3.591   0.782  1.00  0.00    -0.337 N 
ATOM     11  C   UNL     1       4.609   4.012  -0.064  1.00  0.00     0.120 C 
ATOM     12  C   UNL     1       3.086   4.480   1.857  1.00  0.00     0.133 C 
ATOM     13  C   UNL     1       5.835   4.353   0.760  1.00  0.00     0.022 C 
ATOM     14  C   UNL     1       5.512   5.428   1.791  1.00  0.00     0.017 C 
BRANCH  10  15
ATOM     15  C   UNL     1       2.894   2.381   0.485  1.00  0.00     0.270 C 
ATOM     16  O   UNL     1       3.581   1.369   0.354  1.00  0.00    -0.267 OA
BRANCH  15  17
ATOM     17  C   UNL     1       1.457   2.432   0.227  1.00  0.00     0.108 A 
ATOM     18  C   UNL     1       0.973  -0.072   0.018  1.00  0.00     0.150 C 
ATOM     19  N   UNL     1       0.639   1.332   0.016  1.00  0.00    -0.339 N 
ATOM     20  C   UNL     1      -0.656   1.766  -0.180  1.00  0.00     0.059 A 
ATOM     21  C   UNL     1       0.672   3.564   0.026  1.00  0.00     0.053 A 
ATOM     22  C   UNL     1      -0.662   3.124  -0.147  1.00  0.00     0.053 A 
ATOM     23  C   UNL     1      -1.939   1.205  -0.424  1.00  0.00     0.038 A 
ATOM     24  S   UNL     1      -2.243   3.795  -0.338  1.00  0.00    -0.142 S 
ATOM     25  C   UNL     1      -2.885   2.207  -0.470  1.00  0.00     0.068 A 
ENDBRANCH  15  17
ENDBRANCH  10  15
ENDBRANCH   6   9
ENDBRANCH   4   5
ENDBRANCH   3   4
ENDBRANCH   2   3
ENDBRANCH   1   2
BRANCH   1  26
ATOM     26  C   UNL     1       2.771  11.073   0.089  1.00  0.00     0.021 C 
BRANCH  26  27
ATOM     27  C   UNL     1       1.593  11.371  -0.827  1.00  0.00     0.116 C 
BRANCH  27  28
ATOM     28  N   UNL     1       0.907  12.611  -0.482  1.00  0.00    -0.352 N 
ATOM     29  C   UNL     1      -0.246  13.127  -1.047  1.00  0.00     0.251 C 
ATOM     30  H   UNL     1       1.313  13.145   0.238  1.00  0.00     0.163 HD
ATOM     31  O   UNL     1      -0.497  14.318  -0.959  1.00  0.00    -0.269 OA
BRANCH  29  32
ATOM     32  C   UNL     1      -1.149  12.212  -1.775  1.00  0.00     0.039 A 
ATOM     33  C   UNL     1      -1.726  12.597  -2.984  1.00  0.00     0.014 A 
ATOM     34  C   UNL     1      -1.382  10.939  -1.256  1.00  0.00     0.014 A 
ATOM     35  C   UNL     1      -2.451  11.652  -3.709  1.00  0.00     0.010 A 
ATOM     36  C   UNL     1      -1.977   9.970  -2.036  1.00  0.00     0.010 A 
ATOM     37  C   UNL     1      -2.540  10.320  -3.256  1.00  0.00    -0.014 A 
BRANCH  37  38
ATOM     38  C   UNL     1      -3.121   9.295  -4.131  1.00  0.00     0.031 A 
ATOM     39  C   UNL     1      -2.623   9.349  -5.533  1.00  0.00     0.074 A 
ATOM     40  C   UNL     1      -3.929   8.280  -3.748  1.00  0.00     0.049 A 
ATOM     41  N   UNL     1      -3.234   9.852  -6.553  1.00  0.00    -0.248 NA
ATOM     42  C   UNL     1      -1.233   8.955  -5.813  1.00  0.00     0.031 C 
ATOM     43  C   UNL     1      -4.265   7.848  -2.386  1.00  0.00     0.029 A 
ATOM     44  N   UNL     1      -4.580   7.357  -4.521  1.00  0.00    -0.354 N 
ATOM     45  C   UNL     1      -2.420   9.593  -7.650  1.00  0.00     0.074 A 
ATOM     46  C   UNL     1      -1.132   9.235  -7.117  1.00  0.00     0.031 C 
ATOM     47  C   UNL     1      -4.848   6.628  -2.422  1.00  0.00     0.029 A 
ATOM     48  C   UNL     1      -5.125   6.296  -3.807  1.00  0.00     0.049 A 
ATOM     49  H   UNL     1      -4.657   7.438  -5.499  1.00  0.00     0.167 HD
ATOM     50  C   UNL     1      -2.966   9.416  -8.886  1.00  0.00     0.037 A 
ATOM     51  C   UNL     1      -5.807   5.231  -4.295  1.00  0.00     0.037 A 
ATOM     52  C   UNL     1      -4.362   9.773  -8.881  1.00  0.00     0.049 A 
ATOM     53  C   UNL     1      -6.385   5.611  -5.597  1.00  0.00     0.074 A 
ATOM     54  C   UNL     1      -5.114  10.926  -8.921  1.00  0.00     0.029 A 
ATOM     55  N   UNL     1      -5.176   8.769  -8.430  1.00  0.00    -0.354 N 
ATOM     56  N   UNL     1      -7.311   6.519  -5.731  1.00  0.00    -0.248 NA
ATOM     57  C   UNL     1      -5.703   5.221  -6.824  1.00  0.00     0.031 C 
ATOM     58  C   UNL     1      -6.375  10.603  -8.334  1.00  0.00     0.029 A 
ATOM     59  C   UNL     1      -6.377   9.254  -7.988  1.00  0.00     0.049 A 
ATOM     60  H   UNL     1      -4.928   7.816  -8.425  1.00  0.00     0.167 HD
ATOM     61  C   UNL     1      -7.022   7.113  -6.941  1.00  0.00     0.074 A 
ATOM     62  C   UNL     1      -6.159   6.172  -7.641  1.00  0.00     0.031 C 
ATOM     63  C   UNL     1      -7.218   8.448  -7.131  1.00  0.00     0.037 A 
BRANCH  50  64
ATOM     64  C   UNL     1      -2.427   8.495  -9.959  1.00  0.00     0.058 A 
ATOM     65  C   UNL     1      -2.986   8.543 -11.255  1.00  0.00     0.135 A 
ATOM     66  C   UNL     1      -1.608   7.376  -9.694  1.00  0.00     0.135 A 
ATOM     67  F   UNL     1      -3.798   9.552 -11.611  1.00  0.00    -0.206 F 
ATOM     68  C   UNL     1      -2.782   7.534 -12.198  1.00  0.00     0.059 A 
ATOM     69  C   UNL     1      -1.351   6.384 -10.636  1.00  0.00     0.059 A 
ATOM     70  F   UNL     1      -1.099   7.141  -8.478  1.00  0.00    -0.206 F 
ATOM     71  C   UNL     1      -1.967   6.453 -11.875  1.00  0.00     0.060 A 
BRANCH  71  72
ATOM     72  S   UNL     1      -1.745   5.122 -13.069  1.00  0.00     0.124 S 
ATOM     73  O   UNL     1      -3.067   4.507 -13.075  1.00  0.00    -0.237 OA
ATOM     74  O   UNL     1      -1.374   5.855 -14.275  1.00  0.00    -0.237 OA
ATOM     75  O   UNL     1      -0.677   4.319 -12.480  1.00  0.00    -0.744 OA
ENDBRANCH  71  72
ENDBRANCH  50  64
BRANCH  51  76
ATOM     76  C   UNL     1      -5.652   3.814  -3.901  1.00  0.00     0.058 A 
ATOM     77  C   UNL     1      -6.671   2.866  -4.089  1.00  0.00     0.135 A 
ATOM     78  C   UNL     1      -4.368   3.314  -3.623  1.00  0.00     0.135 A 
ATOM     79  F   UNL     1      -7.908   3.265  -4.419  1.00  0.00    -0.206 F 
ATOM     80  C   UNL     1      -6.428   1.490  -4.000  1.00  0.00     0.059 A 
ATOM     81  C   UNL     1      -4.099   1.951  -3.550  1.00  0.00     0.059 A 
ATOM     82  F   UNL     1      -3.326   4.151  -3.502  1.00  0.00    -0.206 F 
ATOM     83  C   UNL     1      -5.133   1.042  -3.739  1.00  0.00     0.060 A 
BRANCH  83  84
ATOM     84  S   UNL     1      -4.798  -0.733  -3.649  1.00  0.00     0.124 S 
ATOM     85  O   UNL     1      -5.842  -1.197  -2.741  1.00  0.00    -0.237 OA
ATOM     86  O   UNL     1      -4.938  -1.137  -5.043  1.00  0.00    -0.237 OA
ATOM     87  O   UNL     1      -3.443  -0.796  -3.106  1.00  0.00    -0.744 OA
ENDBRANCH  83  84
ENDBRANCH  51  76
BRANCH  63  88
ATOM     88  C   UNL     1      -8.282   9.119  -6.318  1.00  0.00     0.058 A 
ATOM     89  C   UNL     1      -8.237   9.335  -4.931  1.00  0.00     0.135 A 
ATOM     90  C   UNL     1      -9.391   9.621  -7.015  1.00  0.00     0.135 A 
ATOM     91  F   UNL     1      -7.180   8.944  -4.205  1.00  0.00    -0.206 F 
ATOM     92  C   UNL     1      -9.271  10.000  -4.265  1.00  0.00     0.059 A 
ATOM     93  C   UNL     1     -10.415  10.309  -6.378  1.00  0.00     0.059 A 
ATOM     94  F   UNL     1      -9.471   9.472  -8.348  1.00  0.00    -0.206 F 
ATOM     95  C   UNL     1     -10.355  10.485  -4.999  1.00  0.00     0.060 A 
BRANCH  95  96
ATOM     96  S   UNL     1     -11.663  11.398  -4.153  1.00  0.00     0.124 S 
ATOM     97  O   UNL     1     -12.322  10.349  -3.382  1.00  0.00    -0.237 OA
ATOM     98  O   UNL     1     -10.912  12.380  -3.377  1.00  0.00    -0.237 OA
ATOM     99  O   UNL     1     -12.454  11.955  -5.248  1.00  0.00    -0.744 OA
ENDBRANCH  95  96
ENDBRANCH  63  88
ENDBRANCH  37  38
ENDBRANCH  29  32
ENDBRANCH  27  28
ENDBRANCH  26  27
ENDBRANCH   1  26
TORSDOF 18
