REMARK SMILES COc1cc(/C=C2/CCc3cc(OC(C)(C)C(=O)NCCCCCCNC(=O)c4ccc(-c5c6nc(c(-c7c(F)cc(S(=O)(=O)[O-])cc7F)c7ccc([nH]7)c(-c7c(F)cc(S(=O)(=O)[O-])cc7F)c7nc(c(-c8c(F)cc(S(=O)(=O)[O-])cc8F)c8ccc5[nH]8)C=C7)C=C6)cc4)ccc3C2=O)cc(OC)c1O
REMARK SMILES IDX 22 1 21 2 20 3 19 4 17 5 18 6 14 8 15 9 16 10 13 11 12 12
REMARK SMILES IDX 6 13 7 14 8 15 98 16 9 17 97 18 99 19 10 20 96 21 11 22
REMARK SMILES IDX 95 23 5 24 3 25 4 26 104 27 101 28 100 29 2 30 1 31 105 32
REMARK SMILES IDX 102 34 103 35 23 36 24 37 25 38 26 39 27 40 28 42 29 43
REMARK SMILES IDX 30 44 94 45 31 46 93 47 32 48 33 49 34 50 87 51 35 52 92 53
REMARK SMILES IDX 86 54 88 55 36 56 91 57 85 58 84 59 37 61 71 62 50 63 70 64
REMARK SMILES IDX 51 65 54 66 69 67 89 68 52 69 53 70 68 72 90 73 55 74 38 75
REMARK SMILES IDX 39 76 48 77 40 78 41 79 47 80 49 81 42 82 43 83 44 84 45 85
REMARK SMILES IDX 46 86 72 87 73 88 82 89 74 90 75 91 81 92 83 93 76 94 77 95
REMARK SMILES IDX 78 96 79 97 80 98 56 99 57 100 66 101 58 102 59 103 65 104
REMARK SMILES IDX 67 105 60 106 61 107 62 108 63 109 64 110
REMARK H PARENT 19 7 105 33 26 41 88 60 54 71
REMARK Flexibility Score: inf
ROOT
ATOM      1  C   UNL     1       4.141   0.373   0.824  1.00  0.00     0.002 C 
ENDROOT
BRANCH   1   2
ATOM      2  C   UNL     1       3.439  -0.580  -0.138  1.00  0.00     0.021 C 
BRANCH   2   3
ATOM      3  C   UNL     1       4.174  -1.782  -0.755  1.00  0.00     0.116 C 
BRANCH   3   4
ATOM      4  N   UNL     1       4.919  -2.722   0.090  1.00  0.00    -0.353 N 
ATOM      5  C   UNL     1       5.430  -3.981  -0.309  1.00  0.00     0.263 C 
ATOM      6  O   UNL     1       6.617  -4.194  -0.030  1.00  0.00    -0.270 OA
ATOM      7  H   UNL     1       5.079  -2.452   1.023  1.00  0.00     0.163 HD
BRANCH   5   8
ATOM      8  C   UNL     1       4.445  -5.197  -0.734  1.00  0.00     0.181 C 
ATOM      9  C   UNL     1       3.452  -4.614  -1.739  1.00  0.00     0.067 C 
ATOM     10  C   UNL     1       3.997  -5.485   0.727  1.00  0.00     0.067 C 
BRANCH   8  11
ATOM     11  O   UNL     1       5.000  -6.415  -1.389  1.00  0.00    -0.478 OA
BRANCH  11  12
ATOM     12  C   UNL     1       4.149  -7.538  -1.362  1.00  0.00     0.121 A 
ATOM     13  C   UNL     1      -0.888  -6.583   0.996  1.00  0.00     0.016 C 
ATOM     14  C   UNL     1      -0.273  -7.366   0.076  1.00  0.00     0.001 C 
ATOM     15  C   UNL     1      -0.720  -8.150  -1.158  1.00  0.00     0.044 C 
ATOM     16  C   UNL     1       1.173  -7.259   0.019  1.00  0.00     0.189 C 
ATOM     17  C   UNL     1       0.427  -8.204  -2.329  1.00  0.00     0.041 C 
ATOM     18  C   UNL     1       1.865  -8.527  -0.395  1.00  0.00     0.026 A 
ATOM     19  O   UNL     1       1.646  -6.150  -0.203  1.00  0.00    -0.289 OA
ATOM     20  C   UNL     1       1.865  -8.336  -1.771  1.00  0.00    -0.033 A 
ATOM     21  C   UNL     1       3.040  -8.830   0.289  1.00  0.00     0.016 A 
ATOM     22  C   UNL     1       3.057  -7.748  -2.266  1.00  0.00     0.051 A 
ATOM     23  C   UNL     1       4.229  -8.320  -0.211  1.00  0.00     0.047 A 
BRANCH  13  24
ATOM     24  C   UNL     1      -0.186  -5.393   1.612  1.00  0.00    -0.018 A 
ATOM     25  C   UNL     1       0.572  -3.140   1.076  1.00  0.00     0.165 A 
ATOM     26  C   UNL     1      -0.258  -4.229   0.824  1.00  0.00     0.058 A 
ATOM     27  C   UNL     1       1.440  -3.148   2.173  1.00  0.00     0.200 A 
ATOM     28  C   UNL     1       1.560  -4.285   2.976  1.00  0.00     0.165 A 
ATOM     29  C   UNL     1       0.737  -5.408   2.687  1.00  0.00     0.058 A 
BRANCH  25  30
ATOM     30  O   UNL     1       0.775  -2.230   0.068  1.00  0.00    -0.493 OA
ATOM     31  C   UNL     1      -0.261  -1.266  -0.048  1.00  0.00     0.278 C 
ENDBRANCH  25  30
BRANCH  27  32
ATOM     32  O   UNL     1       2.247  -2.062   2.366  1.00  0.00    -0.502 OA
ATOM     33  H   UNL     1       2.154  -1.307   1.820  1.00  0.00     0.293 HD
ENDBRANCH  27  32
BRANCH  28  34
ATOM     34  O   UNL     1       2.495  -4.472   3.974  1.00  0.00    -0.493 OA
ATOM     35  C   UNL     1       3.600  -3.562   4.071  1.00  0.00     0.278 C 
ENDBRANCH  28  34
ENDBRANCH  13  24
ENDBRANCH  11  12
ENDBRANCH   8  11
ENDBRANCH   5   8
ENDBRANCH   3   4
ENDBRANCH   2   3
ENDBRANCH   1   2
BRANCH   1  36
ATOM     36  C   UNL     1       4.365   1.784   0.261  1.00  0.00     0.002 C 
BRANCH  36  37
ATOM     37  C   UNL     1       3.160   2.472  -0.406  1.00  0.00     0.021 C 
BRANCH  37  38
ATOM     38  C   UNL     1       1.896   2.572   0.446  1.00  0.00     0.116 C 
BRANCH  38  39
ATOM     39  N   UNL     1       2.017   3.632   1.433  1.00  0.00    -0.352 N 
ATOM     40  C   UNL     1       1.329   4.825   1.475  1.00  0.00     0.251 C 
ATOM     41  H   UNL     1       2.667   3.479   2.156  1.00  0.00     0.163 HD
ATOM     42  O   UNL     1       1.725   5.755   2.155  1.00  0.00    -0.269 OA
BRANCH  40  43
ATOM     43  C   UNL     1       0.089   4.952   0.677  1.00  0.00     0.039 A 
ATOM     44  C   UNL     1      -0.043   6.002  -0.233  1.00  0.00     0.014 A 
ATOM     45  C   UNL     1      -0.936   4.014   0.838  1.00  0.00     0.014 A 
ATOM     46  C   UNL     1      -1.202   6.095  -1.009  1.00  0.00     0.010 A 
ATOM     47  C   UNL     1      -2.066   4.080   0.026  1.00  0.00     0.010 A 
ATOM     48  C   UNL     1      -2.216   5.129  -0.896  1.00  0.00    -0.014 A 
BRANCH  48  49
ATOM     49  C   UNL     1      -3.455   5.223  -1.713  1.00  0.00     0.031 A 
ATOM     50  C   UNL     1      -4.778   5.479  -1.041  1.00  0.00     0.074 A 
ATOM     51  C   UNL     1      -3.396   5.049  -3.048  1.00  0.00     0.049 A 
ATOM     52  N   UNL     1      -5.971   5.564  -1.570  1.00  0.00    -0.248 NA
ATOM     53  C   UNL     1      -4.760   5.639   0.423  1.00  0.00     0.031 C 
ATOM     54  C   UNL     1      -2.178   4.763  -3.809  1.00  0.00     0.029 A 
ATOM     55  N   UNL     1      -4.382   5.082  -4.003  1.00  0.00    -0.354 N 
ATOM     56  C   UNL     1      -6.843   5.783  -0.509  1.00  0.00     0.074 A 
ATOM     57  C   UNL     1      -6.050   5.758   0.700  1.00  0.00     0.031 C 
ATOM     58  C   UNL     1      -2.485   4.669  -5.113  1.00  0.00     0.029 A 
ATOM     59  C   UNL     1      -3.925   4.849  -5.280  1.00  0.00     0.049 A 
ATOM     60  H   UNL     1      -5.328   5.257  -3.794  1.00  0.00     0.167 HD
ATOM     61  C   UNL     1      -8.178   6.009  -0.542  1.00  0.00     0.037 A 
ATOM     62  C   UNL     1      -4.591   4.780  -6.450  1.00  0.00     0.037 A 
ATOM     63  C   UNL     1      -8.956   6.048  -1.753  1.00  0.00     0.049 A 
ATOM     64  C   UNL     1      -6.080   5.009  -6.458  1.00  0.00     0.074 A 
ATOM     65  C   UNL     1     -10.306   6.315  -1.899  1.00  0.00     0.029 A 
ATOM     66  N   UNL     1      -8.456   5.810  -3.025  1.00  0.00    -0.354 N 
ATOM     67  N   UNL     1      -6.878   5.276  -5.451  1.00  0.00    -0.248 NA
ATOM     68  C   UNL     1      -6.759   4.936  -7.759  1.00  0.00     0.031 C 
ATOM     69  C   UNL     1     -10.634   6.181  -3.251  1.00  0.00     0.029 A 
ATOM     70  C   UNL     1      -9.476   5.896  -3.958  1.00  0.00     0.049 A 
ATOM     71  H   UNL     1      -7.516   5.609  -3.234  1.00  0.00     0.167 HD
ATOM     72  C   UNL     1      -8.146   5.435  -6.002  1.00  0.00     0.074 A 
ATOM     73  C   UNL     1      -8.006   5.245  -7.430  1.00  0.00     0.031 C 
ATOM     74  C   UNL     1      -9.319   5.717  -5.381  1.00  0.00     0.037 A 
BRANCH  61  75
ATOM     75  C   UNL     1      -8.885   6.231   0.768  1.00  0.00     0.058 A 
ATOM     76  C   UNL     1      -8.677   7.391   1.534  1.00  0.00     0.135 A 
ATOM     77  C   UNL     1      -9.817   5.295   1.245  1.00  0.00     0.135 A 
ATOM     78  F   UNL     1      -7.787   8.314   1.136  1.00  0.00    -0.206 F 
ATOM     79  C   UNL     1      -9.346   7.601   2.735  1.00  0.00     0.059 A 
ATOM     80  C   UNL     1     -10.522   5.499   2.428  1.00  0.00     0.059 A 
ATOM     81  F   UNL     1     -10.056   4.168   0.555  1.00  0.00    -0.206 F 
ATOM     82  C   UNL     1     -10.269   6.649   3.173  1.00  0.00     0.060 A 
BRANCH  82  83
ATOM     83  S   UNL     1     -11.139   6.946   4.727  1.00  0.00     0.124 S 
ATOM     84  O   UNL     1     -10.068   6.758   5.700  1.00  0.00    -0.237 OA
ATOM     85  O   UNL     1     -11.612   8.316   4.561  1.00  0.00    -0.237 OA
ATOM     86  O   UNL     1     -12.180   5.923   4.736  1.00  0.00    -0.744 OA
ENDBRANCH  82  83
ENDBRANCH  61  75
BRANCH  62  87
ATOM     87  C   UNL     1      -3.856   4.493  -7.713  1.00  0.00     0.058 A 
ATOM     88  C   UNL     1      -3.725   5.466  -8.715  1.00  0.00     0.135 A 
ATOM     89  C   UNL     1      -3.269   3.238  -7.943  1.00  0.00     0.135 A 
ATOM     90  F   UNL     1      -4.274   6.679  -8.547  1.00  0.00    -0.206 F 
ATOM     91  C   UNL     1      -3.059   5.201  -9.908  1.00  0.00     0.059 A 
ATOM     92  C   UNL     1      -2.573   2.959  -9.115  1.00  0.00     0.059 A 
ATOM     93  F   UNL     1      -3.351   2.275  -7.012  1.00  0.00    -0.206 F 
ATOM     94  C   UNL     1      -2.484   3.944 -10.097  1.00  0.00     0.060 A 
BRANCH  94  95
ATOM     95  S   UNL     1      -1.589   3.623 -11.633  1.00  0.00     0.124 S 
ATOM     96  O   UNL     1      -2.679   3.555 -12.599  1.00  0.00    -0.237 OA
ATOM     97  O   UNL     1      -0.719   4.791 -11.729  1.00  0.00    -0.237 OA
ATOM     98  O   UNL     1      -0.904   2.361 -11.364  1.00  0.00    -0.744 OA
ENDBRANCH  94  95
ENDBRANCH  62  87
BRANCH  74  99
ATOM     99  C   UNL     1     -10.543   5.883  -6.240  1.00  0.00     0.058 A 
ATOM    100  C   UNL     1     -11.161   4.791  -6.870  1.00  0.00     0.135 A 
ATOM    101  C   UNL     1     -11.145   7.145  -6.377  1.00  0.00     0.135 A 
ATOM    102  F   UNL     1     -10.624   3.564  -6.778  1.00  0.00    -0.206 F 
ATOM    103  C   UNL     1     -12.322   4.948  -7.620  1.00  0.00     0.059 A 
ATOM    104  C   UNL     1     -12.324   7.319  -7.094  1.00  0.00     0.059 A 
ATOM    105  F   UNL     1     -10.601   8.221  -5.787  1.00  0.00    -0.206 F 
ATOM    106  C   UNL     1     -12.900   6.215  -7.720  1.00  0.00     0.060 A 
BRANCH 106 107
ATOM    107  S   UNL     1     -14.434   6.393  -8.655  1.00  0.00     0.124 S 
ATOM    108  O   UNL     1     -13.964   6.224 -10.027  1.00  0.00    -0.237 OA
ATOM    109  O   UNL     1     -15.249   5.305  -8.125  1.00  0.00    -0.237 OA
ATOM    110  O   UNL     1     -14.890   7.737  -8.310  1.00  0.00    -0.744 OA
ENDBRANCH 106 107
ENDBRANCH  74  99
ENDBRANCH  48  49
ENDBRANCH  40  43
ENDBRANCH  38  39
ENDBRANCH  37  38
ENDBRANCH  36  37
ENDBRANCH   1  36
TORSDOF 22
