REMARK SMILES C[C@H](C(=O)NCCCCCCNC(=O)c1ccc(-c2c3nc(c(-c4c(F)cc(S(=O)(=O)[O-])cc4F)c4ccc([nH]4)c(-c4c(F)cc(S(=O)(=O)[O-])cc4F)c4nc(c(-c5c(F)cc(S(=O)(=O)[O-])cc5F)c5ccc2[nH]5)C=C4)C=C3)cc1)c1ccc2c(c1)OCCO2
REMARK SMILES IDX 9 1 8 2 7 3 6 4 5 5 3 6 4 7 2 9 1 10 81 11 82 12 86 13 83 14
REMARK SMILES IDX 85 15 84 16 87 17 90 18 88 19 89 20 10 21 11 22 12 23 13 24
REMARK SMILES IDX 14 26 15 27 16 28 80 29 17 30 79 31 18 32 19 33 20 34 73 35
REMARK SMILES IDX 21 36 78 37 72 38 74 39 22 40 77 41 71 42 70 43 23 45 57 46
REMARK SMILES IDX 36 47 56 48 37 49 40 50 55 51 75 52 38 53 39 54 54 56 76 57
REMARK SMILES IDX 41 58 24 59 25 60 34 61 26 62 27 63 33 64 35 65 28 66 29 67
REMARK SMILES IDX 30 68 31 69 32 70 58 71 59 72 68 73 60 74 61 75 67 76 69 77
REMARK SMILES IDX 62 78 63 79 64 80 65 81 66 82 42 83 43 84 52 85 44 86 45 87
REMARK SMILES IDX 51 88 53 89 46 90 47 91 48 92 49 93 50 94
REMARK H PARENT 5 8 12 25 74 44 40 55
REMARK Flexibility Score: inf
ROOT
ATOM      1  C   UNL     1      -1.323   4.826  -0.018  1.00  0.00     0.002 C 
ENDROOT
BRANCH   1   2
ATOM      2  C   UNL     1      -1.490   3.491   0.718  1.00  0.00     0.002 C 
BRANCH   2   3
ATOM      3  C   UNL     1      -1.440   2.263  -0.193  1.00  0.00     0.021 C 
BRANCH   3   4
ATOM      4  C   UNL     1      -0.071   2.069  -0.845  1.00  0.00     0.116 C 
BRANCH   4   5
ATOM      5  N   UNL     1       0.814   1.355   0.049  1.00  0.00    -0.356 N 
ATOM      6  C   UNL     1       1.040   0.010   0.126  1.00  0.00     0.227 C 
ATOM      7  O   UNL     1       1.718  -0.401   1.070  1.00  0.00    -0.274 OA
ATOM      8  H   UNL     1       1.319   1.911   0.685  1.00  0.00     0.163 HD
BRANCH   6   9
ATOM      9  C   UNL     1       0.516  -0.908  -0.980  1.00  0.00     0.105 C 
ATOM     10  C   UNL     1       1.360  -2.198  -1.040  1.00  0.00     0.023 C 
BRANCH   9  11
ATOM     11  C   UNL     1      -0.967  -1.256  -0.880  1.00  0.00    -0.032 A 
ATOM     12  C   UNL     1      -1.890  -0.670  -1.776  1.00  0.00     0.008 A 
ATOM     13  C   UNL     1      -1.398  -2.310  -0.064  1.00  0.00     0.055 A 
ATOM     14  C   UNL     1      -3.176  -1.179  -1.928  1.00  0.00     0.051 A 
ATOM     15  C   UNL     1      -2.610  -2.924  -0.348  1.00  0.00     0.161 A 
ATOM     16  C   UNL     1      -3.482  -2.364  -1.286  1.00  0.00     0.161 A 
ATOM     17  O   UNL     1      -2.811  -4.170   0.181  1.00  0.00    -0.486 OA
ATOM     18  O   UNL     1      -4.544  -3.092  -1.765  1.00  0.00    -0.486 OA
ATOM     19  C   UNL     1      -3.564  -5.030  -0.693  1.00  0.00     0.271 C 
ATOM     20  C   UNL     1      -3.999  -4.394  -2.013  1.00  0.00     0.271 C 
ENDBRANCH   9  11
ENDBRANCH   6   9
ENDBRANCH   4   5
ENDBRANCH   3   4
ENDBRANCH   2   3
ENDBRANCH   1   2
BRANCH   1  21
ATOM     21  C   UNL     1      -2.329   5.066  -1.147  1.00  0.00     0.021 C 
BRANCH  21  22
ATOM     22  C   UNL     1      -3.786   5.045  -0.696  1.00  0.00     0.116 C 
BRANCH  22  23
ATOM     23  N   UNL     1      -4.053   6.101   0.268  1.00  0.00    -0.352 N 
ATOM     24  C   UNL     1      -4.882   7.189   0.153  1.00  0.00     0.251 C 
ATOM     25  H   UNL     1      -3.572   6.025   1.124  1.00  0.00     0.163 HD
ATOM     26  O   UNL     1      -4.775   8.130   0.932  1.00  0.00    -0.269 OA
BRANCH  24  27
ATOM     27  C   UNL     1      -5.901   7.216  -0.916  1.00  0.00     0.039 A 
ATOM     28  C   UNL     1      -6.096   8.391  -1.645  1.00  0.00     0.014 A 
ATOM     29  C   UNL     1      -6.677   6.084  -1.181  1.00  0.00     0.014 A 
ATOM     30  C   UNL     1      -7.041   8.415  -2.673  1.00  0.00     0.010 A 
ATOM     31  C   UNL     1      -7.562   6.087  -2.252  1.00  0.00     0.010 A 
ATOM     32  C   UNL     1      -7.764   7.256  -3.000  1.00  0.00    -0.014 A 
BRANCH  32  33
ATOM     33  C   UNL     1      -8.756   7.246  -4.104  1.00  0.00     0.031 A 
ATOM     34  C   UNL     1     -10.209   6.991  -3.802  1.00  0.00     0.074 A 
ATOM     35  C   UNL     1      -8.342   7.390  -5.378  1.00  0.00     0.049 A 
ATOM     36  N   UNL     1     -11.211   6.845  -4.628  1.00  0.00    -0.248 NA
ATOM     37  C   UNL     1     -10.575   6.853  -2.383  1.00  0.00     0.031 C 
ATOM     38  C   UNL     1      -6.955   7.601  -5.798  1.00  0.00     0.029 A 
ATOM     39  N   UNL     1      -9.045   7.366  -6.556  1.00  0.00    -0.354 N 
ATOM     40  C   UNL     1     -12.321   6.579  -3.834  1.00  0.00     0.074 A 
ATOM     41  C   UNL     1     -11.857   6.530  -2.464  1.00  0.00     0.031 C 
ATOM     42  C   UNL     1      -6.912   7.702  -7.136  1.00  0.00     0.029 A 
ATOM     43  C   UNL     1      -8.258   7.523  -7.672  1.00  0.00     0.049 A 
ATOM     44  H   UNL     1     -10.022   7.247  -6.598  1.00  0.00     0.167 HD
ATOM     45  C   UNL     1     -13.611   6.413  -4.209  1.00  0.00     0.037 A 
ATOM     46  C   UNL     1      -8.582   7.512  -8.979  1.00  0.00     0.037 A 
ATOM     47  C   UNL     1     -14.066   6.487  -5.573  1.00  0.00     0.049 A 
ATOM     48  C   UNL     1     -10.022   7.323  -9.375  1.00  0.00     0.074 A 
ATOM     49  C   UNL     1     -15.359   6.389  -6.056  1.00  0.00     0.029 A 
ATOM     50  N   UNL     1     -13.241   6.674  -6.674  1.00  0.00    -0.354 N 
ATOM     51  N   UNL     1     -11.068   7.130  -8.607  1.00  0.00    -0.248 NA
ATOM     52  C   UNL     1     -10.327   7.358 -10.811  1.00  0.00     0.031 C 
ATOM     53  C   UNL     1     -15.311   6.469  -7.452  1.00  0.00     0.029 A 
ATOM     54  C   UNL     1     -13.995   6.674  -7.836  1.00  0.00     0.049 A 
ATOM     55  H   UNL     1     -12.264   6.790  -6.634  1.00  0.00     0.167 HD
ATOM     56  C   UNL     1     -12.160   7.051  -9.465  1.00  0.00     0.074 A 
ATOM     57  C   UNL     1     -11.647   7.225 -10.809  1.00  0.00     0.031 C 
ATOM     58  C   UNL     1     -13.469   6.857  -9.167  1.00  0.00     0.037 A 
BRANCH  45  59
ATOM     59  C   UNL     1     -14.621   6.132  -3.128  1.00  0.00     0.058 A 
ATOM     60  C   UNL     1     -14.980   7.105  -2.180  1.00  0.00     0.135 A 
ATOM     61  C   UNL     1     -15.252   4.880  -3.049  1.00  0.00     0.135 A 
ATOM     62  F   UNL     1     -14.398   8.315  -2.199  1.00  0.00    -0.206 F 
ATOM     63  C   UNL     1     -15.898   6.835  -1.171  1.00  0.00     0.059 A 
ATOM     64  C   UNL     1     -16.198   4.598  -2.066  1.00  0.00     0.059 A 
ATOM     65  F   UNL     1     -14.950   3.913  -3.928  1.00  0.00    -0.206 F 
ATOM     66  C   UNL     1     -16.500   5.577  -1.121  1.00  0.00     0.060 A 
BRANCH  66  67
ATOM     67  S   UNL     1     -17.684   5.241   0.200  1.00  0.00     0.124 S 
ATOM     68  O   UNL     1     -16.803   5.125   1.357  1.00  0.00    -0.237 OA
ATOM     69  O   UNL     1     -18.534   6.427   0.167  1.00  0.00    -0.237 OA
ATOM     70  O   UNL     1     -18.327   4.002  -0.226  1.00  0.00    -0.744 OA
ENDBRANCH  66  67
ENDBRANCH  45  59
BRANCH  46  71
ATOM     71  C   UNL     1      -7.523   7.709 -10.005  1.00  0.00     0.058 A 
ATOM     72  C   UNL     1      -7.452   8.896 -10.749  1.00  0.00     0.135 A 
ATOM     73  C   UNL     1      -6.545   6.731 -10.241  1.00  0.00     0.135 A 
ATOM     74  F   UNL     1      -8.368   9.858 -10.565  1.00  0.00    -0.206 F 
ATOM     75  C   UNL     1      -6.457   9.103 -11.699  1.00  0.00     0.059 A 
ATOM     76  C   UNL     1      -5.524   6.925 -11.166  1.00  0.00     0.059 A 
ATOM     77  F   UNL     1      -6.557   5.584  -9.542  1.00  0.00    -0.206 F 
ATOM     78  C   UNL     1      -5.493   8.112 -11.896  1.00  0.00     0.060 A 
BRANCH  78  79
ATOM     79  S   UNL     1      -4.170   8.417 -13.087  1.00  0.00     0.124 S 
ATOM     80  O   UNL     1      -4.882   8.306 -14.354  1.00  0.00    -0.237 OA
ATOM     81  O   UNL     1      -3.728   9.758 -12.716  1.00  0.00    -0.237 OA
ATOM     82  O   UNL     1      -3.213   7.351 -12.805  1.00  0.00    -0.744 OA
ENDBRANCH  78  79
ENDBRANCH  46  71
BRANCH  58  83
ATOM     83  C   UNL     1     -14.450   6.863 -10.307  1.00  0.00     0.058 A 
ATOM     84  C   UNL     1     -14.534   5.800 -11.218  1.00  0.00     0.135 A 
ATOM     85  C   UNL     1     -15.362   7.922 -10.449  1.00  0.00     0.135 A 
ATOM     86  F   UNL     1     -13.682   4.766 -11.131  1.00  0.00    -0.206 F 
ATOM     87  C   UNL     1     -15.474   5.795 -12.244  1.00  0.00     0.059 A 
ATOM     88  C   UNL     1     -16.329   7.925 -11.449  1.00  0.00     0.059 A 
ATOM     89  F   UNL     1     -15.332   8.960  -9.598  1.00  0.00    -0.206 F 
ATOM     90  C   UNL     1     -16.370   6.861 -12.348  1.00  0.00     0.060 A 
BRANCH  90  91
ATOM     91  S   UNL     1     -17.612   6.822 -13.658  1.00  0.00     0.124 S 
ATOM     92  O   UNL     1     -16.803   7.102 -14.839  1.00  0.00    -0.237 OA
ATOM     93  O   UNL     1     -18.132   5.462 -13.555  1.00  0.00    -0.237 OA
ATOM     94  O   UNL     1     -18.547   7.875 -13.273  1.00  0.00    -0.744 OA
ENDBRANCH  90  91
ENDBRANCH  58  83
ENDBRANCH  32  33
ENDBRANCH  24  27
ENDBRANCH  22  23
ENDBRANCH  21  22
ENDBRANCH   1  21
TORSDOF 17
