REMARK SMILES CCN(C[C@H](C)C(=O)NCCCCCCNC(=O)c1ccc(-c2c3nc(c(-c4c(F)cc(S(=O)(=O)[O-])cc4F)c4ccc([nH]4)c(-c4c(F)cc(S(=O)(=O)[O-])cc4F)c4nc(c(-c5c(F)cc(S(=O)(=O)[O-])cc5F)c5ccc2[nH]5)C=C4)C=C3)cc1)c1ccc(C(=O)NC)nn1
REMARK SMILES IDX 12 1 11 2 10 3 9 4 7 5 8 6 5 8 6 9 4 10 3 11 2 12 1 13 85 14
REMARK SMILES IDX 86 15 94 16 87 17 93 18 88 19 89 20 90 21 91 22 92 23 13 25
REMARK SMILES IDX 14 26 15 27 16 28 17 29 18 31 19 32 20 33 84 34 21 35 83 36
REMARK SMILES IDX 22 37 23 38 24 39 77 40 25 41 82 42 76 43 78 44 26 45 81 46
REMARK SMILES IDX 75 47 74 48 27 50 61 51 40 52 60 53 41 54 44 55 59 56 79 57
REMARK SMILES IDX 42 58 43 59 58 61 80 62 45 63 28 64 29 65 38 66 30 67 31 68
REMARK SMILES IDX 37 69 39 70 32 71 33 72 34 73 35 74 36 75 62 76 63 77 72 78
REMARK SMILES IDX 64 79 65 80 71 81 73 82 66 83 67 84 68 85 69 86 70 87 46 88
REMARK SMILES IDX 47 89 56 90 48 91 49 92 55 93 57 94 50 95 51 96 52 97 53 98
REMARK SMILES IDX 54 99
REMARK H PARENT 9 7 91 24 16 30 78 49 44 60
REMARK Flexibility Score: inf
ROOT
ATOM      1  C   UNL     1      -1.598   4.745  -5.541  1.00  0.00     0.002 C 
ENDROOT
BRANCH   1   2
ATOM      2  C   UNL     1      -0.767   3.897  -4.572  1.00  0.00     0.021 C 
BRANCH   2   3
ATOM      3  C   UNL     1       0.078   4.725  -3.609  1.00  0.00     0.116 C 
BRANCH   3   4
ATOM      4  N   UNL     1      -0.773   5.399  -2.647  1.00  0.00    -0.356 N 
ATOM      5  C   UNL     1      -0.871   5.255  -1.299  1.00  0.00     0.224 C 
ATOM      6  O   UNL     1      -1.939   5.587  -0.777  1.00  0.00    -0.275 OA
ATOM      7  H   UNL     1      -1.379   6.071  -3.035  1.00  0.00     0.163 HD
BRANCH   5   8
ATOM      8  C   UNL     1       0.241   4.625  -0.472  1.00  0.00     0.095 C 
ATOM      9  C   UNL     1       0.143   3.099  -0.589  1.00  0.00     0.020 C 
BRANCH   8  10
ATOM     10  C   UNL     1       1.642   5.180  -0.799  1.00  0.00     0.131 C 
BRANCH  10  11
ATOM     11  N   UNL     1       2.036   6.362  -0.021  1.00  0.00    -0.355 N 
BRANCH  11  12
ATOM     12  C   UNL     1       3.077   6.266   0.992  1.00  0.00     0.115 C 
ATOM     13  C   UNL     1       4.352   6.982   0.570  1.00  0.00     0.027 C 
ENDBRANCH  11  12
BRANCH  11  14
ATOM     14  C   UNL     1       1.361   7.553  -0.204  1.00  0.00     0.151 A 
ATOM     15  C   UNL     1       1.919   8.592  -0.939  1.00  0.00     0.051 A 
ATOM     16  N   UNL     1       0.127   7.718   0.300  1.00  0.00    -0.132 NA
ATOM     17  C   UNL     1       1.200   9.772  -1.173  1.00  0.00     0.040 A 
ATOM     18  N   UNL     1      -0.598   8.886   0.081  1.00  0.00    -0.143 NA
ATOM     19  C   UNL     1      -0.069   9.895  -0.640  1.00  0.00     0.150 A 
BRANCH  19  20
ATOM     20  C   UNL     1      -0.989  11.046  -0.891  1.00  0.00     0.271 C 
ATOM     21  O   UNL     1      -2.207  10.862  -0.941  1.00  0.00    -0.267 OA
ATOM     22  N   UNL     1      -0.562  12.340  -1.084  1.00  0.00    -0.354 N 
ATOM     23  C   UNL     1       0.725  12.978  -0.945  1.00  0.00     0.143 C 
ATOM     24  H   UNL     1      -1.276  12.952  -1.375  1.00  0.00     0.163 HD
ENDBRANCH  19  20
ENDBRANCH  11  14
ENDBRANCH  10  11
ENDBRANCH   8  10
ENDBRANCH   5   8
ENDBRANCH   3   4
ENDBRANCH   2   3
ENDBRANCH   1   2
BRANCH   1  25
ATOM     25  C   UNL     1      -0.780   5.690  -6.428  1.00  0.00     0.002 C 
BRANCH  25  26
ATOM     26  C   UNL     1       0.333   5.013  -7.232  1.00  0.00     0.021 C 
BRANCH  26  27
ATOM     27  C   UNL     1      -0.141   3.871  -8.126  1.00  0.00     0.116 C 
BRANCH  27  28
ATOM     28  N   UNL     1      -1.089   4.326  -9.129  1.00  0.00    -0.352 N 
ATOM     29  C   UNL     1      -1.042   4.186 -10.495  1.00  0.00     0.251 C 
ATOM     30  H   UNL     1      -1.877   4.803  -8.780  1.00  0.00     0.163 HD
ATOM     31  O   UNL     1      -1.817   4.815 -11.204  1.00  0.00    -0.269 OA
BRANCH  29  32
ATOM     32  C   UNL     1      -0.035   3.290 -11.101  1.00  0.00     0.039 A 
ATOM     33  C   UNL     1       0.692   3.742 -12.204  1.00  0.00     0.014 A 
ATOM     34  C   UNL     1       0.197   2.014 -10.579  1.00  0.00     0.014 A 
ATOM     35  C   UNL     1       1.698   2.938 -12.743  1.00  0.00     0.010 A 
ATOM     36  C   UNL     1       1.249   1.245 -11.070  1.00  0.00     0.010 A 
ATOM     37  C   UNL     1       2.012   1.700 -12.156  1.00  0.00    -0.014 A 
BRANCH  37  38
ATOM     38  C   UNL     1       3.154   0.887 -12.648  1.00  0.00     0.031 A 
ATOM     39  C   UNL     1       2.922  -0.480 -13.231  1.00  0.00     0.074 A 
ATOM     40  C   UNL     1       4.409   1.360 -12.507  1.00  0.00     0.049 A 
ATOM     41  N   UNL     1       3.798  -1.352 -13.659  1.00  0.00    -0.248 NA
ATOM     42  C   UNL     1       1.526  -0.937 -13.323  1.00  0.00     0.031 C 
ATOM     43  C   UNL     1       4.764   2.649 -11.907  1.00  0.00     0.029 A 
ATOM     44  N   UNL     1       5.620   0.810 -12.845  1.00  0.00    -0.354 N 
ATOM     45  C   UNL     1       3.064  -2.463 -14.059  1.00  0.00     0.074 A 
ATOM     46  C   UNL     1       1.675  -2.174 -13.778  1.00  0.00     0.031 C 
ATOM     47  C   UNL     1       6.098   2.797 -11.937  1.00  0.00     0.029 A 
ATOM     48  C   UNL     1       6.698   1.600 -12.516  1.00  0.00     0.049 A 
ATOM     49  H   UNL     1       5.710  -0.068 -13.282  1.00  0.00     0.167 HD
ATOM     50  C   UNL     1       3.509  -3.610 -14.626  1.00  0.00     0.037 A 
ATOM     51  C   UNL     1       8.020   1.380 -12.649  1.00  0.00     0.037 A 
ATOM     52  C   UNL     1       4.893  -3.879 -14.920  1.00  0.00     0.049 A 
ATOM     53  C   UNL     1       8.488   0.095 -13.277  1.00  0.00     0.074 A 
ATOM     54  C   UNL     1       5.436  -4.980 -15.559  1.00  0.00     0.029 A 
ATOM     55  N   UNL     1       5.954  -3.049 -14.587  1.00  0.00    -0.354 N 
ATOM     56  N   UNL     1       7.774  -0.910 -13.726  1.00  0.00    -0.248 NA
ATOM     57  C   UNL     1       9.938  -0.087 -13.422  1.00  0.00     0.031 C 
ATOM     58  C   UNL     1       6.828  -4.845 -15.559  1.00  0.00     0.029 A 
ATOM     59  C   UNL     1       7.150  -3.630 -14.976  1.00  0.00     0.049 A 
ATOM     60  H   UNL     1       5.868  -2.176 -14.140  1.00  0.00     0.167 HD
ATOM     61  C   UNL     1       8.686  -1.832 -14.226  1.00  0.00     0.074 A 
ATOM     62  C   UNL     1      10.003  -1.257 -14.042  1.00  0.00     0.031 C 
ATOM     63  C   UNL     1       8.455  -3.046 -14.786  1.00  0.00     0.037 A 
BRANCH  50  64
ATOM     64  C   UNL     1       2.493  -4.668 -14.965  1.00  0.00     0.058 A 
ATOM     65  C   UNL     1       1.564  -4.497 -16.004  1.00  0.00     0.135 A 
ATOM     66  C   UNL     1       2.487  -5.894 -14.280  1.00  0.00     0.135 A 
ATOM     67  F   UNL     1       1.514  -3.340 -16.684  1.00  0.00    -0.206 F 
ATOM     68  C   UNL     1       0.651  -5.494 -16.335  1.00  0.00     0.059 A 
ATOM     69  C   UNL     1       1.604  -6.916 -14.614  1.00  0.00     0.059 A 
ATOM     70  F   UNL     1       3.353  -6.112 -13.277  1.00  0.00    -0.206 F 
ATOM     71  C   UNL     1       0.682  -6.702 -15.637  1.00  0.00     0.060 A 
BRANCH  71  72
ATOM     72  S   UNL     1      -0.496  -7.991 -16.095  1.00  0.00     0.124 S 
ATOM     73  O   UNL     1      -1.750  -7.427 -15.605  1.00  0.00    -0.237 OA
ATOM     74  O   UNL     1      -0.350  -8.044 -17.546  1.00  0.00    -0.237 OA
ATOM     75  O   UNL     1      -0.013  -9.165 -15.376  1.00  0.00    -0.744 OA
ENDBRANCH  71  72
ENDBRANCH  50  64
BRANCH  51  76
ATOM     76  C   UNL     1       8.995   2.401 -12.179  1.00  0.00     0.058 A 
ATOM     77  C   UNL     1       9.782   3.127 -13.086  1.00  0.00     0.135 A 
ATOM     78  C   UNL     1       9.153   2.679 -10.812  1.00  0.00     0.135 A 
ATOM     79  F   UNL     1       9.674   2.895 -14.403  1.00  0.00    -0.206 F 
ATOM     80  C   UNL     1      10.703   4.077 -12.655  1.00  0.00     0.059 A 
ATOM     81  C   UNL     1      10.045   3.645 -10.358  1.00  0.00     0.059 A 
ATOM     82  F   UNL     1       8.412   2.026  -9.902  1.00  0.00    -0.206 F 
ATOM     83  C   UNL     1      10.825   4.331 -11.288  1.00  0.00     0.060 A 
BRANCH  83  84
ATOM     84  S   UNL     1      11.990   5.598 -10.741  1.00  0.00     0.124 S 
ATOM     85  O   UNL     1      13.270   4.942 -10.977  1.00  0.00    -0.237 OA
ATOM     86  O   UNL     1      11.668   6.712 -11.627  1.00  0.00    -0.237 OA
ATOM     87  O   UNL     1      11.632   5.799  -9.339  1.00  0.00    -0.744 OA
ENDBRANCH  83  84
ENDBRANCH  51  76
BRANCH  63  88
ATOM     88  C   UNL     1       9.649  -3.827 -15.265  1.00  0.00     0.058 A 
ATOM     89  C   UNL     1      10.553  -4.418 -14.370  1.00  0.00     0.135 A 
ATOM     90  C   UNL     1       9.859  -4.033 -16.639  1.00  0.00     0.135 A 
ATOM     91  F   UNL     1      10.404  -4.247 -13.046  1.00  0.00    -0.206 F 
ATOM     92  C   UNL     1      11.639  -5.164 -14.819  1.00  0.00     0.059 A 
ATOM     93  C   UNL     1      10.919  -4.802 -17.110  1.00  0.00     0.059 A 
ATOM     94  F   UNL     1       9.019  -3.499 -17.540  1.00  0.00    -0.206 F 
ATOM     95  C   UNL     1      11.811  -5.353 -16.191  1.00  0.00     0.060 A 
BRANCH  95  96
ATOM     96  S   UNL     1      13.203  -6.353 -16.757  1.00  0.00     0.124 S 
ATOM     97  O   UNL     1      14.330  -5.465 -16.492  1.00  0.00    -0.237 OA
ATOM     98  O   UNL     1      13.109  -7.531 -15.901  1.00  0.00    -0.237 OA
ATOM     99  O   UNL     1      12.905  -6.585 -18.167  1.00  0.00    -0.744 OA
ENDBRANCH  95  96
ENDBRANCH  63  88
ENDBRANCH  37  38
ENDBRANCH  29  32
ENDBRANCH  27  28
ENDBRANCH  26  27
ENDBRANCH  25  26
ENDBRANCH   1  25
TORSDOF 21
