REMARK SMILES COc1ccc([C@H](C(=O)NCCCCCCNC(=O)c2ccc(-c3c4nc(c(-c5c(F)cc(S(=O)(=O)[O-])cc5F)c5ccc([nH]5)c(-c5c(F)cc(S(=O)(=O)[O-])cc5F)c5nc(c(-c6c(F)cc(S(=O)(=O)[O-])cc6F)c6ccc3[nH]6)C=C5)C=C4)cc2)[N@@H+]2CCC[N@H+](Cc3ccccn3)CC2)cn1
REMARK SMILES IDX 12 1 11 2 10 3 8 4 9 5 7 7 6 8 3 9 4 10 101 11 5 12 100 13
REMARK SMILES IDX 2 14 1 15 86 16 87 18 88 19 99 21 98 22 90 23 89 25 91 27
REMARK SMILES IDX 92 28 93 29 97 30 94 31 96 32 95 33 13 34 14 35 15 36 16 37
REMARK SMILES IDX 17 38 18 39 19 41 20 42 21 43 85 44 22 45 84 46 23 47 24 48
REMARK SMILES IDX 25 49 78 50 26 51 83 52 77 53 79 54 27 55 82 56 76 57 75 58
REMARK SMILES IDX 28 60 62 61 41 62 61 63 42 64 45 65 60 66 80 67 43 68 44 69
REMARK SMILES IDX 59 71 81 72 46 73 29 74 30 75 39 76 31 77 32 78 38 79 40 80
REMARK SMILES IDX 33 81 34 82 35 83 36 84 37 85 63 86 64 87 73 88 65 89 66 90
REMARK SMILES IDX 72 91 74 92 67 93 68 94 69 95 70 96 71 97 47 98 48 99 57 100
REMARK SMILES IDX 49 101 50 102 56 103 58 104 51 105 52 106 53 107 54 108
REMARK SMILES IDX 55 109
REMARK H PARENT 10 6 86 17 90 24 17 40 79 59 45 70
REMARK Flexibility Score: 90.00
ROOT
ATOM      1  C   UNL     1       4.447   4.496   1.966  1.00  0.00     0.021 C 
ENDROOT
BRANCH   1   2
ATOM      2  C   UNL     1       3.302   5.019   2.825  1.00  0.00     0.116 C 
BRANCH   2   3
ATOM      3  N   UNL     1       2.148   4.148   2.834  1.00  0.00    -0.351 N 
ATOM      4  C   UNL     1       1.214   4.072   3.838  1.00  0.00     0.283 C 
ATOM      5  O   UNL     1       0.053   3.916   3.457  1.00  0.00    -0.268 OA
ATOM      6  H   UNL     1       2.022   3.559   2.055  1.00  0.00     0.163 HD
BRANCH   4   7
ATOM      7  C   UNL     1       1.683   4.233   5.319  1.00  0.00     0.307 C 
BRANCH   7   8
ATOM      8  C   UNL     1       1.718   5.658   5.821  1.00  0.00     0.038 A 
ATOM      9  C   UNL     1       1.438   8.083   7.078  1.00  0.00     0.212 A 
ATOM     10  C   UNL     1       2.341   7.167   7.597  1.00  0.00     0.069 A 
ATOM     11  N   UNL     1       0.738   7.854   5.947  1.00  0.00    -0.222 NA
ATOM     12  C   UNL     1       2.490   5.949   6.952  1.00  0.00     0.017 A 
ATOM     13  C   UNL     1       0.879   6.653   5.346  1.00  0.00     0.125 A 
BRANCH   9  14
ATOM     14  O   UNL     1       1.106   9.265   7.673  1.00  0.00    -0.481 OA
ATOM     15  C   UNL     1       1.952   9.702   8.723  1.00  0.00     0.280 C 
ENDBRANCH   9  14
ENDBRANCH   7   8
BRANCH   7  16
ATOM     16  N   UNL     1       0.948   3.446   6.363  1.00  0.00    -0.316 N 
ATOM     17  H   UNL     1       0.878   4.021   7.202  1.00  0.00     0.349 HD
BRANCH  16  18
ATOM     18  C   UNL     1       1.717   2.311   6.841  1.00  0.00     0.269 C 
BRANCH  18  19
ATOM     19  C   UNL     1       1.344   1.704   8.196  1.00  0.00     0.123 CG0
ATOM     20  G   UNL     1      -0.005   1.016   8.420  1.00  0.00     0.000 G0
ENDBRANCH  18  19
ENDBRANCH  16  18
BRANCH  16  21
ATOM     21  C   UNL     1      -0.476   3.262   6.084  1.00  0.00     0.325 C 
BRANCH  21  22
ATOM     22  C   UNL     1      -1.347   2.614   7.166  1.00  0.00     0.324 C 
BRANCH  22  23
ATOM     23  N   UNL     1      -1.088   1.215   7.488  1.00  0.00    -0.325 N 
ATOM     24  H   UNL     1      -1.906   0.954   8.039  1.00  0.00     0.348 HD
BRANCH  23  25
ATOM     25  C   UNL     1      -0.005   1.016   8.420  1.00  0.00     0.268 CG0
ATOM     26  G   UNL     1       1.344   1.704   8.196  1.00  0.00     0.000 G0
ENDBRANCH  23  25
BRANCH  23  27
ATOM     27  C   UNL     1      -1.289   0.211   6.429  1.00  0.00     0.319 C 
BRANCH  27  28
ATOM     28  C   UNL     1      -0.186  -0.029   5.408  1.00  0.00     0.095 A 
ATOM     29  C   UNL     1       0.961  -0.755   5.731  1.00  0.00     0.030 A 
ATOM     30  N   UNL     1      -0.336   0.548   4.190  1.00  0.00    -0.255 NA
ATOM     31  C   UNL     1       2.027  -0.775   4.828  1.00  0.00     0.004 A 
ATOM     32  C   UNL     1       0.711   0.523   3.337  1.00  0.00     0.111 A 
ATOM     33  C   UNL     1       1.912  -0.100   3.618  1.00  0.00     0.020 A 
ENDBRANCH  27  28
ENDBRANCH  23  27
ENDBRANCH  22  23
ENDBRANCH  21  22
ENDBRANCH  16  21
ENDBRANCH   7  16
ENDBRANCH   4   7
ENDBRANCH   2   3
ENDBRANCH   1   2
BRANCH   1  34
ATOM     34  C   UNL     1       4.099   4.125   0.519  1.00  0.00     0.002 C 
BRANCH  34  35
ATOM     35  C   UNL     1       3.323   5.167  -0.292  1.00  0.00     0.002 C 
BRANCH  35  36
ATOM     36  C   UNL     1       3.914   6.576  -0.320  1.00  0.00     0.021 C 
BRANCH  36  37
ATOM     37  C   UNL     1       5.372   6.668  -0.748  1.00  0.00     0.116 C 
BRANCH  37  38
ATOM     38  N   UNL     1       5.587   6.204  -2.108  1.00  0.00    -0.352 N 
ATOM     39  C   UNL     1       6.191   6.851  -3.162  1.00  0.00     0.251 C 
ATOM     40  H   UNL     1       5.254   5.299  -2.304  1.00  0.00     0.163 HD
ATOM     41  O   UNL     1       6.147   6.367  -4.285  1.00  0.00    -0.269 OA
BRANCH  39  42
ATOM     42  C   UNL     1       6.865   8.150  -2.934  1.00  0.00     0.039 A 
ATOM     43  C   UNL     1       6.592   9.210  -3.802  1.00  0.00     0.014 A 
ATOM     44  C   UNL     1       7.739   8.329  -1.858  1.00  0.00     0.014 A 
ATOM     45  C   UNL     1       7.133  10.471  -3.543  1.00  0.00     0.010 A 
ATOM     46  C   UNL     1       8.219   9.603  -1.560  1.00  0.00     0.010 A 
ATOM     47  C   UNL     1       7.912  10.689  -2.393  1.00  0.00    -0.014 A 
BRANCH  47  48
ATOM     48  C   UNL     1       8.371  12.055  -2.025  1.00  0.00     0.031 A 
ATOM     49  C   UNL     1       9.838  12.379  -1.968  1.00  0.00     0.074 A 
ATOM     50  C   UNL     1       7.459  12.984  -1.675  1.00  0.00     0.049 A 
ATOM     51  N   UNL     1      10.422  13.494  -1.610  1.00  0.00    -0.248 NA
ATOM     52  C   UNL     1      10.772  11.306  -2.342  1.00  0.00     0.031 C 
ATOM     53  C   UNL     1       6.009  12.775  -1.644  1.00  0.00     0.029 A 
ATOM     54  N   UNL     1       7.612  14.286  -1.268  1.00  0.00    -0.354 N 
ATOM     55  C   UNL     1      11.788  13.256  -1.708  1.00  0.00     0.074 A 
ATOM     56  C   UNL     1      11.947  11.875  -2.110  1.00  0.00     0.031 C 
ATOM     57  C   UNL     1       5.407  13.912  -1.261  1.00  0.00     0.029 A 
ATOM     58  C   UNL     1       6.425  14.918  -0.976  1.00  0.00     0.049 A 
ATOM     59  H   UNL     1       8.489  14.727  -1.192  1.00  0.00     0.167 HD
ATOM     60  C   UNL     1      12.814  14.117  -1.502  1.00  0.00     0.037 A 
ATOM     61  C   UNL     1       6.183  16.160  -0.515  1.00  0.00     0.037 A 
ATOM     62  C   UNL     1      12.646  15.494  -1.113  1.00  0.00     0.049 A 
ATOM     63  C   UNL     1       7.341  17.089  -0.268  1.00  0.00     0.074 A 
ATOM     64  C   UNL     1      13.619  16.462  -0.938  1.00  0.00     0.029 A 
ATOM     65  N   UNL     1      11.429  16.097  -0.827  1.00  0.00    -0.354 N 
ATOM     66  N   UNL     1       8.623  16.870  -0.439  1.00  0.00    -0.248 NA
ATOM     67  C   UNL     1       7.021  18.433   0.232  1.00  0.00     0.031 C 
ATOM     68  C   UNL     1      12.998  17.633  -0.491  1.00  0.00     0.029 A 
ATOM     69  C   UNL     1      11.630  17.414  -0.444  1.00  0.00     0.049 A 
ATOM     70  H   UNL     1      10.552  15.655  -0.888  1.00  0.00     0.167 HD
ATOM     71  C   UNL     1       9.261  18.054  -0.086  1.00  0.00     0.074 A 
ATOM     72  C   UNL     1       8.222  18.992   0.288  1.00  0.00     0.031 C 
ATOM     73  C   UNL     1      10.587  18.337  -0.070  1.00  0.00     0.037 A 
BRANCH  60  74
ATOM     74  C   UNL     1      14.214  13.597  -1.690  1.00  0.00     0.058 A 
ATOM     75  C   UNL     1      14.715  13.267  -2.960  1.00  0.00     0.135 A 
ATOM     76  C   UNL     1      15.083  13.470  -0.593  1.00  0.00     0.135 A 
ATOM     77  F   UNL     1      13.926  13.356  -4.042  1.00  0.00    -0.206 F 
ATOM     78  C   UNL     1      16.016  12.805  -3.132  1.00  0.00     0.059 A 
ATOM     79  C   UNL     1      16.398  13.039  -0.746  1.00  0.00     0.059 A 
ATOM     80  F   UNL     1      14.658  13.771   0.644  1.00  0.00    -0.206 F 
ATOM     81  C   UNL     1      16.851  12.695  -2.019  1.00  0.00     0.060 A 
BRANCH  81  82
ATOM     82  S   UNL     1      18.537  12.099  -2.263  1.00  0.00     0.124 S 
ATOM     83  O   UNL     1      18.307  10.690  -2.564  1.00  0.00    -0.237 OA
ATOM     84  O   UNL     1      18.998  12.918  -3.378  1.00  0.00    -0.237 OA
ATOM     85  O   UNL     1      19.183  12.368  -0.981  1.00  0.00    -0.744 OA
ENDBRANCH  81  82
ENDBRANCH  60  74
BRANCH  61  86
ATOM     86  C   UNL     1       4.783  16.600  -0.264  1.00  0.00     0.058 A 
ATOM     87  C   UNL     1       4.178  17.577  -1.068  1.00  0.00     0.135 A 
ATOM     88  C   UNL     1       4.020  16.046   0.775  1.00  0.00     0.135 A 
ATOM     89  F   UNL     1       4.868  18.144  -2.070  1.00  0.00    -0.206 F 
ATOM     90  C   UNL     1       2.873  18.002  -0.842  1.00  0.00     0.059 A 
ATOM     91  C   UNL     1       2.703  16.432   1.003  1.00  0.00     0.059 A 
ATOM     92  F   UNL     1       4.547  15.097   1.565  1.00  0.00    -0.206 F 
ATOM     93  C   UNL     1       2.142  17.420   0.195  1.00  0.00     0.060 A 
BRANCH  93  94
ATOM     94  S   UNL     1       0.434  17.948   0.450  1.00  0.00     0.124 S 
ATOM     95  O   UNL     1       0.619  19.287   0.997  1.00  0.00    -0.237 OA
ATOM     96  O   UNL     1      -0.111  17.880  -0.902  1.00  0.00    -0.237 OA
ATOM     97  O   UNL     1      -0.090  16.953   1.380  1.00  0.00    -0.744 OA
ENDBRANCH  93  94
ENDBRANCH  61  86
BRANCH  73  98
ATOM     98  C   UNL     1      10.995  19.724   0.349  1.00  0.00     0.058 A 
ATOM     99  C   UNL     1      10.897  20.149   1.684  1.00  0.00     0.135 A 
ATOM    100  C   UNL     1      11.540  20.621  -0.585  1.00  0.00     0.135 A 
ATOM    101  F   UNL     1      10.375  19.335   2.615  1.00  0.00    -0.206 F 
ATOM    102  C   UNL     1      11.306  21.420   2.074  1.00  0.00     0.059 A 
ATOM    103  C   UNL     1      11.984  21.885  -0.211  1.00  0.00     0.059 A 
ATOM    104  F   UNL     1      11.665  20.263  -1.873  1.00  0.00    -0.206 F 
ATOM    105  C   UNL     1      11.853  22.280   1.120  1.00  0.00     0.060 A 
BRANCH 105 106
ATOM    106  S   UNL     1      12.418  23.910   1.650  1.00  0.00     0.124 S 
ATOM    107  O   UNL     1      11.153  24.595   1.896  1.00  0.00    -0.237 OA
ATOM    108  O   UNL     1      13.209  23.595   2.835  1.00  0.00    -0.237 OA
ATOM    109  O   UNL     1      13.182  24.395   0.505  1.00  0.00    -0.744 OA
ENDBRANCH 105 106
ENDBRANCH  73  98
ENDBRANCH  47  48
ENDBRANCH  39  42
ENDBRANCH  37  38
ENDBRANCH  36  37
ENDBRANCH  35  36
ENDBRANCH  34  35
ENDBRANCH   1  34
TORSDOF 21
