REMARK SMILES C[C@H](CNc1cccc(F)c1C(=O)NCCCCCCNC(=O)c1ccc(-c2c3nc(c(-c4c(F)cc(S(=O)(=O)[O-])cc4F)c4ccc([nH]4)c(-c4c(F)cc(S(=O)(=O)[O-])cc4F)c4nc(c(-c5c(F)cc(S(=O)(=O)[O-])cc5F)c5ccc2[nH]5)C=C4)C=C3)cc1)C[NH+]1CCCC1
REMARK SMILES IDX 16 1 15 2 14 3 12 4 13 5 11 7 5 8 6 9 7 10 9 11 8 12 10 13
REMARK SMILES IDX 4 14 3 16 2 17 1 18 90 19 91 20 92 21 95 22 93 24 94 25
REMARK SMILES IDX 17 26 18 27 19 28 20 29 21 30 22 31 23 33 24 34 25 35 89 36
REMARK SMILES IDX 26 37 88 38 27 39 28 40 29 41 82 42 30 43 87 44 81 45 83 46
REMARK SMILES IDX 31 47 86 48 80 49 79 50 32 52 66 53 45 54 65 55 46 56 49 57
REMARK SMILES IDX 64 58 84 59 47 60 48 61 63 63 85 64 50 65 33 66 34 67 43 68
REMARK SMILES IDX 35 69 36 70 42 71 44 72 37 73 38 74 39 75 40 76 41 77 67 78
REMARK SMILES IDX 68 79 77 80 69 81 70 82 76 83 78 84 71 85 72 86 73 87 74 88
REMARK SMILES IDX 75 89 51 90 52 91 61 92 53 93 54 94 60 95 62 96 55 97 56 98
REMARK SMILES IDX 57 99 58 100 59 101
REMARK H PARENT 14 6 4 15 91 23 21 32 83 51 49 62
REMARK Flexibility Score: inf
ROOT
ATOM      1  C   UNL     1       5.598  -2.896   5.595  1.00  0.00     0.021 C 
ENDROOT
BRANCH   1   2
ATOM      2  C   UNL     1       5.608  -2.606   4.099  1.00  0.00     0.116 C 
BRANCH   2   3
ATOM      3  N   UNL     1       4.305  -2.781   3.499  1.00  0.00    -0.352 N 
ATOM      4  C   UNL     1       3.573  -2.004   2.642  1.00  0.00     0.256 C 
ATOM      5  O   UNL     1       2.400  -2.358   2.497  1.00  0.00    -0.269 OA
ATOM      6  H   UNL     1       3.858  -3.620   3.756  1.00  0.00     0.163 HD
BRANCH   4   7
ATOM      7  C   UNL     1       4.073  -0.764   1.971  1.00  0.00     0.098 A 
ATOM      8  C   UNL     1       3.139   0.194   1.494  1.00  0.00     0.050 A 
ATOM      9  C   UNL     1       3.604   1.433   1.003  1.00  0.00     0.027 A 
ATOM     10  C   UNL     1       4.965   1.699   0.891  1.00  0.00     0.005 A 
ATOM     11  C   UNL     1       5.426  -0.521   1.717  1.00  0.00     0.138 A 
ATOM     12  C   UNL     1       5.875   0.701   1.209  1.00  0.00     0.040 A 
ATOM     13  F   UNL     1       6.350  -1.481   1.859  1.00  0.00    -0.206 F 
BRANCH   8  14
ATOM     14  N   UNL     1       1.778  -0.144   1.259  1.00  0.00    -0.384 N 
ATOM     15  H   UNL     1       1.121  -0.306   1.974  1.00  0.00     0.160 HD
BRANCH  14  16
ATOM     16  C   UNL     1       1.464  -0.225  -0.174  1.00  0.00     0.122 C 
BRANCH  16  17
ATOM     17  C   UNL     1       0.409  -1.276  -0.571  1.00  0.00     0.060 C 
ATOM     18  C   UNL     1       0.717  -2.651   0.035  1.00  0.00     0.015 C 
BRANCH  17  19
ATOM     19  C   UNL     1      -1.048  -0.875  -0.258  1.00  0.00     0.267 C 
BRANCH  19  20
ATOM     20  N   UNL     1      -1.762  -0.112  -1.311  1.00  0.00    -0.335 N 
ATOM     21  C   UNL     1      -1.147   1.159  -1.709  1.00  0.00     0.262 C 
ATOM     22  C   UNL     1      -3.087   0.304  -0.802  1.00  0.00     0.262 C 
ATOM     23  H   UNL     1      -1.768  -0.754  -2.104  1.00  0.00     0.348 HD
ATOM     24  C   UNL     1      -1.479   2.103  -0.572  1.00  0.00     0.067 C 
ATOM     25  C   UNL     1      -2.907   1.708  -0.221  1.00  0.00     0.067 C 
ENDBRANCH  19  20
ENDBRANCH  17  19
ENDBRANCH  16  17
ENDBRANCH  14  16
ENDBRANCH   8  14
ENDBRANCH   4   7
ENDBRANCH   2   3
ENDBRANCH   1   2
BRANCH   1  26
ATOM     26  C   UNL     1       5.235  -4.325   6.006  1.00  0.00     0.002 C 
BRANCH  26  27
ATOM     27  C   UNL     1       6.030  -5.451   5.339  1.00  0.00     0.002 C 
BRANCH  27  28
ATOM     28  C   UNL     1       7.551  -5.299   5.350  1.00  0.00     0.021 C 
BRANCH  28  29
ATOM     29  C   UNL     1       8.173  -5.029   6.713  1.00  0.00     0.116 C 
BRANCH  29  30
ATOM     30  N   UNL     1       7.938  -6.104   7.657  1.00  0.00    -0.352 N 
ATOM     31  C   UNL     1       8.838  -6.758   8.462  1.00  0.00     0.251 C 
ATOM     32  H   UNL     1       7.005  -6.407   7.730  1.00  0.00     0.163 HD
ATOM     33  O   UNL     1       8.488  -7.761   9.076  1.00  0.00    -0.269 OA
BRANCH  31  34
ATOM     34  C   UNL     1      10.229  -6.264   8.573  1.00  0.00     0.039 A 
ATOM     35  C   UNL     1      11.273  -7.192   8.575  1.00  0.00     0.014 A 
ATOM     36  C   UNL     1      10.506  -4.899   8.705  1.00  0.00     0.014 A 
ATOM     37  C   UNL     1      12.593  -6.750   8.685  1.00  0.00     0.010 A 
ATOM     38  C   UNL     1      11.825  -4.455   8.729  1.00  0.00     0.010 A 
ATOM     39  C   UNL     1      12.882  -5.376   8.751  1.00  0.00    -0.014 A 
BRANCH  39  40
ATOM     40  C   UNL     1      14.279  -4.895   8.902  1.00  0.00     0.031 A 
ATOM     41  C   UNL     1      14.687  -4.159  10.151  1.00  0.00     0.074 A 
ATOM     42  C   UNL     1      15.171  -5.097   7.913  1.00  0.00     0.049 A 
ATOM     43  N   UNL     1      15.848  -3.645  10.465  1.00  0.00    -0.248 NA
ATOM     44  C   UNL     1      13.646  -3.949  11.171  1.00  0.00     0.031 C 
ATOM     45  C   UNL     1      14.883  -5.759   6.639  1.00  0.00     0.029 A 
ATOM     46  N   UNL     1      16.500  -4.769   7.824  1.00  0.00    -0.354 N 
ATOM     47  C   UNL     1      15.674  -3.046  11.707  1.00  0.00     0.074 A 
ATOM     48  C   UNL     1      14.281  -3.200  12.060  1.00  0.00     0.031 C 
ATOM     49  C   UNL     1      16.011  -5.822   5.913  1.00  0.00     0.029 A 
ATOM     50  C   UNL     1      17.092  -5.175   6.651  1.00  0.00     0.049 A 
ATOM     51  H   UNL     1      16.985  -4.288   8.533  1.00  0.00     0.167 HD
ATOM     52  C   UNL     1      16.598  -2.449  12.498  1.00  0.00     0.037 A 
ATOM     53  C   UNL     1      18.364  -5.049   6.223  1.00  0.00     0.037 A 
ATOM     54  C   UNL     1      17.989  -2.325  12.152  1.00  0.00     0.049 A 
ATOM     55  C   UNL     1      19.377  -4.394   7.121  1.00  0.00     0.074 A 
ATOM     56  C   UNL     1      19.015  -1.774  12.898  1.00  0.00     0.029 A 
ATOM     57  N   UNL     1      18.552  -2.764  10.962  1.00  0.00    -0.354 N 
ATOM     58  N   UNL     1      19.205  -3.867   8.310  1.00  0.00    -0.248 NA
ATOM     59  C   UNL     1      20.760  -4.329   6.629  1.00  0.00     0.031 C 
ATOM     60  C   UNL     1      20.190  -1.839  12.142  1.00  0.00     0.029 A 
ATOM     61  C   UNL     1      19.909  -2.486  10.949  1.00  0.00     0.049 A 
ATOM     62  H   UNL     1      18.059  -3.208  10.234  1.00  0.00     0.167 HD
ATOM     63  C   UNL     1      20.462  -3.439   8.724  1.00  0.00     0.074 A 
ATOM     64  C   UNL     1      21.385  -3.772   7.658  1.00  0.00     0.031 C 
ATOM     65  C   UNL     1      20.819  -2.833   9.884  1.00  0.00     0.037 A 
BRANCH  52  66
ATOM     66  C   UNL     1      16.135  -1.895  13.819  1.00  0.00     0.058 A 
ATOM     67  C   UNL     1      16.137  -0.511  14.055  1.00  0.00     0.135 A 
ATOM     68  C   UNL     1      15.722  -2.734  14.869  1.00  0.00     0.135 A 
ATOM     69  F   UNL     1      16.515   0.340  13.088  1.00  0.00    -0.206 F 
ATOM     70  C   UNL     1      15.754   0.021  15.282  1.00  0.00     0.059 A 
ATOM     71  C   UNL     1      15.304  -2.223  16.094  1.00  0.00     0.059 A 
ATOM     72  F   UNL     1      15.679  -4.064  14.693  1.00  0.00    -0.206 F 
ATOM     73  C   UNL     1      15.335  -0.843  16.295  1.00  0.00     0.060 A 
BRANCH  73  74
ATOM     74  S   UNL     1      14.791  -0.134  17.864  1.00  0.00     0.124 S 
ATOM     75  O   UNL     1      16.047   0.349  18.426  1.00  0.00    -0.237 OA
ATOM     76  O   UNL     1      13.852   0.894  17.424  1.00  0.00    -0.237 OA
ATOM     77  O   UNL     1      14.185  -1.268  18.555  1.00  0.00    -0.744 OA
ENDBRANCH  73  74
ENDBRANCH  52  66
BRANCH  53  78
ATOM     78  C   UNL     1      18.749  -5.613   4.902  1.00  0.00     0.058 A 
ATOM     79  C   UNL     1      18.289  -5.045   3.704  1.00  0.00     0.135 A 
ATOM     80  C   UNL     1      19.535  -6.772   4.814  1.00  0.00     0.135 A 
ATOM     81  F   UNL     1      17.524  -3.942   3.732  1.00  0.00    -0.206 F 
ATOM     82  C   UNL     1      18.568  -5.622   2.470  1.00  0.00     0.059 A 
ATOM     83  C   UNL     1      19.850  -7.354   3.590  1.00  0.00     0.059 A 
ATOM     84  F   UNL     1      20.007  -7.346   5.932  1.00  0.00    -0.206 F 
ATOM     85  C   UNL     1      19.343  -6.782   2.424  1.00  0.00     0.060 A 
BRANCH  85  86
ATOM     86  S   UNL     1      19.659  -7.535   0.813  1.00  0.00     0.124 S 
ATOM     87  O   UNL     1      18.326  -7.997   0.441  1.00  0.00    -0.237 OA
ATOM     88  O   UNL     1      20.178  -6.408   0.046  1.00  0.00    -0.237 OA
ATOM     89  O   UNL     1      20.626  -8.586   1.115  1.00  0.00    -0.744 OA
ENDBRANCH  85  86
ENDBRANCH  53  78
BRANCH  65  90
ATOM     90  C   UNL     1      22.277  -2.529  10.095  1.00  0.00     0.058 A 
ATOM     91  C   UNL     1      23.008  -3.227  11.070  1.00  0.00     0.135 A 
ATOM     92  C   UNL     1      22.933  -1.507   9.391  1.00  0.00     0.135 A 
ATOM     93  F   UNL     1      22.428  -4.208  11.779  1.00  0.00    -0.206 F 
ATOM     94  C   UNL     1      24.335  -2.917  11.346  1.00  0.00     0.059 A 
ATOM     95  C   UNL     1      24.270  -1.200   9.630  1.00  0.00     0.059 A 
ATOM     96  F   UNL     1      22.281  -0.813   8.444  1.00  0.00    -0.206 F 
ATOM     97  C   UNL     1      24.958  -1.901  10.621  1.00  0.00     0.060 A 
BRANCH  97  98
ATOM     98  S   UNL     1      26.690  -1.535  10.971  1.00  0.00     0.124 S 
ATOM     99  O   UNL     1      26.602  -0.893  12.278  1.00  0.00    -0.237 OA
ATOM    100  O   UNL     1      27.296  -2.863  10.954  1.00  0.00    -0.237 OA
ATOM    101  O   UNL     1      27.081  -0.663   9.867  1.00  0.00    -0.744 OA
ENDBRANCH  97  98
ENDBRANCH  65  90
ENDBRANCH  39  40
ENDBRANCH  31  34
ENDBRANCH  29  30
ENDBRANCH  28  29
ENDBRANCH  27  28
ENDBRANCH  26  27
ENDBRANCH   1  26
TORSDOF 21
