REMARK SMILES O=C(NCCCCCCNC(=O)c1cncc(OCCCc2ccccc2)n1)c1ccc(-c2c3nc(c(-c4c(F)cc(S(=O)(=O)[O-])cc4F)c4ccc([nH]4)c(-c4c(F)cc(S(=O)(=O)[O-])cc4F)c4nc(c(-c5c(F)cc(S(=O)(=O)[O-])cc5F)c5ccc2[nH]5)C=C4)C=C3)cc1
REMARK SMILES IDX 7 1 6 2 5 3 4 4 3 5 1 6 2 7 29 9 30 10 94 11 31 12 93 13
REMARK SMILES IDX 32 14 33 15 34 16 87 17 35 18 92 19 86 20 88 21 36 22 91 23
REMARK SMILES IDX 85 24 84 25 37 27 71 28 50 29 70 30 51 31 54 32 69 33 89 34
REMARK SMILES IDX 52 35 53 36 68 38 90 39 55 40 38 41 39 42 48 43 40 44 41 45
REMARK SMILES IDX 47 46 49 47 42 48 43 49 44 50 45 51 46 52 72 53 73 54 82 55
REMARK SMILES IDX 74 56 75 57 81 58 83 59 76 60 77 61 78 62 79 63 80 64 56 65
REMARK SMILES IDX 57 66 66 67 58 68 59 69 65 70 67 71 60 72 61 73 62 74 63 75
REMARK SMILES IDX 64 76 8 77 9 78 10 79 11 80 12 82 13 83 14 84 28 85 15 86
REMARK SMILES IDX 17 87 16 88 18 89 19 90 20 91 21 92 22 93 23 94 27 95 24 96
REMARK SMILES IDX 26 97 25 98
REMARK H PARENT 3 8 88 26 54 37 10 81
REMARK Flexibility Score: inf
ROOT
ATOM      1  C   UNL     1       5.093  -3.268   2.852  1.00  0.00     0.002 C 
ENDROOT
BRANCH   1   2
ATOM      2  C   UNL     1       4.448  -1.933   3.235  1.00  0.00     0.002 C 
BRANCH   2   3
ATOM      3  C   UNL     1       4.843  -0.734   2.370  1.00  0.00     0.021 C 
BRANCH   3   4
ATOM      4  C   UNL     1       4.571  -0.896   0.878  1.00  0.00     0.116 C 
BRANCH   4   5
ATOM      5  N   UNL     1       3.150  -0.963   0.585  1.00  0.00    -0.352 N 
ATOM      6  O   UNL     1       1.153  -0.219  -0.139  1.00  0.00    -0.269 OA
ATOM      7  C   UNL     1       2.374  -0.112  -0.165  1.00  0.00     0.251 C 
ATOM      8  H   UNL     1       2.674  -1.729   0.980  1.00  0.00     0.163 HD
BRANCH   7   9
ATOM      9  C   UNL     1       3.010   0.943  -0.986  1.00  0.00     0.039 A 
ATOM     10  C   UNL     1       4.114   0.659  -1.797  1.00  0.00     0.014 A 
ATOM     11  C   UNL     1       2.470   2.231  -0.964  1.00  0.00     0.014 A 
ATOM     12  C   UNL     1       4.748   1.686  -2.493  1.00  0.00     0.010 A 
ATOM     13  C   UNL     1       3.064   3.244  -1.719  1.00  0.00     0.010 A 
ATOM     14  C   UNL     1       4.222   2.987  -2.471  1.00  0.00    -0.014 A 
BRANCH  14  15
ATOM     15  C   UNL     1       4.849   4.070  -3.271  1.00  0.00     0.031 A 
ATOM     16  C   UNL     1       5.457   5.267  -2.596  1.00  0.00     0.074 A 
ATOM     17  C   UNL     1       4.825   3.992  -4.615  1.00  0.00     0.049 A 
ATOM     18  N   UNL     1       5.947   6.356  -3.129  1.00  0.00    -0.248 NA
ATOM     19  C   UNL     1       5.510   5.240  -1.127  1.00  0.00     0.031 C 
ATOM     20  C   UNL     1       4.263   2.880  -5.383  1.00  0.00     0.029 A 
ATOM     21  N   UNL     1       5.262   4.871  -5.574  1.00  0.00    -0.354 N 
ATOM     22  C   UNL     1       6.344   7.157  -2.065  1.00  0.00     0.074 A 
ATOM     23  C   UNL     1       6.013   6.436  -0.853  1.00  0.00     0.031 C 
ATOM     24  C   UNL     1       4.387   3.143  -6.692  1.00  0.00     0.029 A 
ATOM     25  C   UNL     1       4.977   4.467  -6.856  1.00  0.00     0.049 A 
ATOM     26  H   UNL     1       5.734   5.710  -5.364  1.00  0.00     0.167 HD
ATOM     27  C   UNL     1       6.929   8.380  -2.098  1.00  0.00     0.037 A 
ATOM     28  C   UNL     1       5.132   5.104  -8.033  1.00  0.00     0.037 A 
ATOM     29  C   UNL     1       7.245   9.086  -3.314  1.00  0.00     0.049 A 
ATOM     30  C   UNL     1       5.741   6.476  -8.050  1.00  0.00     0.074 A 
ATOM     31  C   UNL     1       7.869  10.314  -3.458  1.00  0.00     0.029 A 
ATOM     32  N   UNL     1       6.947   8.639  -4.594  1.00  0.00    -0.354 N 
ATOM     33  N   UNL     1       6.144   7.207  -7.038  1.00  0.00    -0.248 NA
ATOM     34  C   UNL     1       5.923   7.111  -9.362  1.00  0.00     0.031 C 
ATOM     35  C   UNL     1       7.893  10.635  -4.819  1.00  0.00     0.029 A 
ATOM     36  C   UNL     1       7.349   9.577  -5.531  1.00  0.00     0.049 A 
ATOM     37  H   UNL     1       6.513   7.780  -4.805  1.00  0.00     0.167 HD
ATOM     38  C   UNL     1       6.656   8.375  -7.591  1.00  0.00     0.074 A 
ATOM     39  C   UNL     1       6.508   8.254  -9.028  1.00  0.00     0.031 C 
ATOM     40  C   UNL     1       7.209   9.441  -6.963  1.00  0.00     0.037 A 
BRANCH  27  41
ATOM     41  C   UNL     1       7.222   9.047  -0.780  1.00  0.00     0.058 A 
ATOM     42  C   UNL     1       8.198   8.557   0.103  1.00  0.00     0.135 A 
ATOM     43  C   UNL     1       6.513  10.197  -0.393  1.00  0.00     0.135 A 
ATOM     44  F   UNL     1       8.902   7.457  -0.208  1.00  0.00    -0.206 F 
ATOM     45  C   UNL     1       8.421   9.149   1.343  1.00  0.00     0.059 A 
ATOM     46  C   UNL     1       6.743  10.825   0.828  1.00  0.00     0.059 A 
ATOM     47  F   UNL     1       5.575  10.717  -1.200  1.00  0.00    -0.206 F 
ATOM     48  C   UNL     1       7.681  10.276   1.701  1.00  0.00     0.060 A 
BRANCH  48  49
ATOM     49  S   UNL     1       7.943  10.999   3.335  1.00  0.00     0.124 S 
ATOM     50  O   UNL     1       7.306  10.005   4.195  1.00  0.00    -0.237 OA
ATOM     51  O   UNL     1       9.398  11.067   3.417  1.00  0.00    -0.237 OA
ATOM     52  O   UNL     1       7.261  12.286   3.252  1.00  0.00    -0.744 OA
ENDBRANCH  48  49
ENDBRANCH  27  41
BRANCH  28  53
ATOM     53  C   UNL     1       4.686   4.430  -9.280  1.00  0.00     0.058 A 
ATOM     54  C   UNL     1       5.613   3.912 -10.194  1.00  0.00     0.135 A 
ATOM     55  C   UNL     1       3.321   4.215  -9.537  1.00  0.00     0.135 A 
ATOM     56  F   UNL     1       6.927   4.097  -9.995  1.00  0.00    -0.206 F 
ATOM     57  C   UNL     1       5.206   3.194 -11.314  1.00  0.00     0.059 A 
ATOM     58  C   UNL     1       2.891   3.478 -10.635  1.00  0.00     0.059 A 
ATOM     59  F   UNL     1       2.395   4.677  -8.682  1.00  0.00    -0.206 F 
ATOM     60  C   UNL     1       3.843   2.970 -11.518  1.00  0.00     0.060 A 
BRANCH  60  61
ATOM     61  S   UNL     1       3.335   1.951 -12.920  1.00  0.00     0.124 S 
ATOM     62  O   UNL     1       3.619   2.835 -14.044  1.00  0.00    -0.237 OA
ATOM     63  O   UNL     1       4.209   0.790 -12.784  1.00  0.00    -0.237 OA
ATOM     64  O   UNL     1       1.922   1.696 -12.657  1.00  0.00    -0.744 OA
ENDBRANCH  60  61
ENDBRANCH  28  53
BRANCH  40  65
ATOM     65  C   UNL     1       7.756  10.554  -7.814  1.00  0.00     0.058 A 
ATOM     66  C   UNL     1       6.920  11.471  -8.469  1.00  0.00     0.135 A 
ATOM     67  C   UNL     1       9.144  10.763  -7.886  1.00  0.00     0.135 A 
ATOM     68  F   UNL     1       5.588  11.310  -8.443  1.00  0.00    -0.206 F 
ATOM     69  C   UNL     1       7.442  12.559  -9.163  1.00  0.00     0.059 A 
ATOM     70  C   UNL     1       9.685  11.858  -8.551  1.00  0.00     0.059 A 
ATOM     71  F   UNL     1       9.987   9.916  -7.273  1.00  0.00    -0.206 F 
ATOM     72  C   UNL     1       8.825  12.751  -9.187  1.00  0.00     0.060 A 
BRANCH  72  73
ATOM     73  S   UNL     1       9.483  14.214 -10.017  1.00  0.00     0.124 S 
ATOM     74  O   UNL     1       9.267  13.879 -11.421  1.00  0.00    -0.237 OA
ATOM     75  O   UNL     1       8.641  15.280  -9.482  1.00  0.00    -0.237 OA
ATOM     76  O   UNL     1      10.878  14.251  -9.588  1.00  0.00    -0.744 OA
ENDBRANCH  72  73
ENDBRANCH  40  65
ENDBRANCH  14  15
ENDBRANCH   7   9
ENDBRANCH   4   5
ENDBRANCH   3   4
ENDBRANCH   2   3
ENDBRANCH   1   2
BRANCH   1  77
ATOM     77  C   UNL     1       6.620  -3.258   2.724  1.00  0.00     0.021 C 
BRANCH  77  78
ATOM     78  C   UNL     1       7.391  -2.727   3.930  1.00  0.00     0.116 C 
BRANCH  78  79
ATOM     79  N   UNL     1       7.115  -3.447   5.158  1.00  0.00    -0.351 N 
ATOM     80  C   UNL     1       8.001  -3.934   6.091  1.00  0.00     0.271 C 
ATOM     81  H   UNL     1       6.163  -3.610   5.351  1.00  0.00     0.163 HD
ATOM     82  O   UNL     1       7.583  -4.468   7.115  1.00  0.00    -0.267 OA
BRANCH  80  83
ATOM     83  C   UNL     1       9.457  -3.867   5.832  1.00  0.00     0.150 A 
ATOM     84  C   UNL     1      10.134  -2.661   5.822  1.00  0.00     0.145 A 
ATOM     85  N   UNL     1      10.076  -5.056   5.618  1.00  0.00    -0.205 NA
ATOM     86  N   UNL     1      11.467  -2.593   5.576  1.00  0.00    -0.257 NA
ATOM     87  C   UNL     1      11.398  -4.999   5.398  1.00  0.00     0.233 A 
ATOM     88  C   UNL     1      12.082  -3.791   5.378  1.00  0.00     0.179 A 
BRANCH  87  89
ATOM     89  O   UNL     1      12.110  -6.168   5.281  1.00  0.00    -0.477 OA
BRANCH  89  90
ATOM     90  C   UNL     1      11.348  -7.287   4.801  1.00  0.00     0.232 C 
BRANCH  90  91
ATOM     91  C   UNL     1      10.757  -8.153   5.922  1.00  0.00     0.046 C 
BRANCH  91  92
ATOM     92  C   UNL     1       9.265  -7.955   6.231  1.00  0.00     0.039 C 
BRANCH  92  93
ATOM     93  C   UNL     1       8.312  -8.211   5.084  1.00  0.00    -0.048 A 
ATOM     94  C   UNL     1       7.816  -7.152   4.313  1.00  0.00     0.004 A 
ATOM     95  C   UNL     1       7.867  -9.505   4.794  1.00  0.00     0.004 A 
ATOM     96  C   UNL     1       6.883  -7.366   3.299  1.00  0.00     0.000 A 
ATOM     97  C   UNL     1       6.930  -9.723   3.779  1.00  0.00     0.000 A 
ATOM     98  C   UNL     1       6.434  -8.653   3.035  1.00  0.00     0.000 A 
ENDBRANCH  92  93
ENDBRANCH  91  92
ENDBRANCH  90  91
ENDBRANCH  89  90
ENDBRANCH  87  89
ENDBRANCH  80  83
ENDBRANCH  78  79
ENDBRANCH  77  78
ENDBRANCH   1  77
TORSDOF 21
