REMARK SMILES CC[C@@H](COC)NC(=O)NC[C@@H]1CC[C@H](C(=O)NCCCCCCNC(=O)c2ccc(-c3c4nc(c(-c5c(F)cc(S(=O)(=O)[O-])cc5F)c5ccc([nH]5)c(-c5c(F)cc(S(=O)(=O)[O-])cc5F)c5nc(c(-c6c(F)cc(S(=O)(=O)[O-])cc6F)c6ccc3[nH]6)C=C5)C=C4)cc2)O1
REMARK SMILES IDX 20 1 19 2 18 3 16 4 17 5 15 7 12 8 13 9 94 10 14 11 11 12
REMARK SMILES IDX 10 13 7 14 8 15 9 17 3 19 2 20 1 21 4 22 5 23 6 24 21 25
REMARK SMILES IDX 22 26 23 27 24 28 25 29 26 30 27 32 28 33 29 34 93 35 30 36
REMARK SMILES IDX 92 37 31 38 32 39 33 40 86 41 34 42 91 43 85 44 87 45 35 46
REMARK SMILES IDX 90 47 84 48 83 49 36 51 70 52 49 53 69 54 50 55 53 56 68 57
REMARK SMILES IDX 88 58 51 59 52 60 67 62 89 63 54 64 37 65 38 66 47 67 39 68
REMARK SMILES IDX 40 69 46 70 48 71 41 72 42 73 43 74 44 75 45 76 71 77 72 78
REMARK SMILES IDX 81 79 73 80 74 81 80 82 82 83 75 84 76 85 77 86 78 87 79 88
REMARK SMILES IDX 55 89 56 90 65 91 57 92 58 93 64 94 66 95 59 96 60 97 61 98
REMARK SMILES IDX 62 99 63 100
REMARK H PARENT 18 6 7 16 10 18 25 31 87 50 53 61
REMARK Flexibility Score: inf
ROOT
ATOM      1  C   UNL     1       7.167  -1.647  -1.157  1.00  0.00     0.021 C 
ENDROOT
BRANCH   1   2
ATOM      2  C   UNL     1       6.633  -2.968  -0.621  1.00  0.00     0.116 C 
BRANCH   2   3
ATOM      3  N   UNL     1       7.634  -3.779   0.026  1.00  0.00    -0.354 N 
ATOM      4  C   UNL     1       7.619  -4.338   1.273  1.00  0.00     0.249 C 
ATOM      5  O   UNL     1       8.569  -5.068   1.575  1.00  0.00    -0.272 OA
ATOM      6  H   UNL     1       8.443  -3.954  -0.506  1.00  0.00     0.163 HD
BRANCH   4   7
ATOM      7  C   UNL     1       6.475  -4.072   2.287  1.00  0.00     0.207 C 
ATOM      8  C   UNL     1       4.197  -3.564   1.949  1.00  0.00     0.138 C 
ATOM      9  C   UNL     1       4.882  -2.249   2.302  1.00  0.00     0.037 C 
ATOM     10  O   UNL     1       5.213  -4.580   1.865  1.00  0.00    -0.363 OA
ATOM     11  C   UNL     1       6.298  -2.619   2.692  1.00  0.00     0.045 C 
BRANCH   8  12
ATOM     12  C   UNL     1       3.451  -3.572   0.602  1.00  0.00     0.149 C 
BRANCH  12  13
ATOM     13  N   UNL     1       2.442  -4.609   0.563  1.00  0.00    -0.336 N 
ATOM     14  N   UNL     1       0.352  -3.536   0.711  1.00  0.00    -0.333 N 
ATOM     15  C   UNL     1       1.107  -4.625   0.545  1.00  0.00     0.315 C 
ATOM     16  H   UNL     1      -0.608  -3.723   0.602  1.00  0.00     0.165 HD
ATOM     17  O   UNL     1       0.551  -5.712   0.379  1.00  0.00    -0.249 OA
ATOM     18  H   UNL     1       2.830  -5.514   0.545  1.00  0.00     0.165 HD
BRANCH  14  19
ATOM     19  C   UNL     1       0.617  -2.130   1.014  1.00  0.00     0.109 C 
BRANCH  19  20
ATOM     20  C   UNL     1       0.513  -1.310  -0.281  1.00  0.00     0.024 C 
ATOM     21  C   UNL     1       0.986   0.128  -0.137  1.00  0.00     0.006 C 
ENDBRANCH  19  20
BRANCH  19  22
ATOM     22  C   UNL     1      -0.284  -1.677   2.182  1.00  0.00     0.184 C 
BRANCH  22  23
ATOM     23  O   UNL     1      -1.673  -1.924   1.981  1.00  0.00    -0.383 OA
ATOM     24  C   UNL     1      -2.370  -0.874   1.325  1.00  0.00     0.194 C 
ENDBRANCH  22  23
ENDBRANCH  19  22
ENDBRANCH  14  19
ENDBRANCH  12  13
ENDBRANCH   8  12
ENDBRANCH   4   7
ENDBRANCH   2   3
ENDBRANCH   1   2
BRANCH   1  25
ATOM     25  C   UNL     1       7.627  -1.716  -2.611  1.00  0.00     0.002 C 
BRANCH  25  26
ATOM     26  C   UNL     1       6.540  -2.111  -3.620  1.00  0.00     0.002 C 
BRANCH  26  27
ATOM     27  C   UNL     1       5.280  -1.238  -3.620  1.00  0.00     0.021 C 
BRANCH  27  28
ATOM     28  C   UNL     1       5.524   0.250  -3.860  1.00  0.00     0.116 C 
BRANCH  28  29
ATOM     29  N   UNL     1       6.250   0.493  -5.097  1.00  0.00    -0.352 N 
ATOM     30  C   UNL     1       5.926   1.291  -6.161  1.00  0.00     0.251 C 
ATOM     31  H   UNL     1       7.103   0.010  -5.182  1.00  0.00     0.163 HD
ATOM     32  O   UNL     1       6.572   1.202  -7.208  1.00  0.00    -0.269 OA
BRANCH  30  33
ATOM     33  C   UNL     1       4.806   2.248  -6.064  1.00  0.00     0.039 A 
ATOM     34  C   UNL     1       3.924   2.370  -7.142  1.00  0.00     0.014 A 
ATOM     35  C   UNL     1       4.638   3.042  -4.926  1.00  0.00     0.014 A 
ATOM     36  C   UNL     1       2.843   3.250  -7.055  1.00  0.00     0.010 A 
ATOM     37  C   UNL     1       3.521   3.866  -4.814  1.00  0.00     0.010 A 
ATOM     38  C   UNL     1       2.615   3.982  -5.878  1.00  0.00    -0.014 A 
BRANCH  38  39
ATOM     39  C   UNL     1       1.433   4.870  -5.742  1.00  0.00     0.031 A 
ATOM     40  C   UNL     1       1.616   6.354  -5.570  1.00  0.00     0.074 A 
ATOM     41  C   UNL     1       0.199   4.331  -5.711  1.00  0.00     0.049 A 
ATOM     42  N   UNL     1       0.714   7.279  -5.367  1.00  0.00    -0.248 NA
ATOM     43  C   UNL     1       2.998   6.861  -5.604  1.00  0.00     0.031 C 
ATOM     44  C   UNL     1      -0.103   2.902  -5.823  1.00  0.00     0.029 A 
ATOM     45  N   UNL     1      -1.033   4.918  -5.567  1.00  0.00    -0.354 N 
ATOM     46  C   UNL     1       1.415   8.472  -5.239  1.00  0.00     0.074 A 
ATOM     47  C   UNL     1       2.822   8.146  -5.330  1.00  0.00     0.031 C 
ATOM     48  C   UNL     1      -1.433   2.727  -5.766  1.00  0.00     0.029 A 
ATOM     49  C   UNL     1      -2.076   4.023  -5.574  1.00  0.00     0.049 A 
ATOM     50  H   UNL     1      -1.158   5.890  -5.467  1.00  0.00     0.167 HD
ATOM     51  C   UNL     1       0.930   9.727  -5.082  1.00  0.00     0.037 A 
ATOM     52  C   UNL     1      -3.401   4.221  -5.434  1.00  0.00     0.037 A 
ATOM     53  C   UNL     1      -0.473  10.045  -5.015  1.00  0.00     0.049 A 
ATOM     54  C   UNL     1      -3.916   5.624  -5.256  1.00  0.00     0.074 A 
ATOM     55  C   UNL     1      -1.069  11.290  -4.911  1.00  0.00     0.029 A 
ATOM     56  N   UNL     1      -1.500   9.112  -5.044  1.00  0.00    -0.354 N 
ATOM     57  N   UNL     1      -3.242   6.747  -5.194  1.00  0.00    -0.248 NA
ATOM     58  C   UNL     1      -5.371   5.788  -5.136  1.00  0.00     0.031 C 
ATOM     59  C   UNL     1      -2.454  11.107  -4.830  1.00  0.00     0.029 A 
ATOM     60  C   UNL     1      -2.724   9.752  -4.938  1.00  0.00     0.049 A 
ATOM     61  H   UNL     1      -1.377   8.139  -5.128  1.00  0.00     0.167 HD
ATOM     62  C   UNL     1      -4.191   7.754  -5.057  1.00  0.00     0.074 A 
ATOM     63  C   UNL     1      -5.487   7.107  -5.056  1.00  0.00     0.031 C 
ATOM     64  C   UNL     1      -4.007   9.093  -4.944  1.00  0.00     0.037 A 
BRANCH  51  65
ATOM     65  C   UNL     1       1.924  10.852  -4.976  1.00  0.00     0.058 A 
ATOM     66  C   UNL     1       2.696  11.262  -6.075  1.00  0.00     0.135 A 
ATOM     67  C   UNL     1       2.081  11.555  -3.770  1.00  0.00     0.135 A 
ATOM     68  F   UNL     1       2.597  10.616  -7.248  1.00  0.00    -0.206 F 
ATOM     69  C   UNL     1       3.610  12.305  -5.975  1.00  0.00     0.059 A 
ATOM     70  C   UNL     1       2.968  12.622  -3.655  1.00  0.00     0.059 A 
ATOM     71  F   UNL     1       1.369  11.207  -2.686  1.00  0.00    -0.206 F 
ATOM     72  C   UNL     1       3.740  12.979  -4.760  1.00  0.00     0.060 A 
BRANCH  72  73
ATOM     73  S   UNL     1       4.930  14.332  -4.648  1.00  0.00     0.124 S 
ATOM     74  O   UNL     1       6.196  13.605  -4.656  1.00  0.00    -0.237 OA
ATOM     75  O   UNL     1       4.636  15.106  -5.849  1.00  0.00    -0.237 OA
ATOM     76  O   UNL     1       4.589  14.982  -3.386  1.00  0.00    -0.744 OA
ENDBRANCH  72  73
ENDBRANCH  51  65
BRANCH  52  77
ATOM     77  C   UNL     1      -4.334   3.064  -5.479  1.00  0.00     0.058 A 
ATOM     78  C   UNL     1      -5.203   2.880  -6.565  1.00  0.00     0.135 A 
ATOM     79  C   UNL     1      -4.367   2.113  -4.447  1.00  0.00     0.135 A 
ATOM     80  F   UNL     1      -5.212   3.765  -7.574  1.00  0.00    -0.206 F 
ATOM     81  C   UNL     1      -6.085   1.806  -6.619  1.00  0.00     0.059 A 
ATOM     82  C   UNL     1      -5.221   1.016  -4.491  1.00  0.00     0.059 A 
ATOM     83  F   UNL     1      -3.543   2.233  -3.394  1.00  0.00    -0.206 F 
ATOM     84  C   UNL     1      -6.084   0.877  -5.577  1.00  0.00     0.060 A 
BRANCH  84  85
ATOM     85  S   UNL     1      -7.202  -0.537  -5.678  1.00  0.00     0.124 S 
ATOM     86  O   UNL     1      -8.493   0.092  -5.423  1.00  0.00    -0.237 OA
ATOM     87  O   UNL     1      -6.978  -1.007  -7.041  1.00  0.00    -0.237 OA
ATOM     88  O   UNL     1      -6.713  -1.424  -4.627  1.00  0.00    -0.744 OA
ENDBRANCH  84  85
ENDBRANCH  52  77
BRANCH  64  89
ATOM     89  C   UNL     1      -5.235   9.955  -4.845  1.00  0.00     0.058 A 
ATOM     90  C   UNL     1      -6.022   9.989  -3.683  1.00  0.00     0.135 A 
ATOM     91  C   UNL     1      -5.599  10.798  -5.908  1.00  0.00     0.135 A 
ATOM     92  F   UNL     1      -5.722   9.199  -2.640  1.00  0.00    -0.206 F 
ATOM     93  C   UNL     1      -7.139  10.812  -3.587  1.00  0.00     0.059 A 
ATOM     94  C   UNL     1      -6.695  11.650  -5.823  1.00  0.00     0.059 A 
ATOM     95  F   UNL     1      -4.874  10.811  -7.038  1.00  0.00    -0.206 F 
ATOM     96  C   UNL     1      -7.466  11.642  -4.662  1.00  0.00     0.060 A 
BRANCH  96  97
ATOM     97  S   UNL     1      -8.897  12.731  -4.509  1.00  0.00     0.124 S 
ATOM     98  O   UNL     1     -10.001  11.785  -4.628  1.00  0.00    -0.237 OA
ATOM     99  O   UNL     1      -8.704  13.317  -3.186  1.00  0.00    -0.237 OA
ATOM    100  O   UNL     1      -8.740  13.657  -5.627  1.00  0.00    -0.744 OA
ENDBRANCH  96  97
ENDBRANCH  64  89
ENDBRANCH  38  39
ENDBRANCH  30  33
ENDBRANCH  28  29
ENDBRANCH  27  28
ENDBRANCH  26  27
ENDBRANCH  25  26
ENDBRANCH   1  25
TORSDOF 22
