REMARK SMILES O=C(NCCCCCCNC(=O)c1ccc(-c2c3nc(c(-c4c(F)cc(S(=O)(=O)[O-])cc4F)c4ccc([nH]4)c(-c4c(F)cc(S(=O)(=O)[O-])cc4F)c4nc(c(-c5c(F)cc(S(=O)(=O)[O-])cc5F)c5ccc2[nH]5)C=C4)C=C3)cc1)C1=Cc2cc(Cl)cc(C#Cc3ccccc3)c2O[C@@H]1C(F)(F)F
REMARK SMILES IDX 7 1 6 2 5 3 4 4 3 5 1 6 2 7 79 9 80 10 97 11 81 12 96 13
REMARK SMILES IDX 82 14 95 15 83 16 86 17 84 18 85 19 98 20 99 21 100 22
REMARK SMILES IDX 101 23 87 24 88 25 89 26 90 27 94 28 91 29 93 30 92 31 8 32
REMARK SMILES IDX 9 33 10 34 11 35 12 37 13 38 14 39 78 40 15 41 77 42 16 43
REMARK SMILES IDX 17 44 18 45 71 46 19 47 76 48 70 49 72 50 20 51 75 52 69 53
REMARK SMILES IDX 68 54 21 56 55 57 34 58 54 59 35 60 38 61 53 62 73 63 36 64
REMARK SMILES IDX 37 65 52 67 74 68 39 69 22 70 23 71 32 72 24 73 25 74 31 75
REMARK SMILES IDX 33 76 26 77 27 78 28 79 29 80 30 81 56 82 57 83 66 84 58 85
REMARK SMILES IDX 59 86 65 87 67 88 60 89 61 90 62 91 63 92 64 93 40 94 41 95
REMARK SMILES IDX 50 96 42 97 43 98 49 99 51 100 44 101 45 102 46 103 47 104
REMARK SMILES IDX 48 105
REMARK H PARENT 3 8 10 36 72 55 38 66
REMARK Flexibility Score: inf
ROOT
ATOM      1  C   UNL     1       4.404  -0.757   4.619  1.00  0.00     0.002 C 
ENDROOT
BRANCH   1   2
ATOM      2  C   UNL     1       3.797   0.637   4.422  1.00  0.00     0.002 C 
BRANCH   2   3
ATOM      3  C   UNL     1       4.145   1.352   3.118  1.00  0.00     0.021 C 
BRANCH   3   4
ATOM      4  C   UNL     1       3.855   0.585   1.836  1.00  0.00     0.116 C 
BRANCH   4   5
ATOM      5  N   UNL     1       2.554   0.810   1.237  1.00  0.00    -0.352 N 
ATOM      6  O   UNL     1       0.958   0.715  -0.337  1.00  0.00    -0.270 OA
ATOM      7  C   UNL     1       2.152   0.610  -0.056  1.00  0.00     0.251 C 
ATOM      8  H   UNL     1       1.863   1.155   1.846  1.00  0.00     0.163 HD
BRANCH   7   9
ATOM      9  C   UNL     1       3.090   0.168  -1.136  1.00  0.00     0.067 C 
ATOM     10  C   UNL     1       4.341   0.646  -1.270  1.00  0.00     0.025 C 
ATOM     11  C   UNL     1       2.854  -1.276  -1.515  1.00  0.00     0.314 C 
ATOM     12  C   UNL     1       5.364  -0.340  -0.814  1.00  0.00     0.020 A 
ATOM     13  O   UNL     1       3.725  -2.147  -0.742  1.00  0.00    -0.474 OA
ATOM     14  C   UNL     1       6.627   0.155  -0.468  1.00  0.00     0.032 A 
ATOM     15  C   UNL     1       4.953  -1.625  -0.395  1.00  0.00     0.143 A 
ATOM     16  C   UNL     1       7.440  -0.588   0.382  1.00  0.00     0.043 A 
ATOM     17  C   UNL     1       5.745  -2.319   0.533  1.00  0.00     0.069 A 
ATOM     18  Cl  UNL     1       8.903   0.099   0.971  1.00  0.00    -0.084 Cl
ATOM     19  C   UNL     1       7.001  -1.807   0.893  1.00  0.00     0.041 A 
BRANCH  11  20
ATOM     20  C   UNL     1       2.957  -1.486  -3.039  1.00  0.00     0.429 C 
ATOM     21  F   UNL     1       2.585  -2.736  -3.400  1.00  0.00    -0.167 F 
ATOM     22  F   UNL     1       2.140  -0.630  -3.706  1.00  0.00    -0.167 F 
ATOM     23  F   UNL     1       4.207  -1.283  -3.517  1.00  0.00    -0.167 F 
ENDBRANCH  11  20
BRANCH  17  24
ATOM     24  C   UNL     1       5.225  -3.379   1.348  1.00  0.00    -0.058 C 
ATOM     25  C   UNL     1       4.878  -4.173   2.191  1.00  0.00    -0.062 C 
BRANCH  25  26
ATOM     26  C   UNL     1       4.587  -5.112   3.232  1.00  0.00     0.025 A 
ATOM     27  C   UNL     1       4.386  -4.699   4.555  1.00  0.00     0.017 A 
ATOM     28  C   UNL     1       4.571  -6.474   2.932  1.00  0.00     0.017 A 
ATOM     29  C   UNL     1       4.183  -5.644   5.567  1.00  0.00     0.001 A 
ATOM     30  C   UNL     1       4.369  -7.417   3.942  1.00  0.00     0.001 A 
ATOM     31  C   UNL     1       4.179  -7.003   5.259  1.00  0.00     0.000 A 
ENDBRANCH  25  26
ENDBRANCH  17  24
ENDBRANCH   7   9
ENDBRANCH   4   5
ENDBRANCH   3   4
ENDBRANCH   2   3
ENDBRANCH   1   2
BRANCH   1  32
ATOM     32  C   UNL     1       5.913  -0.889   4.399  1.00  0.00     0.021 C 
BRANCH  32  33
ATOM     33  C   UNL     1       6.797   0.023   5.240  1.00  0.00     0.116 C 
BRANCH  33  34
ATOM     34  N   UNL     1       6.584  -0.156   6.665  1.00  0.00    -0.352 N 
ATOM     35  C   UNL     1       7.488  -0.395   7.670  1.00  0.00     0.251 C 
ATOM     36  H   UNL     1       5.645  -0.098   6.956  1.00  0.00     0.163 HD
ATOM     37  O   UNL     1       7.077  -0.695   8.788  1.00  0.00    -0.269 OA
BRANCH  35  38
ATOM     38  C   UNL     1       8.945  -0.311   7.415  1.00  0.00     0.039 A 
ATOM     39  C   UNL     1       9.786  -1.249   8.021  1.00  0.00     0.014 A 
ATOM     40  C   UNL     1       9.492   0.699   6.618  1.00  0.00     0.014 A 
ATOM     41  C   UNL     1      11.163  -1.200   7.792  1.00  0.00     0.010 A 
ATOM     42  C   UNL     1      10.854   0.696   6.324  1.00  0.00     0.010 A 
ATOM     43  C   UNL     1      11.707  -0.246   6.917  1.00  0.00    -0.014 A 
BRANCH  43  44
ATOM     44  C   UNL     1      13.165  -0.217   6.625  1.00  0.00     0.031 A 
ATOM     45  C   UNL     1      13.993   0.983   7.001  1.00  0.00     0.074 A 
ATOM     46  C   UNL     1      13.734  -1.255   5.980  1.00  0.00     0.049 A 
ATOM     47  N   UNL     1      15.264   1.209   6.789  1.00  0.00    -0.248 NA
ATOM     48  C   UNL     1      13.295   2.083   7.685  1.00  0.00     0.031 C 
ATOM     49  C   UNL     1      13.028  -2.453   5.521  1.00  0.00     0.029 A 
ATOM     50  N   UNL     1      15.033  -1.467   5.590  1.00  0.00    -0.354 N 
ATOM     51  C   UNL     1      15.517   2.474   7.309  1.00  0.00     0.074 A 
ATOM     52  C   UNL     1      14.253   2.993   7.784  1.00  0.00     0.031 C 
ATOM     53  C   UNL     1      13.903  -3.281   4.930  1.00  0.00     0.029 A 
ATOM     54  C   UNL     1      15.223  -2.657   4.928  1.00  0.00     0.049 A 
ATOM     55  H   UNL     1      15.760  -0.828   5.768  1.00  0.00     0.167 HD
ATOM     56  C   UNL     1      16.698   3.131   7.406  1.00  0.00     0.037 A 
ATOM     57  C   UNL     1      16.330  -3.182   4.367  1.00  0.00     0.037 A 
ATOM     58  C   UNL     1      17.952   2.604   6.931  1.00  0.00     0.049 A 
ATOM     59  C   UNL     1      17.627  -2.425   4.464  1.00  0.00     0.074 A 
ATOM     60  C   UNL     1      19.211   3.172   7.014  1.00  0.00     0.029 A 
ATOM     61  N   UNL     1      18.106   1.389   6.276  1.00  0.00    -0.354 N 
ATOM     62  N   UNL     1      17.861  -1.257   5.015  1.00  0.00    -0.248 NA
ATOM     63  C   UNL     1      18.813  -3.059   3.873  1.00  0.00     0.031 C 
ATOM     64  C   UNL     1      20.116   2.330   6.360  1.00  0.00     0.029 A 
ATOM     65  C   UNL     1      19.434   1.203   5.927  1.00  0.00     0.049 A 
ATOM     66  H   UNL     1      17.378   0.754   6.087  1.00  0.00     0.167 HD
ATOM     67  C   UNL     1      19.224  -1.028   4.860  1.00  0.00     0.074 A 
ATOM     68  C   UNL     1      19.764  -2.187   4.178  1.00  0.00     0.031 C 
ATOM     69  C   UNL     1      19.960   0.043   5.248  1.00  0.00     0.037 A 
BRANCH  56  70
ATOM     70  C   UNL     1      16.686   4.493   8.051  1.00  0.00     0.058 A 
ATOM     71  C   UNL     1      16.406   4.661   9.418  1.00  0.00     0.135 A 
ATOM     72  C   UNL     1      16.979   5.644   7.301  1.00  0.00     0.135 A 
ATOM     73  F   UNL     1      16.106   3.599  10.183  1.00  0.00    -0.206 F 
ATOM     74  C   UNL     1      16.375   5.921  10.007  1.00  0.00     0.059 A 
ATOM     75  C   UNL     1      16.988   6.912   7.878  1.00  0.00     0.059 A 
ATOM     76  F   UNL     1      17.257   5.546   5.992  1.00  0.00    -0.206 F 
ATOM     77  C   UNL     1      16.666   7.041   9.228  1.00  0.00     0.060 A 
BRANCH  77  78
ATOM     78  S   UNL     1      16.610   8.668  10.007  1.00  0.00     0.124 S 
ATOM     79  O   UNL     1      15.176   8.841  10.217  1.00  0.00    -0.237 OA
ATOM     80  O   UNL     1      17.407   8.463  11.213  1.00  0.00    -0.237 OA
ATOM     81  O   UNL     1      17.207   9.547   9.006  1.00  0.00    -0.744 OA
ENDBRANCH  77  78
ENDBRANCH  56  70
BRANCH  57  82
ATOM     82  C   UNL     1      16.253  -4.495   3.670  1.00  0.00     0.058 A 
ATOM     83  C   UNL     1      16.870  -5.638   4.199  1.00  0.00     0.135 A 
ATOM     84  C   UNL     1      15.535  -4.637   2.472  1.00  0.00     0.135 A 
ATOM     85  F   UNL     1      17.574  -5.555   5.337  1.00  0.00    -0.206 F 
ATOM     86  C   UNL     1      16.788  -6.872   3.560  1.00  0.00     0.059 A 
ATOM     87  C   UNL     1      15.413  -5.865   1.831  1.00  0.00     0.059 A 
ATOM     88  F   UNL     1      14.912  -3.578   1.931  1.00  0.00    -0.206 F 
ATOM     89  C   UNL     1      16.051  -6.977   2.379  1.00  0.00     0.060 A 
BRANCH  89  90
ATOM     90  S   UNL     1      15.901  -8.595   1.592  1.00  0.00     0.124 S 
ATOM     91  O   UNL     1      17.251  -8.799   1.079  1.00  0.00    -0.237 OA
ATOM     92  O   UNL     1      15.508  -9.444   2.712  1.00  0.00    -0.237 OA
ATOM     93  O   UNL     1      14.868  -8.383   0.582  1.00  0.00    -0.744 OA
ENDBRANCH  89  90
ENDBRANCH  57  82
BRANCH  69  94
ATOM     94  C   UNL     1      21.441   0.003   4.979  1.00  0.00     0.058 A 
ATOM     95  C   UNL     1      21.963   0.112   3.680  1.00  0.00     0.135 A 
ATOM     96  C   UNL     1      22.353  -0.093   6.043  1.00  0.00     0.135 A 
ATOM     97  F   UNL     1      21.138   0.200   2.625  1.00  0.00    -0.206 F 
ATOM     98  C   UNL     1      23.334   0.102   3.444  1.00  0.00     0.059 A 
ATOM     99  C   UNL     1      23.728  -0.071   5.834  1.00  0.00     0.059 A 
ATOM    100  F   UNL     1      21.910  -0.190   7.307  1.00  0.00    -0.206 F 
ATOM    101  C   UNL     1      24.209   0.015   4.529  1.00  0.00     0.060 A 
BRANCH 101 102
ATOM    102  S   UNL     1      25.986   0.039   4.210  1.00  0.00     0.124 S 
ATOM    103  O   UNL     1      26.195  -1.272   3.604  1.00  0.00    -0.237 OA
ATOM    104  O   UNL     1      26.125   1.182   3.312  1.00  0.00    -0.237 OA
ATOM    105  O   UNL     1      26.568   0.217   5.537  1.00  0.00    -0.744 OA
ENDBRANCH 101 102
ENDBRANCH  69  94
ENDBRANCH  43  44
ENDBRANCH  35  38
ENDBRANCH  33  34
ENDBRANCH  32  33
ENDBRANCH   1  32
TORSDOF 19
