REMARK SMILES O=C(NCCCCCCNC(=O)c1cc(Br)n(Cc2ccn(C3CCCC3)n2)c1)c1ccc(-c2c3nc(c(-c4c(F)cc(S(=O)(=O)[O-])cc4F)c4ccc([nH]4)c(-c4c(F)cc(S(=O)(=O)[O-])cc4F)c4nc(c(-c5c(F)cc(S(=O)(=O)[O-])cc5F)c5ccc2[nH]5)C=C4)C=C3)cc1
REMARK SMILES IDX 6 1 5 2 4 3 3 4 1 5 2 6 30 8 31 9 95 10 32 11 94 12 33 13
REMARK SMILES IDX 34 14 35 15 88 16 36 17 93 18 87 19 89 20 37 21 92 22 86 23
REMARK SMILES IDX 85 24 38 26 72 27 51 28 71 29 52 30 55 31 70 32 90 33 53 34
REMARK SMILES IDX 54 35 69 37 91 38 56 39 39 40 40 41 49 42 41 43 42 44 48 45
REMARK SMILES IDX 50 46 43 47 44 48 45 49 46 50 47 51 73 52 74 53 83 54 75 55
REMARK SMILES IDX 76 56 82 57 84 58 77 59 78 60 79 61 80 62 81 63 57 64 58 65
REMARK SMILES IDX 67 66 59 67 60 68 66 69 68 70 61 71 62 72 63 73 64 74 65 75
REMARK SMILES IDX 7 76 8 77 9 78 10 79 11 80 12 82 13 83 14 84 29 85 15 86
REMARK SMILES IDX 17 87 16 88 18 89 19 90 20 91 28 92 21 93 22 94 23 95 24 96
REMARK SMILES IDX 27 97 25 98 26 99
REMARK H PARENT 3 7 89 25 55 36 10 81
REMARK Flexibility Score: inf
ROOT
ATOM      1  C   UNL     1       4.196   2.599  -2.401  1.00  0.00     0.002 C 
ENDROOT
BRANCH   1   2
ATOM      2  C   UNL     1       4.702   1.230  -1.933  1.00  0.00     0.021 C 
BRANCH   2   3
ATOM      3  C   UNL     1       4.561   0.974  -0.431  1.00  0.00     0.116 C 
BRANCH   3   4
ATOM      4  N   UNL     1       3.197   1.054   0.046  1.00  0.00    -0.352 N 
ATOM      5  O   UNL     1       1.113   0.619   0.618  1.00  0.00    -0.269 OA
ATOM      6  C   UNL     1       2.126   0.204   0.046  1.00  0.00     0.251 C 
ATOM      7  H   UNL     1       2.994   1.920   0.469  1.00  0.00     0.163 HD
BRANCH   6   8
ATOM      8  C   UNL     1       2.089  -1.141  -0.600  1.00  0.00     0.039 A 
ATOM      9  C   UNL     1       3.175  -1.803  -1.174  1.00  0.00     0.014 A 
ATOM     10  C   UNL     1       0.835  -1.782  -0.624  1.00  0.00     0.014 A 
ATOM     11  C   UNL     1       3.013  -3.044  -1.790  1.00  0.00     0.010 A 
ATOM     12  C   UNL     1       0.670  -3.031  -1.221  1.00  0.00     0.010 A 
ATOM     13  C   UNL     1       1.760  -3.656  -1.825  1.00  0.00    -0.014 A 
BRANCH  13  14
ATOM     14  C   UNL     1       1.666  -4.983  -2.436  1.00  0.00     0.031 A 
ATOM     15  C   UNL     1       2.390  -6.097  -1.747  1.00  0.00     0.074 A 
ATOM     16  C   UNL     1       0.849  -5.270  -3.468  1.00  0.00     0.049 A 
ATOM     17  N   UNL     1       3.276  -6.914  -2.224  1.00  0.00    -0.248 NA
ATOM     18  C   UNL     1       2.100  -6.302  -0.319  1.00  0.00     0.031 C 
ATOM     19  C   UNL     1      -0.185  -4.417  -4.058  1.00  0.00     0.029 A 
ATOM     20  N   UNL     1       0.700  -6.453  -4.134  1.00  0.00    -0.354 N 
ATOM     21  C   UNL     1       3.529  -7.847  -1.216  1.00  0.00     0.074 A 
ATOM     22  C   UNL     1       2.854  -7.365  -0.038  1.00  0.00     0.031 C 
ATOM     23  C   UNL     1      -0.993  -5.177  -4.830  1.00  0.00     0.029 A 
ATOM     24  C   UNL     1      -0.457  -6.527  -4.893  1.00  0.00     0.049 A 
ATOM     25  H   UNL     1       1.355  -7.186  -4.080  1.00  0.00     0.167 HD
ATOM     26  C   UNL     1       4.147  -9.041  -1.445  1.00  0.00     0.037 A 
ATOM     27  C   UNL     1      -0.984  -7.636  -5.462  1.00  0.00     0.037 A 
ATOM     28  C   UNL     1       4.861  -9.055  -2.692  1.00  0.00     0.049 A 
ATOM     29  C   UNL     1       0.092  -8.651  -5.583  1.00  0.00     0.074 A 
ATOM     30  C   UNL     1       5.909  -8.334  -3.227  1.00  0.00     0.029 A 
ATOM     31  N   UNL     1       4.331  -9.767  -3.738  1.00  0.00    -0.354 N 
ATOM     32  N   UNL     1       1.128  -8.548  -6.370  1.00  0.00    -0.248 NA
ATOM     33  C   UNL     1       0.197  -9.671  -4.551  1.00  0.00     0.031 C 
ATOM     34  C   UNL     1       5.655  -8.286  -4.628  1.00  0.00     0.029 A 
ATOM     35  C   UNL     1       4.470  -8.986  -4.857  1.00  0.00     0.049 A 
ATOM     36  H   UNL     1       3.930 -10.665  -3.694  1.00  0.00     0.167 HD
ATOM     37  C   UNL     1       2.152  -9.204  -5.704  1.00  0.00     0.074 A 
ATOM     38  C   UNL     1       1.491  -9.976  -4.660  1.00  0.00     0.031 C 
ATOM     39  C   UNL     1       3.459  -8.852  -5.883  1.00  0.00     0.037 A 
BRANCH  26  40
ATOM     40  C   UNL     1       3.882 -10.310  -0.667  1.00  0.00     0.058 A 
ATOM     41  C   UNL     1       4.744 -11.418  -0.810  1.00  0.00     0.135 A 
ATOM     42  C   UNL     1       2.658 -10.571  -0.012  1.00  0.00     0.135 A 
ATOM     43  F   UNL     1       5.931 -11.287  -1.424  1.00  0.00    -0.206 F 
ATOM     44  C   UNL     1       4.385 -12.704  -0.402  1.00  0.00     0.059 A 
ATOM     45  C   UNL     1       2.303 -11.835   0.450  1.00  0.00     0.059 A 
ATOM     46  F   UNL     1       1.713  -9.631   0.119  1.00  0.00    -0.206 F 
ATOM     47  C   UNL     1       3.150 -12.905   0.206  1.00  0.00     0.060 A 
BRANCH  47  48
ATOM     48  S   UNL     1       2.619 -14.582   0.601  1.00  0.00     0.124 S 
ATOM     49  O   UNL     1       2.312 -15.105  -0.726  1.00  0.00    -0.237 OA
ATOM     50  O   UNL     1       3.804 -15.137   1.248  1.00  0.00    -0.237 OA
ATOM     51  O   UNL     1       1.473 -14.372   1.480  1.00  0.00    -0.744 OA
ENDBRANCH  47  48
ENDBRANCH  26  40
BRANCH  27  52
ATOM     52  C   UNL     1      -2.422  -7.968  -5.617  1.00  0.00     0.058 A 
ATOM     53  C   UNL     1      -2.850  -8.981  -6.491  1.00  0.00     0.135 A 
ATOM     54  C   UNL     1      -3.389  -7.473  -4.716  1.00  0.00     0.135 A 
ATOM     55  F   UNL     1      -1.987  -9.534  -7.357  1.00  0.00    -0.206 F 
ATOM     56  C   UNL     1      -4.151  -9.494  -6.455  1.00  0.00     0.059 A 
ATOM     57  C   UNL     1      -4.694  -7.955  -4.673  1.00  0.00     0.059 A 
ATOM     58  F   UNL     1      -3.066  -6.564  -3.784  1.00  0.00    -0.206 F 
ATOM     59  C   UNL     1      -5.063  -8.983  -5.532  1.00  0.00     0.060 A 
BRANCH  59  60
ATOM     60  S   UNL     1      -6.693  -9.746  -5.373  1.00  0.00     0.124 S 
ATOM     61  O   UNL     1      -7.336  -9.341  -6.619  1.00  0.00    -0.237 OA
ATOM     62  O   UNL     1      -6.360 -11.162  -5.258  1.00  0.00    -0.237 OA
ATOM     63  O   UNL     1      -7.237  -9.137  -4.163  1.00  0.00    -0.744 OA
ENDBRANCH  59  60
ENDBRANCH  27  52
BRANCH  39  64
ATOM     64  C   UNL     1       3.819  -7.995  -7.067  1.00  0.00     0.058 A 
ATOM     65  C   UNL     1       3.398  -6.664  -7.221  1.00  0.00     0.135 A 
ATOM     66  C   UNL     1       4.778  -8.476  -7.973  1.00  0.00     0.135 A 
ATOM     67  F   UNL     1       2.564  -6.099  -6.336  1.00  0.00    -0.206 F 
ATOM     68  C   UNL     1       3.890  -5.853  -8.244  1.00  0.00     0.059 A 
ATOM     69  C   UNL     1       5.305  -7.675  -8.983  1.00  0.00     0.059 A 
ATOM     70  F   UNL     1       5.266  -9.721  -7.838  1.00  0.00    -0.206 F 
ATOM     71  C   UNL     1       4.853  -6.364  -9.115  1.00  0.00     0.060 A 
BRANCH  71  72
ATOM     72  S   UNL     1       5.591  -5.266 -10.345  1.00  0.00     0.124 S 
ATOM     73  O   UNL     1       4.535  -5.173 -11.348  1.00  0.00    -0.237 OA
ATOM     74  O   UNL     1       5.845  -4.049  -9.577  1.00  0.00    -0.237 OA
ATOM     75  O   UNL     1       6.792  -5.984 -10.765  1.00  0.00    -0.744 OA
ENDBRANCH  71  72
ENDBRANCH  39  64
ENDBRANCH  13  14
ENDBRANCH   6   8
ENDBRANCH   3   4
ENDBRANCH   2   3
ENDBRANCH   1   2
BRANCH   1  76
ATOM     76  C   UNL     1       4.786   3.807  -1.667  1.00  0.00     0.002 C 
BRANCH  76  77
ATOM     77  C   UNL     1       6.317   3.884  -1.653  1.00  0.00     0.021 C 
BRANCH  77  78
ATOM     78  C   UNL     1       6.963   4.010  -3.034  1.00  0.00     0.116 C 
BRANCH  78  79
ATOM     79  N   UNL     1       6.659   5.298  -3.631  1.00  0.00    -0.352 N 
ATOM     80  C   UNL     1       7.513   6.335  -3.891  1.00  0.00     0.252 C 
ATOM     81  H   UNL     1       5.718   5.445  -3.880  1.00  0.00     0.163 HD
ATOM     82  O   UNL     1       7.057   7.464  -4.085  1.00  0.00    -0.269 OA
BRANCH  80  83
ATOM     83  C   UNL     1       8.939   6.062  -3.949  1.00  0.00     0.058 A 
ATOM     84  C   UNL     1       9.616   5.085  -4.736  1.00  0.00     0.049 A 
ATOM     85  C   UNL     1       9.923   6.790  -3.302  1.00  0.00     0.101 A 
ATOM     86  C   UNL     1      10.968   5.275  -4.566  1.00  0.00     0.086 A 
ATOM     87  N   UNL     1      11.154   6.271  -3.640  1.00  0.00    -0.335 N 
ATOM     88  Br  UNL     1      12.264   4.328  -5.523  1.00  0.00    -0.031 Br
BRANCH  87  89
ATOM     89  C   UNL     1      12.428   6.824  -3.190  1.00  0.00     0.180 C 
BRANCH  89  90
ATOM     90  C   UNL     1      13.014   6.070  -2.037  1.00  0.00     0.082 A 
ATOM     91  C   UNL     1      13.338   4.693  -1.954  1.00  0.00     0.047 A 
ATOM     92  N   UNL     1      13.386   6.717  -0.918  1.00  0.00    -0.176 NA
ATOM     93  C   UNL     1      13.930   4.529  -0.727  1.00  0.00     0.109 A 
ATOM     94  N   UNL     1      13.938   5.761  -0.143  1.00  0.00    -0.269 N 
BRANCH  94  95
ATOM     95  C   UNL     1      14.495   6.074   1.153  1.00  0.00     0.107 C 
ATOM     96  C   UNL     1      15.433   7.279   1.186  1.00  0.00     0.027 C 
ATOM     97  C   UNL     1      13.456   6.425   2.216  1.00  0.00     0.027 C 
ATOM     98  C   UNL     1      15.576   7.564   2.676  1.00  0.00     0.002 C 
ATOM     99  C   UNL     1      14.254   7.132   3.312  1.00  0.00     0.002 C 
ENDBRANCH  94  95
ENDBRANCH  89  90
ENDBRANCH  87  89
ENDBRANCH  80  83
ENDBRANCH  78  79
ENDBRANCH  77  78
ENDBRANCH  76  77
ENDBRANCH   1  76
TORSDOF 19
