REMARK SMILES CS(=O)(=O)Nc1ccc(-c2cc(Cl)cc3c2O[C@H](C(F)(F)F)C(C(=O)NCCCCCCNC(=O)c2ccc(-c4c5nc(c(-c6c(F)cc(S(=O)(=O)[O-])cc6F)c6ccc([nH]6)c(-c6c(F)cc(S(=O)(=O)[O-])cc6F)c6nc(c(-c7c(F)cc(S(=O)(=O)[O-])cc7F)c7ccc4[nH]7)C=C6)C=C5)cc2)=C3)cc1
REMARK SMILES IDX 29 1 28 2 27 3 26 4 24 5 25 6 23 8 10 9 11 10 16 11 12 12
REMARK SMILES IDX 15 13 17 14 13 15 14 16 102 17 18 18 9 19 6 20 7 21 104 22
REMARK SMILES IDX 8 23 103 24 5 25 2 27 1 28 3 29 4 30 19 31 20 32 21 33 22 34
REMARK SMILES IDX 30 35 31 36 32 37 33 38 34 39 35 41 36 42 37 43 101 44 38 45
REMARK SMILES IDX 100 46 39 47 40 48 41 49 94 50 42 51 99 52 93 53 95 54 43 55
REMARK SMILES IDX 98 56 92 57 91 58 44 60 78 61 57 62 77 63 58 64 61 65 76 66
REMARK SMILES IDX 96 67 59 68 60 69 75 71 97 72 62 73 45 74 46 75 55 76 47 77
REMARK SMILES IDX 48 78 54 79 56 80 49 81 50 82 51 83 52 84 53 85 79 86 80 87
REMARK SMILES IDX 89 88 81 89 82 90 88 91 90 92 83 93 84 94 85 95 86 96 87 97
REMARK SMILES IDX 63 98 64 99 73 100 65 101 66 102 72 103 74 104 67 105 68 106
REMARK SMILES IDX 69 107 70 108 71 109
REMARK H PARENT 26 7 5 26 33 40 95 59 61 70
REMARK Flexibility Score: inf
ROOT
ATOM      1  C   UNL     1      10.498 -10.959   4.702  1.00  0.00     0.002 C 
ENDROOT
BRANCH   1   2
ATOM      2  C   UNL     1      10.769  -9.460   4.919  1.00  0.00     0.021 C 
BRANCH   2   3
ATOM      3  C   UNL     1      10.452  -8.567   3.711  1.00  0.00     0.116 C 
BRANCH   3   4
ATOM      4  N   UNL     1       9.053  -8.703   3.356  1.00  0.00    -0.352 N 
ATOM      5  C   UNL     1       8.139  -7.701   3.376  1.00  0.00     0.251 C 
ATOM      6  O   UNL     1       7.062  -7.862   3.936  1.00  0.00    -0.270 OA
ATOM      7  H   UNL     1       8.741  -9.595   3.080  1.00  0.00     0.163 HD
BRANCH   5   8
ATOM      8  C   UNL     1       8.452  -6.505   2.538  1.00  0.00     0.067 C 
ATOM      9  C   UNL     1       4.930  -4.515   2.915  1.00  0.00     0.026 A 
ATOM     10  C   UNL     1       3.908  -5.493   2.761  1.00  0.00     0.033 A 
ATOM     11  C   UNL     1       6.223  -4.913   2.537  1.00  0.00     0.135 A 
ATOM     12  C   UNL     1       4.114  -6.704   2.106  1.00  0.00     0.042 A 
ATOM     13  C   UNL     1       6.383  -6.090   1.761  1.00  0.00     0.019 A 
ATOM     14  O   UNL     1       7.377  -4.253   2.943  1.00  0.00    -0.475 OA
ATOM     15  Cl  UNL     1       2.831  -7.842   1.992  1.00  0.00    -0.084 Cl
ATOM     16  C   UNL     1       5.336  -6.975   1.528  1.00  0.00     0.032 A 
ATOM     17  C   UNL     1       7.757  -6.487   1.383  1.00  0.00     0.025 C 
ATOM     18  C   UNL     1       8.503  -5.182   3.287  1.00  0.00     0.314 C 
BRANCH   9  19
ATOM     19  C   UNL     1       4.427  -3.145   3.232  1.00  0.00    -0.014 A 
ATOM     20  C   UNL     1       2.479  -1.076   3.006  1.00  0.00     0.048 A 
ATOM     21  C   UNL     1       2.448  -1.976   4.074  1.00  0.00     0.027 A 
ATOM     22  C   UNL     1       3.582  -1.103   2.156  1.00  0.00     0.027 A 
ATOM     23  C   UNL     1       3.427  -2.973   4.208  1.00  0.00     0.011 A 
ATOM     24  C   UNL     1       4.552  -2.124   2.272  1.00  0.00     0.011 A 
BRANCH  20  25
ATOM     25  N   UNL     1       1.278  -0.345   2.765  1.00  0.00    -0.284 N 
ATOM     26  H   UNL     1       0.533  -0.521   3.384  1.00  0.00     0.180 HD
BRANCH  25  27
ATOM     27  S   UNL     1       0.984   0.766   1.567  1.00  0.00     0.229 S 
ATOM     28  C   UNL     1       0.950  -0.203   0.068  1.00  0.00     0.183 C 
ATOM     29  O   UNL     1       2.078   1.710   1.496  1.00  0.00    -0.207 OA
ATOM     30  O   UNL     1      -0.371   1.218   1.805  1.00  0.00    -0.207 OA
ENDBRANCH  25  27
ENDBRANCH  20  25
ENDBRANCH   9  19
BRANCH  18  31
ATOM     31  C   UNL     1       9.887  -4.545   3.020  1.00  0.00     0.429 C 
ATOM     32  F   UNL     1       9.811  -3.452   2.228  1.00  0.00    -0.167 F 
ATOM     33  F   UNL     1      10.487  -4.177   4.176  1.00  0.00    -0.167 F 
ATOM     34  F   UNL     1      10.743  -5.405   2.407  1.00  0.00    -0.167 F 
ENDBRANCH  18  31
ENDBRANCH   5   8
ENDBRANCH   3   4
ENDBRANCH   2   3
ENDBRANCH   1   2
BRANCH   1  35
ATOM     35  C   UNL     1      11.204 -11.571   3.491  1.00  0.00     0.002 C 
BRANCH  35  36
ATOM     36  C   UNL     1      12.727 -11.453   3.519  1.00  0.00     0.021 C 
BRANCH  36  37
ATOM     37  C   UNL     1      13.383 -12.034   4.767  1.00  0.00     0.116 C 
BRANCH  37  38
ATOM     38  N   UNL     1      13.127 -13.458   4.915  1.00  0.00    -0.352 N 
ATOM     39  C   UNL     1      14.019 -14.468   5.181  1.00  0.00     0.251 C 
ATOM     40  H   UNL     1      12.189 -13.735   4.810  1.00  0.00     0.163 HD
ATOM     41  O   UNL     1      13.665 -15.640   5.102  1.00  0.00    -0.269 OA
BRANCH  39  42
ATOM     42  C   UNL     1      15.412 -14.129   5.537  1.00  0.00     0.039 A 
ATOM     43  C   UNL     1      16.456 -14.812   4.910  1.00  0.00     0.014 A 
ATOM     44  C   UNL     1      15.684 -13.123   6.469  1.00  0.00     0.014 A 
ATOM     45  C   UNL     1      17.777 -14.445   5.178  1.00  0.00     0.010 A 
ATOM     46  C   UNL     1      16.996 -12.706   6.671  1.00  0.00     0.010 A 
ATOM     47  C   UNL     1      18.056 -13.367   6.034  1.00  0.00    -0.014 A 
BRANCH  47  48
ATOM     48  C   UNL     1      19.451 -12.919   6.276  1.00  0.00     0.031 A 
ATOM     49  C   UNL     1      20.040 -12.994   7.659  1.00  0.00     0.074 A 
ATOM     50  C   UNL     1      20.166 -12.388   5.265  1.00  0.00     0.049 A 
ATOM     51  N   UNL     1      21.215 -12.602   8.079  1.00  0.00    -0.248 NA
ATOM     52  C   UNL     1      19.182 -13.557   8.714  1.00  0.00     0.031 C 
ATOM     53  C   UNL     1      19.687 -12.213   3.892  1.00  0.00     0.029 A 
ATOM     54  N   UNL     1      21.444 -11.889   5.235  1.00  0.00    -0.354 N 
ATOM     55  C   UNL     1      21.235 -12.862   9.444  1.00  0.00     0.074 A 
ATOM     56  C   UNL     1      19.931 -13.384   9.793  1.00  0.00     0.031 C 
ATOM     57  C   UNL     1      20.664 -11.668   3.151  1.00  0.00     0.029 A 
ATOM     58  C   UNL     1      21.824 -11.416   4.001  1.00  0.00     0.049 A 
ATOM     59  H   UNL     1      22.033 -11.870   6.024  1.00  0.00     0.167 HD
ATOM     60  C   UNL     1      22.254 -12.705  10.323  1.00  0.00     0.037 A 
ATOM     61  C   UNL     1      22.972 -10.837   3.600  1.00  0.00     0.037 A 
ATOM     62  C   UNL     1      23.552 -12.194   9.964  1.00  0.00     0.049 A 
ATOM     63  C   UNL     1      24.089 -10.663   4.592  1.00  0.00     0.074 A 
ATOM     64  C   UNL     1      24.669 -12.044  10.765  1.00  0.00     0.029 A 
ATOM     65  N   UNL     1      23.904 -11.742   8.699  1.00  0.00    -0.354 N 
ATOM     66  N   UNL     1      24.116 -10.977   5.866  1.00  0.00    -0.248 NA
ATOM     67  C   UNL     1      25.335 -10.065   4.093  1.00  0.00     0.031 C 
ATOM     68  C   UNL     1      25.680 -11.451  10.000  1.00  0.00     0.029 A 
ATOM     69  C   UNL     1      25.214 -11.289   8.705  1.00  0.00     0.049 A 
ATOM     70  H   UNL     1      23.311 -11.744   7.913  1.00  0.00     0.167 HD
ATOM     71  C   UNL     1      25.388 -10.639   6.315  1.00  0.00     0.074 A 
ATOM     72  C   UNL     1      26.104 -10.107   5.173  1.00  0.00     0.031 C 
ATOM     73  C   UNL     1      25.915 -10.760   7.559  1.00  0.00     0.037 A 
BRANCH  60  74
ATOM     74  C   UNL     1      21.998 -13.086  11.758  1.00  0.00     0.058 A 
ATOM     75  C   UNL     1      21.790 -14.421  12.143  1.00  0.00     0.135 A 
ATOM     76  C   UNL     1      21.968 -12.106  12.763  1.00  0.00     0.135 A 
ATOM     77  F   UNL     1      21.794 -15.400  11.223  1.00  0.00    -0.206 F 
ATOM     78  C   UNL     1      21.515 -14.765  13.462  1.00  0.00     0.059 A 
ATOM     79  C   UNL     1      21.729 -12.432  14.096  1.00  0.00     0.059 A 
ATOM     80  F   UNL     1      22.164 -10.815  12.456  1.00  0.00    -0.206 F 
ATOM     81  C   UNL     1      21.482 -13.762  14.431  1.00  0.00     0.060 A 
BRANCH  81  82
ATOM     82  S   UNL     1      21.102 -14.223  16.135  1.00  0.00     0.124 S 
ATOM     83  O   UNL     1      19.677 -14.526  16.042  1.00  0.00    -0.237 OA
ATOM     84  O   UNL     1      21.980 -15.368  16.352  1.00  0.00    -0.237 OA
ATOM     85  O   UNL     1      21.439 -13.024  16.895  1.00  0.00    -0.744 OA
ENDBRANCH  81  82
ENDBRANCH  60  74
BRANCH  61  86
ATOM     86  C   UNL     1      23.122 -10.405   2.184  1.00  0.00     0.058 A 
ATOM     87  C   UNL     1      23.974 -11.088   1.305  1.00  0.00     0.135 A 
ATOM     88  C   UNL     1      22.384  -9.326   1.672  1.00  0.00     0.135 A 
ATOM     89  F   UNL     1      24.706 -12.121   1.748  1.00  0.00    -0.206 F 
ATOM     90  C   UNL     1      24.093 -10.717  -0.031  1.00  0.00     0.059 A 
ATOM     91  C   UNL     1      22.466  -8.952   0.335  1.00  0.00     0.059 A 
ATOM     92  F   UNL     1      21.542  -8.649   2.469  1.00  0.00    -0.206 F 
ATOM     93  C   UNL     1      23.328  -9.651  -0.508  1.00  0.00     0.060 A 
BRANCH  93  94
ATOM     94  S   UNL     1      23.434  -9.227  -2.261  1.00  0.00     0.124 S 
ATOM     95  O   UNL     1      24.764  -8.634  -2.340  1.00  0.00    -0.237 OA
ATOM     96  O   UNL     1      23.275 -10.529  -2.900  1.00  0.00    -0.237 OA
ATOM     97  O   UNL     1      22.319  -8.304  -2.451  1.00  0.00    -0.744 OA
ENDBRANCH  93  94
ENDBRANCH  61  86
BRANCH  73  98
ATOM     98  C   UNL     1      27.347 -10.339   7.751  1.00  0.00     0.058 A 
ATOM     99  C   UNL     1      27.733  -8.990   7.731  1.00  0.00     0.135 A 
ATOM    100  C   UNL     1      28.339 -11.299   8.013  1.00  0.00     0.135 A 
ATOM    101  F   UNL     1      26.827  -8.032   7.479  1.00  0.00    -0.206 F 
ATOM    102  C   UNL     1      29.054  -8.608   7.940  1.00  0.00     0.059 A 
ATOM    103  C   UNL     1      29.660 -10.939   8.255  1.00  0.00     0.059 A 
ATOM    104  F   UNL     1      28.024 -12.604   8.053  1.00  0.00    -0.206 F 
ATOM    105  C   UNL     1      30.011  -9.591   8.205  1.00  0.00     0.060 A 
BRANCH 105 106
ATOM    106  S   UNL     1      31.715  -9.079   8.509  1.00  0.00     0.124 S 
ATOM    107  O   UNL     1      32.147  -8.684   7.173  1.00  0.00    -0.237 OA
ATOM    108  O   UNL     1      31.547  -7.991   9.468  1.00  0.00    -0.237 OA
ATOM    109  O   UNL     1      32.343 -10.284   9.042  1.00  0.00    -0.744 OA
ENDBRANCH 105 106
ENDBRANCH  73  98
ENDBRANCH  47  48
ENDBRANCH  39  42
ENDBRANCH  37  38
ENDBRANCH  36  37
ENDBRANCH  35  36
ENDBRANCH   1  35
TORSDOF 20
