REMARK SMILES O=C(NCCCCCCNC(=O)c1cc(S(=O)(=O)Nc2cccc(Cl)c2)ccc1O)c1ccc(-c2c3nc(c(-c4c(F)cc(S(=O)(=O)[O-])cc4F)c4ccc([nH]4)c(-c4c(F)cc(S(=O)(=O)[O-])cc4F)c4nc(c(-c5c(F)cc(S(=O)(=O)[O-])cc5F)c5ccc2[nH]5)C=C4)C=C3)cc1
REMARK SMILES IDX 6 1 5 2 4 3 3 4 1 5 2 6 31 8 32 9 96 10 33 11 95 12 34 13
REMARK SMILES IDX 35 14 36 15 89 16 37 17 94 18 88 19 90 20 38 21 93 22 87 23
REMARK SMILES IDX 86 24 39 26 73 27 52 28 72 29 53 30 56 31 71 32 91 33 54 34
REMARK SMILES IDX 55 35 70 37 92 38 57 39 40 40 41 41 50 42 42 43 43 44 49 45
REMARK SMILES IDX 51 46 44 47 45 48 46 49 47 50 48 51 74 52 75 53 84 54 76 55
REMARK SMILES IDX 77 56 83 57 85 58 78 59 79 60 80 61 81 62 82 63 58 64 59 65
REMARK SMILES IDX 68 66 60 67 61 68 67 69 69 70 62 71 63 72 64 73 65 74 66 75
REMARK SMILES IDX 7 76 8 77 9 78 10 79 11 80 12 82 13 83 14 84 29 85 15 86
REMARK SMILES IDX 28 87 27 88 30 89 16 91 17 92 18 93 19 94 20 96 21 97 26 98
REMARK SMILES IDX 22 99 24 100 23 101 25 102
REMARK H PARENT 3 7 90 25 56 36 10 81 30 90 19 95
REMARK Flexibility Score: inf
ROOT
ATOM      1  C   UNL     1       4.222  -3.034  -2.481  1.00  0.00     0.002 C 
ENDROOT
BRANCH   1   2
ATOM      2  C   UNL     1       4.739  -2.433  -1.174  1.00  0.00     0.021 C 
BRANCH   2   3
ATOM      3  C   UNL     1       4.507  -0.937  -1.001  1.00  0.00     0.116 C 
BRANCH   3   4
ATOM      4  N   UNL     1       3.098  -0.577  -0.977  1.00  0.00    -0.352 N 
ATOM      5  O   UNL     1       1.179   0.250  -0.127  1.00  0.00    -0.269 OA
ATOM      6  C   UNL     1       2.400   0.155  -0.044  1.00  0.00     0.251 C 
ATOM      7  H   UNL     1       2.567  -0.905  -1.738  1.00  0.00     0.163 HD
BRANCH   6   8
ATOM      8  C   UNL     1       3.122   0.799   1.077  1.00  0.00     0.039 A 
ATOM      9  C   UNL     1       4.312   1.493   0.855  1.00  0.00     0.014 A 
ATOM     10  C   UNL     1       2.606   0.693   2.372  1.00  0.00     0.014 A 
ATOM     11  C   UNL     1       5.069   1.929   1.937  1.00  0.00     0.010 A 
ATOM     12  C   UNL     1       3.324   1.218   3.452  1.00  0.00     0.010 A 
ATOM     13  C   UNL     1       4.584   1.802   3.249  1.00  0.00    -0.014 A 
BRANCH  13  14
ATOM     14  C   UNL     1       5.401   2.322   4.378  1.00  0.00     0.031 A 
ATOM     15  C   UNL     1       5.944   1.402   5.439  1.00  0.00     0.074 A 
ATOM     16  C   UNL     1       5.689   3.639   4.415  1.00  0.00     0.049 A 
ATOM     17  N   UNL     1       6.719   1.687   6.456  1.00  0.00    -0.248 NA
ATOM     18  C   UNL     1       5.565  -0.017   5.358  1.00  0.00     0.031 C 
ATOM     19  C   UNL     1       5.206   4.632   3.451  1.00  0.00     0.029 A 
ATOM     20  N   UNL     1       6.473   4.366   5.272  1.00  0.00    -0.354 N 
ATOM     21  C   UNL     1       6.899   0.494   7.149  1.00  0.00     0.074 A 
ATOM     22  C   UNL     1       6.134  -0.515   6.448  1.00  0.00     0.031 C 
ATOM     23  C   UNL     1       5.752   5.823   3.734  1.00  0.00     0.029 A 
ATOM     24  C   UNL     1       6.572   5.695   4.933  1.00  0.00     0.049 A 
ATOM     25  H   UNL     1       6.923   3.974   6.056  1.00  0.00     0.167 HD
ATOM     26  C   UNL     1       7.639   0.262   8.261  1.00  0.00     0.037 A 
ATOM     27  C   UNL     1       7.241   6.703   5.523  1.00  0.00     0.037 A 
ATOM     28  C   UNL     1       8.417   1.269   8.940  1.00  0.00     0.049 A 
ATOM     29  C   UNL     1       8.049   6.419   6.756  1.00  0.00     0.074 A 
ATOM     30  C   UNL     1       9.238   1.123  10.045  1.00  0.00     0.029 A 
ATOM     31  N   UNL     1       8.466   2.610   8.584  1.00  0.00    -0.354 N 
ATOM     32  N   UNL     1       8.239   5.276   7.371  1.00  0.00    -0.248 NA
ATOM     33  C   UNL     1       8.730   7.561   7.378  1.00  0.00     0.031 C 
ATOM     34  C   UNL     1       9.746   2.382  10.385  1.00  0.00     0.029 A 
ATOM     35  C   UNL     1       9.284   3.305   9.461  1.00  0.00     0.049 A 
ATOM     36  H   UNL     1       7.989   3.009   7.821  1.00  0.00     0.167 HD
ATOM     37  C   UNL     1       9.082   5.557   8.440  1.00  0.00     0.074 A 
ATOM     38  C   UNL     1       9.375   6.975   8.377  1.00  0.00     0.031 C 
ATOM     39  C   UNL     1       9.569   4.717   9.386  1.00  0.00     0.037 A 
BRANCH  26  40
ATOM     40  C   UNL     1       7.629  -1.131   8.834  1.00  0.00     0.058 A 
ATOM     41  C   UNL     1       8.278  -2.201   8.198  1.00  0.00     0.135 A 
ATOM     42  C   UNL     1       6.992  -1.390  10.059  1.00  0.00     0.135 A 
ATOM     43  F   UNL     1       8.892  -2.016   7.019  1.00  0.00    -0.206 F 
ATOM     44  C   UNL     1       8.270  -3.483   8.740  1.00  0.00     0.059 A 
ATOM     45  C   UNL     1       6.994  -2.658  10.633  1.00  0.00     0.059 A 
ATOM     46  F   UNL     1       6.360  -0.403  10.714  1.00  0.00    -0.206 F 
ATOM     47  C   UNL     1       7.622  -3.703   9.957  1.00  0.00     0.060 A 
BRANCH  47  48
ATOM     48  S   UNL     1       7.615  -5.373  10.643  1.00  0.00     0.124 S 
ATOM     49  O   UNL     1       6.663  -6.043   9.763  1.00  0.00    -0.237 OA
ATOM     50  O   UNL     1       9.009  -5.779  10.492  1.00  0.00    -0.237 OA
ATOM     51  O   UNL     1       7.168  -5.175  12.018  1.00  0.00    -0.744 OA
ENDBRANCH  47  48
ENDBRANCH  26  40
BRANCH  27  52
ATOM     52  C   UNL     1       7.180   8.069   4.941  1.00  0.00     0.058 A 
ATOM     53  C   UNL     1       8.303   8.642   4.327  1.00  0.00     0.135 A 
ATOM     54  C   UNL     1       5.992   8.816   4.961  1.00  0.00     0.135 A 
ATOM     55  F   UNL     1       9.463   7.967   4.287  1.00  0.00    -0.206 F 
ATOM     56  C   UNL     1       8.256   9.912   3.764  1.00  0.00     0.059 A 
ATOM     57  C   UNL     1       5.912  10.076   4.379  1.00  0.00     0.059 A 
ATOM     58  F   UNL     1       4.884   8.304   5.520  1.00  0.00    -0.206 F 
ATOM     59  C   UNL     1       7.053  10.620   3.792  1.00  0.00     0.060 A 
BRANCH  59  60
ATOM     60  S   UNL     1       6.986  12.246   3.010  1.00  0.00     0.124 S 
ATOM     61  O   UNL     1       7.712  13.064   3.974  1.00  0.00    -0.237 OA
ATOM     62  O   UNL     1       7.663  12.004   1.740  1.00  0.00    -0.237 OA
ATOM     63  O   UNL     1       5.554  12.510   2.908  1.00  0.00    -0.744 OA
ENDBRANCH  59  60
ENDBRANCH  27  52
BRANCH  39  64
ATOM     64  C   UNL     1      10.501   5.305  10.409  1.00  0.00     0.058 A 
ATOM     65  C   UNL     1      10.042   6.158  11.425  1.00  0.00     0.135 A 
ATOM     66  C   UNL     1      11.870   4.993  10.382  1.00  0.00     0.135 A 
ATOM     67  F   UNL     1       8.744   6.494  11.490  1.00  0.00    -0.206 F 
ATOM     68  C   UNL     1      10.914   6.709  12.359  1.00  0.00     0.059 A 
ATOM     69  C   UNL     1      12.755   5.510  11.322  1.00  0.00     0.059 A 
ATOM     70  F   UNL     1      12.359   4.174   9.437  1.00  0.00    -0.206 F 
ATOM     71  C   UNL     1      12.270   6.380  12.297  1.00  0.00     0.060 A 
BRANCH  71  72
ATOM     72  S   UNL     1      13.391   7.089  13.522  1.00  0.00     0.124 S 
ATOM     73  O   UNL     1      13.526   8.459  13.037  1.00  0.00    -0.237 OA
ATOM     74  O   UNL     1      12.642   6.928  14.764  1.00  0.00    -0.237 OA
ATOM     75  O   UNL     1      14.587   6.260  13.406  1.00  0.00    -0.744 OA
ENDBRANCH  71  72
ENDBRANCH  39  64
ENDBRANCH  13  14
ENDBRANCH   6   8
ENDBRANCH   3   4
ENDBRANCH   2   3
ENDBRANCH   1   2
BRANCH   1  76
ATOM     76  C   UNL     1       4.700  -2.357  -3.769  1.00  0.00     0.002 C 
BRANCH  76  77
ATOM     77  C   UNL     1       6.213  -2.194  -3.917  1.00  0.00     0.021 C 
BRANCH  77  78
ATOM     78  C   UNL     1       7.027  -3.474  -3.781  1.00  0.00     0.116 C 
BRANCH  78  79
ATOM     79  N   UNL     1       6.779  -4.448  -4.835  1.00  0.00    -0.352 N 
ATOM     80  C   UNL     1       7.696  -5.251  -5.481  1.00  0.00     0.255 C 
ATOM     81  H   UNL     1       5.842  -4.545  -5.121  1.00  0.00     0.163 HD
ATOM     82  O   UNL     1       7.344  -6.020  -6.370  1.00  0.00    -0.269 OA
BRANCH  80  83
ATOM     83  C   UNL     1       9.135  -5.085  -5.174  1.00  0.00     0.082 A 
ATOM     84  C   UNL     1       9.987  -4.724  -6.226  1.00  0.00     0.040 A 
ATOM     85  C   UNL     1       9.629  -5.152  -3.869  1.00  0.00     0.128 A 
ATOM     86  C   UNL     1      11.277  -4.257  -5.942  1.00  0.00     0.088 A 
ATOM     87  C   UNL     1      10.872  -4.606  -3.579  1.00  0.00     0.048 A 
ATOM     88  C   UNL     1      11.652  -4.080  -4.611  1.00  0.00     0.026 A 
BRANCH  85  89
ATOM     89  O   UNL     1       8.873  -5.688  -2.867  1.00  0.00    -0.507 OA
ATOM     90  H   UNL     1       8.033  -6.057  -3.060  1.00  0.00     0.293 HD
ENDBRANCH  85  89
BRANCH  86  91
ATOM     91  S   UNL     1      12.333  -3.863  -7.317  1.00  0.00     0.261 S 
ATOM     92  O   UNL     1      11.986  -4.779  -8.389  1.00  0.00    -0.201 OA
ATOM     93  O   UNL     1      12.229  -2.434  -7.515  1.00  0.00    -0.201 OA
BRANCH  91  94
ATOM     94  N   UNL     1      13.983  -4.148  -7.012  1.00  0.00    -0.280 N 
ATOM     95  H   UNL     1      14.620  -4.093  -7.761  1.00  0.00     0.180 HD
BRANCH  94  96
ATOM     96  C   UNL     1      14.477  -4.464  -5.714  1.00  0.00     0.050 A 
ATOM     97  C   UNL     1      14.245  -5.727  -5.164  1.00  0.00     0.027 A 
ATOM     98  C   UNL     1      15.134  -3.480  -4.969  1.00  0.00     0.047 A 
ATOM     99  C   UNL     1      14.615  -5.987  -3.842  1.00  0.00     0.004 A 
ATOM    100  C   UNL     1      15.509  -3.752  -3.654  1.00  0.00     0.043 A 
ATOM    101  C   UNL     1      15.239  -4.995  -3.082  1.00  0.00     0.020 A 
ATOM    102  Cl  UNL     1      16.274  -2.529  -2.717  1.00  0.00    -0.084 Cl
ENDBRANCH  94  96
ENDBRANCH  91  94
ENDBRANCH  86  91
ENDBRANCH  80  83
ENDBRANCH  78  79
ENDBRANCH  77  78
ENDBRANCH  76  77
ENDBRANCH   1  76
TORSDOF 20
