REMARK SMILES COc1cccc(-c2ccc(=O)n(CC(=O)N[C@@H](C(=O)NCCCCCCNC(=O)c3ccc(-c4c5nc(c(-c6c(F)cc(S(=O)(=O)[O-])cc6F)c6ccc([nH]6)c(-c6c(F)cc(S(=O)(=O)[O-])cc6F)c6nc(c(-c7c(F)cc(S(=O)(=O)[O-])cc7F)c7ccc4[nH]7)C=C6)C=C5)cc3)C(C)C)n2)c1
REMARK SMILES IDX 23 1 22 2 21 3 19 4 20 5 18 7 17 8 15 9 16 10 14 12 13 13
REMARK SMILES IDX 8 14 9 15 100 16 10 17 11 18 12 19 7 20 3 21 4 22 101 23
REMARK SMILES IDX 5 24 6 25 2 26 1 27 97 28 98 29 99 30 24 31 25 32 26 33
REMARK SMILES IDX 27 34 28 35 29 36 30 38 31 39 32 40 96 41 33 42 95 43 34 44
REMARK SMILES IDX 35 45 36 46 89 47 37 48 94 49 88 50 90 51 38 52 93 53 87 54
REMARK SMILES IDX 86 55 39 57 73 58 52 59 72 60 53 61 56 62 71 63 91 64 54 65
REMARK SMILES IDX 55 66 70 68 92 69 57 70 40 71 41 72 50 73 42 74 43 75 49 76
REMARK SMILES IDX 51 77 44 78 45 79 46 80 47 81 48 82 74 83 75 84 84 85 76 86
REMARK SMILES IDX 77 87 83 88 85 89 78 90 79 91 80 92 81 93 82 94 58 95 59 96
REMARK SMILES IDX 68 97 60 98 61 99 67 100 69 101 62 102 63 103 64 104 65 105
REMARK SMILES IDX 66 106
REMARK H PARENT 21 6 17 11 28 37 90 56 56 67
REMARK Flexibility Score: inf
ROOT
ATOM      1  C   UNL     1       6.916  -8.068  -1.540  1.00  0.00     0.021 C 
ENDROOT
BRANCH   1   2
ATOM      2  C   UNL     1       5.937  -7.354  -0.619  1.00  0.00     0.116 C 
BRANCH   2   3
ATOM      3  N   UNL     1       5.226  -8.259   0.254  1.00  0.00    -0.354 N 
ATOM      4  C   UNL     1       4.945  -8.143   1.587  1.00  0.00     0.242 C 
ATOM      5  O   UNL     1       4.180  -8.991   2.056  1.00  0.00    -0.273 OA
ATOM      6  H   UNL     1       4.894  -9.081  -0.174  1.00  0.00     0.163 HD
BRANCH   4   7
ATOM      7  C   UNL     1       5.458  -6.924   2.421  1.00  0.00     0.173 C 
BRANCH   7   8
ATOM      8  N   UNL     1       6.909  -6.787   2.262  1.00  0.00    -0.342 N 
ATOM      9  C   UNL     1       7.675  -5.701   1.940  1.00  0.00     0.242 C 
ATOM     10  O   UNL     1       8.897  -5.878   1.942  1.00  0.00    -0.273 OA
ATOM     11  H   UNL     1       7.417  -7.616   2.413  1.00  0.00     0.164 HD
BRANCH   9  12
ATOM     12  C   UNL     1       7.078  -4.302   1.709  1.00  0.00     0.248 C 
BRANCH  12  13
ATOM     13  N   UNL     1       6.152  -4.169   0.584  1.00  0.00    -0.220 N 
ATOM     14  C   UNL     1       3.978  -3.987  -0.093  1.00  0.00     0.091 A 
ATOM     15  C   UNL     1       4.340  -3.910  -1.517  1.00  0.00     0.036 A 
ATOM     16  N   UNL     1       4.809  -4.095   0.890  1.00  0.00    -0.169 NA
ATOM     17  C   UNL     1       5.645  -3.868  -1.781  1.00  0.00     0.075 A 
ATOM     18  C   UNL     1       6.652  -4.020  -0.706  1.00  0.00     0.267 A 
ATOM     19  O   UNL     1       7.839  -4.067  -1.012  1.00  0.00    -0.268 OA
BRANCH  14  20
ATOM     20  C   UNL     1       2.547  -3.832   0.189  1.00  0.00     0.006 A 
ATOM     21  C   UNL     1       0.734  -2.303   0.590  1.00  0.00     0.119 A 
ATOM     22  C   UNL     1      -0.132  -3.395   0.700  1.00  0.00     0.046 A 
ATOM     23  C   UNL     1       2.084  -2.526   0.357  1.00  0.00     0.056 A 
ATOM     24  C   UNL     1       0.342  -4.704   0.542  1.00  0.00     0.005 A 
ATOM     25  C   UNL     1       1.693  -4.930   0.281  1.00  0.00     0.011 A 
BRANCH  21  26
ATOM     26  O   UNL     1       0.173  -1.067   0.758  1.00  0.00    -0.497 OA
ATOM     27  C   UNL     1       0.828  -0.009   0.058  1.00  0.00     0.278 C 
ENDBRANCH  21  26
ENDBRANCH  14  20
ENDBRANCH  12  13
ENDBRANCH   9  12
ENDBRANCH   7   8
BRANCH   7  28
ATOM     28  C   UNL     1       5.061  -7.062   3.919  1.00  0.00     0.015 C 
ATOM     29  C   UNL     1       5.859  -6.141   4.850  1.00  0.00     0.010 C 
ATOM     30  C   UNL     1       3.567  -6.766   4.121  1.00  0.00     0.010 C 
ENDBRANCH   7  28
ENDBRANCH   4   7
ENDBRANCH   2   3
ENDBRANCH   1   2
BRANCH   1  31
ATOM     31  C   UNL     1       6.264  -8.651  -2.796  1.00  0.00     0.002 C 
BRANCH  31  32
ATOM     32  C   UNL     1       5.595  -7.623  -3.716  1.00  0.00     0.002 C 
BRANCH  32  33
ATOM     33  C   UNL     1       6.497  -6.477  -4.177  1.00  0.00     0.021 C 
BRANCH  33  34
ATOM     34  C   UNL     1       7.744  -6.901  -4.941  1.00  0.00     0.116 C 
BRANCH  34  35
ATOM     35  N   UNL     1       7.416  -7.622  -6.160  1.00  0.00    -0.352 N 
ATOM     36  C   UNL     1       7.769  -7.355  -7.459  1.00  0.00     0.251 C 
ATOM     37  H   UNL     1       6.857  -8.423  -6.034  1.00  0.00     0.163 HD
ATOM     38  O   UNL     1       7.223  -7.965  -8.373  1.00  0.00    -0.269 OA
BRANCH  36  39
ATOM     39  C   UNL     1       8.787  -6.322  -7.756  1.00  0.00     0.039 A 
ATOM     40  C   UNL     1       8.584  -5.467  -8.843  1.00  0.00     0.014 A 
ATOM     41  C   UNL     1       9.943  -6.202  -6.981  1.00  0.00     0.014 A 
ATOM     42  C   UNL     1       9.514  -4.461  -9.117  1.00  0.00     0.010 A 
ATOM     43  C   UNL     1      10.821  -5.144  -7.200  1.00  0.00     0.010 A 
ATOM     44  C   UNL     1      10.624  -4.270  -8.278  1.00  0.00    -0.014 A 
BRANCH  44  45
ATOM     45  C   UNL     1      11.601  -3.178  -8.524  1.00  0.00     0.031 A 
ATOM     46  C   UNL     1      13.038  -3.508  -8.829  1.00  0.00     0.074 A 
ATOM     47  C   UNL     1      11.209  -1.893  -8.417  1.00  0.00     0.049 A 
ATOM     48  N   UNL     1      14.052  -2.701  -9.006  1.00  0.00    -0.248 NA
ATOM     49  C   UNL     1      13.388  -4.936  -8.922  1.00  0.00     0.031 C 
ATOM     50  C   UNL     1       9.855  -1.446  -8.082  1.00  0.00     0.029 A 
ATOM     51  N   UNL     1      11.913  -0.724  -8.568  1.00  0.00    -0.354 N 
ATOM     52  C   UNL     1      15.157  -3.519  -9.214  1.00  0.00     0.074 A 
ATOM     53  C   UNL     1      14.702  -4.885  -9.084  1.00  0.00     0.031 C 
ATOM     54  C   UNL     1       9.822  -0.104  -8.077  1.00  0.00     0.029 A 
ATOM     55  C   UNL     1      11.159   0.407  -8.364  1.00  0.00     0.049 A 
ATOM     56  H   UNL     1      12.870  -0.699  -8.801  1.00  0.00     0.167 HD
ATOM     57  C   UNL     1      16.430  -3.165  -9.513  1.00  0.00     0.037 A 
ATOM     58  C   UNL     1      11.506   1.709  -8.395  1.00  0.00     0.037 A 
ATOM     59  C   UNL     1      16.870  -1.802  -9.662  1.00  0.00     0.049 A 
ATOM     60  C   UNL     1      12.930   2.078  -8.717  1.00  0.00     0.074 A 
ATOM     61  C   UNL     1      18.125  -1.338 -10.016  1.00  0.00     0.029 A 
ATOM     62  N   UNL     1      16.072  -0.685  -9.463  1.00  0.00    -0.354 N 
ATOM     63  N   UNL     1      13.947   1.291  -8.975  1.00  0.00    -0.248 NA
ATOM     64  C   UNL     1      13.252   3.511  -8.760  1.00  0.00     0.031 C 
ATOM     65  C   UNL     1      18.099   0.060  -9.981  1.00  0.00     0.029 A 
ATOM     66  C   UNL     1      16.813   0.468  -9.665  1.00  0.00     0.049 A 
ATOM     67  H   UNL     1      15.119  -0.708  -9.216  1.00  0.00     0.167 HD
ATOM     68  C   UNL     1      15.022   2.133  -9.241  1.00  0.00     0.074 A 
ATOM     69  C   UNL     1      14.527   3.489  -9.125  1.00  0.00     0.031 C 
ATOM     70  C   UNL     1      16.302   1.812  -9.556  1.00  0.00     0.037 A 
BRANCH  57  71
ATOM     71  C   UNL     1      17.437  -4.268  -9.703  1.00  0.00     0.058 A 
ATOM     72  C   UNL     1      17.380  -5.139 -10.804  1.00  0.00     0.135 A 
ATOM     73  C   UNL     1      18.493  -4.437  -8.793  1.00  0.00     0.135 A 
ATOM     74  F   UNL     1      16.384  -5.035 -11.698  1.00  0.00    -0.206 F 
ATOM     75  C   UNL     1      18.314  -6.154 -10.979  1.00  0.00     0.059 A 
ATOM     76  C   UNL     1      19.458  -5.426  -8.965  1.00  0.00     0.059 A 
ATOM     77  F   UNL     1      18.598  -3.634  -7.722  1.00  0.00    -0.206 F 
ATOM     78  C   UNL     1      19.351  -6.290 -10.054  1.00  0.00     0.060 A 
BRANCH  78  79
ATOM     79  S   UNL     1      20.559  -7.607 -10.303  1.00  0.00     0.124 S 
ATOM     80  O   UNL     1      19.768  -8.792  -9.981  1.00  0.00    -0.237 OA
ATOM     81  O   UNL     1      20.912  -7.445 -11.709  1.00  0.00    -0.237 OA
ATOM     82  O   UNL     1      21.618  -7.284  -9.352  1.00  0.00    -0.744 OA
ENDBRANCH  78  79
ENDBRANCH  57  71
BRANCH  58  83
ATOM     83  C   UNL     1      10.485   2.759  -8.131  1.00  0.00     0.058 A 
ATOM     84  C   UNL     1      10.041   3.610  -9.155  1.00  0.00     0.135 A 
ATOM     85  C   UNL     1       9.924   2.928  -6.856  1.00  0.00     0.135 A 
ATOM     86  F   UNL     1      10.551   3.493 -10.391  1.00  0.00    -0.206 F 
ATOM     87  C   UNL     1       9.093   4.601  -8.922  1.00  0.00     0.059 A 
ATOM     88  C   UNL     1       8.953   3.893  -6.604  1.00  0.00     0.059 A 
ATOM     89  F   UNL     1      10.299   2.130  -5.844  1.00  0.00    -0.206 F 
ATOM     90  C   UNL     1       8.552   4.732  -7.642  1.00  0.00     0.060 A 
BRANCH  90  91
ATOM     91  S   UNL     1       7.285   5.989  -7.362  1.00  0.00     0.124 S 
ATOM     92  O   UNL     1       8.070   7.216  -7.417  1.00  0.00    -0.237 OA
ATOM     93  O   UNL     1       6.375   5.761  -8.480  1.00  0.00    -0.237 OA
ATOM     94  O   UNL     1       6.750   5.639  -6.049  1.00  0.00    -0.744 OA
ENDBRANCH  90  91
ENDBRANCH  58  83
BRANCH  70  95
ATOM     95  C   UNL     1      17.251   2.944  -9.843  1.00  0.00     0.058 A 
ATOM     96  C   UNL     1      17.730   3.786  -8.828  1.00  0.00     0.135 A 
ATOM     97  C   UNL     1      17.733   3.149 -11.147  1.00  0.00     0.135 A 
ATOM     98  F   UNL     1      17.297   3.638  -7.566  1.00  0.00    -0.206 F 
ATOM     99  C   UNL     1      18.636   4.807  -9.099  1.00  0.00     0.059 A 
ATOM    100  C   UNL     1      18.662   4.144 -11.435  1.00  0.00     0.059 A 
ATOM    101  F   UNL     1      17.316   2.365 -12.154  1.00  0.00    -0.206 F 
ATOM    102  C   UNL     1      19.099   4.976 -10.405  1.00  0.00     0.060 A 
BRANCH 102 103
ATOM    103  S   UNL     1      20.301   6.281 -10.735  1.00  0.00     0.124 S 
ATOM    104  O   UNL     1      19.474   7.478 -10.626  1.00  0.00    -0.237 OA
ATOM    105  O   UNL     1      21.276   6.084  -9.667  1.00  0.00    -0.237 OA
ATOM    106  O   UNL     1      20.781   5.970 -12.079  1.00  0.00    -0.744 OA
ENDBRANCH 102 103
ENDBRANCH  70  95
ENDBRANCH  44  45
ENDBRANCH  36  39
ENDBRANCH  34  35
ENDBRANCH  33  34
ENDBRANCH  32  33
ENDBRANCH  31  32
ENDBRANCH   1  31
TORSDOF 22
