REMARK SMILES COc1cc(Cl)ccc1S(=O)(=O)Nc1cccc(C(=O)NCCCCCCNC(=O)c2ccc(-c3c4nc(c(-c5c(F)cc(S(=O)(=O)[O-])cc5F)c5ccc([nH]5)c(-c5c(F)cc(S(=O)(=O)[O-])cc5F)c5nc(c(-c6c(F)cc(S(=O)(=O)[O-])cc6F)c6ccc3[nH]6)C=C5)C=C4)cc2)c1
REMARK SMILES IDX 24 1 23 2 22 3 21 4 19 5 20 6 18 8 14 9 15 10 97 11 16 12
REMARK SMILES IDX 17 13 13 14 10 16 11 17 12 18 9 19 3 20 4 21 5 22 8 23 6 24
REMARK SMILES IDX 7 25 2 26 1 27 25 28 26 29 27 30 28 31 29 32 30 34 31 35
REMARK SMILES IDX 32 36 96 37 33 38 95 39 34 40 35 41 36 42 89 43 37 44 94 45
REMARK SMILES IDX 88 46 90 47 38 48 93 49 87 50 86 51 39 53 73 54 52 55 72 56
REMARK SMILES IDX 53 57 56 58 71 59 91 60 54 61 55 62 70 64 92 65 57 66 40 67
REMARK SMILES IDX 41 68 50 69 42 70 43 71 49 72 51 73 44 74 45 75 46 76 47 77
REMARK SMILES IDX 48 78 74 79 75 80 84 81 76 82 77 83 83 84 85 85 78 86 79 87
REMARK SMILES IDX 80 88 81 89 82 90 58 91 59 92 68 93 60 94 61 95 67 96 69 97
REMARK SMILES IDX 62 98 63 99 64 100 65 101 66 102
REMARK H PARENT 21 7 13 15 28 33 90 52 56 63
REMARK Flexibility Score: inf
ROOT
ATOM      1  C   UNL     1       0.672  -3.324   3.980  1.00  0.00     0.002 C 
ENDROOT
BRANCH   1   2
ATOM      2  C   UNL     1      -0.088  -2.564   2.889  1.00  0.00     0.021 C 
BRANCH   2   3
ATOM      3  C   UNL     1       0.828  -1.662   2.059  1.00  0.00     0.116 C 
BRANCH   3   4
ATOM      4  N   UNL     1       1.181  -2.325   0.810  1.00  0.00    -0.352 N 
ATOM      5  C   UNL     1       1.010  -2.032  -0.518  1.00  0.00     0.251 C 
ATOM      6  O   UNL     1       1.479  -2.824  -1.337  1.00  0.00    -0.269 OA
ATOM      7  H   UNL     1       1.651  -3.178   0.954  1.00  0.00     0.163 HD
BRANCH   5   8
ATOM      8  C   UNL     1       0.400  -0.770  -1.016  1.00  0.00     0.041 A 
ATOM      9  C   UNL     1      -0.816   1.290  -0.678  1.00  0.00     0.050 A 
ATOM     10  C   UNL     1      -0.362   1.765  -1.912  1.00  0.00     0.027 A 
ATOM     11  C   UNL     1      -0.535  -0.022  -0.302  1.00  0.00     0.040 A 
ATOM     12  C   UNL     1       0.455   0.970  -2.713  1.00  0.00     0.003 A 
ATOM     13  C   UNL     1       0.862  -0.280  -2.249  1.00  0.00     0.014 A 
BRANCH   9  14
ATOM     14  N   UNL     1      -1.513   2.207   0.149  1.00  0.00    -0.279 N 
ATOM     15  H   UNL     1      -1.969   2.951  -0.306  1.00  0.00     0.180 HD
BRANCH  14  16
ATOM     16  S   UNL     1      -1.642   2.158   1.811  1.00  0.00     0.265 S 
ATOM     17  O   UNL     1      -1.988   0.816   2.230  1.00  0.00    -0.201 OA
ATOM     18  O   UNL     1      -2.524   3.269   2.118  1.00  0.00    -0.201 OA
BRANCH  16  19
ATOM     19  C   UNL     1      -0.108   2.544   2.636  1.00  0.00     0.129 A 
ATOM     20  C   UNL     1       1.165   2.649   2.071  1.00  0.00     0.140 A 
ATOM     21  C   UNL     1       2.251   3.012   2.893  1.00  0.00     0.068 A 
ATOM     22  C   UNL     1       2.094   3.178   4.266  1.00  0.00     0.044 A 
ATOM     23  C   UNL     1      -0.252   2.736   4.030  1.00  0.00     0.028 A 
ATOM     24  Cl  UNL     1       3.462   3.547   5.240  1.00  0.00    -0.084 Cl
ATOM     25  C   UNL     1       0.843   3.033   4.843  1.00  0.00     0.022 A 
BRANCH  20  26
ATOM     26  O   UNL     1       1.390   2.459   0.739  1.00  0.00    -0.495 OA
ATOM     27  C   UNL     1       2.477   1.560   0.482  1.00  0.00     0.278 C 
ENDBRANCH  20  26
ENDBRANCH  16  19
ENDBRANCH  14  16
ENDBRANCH   9  14
ENDBRANCH   5   8
ENDBRANCH   3   4
ENDBRANCH   2   3
ENDBRANCH   1   2
BRANCH   1  28
ATOM     28  C   UNL     1       1.167  -2.448   5.138  1.00  0.00     0.002 C 
BRANCH  28  29
ATOM     29  C   UNL     1       0.084  -1.651   5.873  1.00  0.00     0.021 C 
BRANCH  29  30
ATOM     30  C   UNL     1      -1.105  -2.469   6.371  1.00  0.00     0.116 C 
BRANCH  30  31
ATOM     31  N   UNL     1      -0.708  -3.541   7.269  1.00  0.00    -0.352 N 
ATOM     32  C   UNL     1      -1.236  -3.912   8.480  1.00  0.00     0.251 C 
ATOM     33  H   UNL     1       0.055  -4.083   6.962  1.00  0.00     0.163 HD
ATOM     34  O   UNL     1      -0.665  -4.762   9.157  1.00  0.00    -0.269 OA
BRANCH  32  35
ATOM     35  C   UNL     1      -2.472  -3.272   8.984  1.00  0.00     0.039 A 
ATOM     36  C   UNL     1      -2.523  -2.881  10.325  1.00  0.00     0.014 A 
ATOM     37  C   UNL     1      -3.579  -3.072   8.153  1.00  0.00     0.014 A 
ATOM     38  C   UNL     1      -3.660  -2.237  10.817  1.00  0.00     0.010 A 
ATOM     39  C   UNL     1      -4.688  -2.374   8.630  1.00  0.00     0.010 A 
ATOM     40  C   UNL     1      -4.740  -1.949   9.966  1.00  0.00    -0.014 A 
BRANCH  40  41
ATOM     41  C   UNL     1      -5.921  -1.194  10.457  1.00  0.00     0.031 A 
ATOM     42  C   UNL     1      -7.271  -1.853  10.524  1.00  0.00     0.074 A 
ATOM     43  C   UNL     1      -5.784   0.105  10.791  1.00  0.00     0.049 A 
ATOM     44  N   UNL     1      -8.422  -1.341  10.880  1.00  0.00    -0.248 NA
ATOM     45  C   UNL     1      -7.343  -3.265  10.117  1.00  0.00     0.031 C 
ATOM     46  C   UNL     1      -4.537   0.869  10.719  1.00  0.00     0.029 A 
ATOM     47  N   UNL     1      -6.704   1.015  11.246  1.00  0.00    -0.354 N 
ATOM     48  C   UNL     1      -9.355  -2.360  10.727  1.00  0.00     0.074 A 
ATOM     49  C   UNL     1      -8.643  -3.507  10.204  1.00  0.00     0.031 C 
ATOM     50  C   UNL     1      -4.766   2.126  11.133  1.00  0.00     0.029 A 
ATOM     51  C   UNL     1      -6.179   2.266  11.469  1.00  0.00     0.049 A 
ATOM     52  H   UNL     1      -7.651   0.793  11.399  1.00  0.00     0.167 HD
ATOM     53  C   UNL     1     -10.678  -2.348  11.016  1.00  0.00     0.037 A 
ATOM     54  C   UNL     1      -6.770   3.401  11.891  1.00  0.00     0.037 A 
ATOM     55  C   UNL     1     -11.376  -1.211  11.560  1.00  0.00     0.049 A 
ATOM     56  C   UNL     1      -8.238   3.387  12.217  1.00  0.00     0.074 A 
ATOM     57  C   UNL     1     -12.702  -1.118  11.945  1.00  0.00     0.029 A 
ATOM     58  N   UNL     1     -10.805   0.032  11.794  1.00  0.00    -0.354 N 
ATOM     59  N   UNL     1      -9.091   2.394  12.130  1.00  0.00    -0.248 NA
ATOM     60  C   UNL     1      -8.823   4.643  12.706  1.00  0.00     0.031 C 
ATOM     61  C   UNL     1     -12.942   0.191  12.377  1.00  0.00     0.029 A 
ATOM     62  C   UNL     1     -11.756   0.902  12.302  1.00  0.00     0.049 A 
ATOM     63  H   UNL     1      -9.863   0.261  11.625  1.00  0.00     0.167 HD
ATOM     64  C   UNL     1     -10.309   2.900  12.572  1.00  0.00     0.074 A 
ATOM     65  C   UNL     1     -10.077   4.281  12.941  1.00  0.00     0.031 C 
ATOM     66  C   UNL     1     -11.509   2.276  12.665  1.00  0.00     0.037 A 
BRANCH  53  67
ATOM     67  C   UNL     1     -11.459  -3.607  10.755  1.00  0.00     0.058 A 
ATOM     68  C   UNL     1     -11.293  -4.753  11.549  1.00  0.00     0.135 A 
ATOM     69  C   UNL     1     -12.408  -3.659   9.722  1.00  0.00     0.135 A 
ATOM     70  F   UNL     1     -10.390  -4.763  12.543  1.00  0.00    -0.206 F 
ATOM     71  C   UNL     1     -12.018  -5.916  11.309  1.00  0.00     0.059 A 
ATOM     72  C   UNL     1     -13.163  -4.804   9.480  1.00  0.00     0.059 A 
ATOM     73  F   UNL     1     -12.608  -2.592   8.933  1.00  0.00    -0.206 F 
ATOM     74  C   UNL     1     -12.949  -5.933  10.270  1.00  0.00     0.060 A 
BRANCH  74  75
ATOM     75  S   UNL     1     -13.883  -7.449   9.972  1.00  0.00     0.124 S 
ATOM     76  O   UNL     1     -12.872  -8.294   9.346  1.00  0.00    -0.237 OA
ATOM     77  O   UNL     1     -14.288  -7.838  11.319  1.00  0.00    -0.237 OA
ATOM     78  O   UNL     1     -14.967  -7.014   9.097  1.00  0.00    -0.744 OA
ENDBRANCH  74  75
ENDBRANCH  53  67
BRANCH  54  79
ATOM     79  C   UNL     1      -5.964   4.640  12.052  1.00  0.00     0.058 A 
ATOM     80  C   UNL     1      -5.653   5.137  13.326  1.00  0.00     0.135 A 
ATOM     81  C   UNL     1      -5.473   5.339  10.938  1.00  0.00     0.135 A 
ATOM     82  F   UNL     1      -6.106   4.506  14.420  1.00  0.00    -0.206 F 
ATOM     83  C   UNL     1      -4.896   6.292  13.492  1.00  0.00     0.059 A 
ATOM     84  C   UNL     1      -4.694   6.483  11.080  1.00  0.00     0.059 A 
ATOM     85  F   UNL     1      -5.728   4.894   9.698  1.00  0.00    -0.206 F 
ATOM     86  C   UNL     1      -4.418   6.957  12.362  1.00  0.00     0.060 A 
BRANCH  86  87
ATOM     87  S   UNL     1      -3.388   8.423  12.589  1.00  0.00     0.124 S 
ATOM     88  O   UNL     1      -4.379   9.422  12.970  1.00  0.00    -0.237 OA
ATOM     89  O   UNL     1      -2.472   7.996  13.642  1.00  0.00    -0.237 OA
ATOM     90  O   UNL     1      -2.776   8.607  11.276  1.00  0.00    -0.744 OA
ENDBRANCH  86  87
ENDBRANCH  54  79
BRANCH  66  91
ATOM     91  C   UNL     1     -12.660   3.076  13.208  1.00  0.00     0.058 A 
ATOM     92  C   UNL     1     -13.283   4.078  12.449  1.00  0.00     0.135 A 
ATOM     93  C   UNL     1     -13.171   2.809  14.488  1.00  0.00     0.135 A 
ATOM     94  F   UNL     1     -12.828   4.377  11.221  1.00  0.00    -0.206 F 
ATOM     95  C   UNL     1     -14.357   4.806  12.949  1.00  0.00     0.059 A 
ATOM     96  C   UNL     1     -14.260   3.507  14.999  1.00  0.00     0.059 A 
ATOM     97  F   UNL     1     -12.617   1.853  15.252  1.00  0.00    -0.206 F 
ATOM     98  C   UNL     1     -14.838   4.513  14.227  1.00  0.00     0.060 A 
BRANCH  98  99
ATOM     99  S   UNL     1     -16.250   5.447  14.857  1.00  0.00     0.124 S 
ATOM    100  O   UNL     1     -15.628   6.720  15.205  1.00  0.00    -0.237 OA
ATOM    101  O   UNL     1     -17.148   5.474  13.707  1.00  0.00    -0.237 OA
ATOM    102  O   UNL     1     -16.711   4.643  15.985  1.00  0.00    -0.744 OA
ENDBRANCH  98  99
ENDBRANCH  66  91
ENDBRANCH  40  41
ENDBRANCH  32  35
ENDBRANCH  30  31
ENDBRANCH  29  30
ENDBRANCH  28  29
ENDBRANCH   1  28
TORSDOF 20
