REMARK SMILES Cc1c[nH]c(C[N@@H+](C)[C@@H](C(=O)NCCCCCCNC(=O)c2ccc(-c3c4nc(c(-c5c(F)cc(S(=O)(=O)[O-])cc5F)c5ccc([nH]5)c(-c5c(F)cc(S(=O)(=O)[O-])cc5F)c5nc(c(-c6c(F)cc(S(=O)(=O)[O-])cc6F)c6ccc3[nH]6)C=C5)C=C4)cc2)c2ccc(NC(=O)N3CCCC3)cc2)n1
REMARK SMILES IDX 15 1 14 2 13 3 12 4 10 5 11 6 9 8 7 9 8 10 6 12 5 13 1 14
REMARK SMILES IDX 2 15 3 16 102 17 4 18 88 20 89 21 101 22 90 23 100 24 91 25
REMARK SMILES IDX 92 26 93 27 94 29 95 30 96 31 99 32 97 33 98 34 16 35 17 36
REMARK SMILES IDX 18 37 19 38 20 39 21 41 22 42 23 43 87 44 24 45 86 46 25 47
REMARK SMILES IDX 26 48 27 49 80 50 28 51 85 52 79 53 81 54 29 55 84 56 78 57
REMARK SMILES IDX 77 58 30 60 64 61 43 62 63 63 44 64 47 65 62 66 82 67 45 68
REMARK SMILES IDX 46 69 61 71 83 72 48 73 31 74 32 75 41 76 33 77 34 78 40 79
REMARK SMILES IDX 42 80 35 81 36 82 37 83 38 84 39 85 65 86 66 87 75 88 67 89
REMARK SMILES IDX 68 90 74 91 76 92 69 93 70 94 71 95 72 96 73 97 49 98 50 99
REMARK SMILES IDX 59 100 51 101 52 102 58 103 60 104 53 105 54 106 55 107
REMARK SMILES IDX 56 108 57 109
REMARK H PARENT 12 7 7 11 4 19 92 28 19 40 81 59 47 70
REMARK Flexibility Score: inf
ROOT
ATOM      1  C   UNL     1      -7.509   2.851   1.467  1.00  0.00     0.002 C 
ENDROOT
BRANCH   1   2
ATOM      2  C   UNL     1      -6.068   3.372   1.464  1.00  0.00     0.021 C 
BRANCH   2   3
ATOM      3  C   UNL     1      -5.270   2.980   2.710  1.00  0.00     0.116 C 
BRANCH   3   4
ATOM      4  N   UNL     1      -4.921   1.578   2.623  1.00  0.00    -0.351 N 
ATOM      5  C   UNL     1      -3.759   1.039   2.145  1.00  0.00     0.283 C 
ATOM      6  O   UNL     1      -3.837  -0.096   1.655  1.00  0.00    -0.268 OA
ATOM      7  H   UNL     1      -5.598   0.940   2.945  1.00  0.00     0.163 HD
BRANCH   5   8
ATOM      8  C   UNL     1      -2.411   1.825   2.281  1.00  0.00     0.305 C 
BRANCH   8   9
ATOM      9  N   UNL     1      -2.032   2.496   1.006  1.00  0.00    -0.317 N 
ATOM     10  C   UNL     1      -2.515   3.853   0.845  1.00  0.00     0.334 C 
ATOM     11  H   UNL     1      -1.025   2.560   1.158  1.00  0.00     0.349 HD
BRANCH   9  12
ATOM     12  C   UNL     1      -2.150   1.720  -0.237  1.00  0.00     0.339 C 
BRANCH  12  13
ATOM     13  C   UNL     1      -0.994   0.799  -0.470  1.00  0.00     0.161 A 
ATOM     14  C   UNL     1       2.445  -0.057  -0.676  1.00  0.00     0.068 C 
ATOM     15  C   UNL     1       0.968  -0.050  -0.705  1.00  0.00     0.056 A 
ATOM     16  C   UNL     1       0.089  -1.106  -0.789  1.00  0.00     0.107 A 
ATOM     17  N   UNL     1       0.279   1.130  -0.587  1.00  0.00    -0.233 NA
ATOM     18  N   UNL     1      -1.151  -0.558  -0.600  1.00  0.00    -0.344 N 
ATOM     19  H   UNL     1      -2.003  -1.050  -0.563  1.00  0.00     0.167 HD
ENDBRANCH  12  13
ENDBRANCH   9  12
ENDBRANCH   8   9
BRANCH   8  20
ATOM     20  C   UNL     1      -1.281   0.925   2.817  1.00  0.00     0.019 A 
ATOM     21  C   UNL     1      -1.540  -0.263   3.514  1.00  0.00     0.012 A 
ATOM     22  C   UNL     1       0.064   1.261   2.600  1.00  0.00     0.012 A 
ATOM     23  C   UNL     1      -0.528  -1.201   3.708  1.00  0.00     0.027 A 
ATOM     24  C   UNL     1       1.072   0.310   2.776  1.00  0.00     0.027 A 
ATOM     25  C   UNL     1       0.741  -0.978   3.185  1.00  0.00     0.042 A 
BRANCH  25  26
ATOM     26  N   UNL     1       1.692  -1.999   3.010  1.00  0.00    -0.308 N 
ATOM     27  C   UNL     1       1.559  -3.355   3.034  1.00  0.00     0.321 C 
ATOM     28  H   UNL     1       2.609  -1.680   2.841  1.00  0.00     0.171 HD
ATOM     29  O   UNL     1       2.555  -4.040   3.280  1.00  0.00    -0.248 OA
ATOM     30  N   UNL     1       0.346  -3.932   2.784  1.00  0.00    -0.325 N 
ATOM     31  C   UNL     1      -0.601  -3.582   1.741  1.00  0.00     0.121 C 
ATOM     32  C   UNL     1       0.010  -5.229   3.322  1.00  0.00     0.121 C 
ATOM     33  C   UNL     1      -1.906  -4.160   2.254  1.00  0.00     0.023 C 
ATOM     34  C   UNL     1      -1.477  -5.414   3.019  1.00  0.00     0.023 C 
ENDBRANCH  25  26
ENDBRANCH   8  20
ENDBRANCH   5   8
ENDBRANCH   3   4
ENDBRANCH   2   3
ENDBRANCH   1   2
BRANCH   1  35
ATOM     35  C   UNL     1      -8.381   3.395   2.601  1.00  0.00     0.002 C 
BRANCH  35  36
ATOM     36  C   UNL     1      -8.412   4.922   2.706  1.00  0.00     0.021 C 
BRANCH  36  37
ATOM     37  C   UNL     1      -8.852   5.630   1.429  1.00  0.00     0.116 C 
BRANCH  37  38
ATOM     38  N   UNL     1     -10.211   5.268   1.056  1.00  0.00    -0.352 N 
ATOM     39  C   UNL     1     -11.315   6.071   0.941  1.00  0.00     0.251 C 
ATOM     40  H   UNL     1     -10.357   4.315   0.859  1.00  0.00     0.163 HD
ATOM     41  O   UNL     1     -12.436   5.568   0.860  1.00  0.00    -0.269 OA
BRANCH  39  42
ATOM     42  C   UNL     1     -11.154   7.538   0.929  1.00  0.00     0.039 A 
ATOM     43  C   UNL     1     -12.001   8.323   1.713  1.00  0.00     0.014 A 
ATOM     44  C   UNL     1     -10.164   8.136   0.142  1.00  0.00     0.014 A 
ATOM     45  C   UNL     1     -11.820   9.707   1.750  1.00  0.00     0.010 A 
ATOM     46  C   UNL     1      -9.937   9.505   0.238  1.00  0.00     0.010 A 
ATOM     47  C   UNL     1     -10.767  10.306   1.037  1.00  0.00    -0.014 A 
BRANCH  47  48
ATOM     48  C   UNL     1     -10.520  11.769   1.117  1.00  0.00     0.031 A 
ATOM     49  C   UNL     1     -10.652  12.625  -0.114  1.00  0.00     0.074 A 
ATOM     50  C   UNL     1     -10.124  12.314   2.284  1.00  0.00     0.049 A 
ATOM     51  N   UNL     1     -10.426  13.905  -0.256  1.00  0.00    -0.248 NA
ATOM     52  C   UNL     1     -11.068  11.950  -1.354  1.00  0.00     0.031 C 
ATOM     53  C   UNL     1      -9.914  11.578   3.533  1.00  0.00     0.029 A 
ATOM     54  N   UNL     1      -9.817  13.611   2.610  1.00  0.00    -0.354 N 
ATOM     55  C   UNL     1     -10.662  14.187  -1.596  1.00  0.00     0.074 A 
ATOM     56  C   UNL     1     -10.993  12.934  -2.238  1.00  0.00     0.031 C 
ATOM     57  C   UNL     1      -9.536  12.437   4.493  1.00  0.00     0.029 A 
ATOM     58  C   UNL     1      -9.437  13.777   3.922  1.00  0.00     0.049 A 
ATOM     59  H   UNL     1      -9.864  14.354   1.966  1.00  0.00     0.167 HD
ATOM     60  C   UNL     1     -10.630  15.384  -2.229  1.00  0.00     0.037 A 
ATOM     61  C   UNL     1      -9.044  14.880   4.587  1.00  0.00     0.037 A 
ATOM     62  C   UNL     1     -10.320  16.630  -1.577  1.00  0.00     0.049 A 
ATOM     63  C   UNL     1      -9.005  16.197   3.859  1.00  0.00     0.074 A 
ATOM     64  C   UNL     1     -10.320  17.904  -2.115  1.00  0.00     0.029 A 
ATOM     65  N   UNL     1      -9.952  16.758  -0.245  1.00  0.00    -0.354 N 
ATOM     66  N   UNL     1      -9.301  16.456   2.607  1.00  0.00    -0.248 NA
ATOM     67  C   UNL     1      -8.583  17.373   4.632  1.00  0.00     0.031 C 
ATOM     68  C   UNL     1      -9.901  18.797  -1.123  1.00  0.00     0.029 A 
ATOM     69  C   UNL     1      -9.695  18.087   0.049  1.00  0.00     0.049 A 
ATOM     70  H   UNL     1      -9.883  16.015   0.396  1.00  0.00     0.167 HD
ATOM     71  C   UNL     1      -9.125  17.826   2.450  1.00  0.00     0.074 A 
ATOM     72  C   UNL     1      -8.713  18.344   3.738  1.00  0.00     0.031 C 
ATOM     73  C   UNL     1      -9.289  18.587   1.339  1.00  0.00     0.037 A 
BRANCH  60  74
ATOM     74  C   UNL     1     -10.943  15.407  -3.701  1.00  0.00     0.058 A 
ATOM     75  C   UNL     1     -12.239  15.159  -4.183  1.00  0.00     0.135 A 
ATOM     76  C   UNL     1      -9.947  15.724  -4.638  1.00  0.00     0.135 A 
ATOM     77  F   UNL     1     -13.227  14.836  -3.334  1.00  0.00    -0.206 F 
ATOM     78  C   UNL     1     -12.529  15.197  -5.543  1.00  0.00     0.059 A 
ATOM     79  C   UNL     1     -10.221  15.798  -6.001  1.00  0.00     0.059 A 
ATOM     80  F   UNL     1      -8.691  15.969  -4.234  1.00  0.00    -0.206 F 
ATOM     81  C   UNL     1     -11.513  15.519  -6.445  1.00  0.00     0.060 A 
BRANCH  81  82
ATOM     82  S   UNL     1     -11.911  15.574  -8.205  1.00  0.00     0.124 S 
ATOM     83  O   UNL     1     -12.084  14.156  -8.508  1.00  0.00    -0.237 OA
ATOM     84  O   UNL     1     -13.128  16.379  -8.224  1.00  0.00    -0.237 OA
ATOM     85  O   UNL     1     -10.736  16.203  -8.800  1.00  0.00    -0.744 OA
ENDBRANCH  81  82
ENDBRANCH  60  74
BRANCH  61  86
ATOM     86  C   UNL     1      -8.670  14.791   6.024  1.00  0.00     0.058 A 
ATOM     87  C   UNL     1      -9.471  15.373   7.018  1.00  0.00     0.135 A 
ATOM     88  C   UNL     1      -7.508  14.117   6.434  1.00  0.00     0.135 A 
ATOM     89  F   UNL     1     -10.588  16.033   6.677  1.00  0.00    -0.206 F 
ATOM     90  C   UNL     1      -9.126  15.308   8.364  1.00  0.00     0.059 A 
ATOM     91  C   UNL     1      -7.157  14.014   7.776  1.00  0.00     0.059 A 
ATOM     92  F   UNL     1      -6.716  13.528   5.525  1.00  0.00    -0.206 F 
ATOM     93  C   UNL     1      -7.967  14.624   8.733  1.00  0.00     0.060 A 
BRANCH  93  94
ATOM     94  S   UNL     1      -7.551  14.508  10.487  1.00  0.00     0.124 S 
ATOM     95  O   UNL     1      -7.120  15.871  10.777  1.00  0.00    -0.237 OA
ATOM     96  O   UNL     1      -8.822  14.100  11.076  1.00  0.00    -0.237 OA
ATOM     97  O   UNL     1      -6.501  13.494  10.516  1.00  0.00    -0.744 OA
ENDBRANCH  93  94
ENDBRANCH  61  86
BRANCH  73  98
ATOM     98  C   UNL     1      -9.050  20.067   1.470  1.00  0.00     0.058 A 
ATOM     99  C   UNL     1      -7.759  20.595   1.620  1.00  0.00     0.135 A 
ATOM    100  C   UNL     1     -10.123  20.970   1.387  1.00  0.00     0.135 A 
ATOM    101  F   UNL     1      -6.699  19.775   1.713  1.00  0.00    -0.206 F 
ATOM    102  C   UNL     1      -7.540  21.966   1.703  1.00  0.00     0.059 A 
ATOM    103  C   UNL     1      -9.924  22.346   1.437  1.00  0.00     0.059 A 
ATOM    104  F   UNL     1     -11.377  20.518   1.234  1.00  0.00    -0.206 F 
ATOM    105  C   UNL     1      -8.629  22.834   1.606  1.00  0.00     0.060 A 
BRANCH 105 106
ATOM    106  S   UNL     1      -8.326  24.613   1.674  1.00  0.00     0.124 S 
ATOM    107  O   UNL     1      -8.006  24.802   3.085  1.00  0.00    -0.237 OA
ATOM    108  O   UNL     1      -7.213  24.774   0.744  1.00  0.00    -0.237 OA
ATOM    109  O   UNL     1      -9.592  25.191   1.234  1.00  0.00    -0.744 OA
ENDBRANCH 105 106
ENDBRANCH  73  98
ENDBRANCH  47  48
ENDBRANCH  39  42
ENDBRANCH  37  38
ENDBRANCH  36  37
ENDBRANCH  35  36
ENDBRANCH   1  35
TORSDOF 21
