REMARK SMILES C[C@H]1C[C@H]1C(=O)N[C@@H]1CCCCC[C@@H]1C(=O)NCCCCCCNC(=O)c1ccc(-c2c3nc(c(-c4c(F)cc(S(=O)(=O)[O-])cc4F)c4ccc([nH]4)c(-c4c(F)cc(S(=O)(=O)[O-])cc4F)c4nc(c(-c5c(F)cc(S(=O)(=O)[O-])cc5F)c5ccc2[nH]5)C=C4)C=C3)cc1
REMARK SMILES IDX 20 1 19 2 18 3 17 4 15 5 16 6 14 8 8 9 7 10 5 11 6 12 4 14
REMARK SMILES IDX 1 15 2 16 3 17 9 18 10 19 11 20 13 22 12 23 21 25 22 26
REMARK SMILES IDX 23 27 24 28 25 29 26 31 27 32 28 33 92 34 29 35 91 36 30 37
REMARK SMILES IDX 31 38 32 39 85 40 33 41 90 42 84 43 86 44 34 45 89 46 83 47
REMARK SMILES IDX 82 48 35 50 69 51 48 52 68 53 49 54 52 55 67 56 87 57 50 58
REMARK SMILES IDX 51 59 66 61 88 62 53 63 36 64 37 65 46 66 38 67 39 68 45 69
REMARK SMILES IDX 47 70 40 71 41 72 42 73 43 74 44 75 70 76 71 77 80 78 72 79
REMARK SMILES IDX 73 80 79 81 81 82 74 83 75 84 76 85 77 86 78 87 54 88 55 89
REMARK SMILES IDX 64 90 56 91 57 92 63 93 65 94 58 95 59 96 60 97 61 98 62 99
REMARK H PARENT 17 7 7 13 24 30 86 49 52 60
REMARK Flexibility Score: 90.00
ROOT
ATOM      1  C   UNL     1       4.935   2.310  -2.849  1.00  0.00     0.002 C 
ENDROOT
BRANCH   1   2
ATOM      2  C   UNL     1       3.768   1.352  -3.117  1.00  0.00     0.021 C 
BRANCH   2   3
ATOM      3  C   UNL     1       2.479   2.026  -3.585  1.00  0.00     0.116 C 
BRANCH   3   4
ATOM      4  N   UNL     1       2.072   1.660  -4.925  1.00  0.00    -0.356 N 
ATOM      5  C   UNL     1       0.906   1.152  -5.397  1.00  0.00     0.225 C 
ATOM      6  O   UNL     1       0.745   1.218  -6.623  1.00  0.00    -0.275 OA
ATOM      7  H   UNL     1       2.761   1.805  -5.613  1.00  0.00     0.163 HD
BRANCH   5   8
ATOM      8  C   UNL     1      -0.175   0.474  -4.542  1.00  0.00     0.101 C 
BRANCH   8   9
ATOM      9  C   UNL     1      -1.126   1.388  -3.740  1.00  0.00     0.094 C 
BRANCH   9  10
ATOM     10  N   UNL     1      -0.495   2.408  -2.873  1.00  0.00    -0.352 N 
ATOM     11  C   UNL     1      -0.614   2.568  -1.511  1.00  0.00     0.223 C 
ATOM     12  O   UNL     1      -1.367   3.458  -1.106  1.00  0.00    -0.275 OA
ATOM     13  H   UNL     1       0.086   3.058  -3.330  1.00  0.00     0.163 HD
BRANCH  11  14
ATOM     14  C   UNL     1       0.397   2.035  -0.551  1.00  0.00     0.081 C 
ATOM     15  C   UNL     1      -1.017  -0.120   0.217  1.00  0.00     0.008 C 
ATOM     16  C   UNL     1       0.070   0.878   0.390  1.00  0.00    -0.001 C 
ATOM     17  C   UNL     1       1.240   0.795  -0.539  1.00  0.00     0.018 C 
ENDBRANCH  11  14
ENDBRANCH   9  10
BRANCH   9  18
ATOM     18  C   UNL     1      -2.331   0.686  -3.078  1.00  0.00     0.026 C 
BRANCH  18  19
ATOM     19  C   UNL     1      -2.839  -0.607  -3.727  1.00  0.00     0.002 C 
BRANCH  19  20
ATOM     20  C   UNL     1      -2.022  -1.853  -3.377  1.00  0.00     0.000 CG0
ATOM     21  G   UNL     1      -0.660  -1.980  -4.063  1.00  0.00     0.000 G0
ENDBRANCH  19  20
ENDBRANCH  18  19
ENDBRANCH   9  18
ENDBRANCH   8   9
BRANCH   8  22
ATOM     22  C   UNL     1       0.281  -0.795  -3.827  1.00  0.00     0.015 C 
BRANCH  22  23
ATOM     23  C   UNL     1      -0.660  -1.980  -4.063  1.00  0.00     0.001 CG0
ATOM     24  G   UNL     1      -2.022  -1.853  -3.377  1.00  0.00     0.000 G0
ENDBRANCH  22  23
ENDBRANCH   8  22
ENDBRANCH   5   8
ENDBRANCH   3   4
ENDBRANCH   2   3
ENDBRANCH   1   2
BRANCH   1  25
ATOM     25  C   UNL     1       4.707   3.426  -1.818  1.00  0.00     0.002 C 
BRANCH  25  26
ATOM     26  C   UNL     1       4.402   3.002  -0.380  1.00  0.00     0.021 C 
BRANCH  26  27
ATOM     27  C   UNL     1       5.385   2.028   0.267  1.00  0.00     0.116 C 
BRANCH  27  28
ATOM     28  N   UNL     1       6.745   2.541   0.272  1.00  0.00    -0.352 N 
ATOM     29  C   UNL     1       7.599   2.793   1.312  1.00  0.00     0.251 C 
ATOM     30  H   UNL     1       7.112   2.741  -0.620  1.00  0.00     0.163 HD
ATOM     31  O   UNL     1       8.639   3.422   1.091  1.00  0.00    -0.269 OA
BRANCH  29  32
ATOM     32  C   UNL     1       7.301   2.337   2.688  1.00  0.00     0.039 A 
ATOM     33  C   UNL     1       7.615   3.183   3.758  1.00  0.00     0.014 A 
ATOM     34  C   UNL     1       6.777   1.066   2.942  1.00  0.00     0.014 A 
ATOM     35  C   UNL     1       7.361   2.775   5.071  1.00  0.00     0.010 A 
ATOM     36  C   UNL     1       6.464   0.687   4.249  1.00  0.00     0.010 A 
ATOM     37  C   UNL     1       6.759   1.533   5.328  1.00  0.00    -0.014 A 
BRANCH  37  38
ATOM     38  C   UNL     1       6.437   1.110   6.718  1.00  0.00     0.031 A 
ATOM     39  C   UNL     1       7.119  -0.085   7.330  1.00  0.00     0.074 A 
ATOM     40  C   UNL     1       5.495   1.777   7.415  1.00  0.00     0.049 A 
ATOM     41  N   UNL     1       6.936  -0.629   8.507  1.00  0.00    -0.248 NA
ATOM     42  C   UNL     1       8.123  -0.774   6.503  1.00  0.00     0.031 C 
ATOM     43  C   UNL     1       4.732   2.925   6.920  1.00  0.00     0.029 A 
ATOM     44  N   UNL     1       5.013   1.584   8.686  1.00  0.00    -0.354 N 
ATOM     45  C   UNL     1       7.790  -1.726   8.557  1.00  0.00     0.074 A 
ATOM     46  C   UNL     1       8.452  -1.801   7.273  1.00  0.00     0.031 C 
ATOM     47  C   UNL     1       3.896   3.347   7.882  1.00  0.00     0.029 A 
ATOM     48  C   UNL     1       4.035   2.481   9.048  1.00  0.00     0.049 A 
ATOM     49  H   UNL     1       5.336   0.871   9.282  1.00  0.00     0.167 HD
ATOM     50  C   UNL     1       8.019  -2.577   9.587  1.00  0.00     0.037 A 
ATOM     51  C   UNL     1       3.325   2.591  10.188  1.00  0.00     0.037 A 
ATOM     52  C   UNL     1       7.372  -2.484  10.871  1.00  0.00     0.049 A 
ATOM     53  C   UNL     1       3.593   1.631  11.316  1.00  0.00     0.074 A 
ATOM     54  C   UNL     1       7.572  -3.267  11.995  1.00  0.00     0.029 A 
ATOM     55  N   UNL     1       6.398  -1.553  11.203  1.00  0.00    -0.354 N 
ATOM     56  N   UNL     1       4.447   0.636  11.366  1.00  0.00    -0.248 NA
ATOM     57  C   UNL     1       2.808   1.812  12.545  1.00  0.00     0.031 C 
ATOM     58  C   UNL     1       6.689  -2.838  12.991  1.00  0.00     0.029 A 
ATOM     59  C   UNL     1       5.975  -1.754  12.507  1.00  0.00     0.049 A 
ATOM     60  H   UNL     1       6.059  -0.852  10.601  1.00  0.00     0.167 HD
ATOM     61  C   UNL     1       4.323   0.092  12.639  1.00  0.00     0.074 A 
ATOM     62  C   UNL     1       3.320   0.876  13.332  1.00  0.00     0.031 C 
ATOM     63  C   UNL     1       4.980  -0.961  13.187  1.00  0.00     0.037 A 
BRANCH  50  64
ATOM     64  C   UNL     1       9.015  -3.685   9.370  1.00  0.00     0.058 A 
ATOM     65  C   UNL     1      10.391  -3.426   9.251  1.00  0.00     0.135 A 
ATOM     66  C   UNL     1       8.597  -5.025   9.319  1.00  0.00     0.135 A 
ATOM     67  F   UNL     1      10.846  -2.164   9.279  1.00  0.00    -0.206 F 
ATOM     68  C   UNL     1      11.311  -4.452   9.056  1.00  0.00     0.059 A 
ATOM     69  C   UNL     1       9.504  -6.069   9.155  1.00  0.00     0.059 A 
ATOM     70  F   UNL     1       7.295  -5.332   9.429  1.00  0.00    -0.206 F 
ATOM     71  C   UNL     1      10.858  -5.771   9.009  1.00  0.00     0.060 A 
BRANCH  71  72
ATOM     72  S   UNL     1      12.064  -7.090   8.758  1.00  0.00     0.124 S 
ATOM     73  O   UNL     1      12.407  -6.905   7.350  1.00  0.00    -0.237 OA
ATOM     74  O   UNL     1      13.112  -6.740   9.714  1.00  0.00    -0.237 OA
ATOM     75  O   UNL     1      11.316  -8.301   9.067  1.00  0.00    -0.744 OA
ENDBRANCH  71  72
ENDBRANCH  50  64
BRANCH  51  76
ATOM     76  C   UNL     1       2.308   3.668  10.330  1.00  0.00     0.058 A 
ATOM     77  C   UNL     1       2.517   4.748  11.201  1.00  0.00     0.135 A 
ATOM     78  C   UNL     1       1.113   3.645   9.593  1.00  0.00     0.135 A 
ATOM     79  F   UNL     1       3.640   4.812  11.932  1.00  0.00    -0.206 F 
ATOM     80  C   UNL     1       1.571   5.757  11.352  1.00  0.00     0.059 A 
ATOM     81  C   UNL     1       0.165   4.657   9.707  1.00  0.00     0.059 A 
ATOM     82  F   UNL     1       0.872   2.643   8.734  1.00  0.00    -0.206 F 
ATOM     83  C   UNL     1       0.398   5.703  10.598  1.00  0.00     0.060 A 
BRANCH  83  84
ATOM     84  S   UNL     1      -0.804   7.040  10.770  1.00  0.00     0.124 S 
ATOM     85  O   UNL     1      -1.372   6.756  12.084  1.00  0.00    -0.237 OA
ATOM     86  O   UNL     1       0.043   8.226  10.684  1.00  0.00    -0.237 OA
ATOM     87  O   UNL     1      -1.698   6.835   9.637  1.00  0.00    -0.744 OA
ENDBRANCH  83  84
ENDBRANCH  51  76
BRANCH  63  88
ATOM     88  C   UNL     1       4.664  -1.307  14.616  1.00  0.00     0.058 A 
ATOM     89  C   UNL     1       3.447  -1.903  14.982  1.00  0.00     0.135 A 
ATOM     90  C   UNL     1       5.612  -1.079  15.627  1.00  0.00     0.135 A 
ATOM     91  F   UNL     1       2.504  -2.137  14.055  1.00  0.00    -0.206 F 
ATOM     92  C   UNL     1       3.170  -2.237  16.303  1.00  0.00     0.059 A 
ATOM     93  C   UNL     1       5.368  -1.432  16.951  1.00  0.00     0.059 A 
ATOM     94  F   UNL     1       6.797  -0.521  15.331  1.00  0.00    -0.206 F 
ATOM     95  C   UNL     1       4.138  -1.999  17.281  1.00  0.00     0.060 A 
BRANCH  95  96
ATOM     96  S   UNL     1       3.777  -2.465  18.988  1.00  0.00     0.124 S 
ATOM     97  O   UNL     1       2.831  -1.426  19.382  1.00  0.00    -0.237 OA
ATOM     98  O   UNL     1       3.221  -3.805  18.835  1.00  0.00    -0.237 OA
ATOM     99  O   UNL     1       5.083  -2.405  19.640  1.00  0.00    -0.744 OA
ENDBRANCH  95  96
ENDBRANCH  63  88
ENDBRANCH  37  38
ENDBRANCH  29  32
ENDBRANCH  27  28
ENDBRANCH  26  27
ENDBRANCH  25  26
ENDBRANCH   1  25
TORSDOF 18
