REMARK SMILES COc1cc(/C=C2/N=C(c3ccccc3)OC2=O)ccc1OCC(=O)NCCCCCCNC(=O)c1ccc(-c2c3nc(c(-c4c(F)cc(S(=O)(=O)[O-])cc4F)c4ccc([nH]4)c(-c4c(F)cc(S(=O)(=O)[O-])cc4F)c4nc(c(-c5c(F)cc(S(=O)(=O)[O-])cc5F)c5ccc2[nH]5)C=C4)C=C3)cc1
REMARK SMILES IDX 29 1 28 2 27 3 26 4 24 5 25 6 23 8 22 9 21 10 3 11 4 12 5 13
REMARK SMILES IDX 20 14 19 15 2 16 1 17 6 18 7 19 8 20 17 21 9 22 16 23 18 24
REMARK SMILES IDX 10 25 11 26 15 27 12 28 14 29 13 30 30 31 31 32 32 33 33 34
REMARK SMILES IDX 34 35 35 37 36 38 37 39 101 40 38 41 100 42 39 43 40 44
REMARK SMILES IDX 41 45 94 46 42 47 99 48 93 49 95 50 43 51 98 52 92 53 91 54
REMARK SMILES IDX 44 56 78 57 57 58 77 59 58 60 61 61 76 62 96 63 59 64 60 65
REMARK SMILES IDX 75 67 97 68 62 69 45 70 46 71 55 72 47 73 48 74 54 75 56 76
REMARK SMILES IDX 49 77 50 78 51 79 52 80 53 81 79 82 80 83 89 84 81 85 82 86
REMARK SMILES IDX 88 87 90 88 83 89 84 90 85 91 86 92 87 93 63 94 64 95 73 96
REMARK SMILES IDX 65 97 66 98 72 99 74 100 67 101 68 102 69 103 70 104 71 105
REMARK H PARENT 26 7 33 36 95 55 61 66
REMARK Flexibility Score: inf
ROOT
ATOM      1  C   UNL     1       2.049   4.546  -1.619  1.00  0.00     0.002 C 
ENDROOT
BRANCH   1   2
ATOM      2  C   UNL     1       2.974   3.382  -1.997  1.00  0.00     0.021 C 
BRANCH   2   3
ATOM      3  C   UNL     1       3.566   2.607  -0.822  1.00  0.00     0.116 C 
BRANCH   3   4
ATOM      4  N   UNL     1       2.552   2.079   0.065  1.00  0.00    -0.353 N 
ATOM      5  C   UNL     1       2.348   0.788   0.453  1.00  0.00     0.257 C 
ATOM      6  O   UNL     1       1.594   0.593   1.410  1.00  0.00    -0.271 OA
ATOM      7  H   UNL     1       1.925   2.740   0.437  1.00  0.00     0.163 HD
BRANCH   5   8
ATOM      8  C   UNL     1       3.096  -0.359  -0.236  1.00  0.00     0.329 C 
BRANCH   8   9
ATOM      9  O   UNL     1       3.283  -0.288  -1.634  1.00  0.00    -0.480 OA
BRANCH   9  10
ATOM     10  C   UNL     1       2.255  -0.475  -2.509  1.00  0.00     0.161 A 
ATOM     11  C   UNL     1       1.005  -1.065  -2.295  1.00  0.00     0.161 A 
ATOM     12  C   UNL     1       0.123  -1.260  -3.375  1.00  0.00     0.058 A 
ATOM     13  C   UNL     1       0.488  -0.870  -4.672  1.00  0.00    -0.019 A 
ATOM     14  C   UNL     1       2.586  -0.050  -3.804  1.00  0.00     0.051 A 
ATOM     15  C   UNL     1       1.714  -0.236  -4.875  1.00  0.00     0.012 A 
BRANCH  11  16
ATOM     16  O   UNL     1       0.692  -1.641  -1.094  1.00  0.00    -0.493 OA
ATOM     17  C   UNL     1      -0.315  -0.922  -0.384  1.00  0.00     0.278 C 
ENDBRANCH  11  16
BRANCH  13  18
ATOM     18  C   UNL     1      -0.326  -1.232  -5.836  1.00  0.00     0.044 C 
ATOM     19  C   UNL     1      -0.079  -2.295  -6.617  1.00  0.00     0.153 C 
ATOM     20  N   UNL     1      -0.830  -2.638  -7.718  1.00  0.00    -0.205 NA
ATOM     21  C   UNL     1       1.009  -3.306  -6.404  1.00  0.00     0.363 C 
ATOM     22  C   UNL     1      -0.298  -3.762  -8.076  1.00  0.00     0.231 C 
ATOM     23  O   UNL     1       0.760  -4.225  -7.378  1.00  0.00    -0.402 OA
ATOM     24  O   UNL     1       1.899  -3.358  -5.586  1.00  0.00    -0.244 OA
BRANCH  22  25
ATOM     25  C   UNL     1      -0.674  -4.635  -9.185  1.00  0.00     0.037 A 
ATOM     26  C   UNL     1      -0.839  -4.106 -10.466  1.00  0.00     0.014 A 
ATOM     27  C   UNL     1      -0.859  -6.003  -8.950  1.00  0.00     0.014 A 
ATOM     28  C   UNL     1      -1.177  -4.957 -11.521  1.00  0.00     0.001 A 
ATOM     29  C   UNL     1      -1.214  -6.844 -10.003  1.00  0.00     0.001 A 
ATOM     30  C   UNL     1      -1.368  -6.322 -11.288  1.00  0.00     0.000 A 
ENDBRANCH  22  25
ENDBRANCH  13  18
ENDBRANCH   9  10
ENDBRANCH   8   9
ENDBRANCH   5   8
ENDBRANCH   3   4
ENDBRANCH   2   3
ENDBRANCH   1   2
BRANCH   1  31
ATOM     31  C   UNL     1       2.593   5.518  -0.568  1.00  0.00     0.002 C 
BRANCH  31  32
ATOM     32  C   UNL     1       3.977   6.098  -0.861  1.00  0.00     0.021 C 
BRANCH  32  33
ATOM     33  C   UNL     1       4.096   6.823  -2.194  1.00  0.00     0.116 C 
BRANCH  33  34
ATOM     34  N   UNL     1       3.261   8.011  -2.248  1.00  0.00    -0.352 N 
ATOM     35  C   UNL     1       3.622   9.303  -2.545  1.00  0.00     0.251 C 
ATOM     36  H   UNL     1       2.308   7.872  -2.045  1.00  0.00     0.163 HD
ATOM     37  O   UNL     1       2.832  10.222  -2.353  1.00  0.00    -0.269 OA
BRANCH  35  38
ATOM     38  C   UNL     1       4.976   9.579  -3.072  1.00  0.00     0.039 A 
ATOM     39  C   UNL     1       5.707  10.643  -2.541  1.00  0.00     0.014 A 
ATOM     40  C   UNL     1       5.529   8.779  -4.078  1.00  0.00     0.014 A 
ATOM     41  C   UNL     1       7.014  10.868  -2.977  1.00  0.00     0.010 A 
ATOM     42  C   UNL     1       6.859   8.953  -4.449  1.00  0.00     0.010 A 
ATOM     43  C   UNL     1       7.614  10.003  -3.908  1.00  0.00    -0.014 A 
BRANCH  43  44
ATOM     44  C   UNL     1       9.028  10.185  -4.328  1.00  0.00     0.031 A 
ATOM     45  C   UNL     1       9.356  10.482  -5.767  1.00  0.00     0.074 A 
ATOM     46  C   UNL     1      10.018  10.031  -3.425  1.00  0.00     0.049 A 
ATOM     47  N   UNL     1      10.527  10.615  -6.336  1.00  0.00    -0.248 NA
ATOM     48  C   UNL     1       8.221  10.625  -6.694  1.00  0.00     0.031 C 
ATOM     49  C   UNL     1       9.829   9.699  -2.011  1.00  0.00     0.029 A 
ATOM     50  N   UNL     1      11.381  10.125  -3.561  1.00  0.00    -0.354 N 
ATOM     51  C   UNL     1      10.270  10.849  -7.682  1.00  0.00     0.074 A 
ATOM     52  C   UNL     1       8.836  10.780  -7.857  1.00  0.00     0.031 C 
ATOM     53  C   UNL     1      11.027   9.642  -1.407  1.00  0.00     0.029 A 
ATOM     54  C   UNL     1      12.072   9.887  -2.396  1.00  0.00     0.049 A 
ATOM     55  H   UNL     1      11.823  10.342  -4.414  1.00  0.00     0.167 HD
ATOM     56  C   UNL     1      11.148  11.123  -8.677  1.00  0.00     0.037 A 
ATOM     57  C   UNL     1      13.397   9.857  -2.153  1.00  0.00     0.037 A 
ATOM     58  C   UNL     1      12.574  11.207  -8.490  1.00  0.00     0.049 A 
ATOM     59  C   UNL     1      14.353  10.141  -3.281  1.00  0.00     0.074 A 
ATOM     60  C   UNL     1      13.544  11.526  -9.424  1.00  0.00     0.029 A 
ATOM     61  N   UNL     1      13.234  10.969  -7.293  1.00  0.00    -0.354 N 
ATOM     62  N   UNL     1      14.089  10.423  -4.535  1.00  0.00    -0.248 NA
ATOM     63  C   UNL     1      15.787  10.109  -2.963  1.00  0.00     0.031 C 
ATOM     64  C   UNL     1      14.794  11.425  -8.806  1.00  0.00     0.029 A 
ATOM     65  C   UNL     1      14.601  11.108  -7.471  1.00  0.00     0.049 A 
ATOM     66  H   UNL     1      12.796  10.736  -6.443  1.00  0.00     0.167 HD
ATOM     67  C   UNL     1      15.321  10.635  -5.146  1.00  0.00     0.074 A 
ATOM     68  C   UNL     1      16.328  10.463  -4.120  1.00  0.00     0.031 C 
ATOM     69  C   UNL     1      15.593  10.946  -6.437  1.00  0.00     0.037 A 
BRANCH  56  70
ATOM     70  C   UNL     1      10.597  11.358 -10.058  1.00  0.00     0.058 A 
ATOM     71  C   UNL     1       9.846  12.504 -10.368  1.00  0.00     0.135 A 
ATOM     72  C   UNL     1      10.870  10.456 -11.099  1.00  0.00     0.135 A 
ATOM     73  F   UNL     1       9.539  13.392  -9.409  1.00  0.00    -0.206 F 
ATOM     74  C   UNL     1       9.369  12.736 -11.653  1.00  0.00     0.059 A 
ATOM     75  C   UNL     1      10.430  10.685 -12.400  1.00  0.00     0.059 A 
ATOM     76  F   UNL     1      11.581   9.342 -10.861  1.00  0.00    -0.206 F 
ATOM     77  C   UNL     1       9.671  11.823 -12.665  1.00  0.00     0.060 A 
BRANCH  77  78
ATOM     78  S   UNL     1       9.065  12.156 -14.332  1.00  0.00     0.124 S 
ATOM     79  O   UNL     1       7.630  11.938 -14.169  1.00  0.00    -0.237 OA
ATOM     80  O   UNL     1       9.476  13.540 -14.541  1.00  0.00    -0.237 OA
ATOM     81  O   UNL     1       9.759  11.167 -15.151  1.00  0.00    -0.744 OA
ENDBRANCH  77  78
ENDBRANCH  56  70
BRANCH  57  82
ATOM     82  C   UNL     1      13.902   9.555  -0.785  1.00  0.00     0.058 A 
ATOM     83  C   UNL     1      14.565  10.530  -0.025  1.00  0.00     0.135 A 
ATOM     84  C   UNL     1      13.742   8.283  -0.213  1.00  0.00     0.135 A 
ATOM     85  F   UNL     1      14.749  11.761  -0.527  1.00  0.00    -0.206 F 
ATOM     86  C   UNL     1      15.076  10.250   1.239  1.00  0.00     0.059 A 
ATOM     87  C   UNL     1      14.215   7.987   1.061  1.00  0.00     0.059 A 
ATOM     88  F   UNL     1      13.100   7.317  -0.889  1.00  0.00    -0.206 F 
ATOM     89  C   UNL     1      14.895   8.973   1.774  1.00  0.00     0.060 A 
BRANCH  89  90
ATOM     90  S   UNL     1      15.538   8.628   3.425  1.00  0.00     0.124 S 
ATOM     91  O   UNL     1      16.976   8.605   3.182  1.00  0.00    -0.237 OA
ATOM     92  O   UNL     1      15.037   9.764   4.192  1.00  0.00    -0.237 OA
ATOM     93  O   UNL     1      14.934   7.341   3.758  1.00  0.00    -0.744 OA
ENDBRANCH  89  90
ENDBRANCH  57  82
BRANCH  69  94
ATOM     94  C   UNL     1      17.034  11.167  -6.812  1.00  0.00     0.058 A 
ATOM     95  C   UNL     1      17.956  10.111  -6.874  1.00  0.00     0.135 A 
ATOM     96  C   UNL     1      17.483  12.450  -7.168  1.00  0.00     0.135 A 
ATOM     97  F   UNL     1      17.582   8.866  -6.539  1.00  0.00    -0.206 F 
ATOM     98  C   UNL     1      19.279  10.322  -7.250  1.00  0.00     0.059 A 
ATOM     99  C   UNL     1      18.792  12.678  -7.580  1.00  0.00     0.059 A 
ATOM    100  F   UNL     1      16.641  13.495  -7.137  1.00  0.00    -0.206 F 
ATOM    101  C   UNL     1      19.686  11.610  -7.606  1.00  0.00     0.060 A 
BRANCH 101 102
ATOM    102  S   UNL     1      21.395  11.861  -8.129  1.00  0.00     0.124 S 
ATOM    103  O   UNL     1      22.114  11.708  -6.868  1.00  0.00    -0.237 OA
ATOM    104  O   UNL     1      21.584  10.789  -9.101  1.00  0.00    -0.237 OA
ATOM    105  O   UNL     1      21.387  13.210  -8.686  1.00  0.00    -0.744 OA
ENDBRANCH 101 102
ENDBRANCH  69  94
ENDBRANCH  43  44
ENDBRANCH  35  38
ENDBRANCH  33  34
ENDBRANCH  32  33
ENDBRANCH  31  32
ENDBRANCH   1  31
TORSDOF 21
