REMARK SMILES Cc1ccc(C(=O)NCCCCCCNC(=O)c2ccc(-c3c4nc(c(-c5c(F)cc(S(=O)(=O)[O-])cc5F)c5ccc([nH]5)c(-c5c(F)cc(S(=O)(=O)[O-])cc5F)c5nc(c(-c6c(F)cc(S(=O)(=O)[O-])cc6F)c6ccc3[nH]6)C=C5)C=C4)cc2)c(Oc2cccc(F)c2C(N)=O)c1
REMARK SMILES IDX 11 1 10 2 9 3 8 4 6 5 7 6 5 8 1 9 2 10 3 11 96 12 4 13 84 14
REMARK SMILES IDX 85 15 86 16 87 17 92 18 88 19 90 20 89 21 91 22 93 23 94 24
REMARK SMILES IDX 95 25 12 28 13 29 14 30 15 31 16 32 17 34 18 35 19 36 83 37
REMARK SMILES IDX 20 38 82 39 21 40 22 41 23 42 76 43 24 44 81 45 75 46 77 47
REMARK SMILES IDX 25 48 80 49 74 50 73 51 26 53 60 54 39 55 59 56 40 57 43 58
REMARK SMILES IDX 58 59 78 60 41 61 42 62 57 64 79 65 44 66 27 67 28 68 37 69
REMARK SMILES IDX 29 70 30 71 36 72 38 73 31 74 32 75 33 76 34 77 35 78 61 79
REMARK SMILES IDX 62 80 71 81 63 82 64 83 70 84 72 85 65 86 66 87 67 88 68 89
REMARK SMILES IDX 69 90 45 91 46 92 55 93 47 94 48 95 54 96 56 97 49 98 50 99
REMARK SMILES IDX 51 100 52 101 53 102
REMARK H PARENT 8 7 94 26 94 27 15 33 77 52 43 63
REMARK Flexibility Score: inf
ROOT
ATOM      1  C   UNL     1      -5.958   3.521  -1.094  1.00  0.00     0.002 C 
ENDROOT
BRANCH   1   2
ATOM      2  C   UNL     1      -4.533   3.163  -1.520  1.00  0.00     0.021 C 
BRANCH   2   3
ATOM      3  C   UNL     1      -3.625   2.479  -0.504  1.00  0.00     0.116 C 
BRANCH   3   4
ATOM      4  N   UNL     1      -3.913   1.105  -0.194  1.00  0.00    -0.352 N 
ATOM      5  C   UNL     1      -3.075   0.080   0.186  1.00  0.00     0.255 C 
ATOM      6  O   UNL     1      -3.623  -0.969   0.545  1.00  0.00    -0.269 OA
ATOM      7  H   UNL     1      -4.864   0.856  -0.265  1.00  0.00     0.163 HD
BRANCH   5   8
ATOM      8  C   UNL     1      -1.571   0.094   0.130  1.00  0.00     0.082 A 
ATOM      9  C   UNL     1       2.735  -0.502   0.053  1.00  0.00     0.044 C 
ATOM     10  C   UNL     1       1.248  -0.314   0.097  1.00  0.00    -0.047 A 
ATOM     11  C   UNL     1       0.385  -1.355  -0.231  1.00  0.00     0.004 A 
ATOM     12  C   UNL     1       0.700   0.908   0.493  1.00  0.00     0.051 A 
ATOM     13  C   UNL     1      -1.000  -1.155  -0.200  1.00  0.00     0.018 A 
ATOM     14  C   UNL     1      -0.690   1.140   0.455  1.00  0.00     0.140 A 
BRANCH  14  15
ATOM     15  O   UNL     1      -1.169   2.356   0.862  1.00  0.00    -0.456 OA
BRANCH  15  16
ATOM     16  C   UNL     1      -0.611   3.547   0.428  1.00  0.00     0.143 A 
ATOM     17  C   UNL     1      -0.869   4.593   1.334  1.00  0.00     0.048 A 
ATOM     18  C   UNL     1       0.054   3.843  -0.776  1.00  0.00     0.117 A 
ATOM     19  C   UNL     1      -0.459   5.901   1.073  1.00  0.00     0.007 A 
ATOM     20  C   UNL     1       0.459   5.162  -1.024  1.00  0.00     0.139 A 
ATOM     21  C   UNL     1       0.206   6.185  -0.113  1.00  0.00     0.040 A 
ATOM     22  F   UNL     1       1.085   5.483  -2.165  1.00  0.00    -0.206 F 
BRANCH  18  23
ATOM     23  C   UNL     1       0.464   2.872  -1.806  1.00  0.00     0.255 C 
ATOM     24  N   UNL     1      -0.507   2.287  -2.564  1.00  0.00    -0.365 N 
ATOM     25  O   UNL     1       1.650   2.616  -1.975  1.00  0.00    -0.269 OA
ATOM     26  H   UNL     1      -1.453   2.509  -2.409  1.00  0.00     0.159 HD
ATOM     27  H   UNL     1      -0.261   1.643  -3.268  1.00  0.00     0.159 HD
ENDBRANCH  18  23
ENDBRANCH  15  16
ENDBRANCH  14  15
ENDBRANCH   5   8
ENDBRANCH   3   4
ENDBRANCH   2   3
ENDBRANCH   1   2
BRANCH   1  28
ATOM     28  C   UNL     1      -6.165   4.195   0.269  1.00  0.00     0.002 C 
BRANCH  28  29
ATOM     29  C   UNL     1      -5.231   5.345   0.646  1.00  0.00     0.021 C 
BRANCH  29  30
ATOM     30  C   UNL     1      -5.312   6.571  -0.253  1.00  0.00     0.116 C 
BRANCH  30  31
ATOM     31  N   UNL     1      -5.954   7.708   0.392  1.00  0.00    -0.352 N 
ATOM     32  C   UNL     1      -5.929   9.036  -0.005  1.00  0.00     0.251 C 
ATOM     33  H   UNL     1      -6.467   7.509   1.208  1.00  0.00     0.163 HD
ATOM     34  O   UNL     1      -6.329   9.943   0.696  1.00  0.00    -0.269 OA
BRANCH  32  35
ATOM     35  C   UNL     1      -5.479   9.293  -1.389  1.00  0.00     0.039 A 
ATOM     36  C   UNL     1      -6.463   9.617  -2.329  1.00  0.00     0.014 A 
ATOM     37  C   UNL     1      -4.194   8.927  -1.777  1.00  0.00     0.014 A 
ATOM     38  C   UNL     1      -6.209   9.399  -3.680  1.00  0.00     0.010 A 
ATOM     39  C   UNL     1      -3.973   8.630  -3.107  1.00  0.00     0.010 A 
ATOM     40  C   UNL     1      -4.993   8.825  -4.051  1.00  0.00    -0.014 A 
BRANCH  40  41
ATOM     41  C   UNL     1      -4.731   8.306  -5.387  1.00  0.00     0.031 A 
ATOM     42  C   UNL     1      -3.830   9.030  -6.308  1.00  0.00     0.074 A 
ATOM     43  C   UNL     1      -5.252   7.121  -5.772  1.00  0.00     0.049 A 
ATOM     44  N   UNL     1      -3.891   8.930  -7.594  1.00  0.00    -0.248 NA
ATOM     45  C   UNL     1      -2.797   9.954  -5.849  1.00  0.00     0.031 C 
ATOM     46  C   UNL     1      -4.854   6.321  -6.927  1.00  0.00     0.029 A 
ATOM     47  N   UNL     1      -6.404   6.493  -5.297  1.00  0.00    -0.354 N 
ATOM     48  C   UNL     1      -2.756   9.510  -8.102  1.00  0.00     0.074 A 
ATOM     49  C   UNL     1      -2.144  10.199  -6.989  1.00  0.00     0.031 C 
ATOM     50  C   UNL     1      -5.847   5.474  -7.235  1.00  0.00     0.029 A 
ATOM     51  C   UNL     1      -6.973   5.800  -6.380  1.00  0.00     0.049 A 
ATOM     52  H   UNL     1      -6.753   6.529  -4.377  1.00  0.00     0.167 HD
ATOM     53  C   UNL     1      -2.353   9.229  -9.372  1.00  0.00     0.037 A 
ATOM     54  C   UNL     1      -8.230   6.087  -6.829  1.00  0.00     0.037 A 
ATOM     55  C   UNL     1      -3.268   8.315 -10.047  1.00  0.00     0.049 A 
ATOM     56  C   UNL     1      -8.282   6.540  -8.271  1.00  0.00     0.074 A 
ATOM     57  C   UNL     1      -3.241   6.945 -10.256  1.00  0.00     0.029 A 
ATOM     58  N   UNL     1      -4.563   8.727 -10.344  1.00  0.00    -0.354 N 
ATOM     59  N   UNL     1      -7.250   6.965  -8.946  1.00  0.00    -0.248 NA
ATOM     60  C   UNL     1      -9.503   6.548  -9.069  1.00  0.00     0.031 C 
ATOM     61  C   UNL     1      -4.529   6.530 -10.670  1.00  0.00     0.029 A 
ATOM     62  C   UNL     1      -5.342   7.647 -10.718  1.00  0.00     0.049 A 
ATOM     63  H   UNL     1      -4.880   9.657 -10.295  1.00  0.00     0.167 HD
ATOM     64  C   UNL     1      -7.632   7.313 -10.222  1.00  0.00     0.074 A 
ATOM     65  C   UNL     1      -9.050   7.003 -10.251  1.00  0.00     0.031 C 
ATOM     66  C   UNL     1      -6.733   7.821 -11.123  1.00  0.00     0.037 A 
BRANCH  53  67
ATOM     67  C   UNL     1      -0.955   9.556  -9.831  1.00  0.00     0.058 A 
ATOM     68  C   UNL     1      -0.166   8.611 -10.517  1.00  0.00     0.135 A 
ATOM     69  C   UNL     1      -0.319  10.780  -9.546  1.00  0.00     0.135 A 
ATOM     70  F   UNL     1      -0.659   7.426 -10.898  1.00  0.00    -0.206 F 
ATOM     71  C   UNL     1       1.180   8.823 -10.810  1.00  0.00     0.059 A 
ATOM     72  C   UNL     1       1.041  10.999  -9.787  1.00  0.00     0.059 A 
ATOM     73  F   UNL     1      -1.008  11.799  -9.005  1.00  0.00    -0.206 F 
ATOM     74  C   UNL     1       1.787  10.007 -10.412  1.00  0.00     0.060 A 
BRANCH  74  75
ATOM     75  S   UNL     1       3.559  10.199 -10.684  1.00  0.00     0.124 S 
ATOM     76  O   UNL     1       4.090   8.931 -10.191  1.00  0.00    -0.237 OA
ATOM     77  O   UNL     1       3.623  10.394 -12.128  1.00  0.00    -0.237 OA
ATOM     78  O   UNL     1       3.901  11.366  -9.875  1.00  0.00    -0.744 OA
ENDBRANCH  74  75
ENDBRANCH  53  67
BRANCH  54  79
ATOM     79  C   UNL     1      -9.155   6.508  -5.742  1.00  0.00     0.058 A 
ATOM     80  C   UNL     1      -9.494   5.548  -4.767  1.00  0.00     0.135 A 
ATOM     81  C   UNL     1      -9.331   7.858  -5.410  1.00  0.00     0.135 A 
ATOM     82  F   UNL     1      -9.352   4.239  -5.037  1.00  0.00    -0.206 F 
ATOM     83  C   UNL     1      -9.836   5.910  -3.469  1.00  0.00     0.059 A 
ATOM     84  C   UNL     1      -9.682   8.244  -4.113  1.00  0.00     0.059 A 
ATOM     85  F   UNL     1      -9.026   8.817  -6.296  1.00  0.00    -0.206 F 
ATOM     86  C   UNL     1      -9.867   7.262  -3.137  1.00  0.00     0.060 A 
BRANCH  86  87
ATOM     87  S   UNL     1      -9.972   7.694  -1.383  1.00  0.00     0.124 S 
ATOM     88  O   UNL     1     -11.285   7.172  -1.022  1.00  0.00    -0.237 OA
ATOM     89  O   UNL     1      -8.831   6.969  -0.827  1.00  0.00    -0.237 OA
ATOM     90  O   UNL     1      -9.848   9.147  -1.388  1.00  0.00    -0.744 OA
ENDBRANCH  86  87
ENDBRANCH  54  79
BRANCH  66  91
ATOM     91  C   UNL     1      -6.998   8.424 -12.501  1.00  0.00     0.058 A 
ATOM     92  C   UNL     1      -8.248   8.859 -12.974  1.00  0.00     0.135 A 
ATOM     93  C   UNL     1      -5.913   8.691 -13.384  1.00  0.00     0.135 A 
ATOM     94  F   UNL     1      -9.352   8.782 -12.224  1.00  0.00    -0.206 F 
ATOM     95  C   UNL     1      -8.419   9.451 -14.232  1.00  0.00     0.059 A 
ATOM     96  C   UNL     1      -6.053   9.331 -14.615  1.00  0.00     0.059 A 
ATOM     97  F   UNL     1      -4.651   8.354 -13.081  1.00  0.00    -0.206 F 
ATOM     98  C   UNL     1      -7.316   9.688 -15.045  1.00  0.00     0.060 A 
BRANCH  98  99
ATOM     99  S   UNL     1      -7.529  10.530 -16.623  1.00  0.00     0.124 S 
ATOM    100  O   UNL     1      -7.910   9.424 -17.495  1.00  0.00    -0.237 OA
ATOM    101  O   UNL     1      -8.586  11.494 -16.329  1.00  0.00    -0.237 OA
ATOM    102  O   UNL     1      -6.215  11.112 -16.877  1.00  0.00    -0.744 OA
ENDBRANCH  98  99
ENDBRANCH  66  91
ENDBRANCH  40  41
ENDBRANCH  32  35
ENDBRANCH  30  31
ENDBRANCH  29  30
ENDBRANCH  28  29
ENDBRANCH   1  28
TORSDOF 19
