REMARK SMILES CC[C@@H](C)NC(=O)[C@H](C)[NH+]1CC(n2cc(C(=O)NCCCCCCNC(=O)c3ccc(-c4c5nc(c(-c6c(F)cc(S(=O)(=O)[O-])cc6F)c6ccc([nH]6)c(-c6c(F)cc(S(=O)(=O)[O-])cc6F)c6nc(c(-c7c(F)cc(S(=O)(=O)[O-])cc7F)c7ccc4[nH]7)C=C6)C=C5)cc3)nn2)C1
REMARK SMILES IDX 20 1 19 2 18 3 16 4 17 5 15 7 13 8 14 9 95 10 94 11 12 12
REMARK SMILES IDX 10 13 11 14 96 15 8 17 9 18 6 19 5 20 7 22 3 23 4 24 2 25
REMARK SMILES IDX 1 26 21 27 22 28 23 29 24 30 25 31 26 32 27 34 28 35 29 36
REMARK SMILES IDX 93 37 30 38 92 39 31 40 32 41 33 42 86 43 34 44 91 45 85 46
REMARK SMILES IDX 87 47 35 48 90 49 84 50 83 51 36 53 70 54 49 55 69 56 50 57
REMARK SMILES IDX 53 58 68 59 88 60 51 61 52 62 67 64 89 65 54 66 37 67 38 68
REMARK SMILES IDX 47 69 39 70 40 71 46 72 48 73 41 74 42 75 43 76 44 77 45 78
REMARK SMILES IDX 71 79 72 80 81 81 73 82 74 83 80 84 82 85 75 86 76 87 77 88
REMARK SMILES IDX 78 89 79 90 55 91 56 92 65 93 57 94 58 95 64 96 66 97 59 98
REMARK SMILES IDX 60 99 61 100 62 101 63 102
REMARK H PARENT 18 6 10 16 5 21 25 33 87 52 53 63
REMARK Flexibility Score: inf
ROOT
ATOM      1  C   UNL     1      -0.209  -1.892   8.555  1.00  0.00     0.021 C 
ENDROOT
BRANCH   1   2
ATOM      2  C   UNL     1      -0.873  -1.804   7.183  1.00  0.00     0.116 C 
BRANCH   2   3
ATOM      3  N   UNL     1      -1.105  -0.424   6.813  1.00  0.00    -0.351 N 
ATOM      4  C   UNL     1      -0.590   0.345   5.802  1.00  0.00     0.273 C 
ATOM      5  O   UNL     1      -1.074   1.479   5.678  1.00  0.00    -0.267 OA
ATOM      6  H   UNL     1      -1.747   0.046   7.391  1.00  0.00     0.163 HD
BRANCH   4   7
ATOM      7  C   UNL     1       0.419  -0.163   4.884  1.00  0.00     0.170 A 
ATOM      8  N   UNL     1       1.949  -1.243   3.779  1.00  0.00    -0.237 N 
ATOM      9  C   UNL     1       1.385  -1.146   5.022  1.00  0.00     0.145 A 
ATOM     10  N   UNL     1       1.440  -0.323   2.946  1.00  0.00    -0.066 NA
ATOM     11  N   UNL     1       0.527   0.362   3.615  1.00  0.00    -0.125 NA
BRANCH   8  12
ATOM     12  C   UNL     1       2.912  -2.233   3.398  1.00  0.00     0.218 C 
ATOM     13  N   UNL     1       3.252  -3.703   1.938  1.00  0.00    -0.321 N 
ATOM     14  C   UNL     1       3.311  -2.216   1.907  1.00  0.00     0.296 C 
ATOM     15  C   UNL     1       2.245  -3.584   3.031  1.00  0.00     0.296 C 
ATOM     16  H   UNL     1       4.100  -4.260   2.044  1.00  0.00     0.348 HD
BRANCH  13  17
ATOM     17  C   UNL     1       2.758  -4.363   0.699  1.00  0.00     0.271 C 
ATOM     18  C   UNL     1       1.274  -4.724   0.582  1.00  0.00     0.086 C 
BRANCH  17  19
ATOM     19  C   UNL     1       3.163  -3.623  -0.598  1.00  0.00     0.278 C 
ATOM     20  N   UNL     1       3.982  -4.195  -1.522  1.00  0.00    -0.349 N 
ATOM     21  H   UNL     1       4.292  -3.579  -2.224  1.00  0.00     0.163 HD
ATOM     22  O   UNL     1       2.719  -2.509  -0.896  1.00  0.00    -0.268 OA
BRANCH  20  23
ATOM     23  C   UNL     1       4.484  -5.558  -1.657  1.00  0.00     0.078 C 
ATOM     24  C   UNL     1       5.986  -5.503  -1.917  1.00  0.00     0.031 C 
BRANCH  23  25
ATOM     25  C   UNL     1       3.706  -6.248  -2.792  1.00  0.00     0.021 C 
ATOM     26  C   UNL     1       4.061  -7.715  -2.979  1.00  0.00     0.006 C 
ENDBRANCH  23  25
ENDBRANCH  20  23
ENDBRANCH  17  19
ENDBRANCH  13  17
ENDBRANCH   8  12
ENDBRANCH   4   7
ENDBRANCH   2   3
ENDBRANCH   1   2
BRANCH   1  27
ATOM     27  C   UNL     1      -1.178  -1.655   9.721  1.00  0.00     0.002 C 
BRANCH  27  28
ATOM     28  C   UNL     1      -2.415  -2.569   9.751  1.00  0.00     0.002 C 
BRANCH  28  29
ATOM     29  C   UNL     1      -2.143  -4.075   9.615  1.00  0.00     0.021 C 
BRANCH  29  30
ATOM     30  C   UNL     1      -1.374  -4.660  10.789  1.00  0.00     0.116 C 
BRANCH  30  31
ATOM     31  N   UNL     1      -2.161  -4.634  12.021  1.00  0.00    -0.352 N 
ATOM     32  C   UNL     1      -1.800  -5.070  13.275  1.00  0.00     0.251 C 
ATOM     33  H   UNL     1      -3.067  -4.257  11.942  1.00  0.00     0.163 HD
ATOM     34  O   UNL     1      -2.663  -5.354  14.107  1.00  0.00    -0.269 OA
BRANCH  32  35
ATOM     35  C   UNL     1      -0.372  -5.182  13.613  1.00  0.00     0.039 A 
ATOM     36  C   UNL     1       0.106  -6.223  14.415  1.00  0.00     0.014 A 
ATOM     37  C   UNL     1       0.496  -4.214  13.113  1.00  0.00     0.014 A 
ATOM     38  C   UNL     1       1.476  -6.319  14.647  1.00  0.00     0.010 A 
ATOM     39  C   UNL     1       1.851  -4.390  13.217  1.00  0.00     0.010 A 
ATOM     40  C   UNL     1       2.343  -5.405  14.029  1.00  0.00    -0.014 A 
BRANCH  40  41
ATOM     41  C   UNL     1       3.790  -5.578  14.083  1.00  0.00     0.031 A 
ATOM     42  C   UNL     1       4.249  -6.883  13.539  1.00  0.00     0.074 A 
ATOM     43  C   UNL     1       4.629  -4.556  14.363  1.00  0.00     0.049 A 
ATOM     44  N   UNL     1       4.759  -7.866  14.202  1.00  0.00    -0.248 NA
ATOM     45  C   UNL     1       3.931  -7.221  12.140  1.00  0.00     0.031 C 
ATOM     46  C   UNL     1       4.284  -3.157  14.639  1.00  0.00     0.029 A 
ATOM     47  N   UNL     1       5.990  -4.522  14.347  1.00  0.00    -0.354 N 
ATOM     48  C   UNL     1       5.082  -8.833  13.255  1.00  0.00     0.074 A 
ATOM     49  C   UNL     1       4.338  -8.491  12.074  1.00  0.00     0.031 C 
ATOM     50  C   UNL     1       5.387  -2.386  14.527  1.00  0.00     0.029 A 
ATOM     51  C   UNL     1       6.541  -3.239  14.314  1.00  0.00     0.049 A 
ATOM     52  H   UNL     1       6.542  -5.337  14.358  1.00  0.00     0.167 HD
ATOM     53  C   UNL     1       6.152  -9.658  13.442  1.00  0.00     0.037 A 
ATOM     54  C   UNL     1       7.843  -2.914  14.089  1.00  0.00     0.037 A 
ATOM     55  C   UNL     1       6.605  -9.597  14.812  1.00  0.00     0.049 A 
ATOM     56  C   UNL     1       8.640  -4.137  14.389  1.00  0.00     0.074 A 
ATOM     57  C   UNL     1       6.009  -9.819  16.039  1.00  0.00     0.029 A 
ATOM     58  N   UNL     1       7.737  -8.858  15.070  1.00  0.00    -0.354 N 
ATOM     59  N   UNL     1       8.759  -4.635  15.590  1.00  0.00    -0.248 NA
ATOM     60  C   UNL     1       8.877  -5.075  13.301  1.00  0.00     0.031 C 
ATOM     61  C   UNL     1       6.530  -8.800  16.889  1.00  0.00     0.029 A 
ATOM     62  C   UNL     1       7.486  -8.082  16.171  1.00  0.00     0.049 A 
ATOM     63  H   UNL     1       8.576  -8.883  14.555  1.00  0.00     0.167 HD
ATOM     64  C   UNL     1       8.628  -6.005  15.416  1.00  0.00     0.074 A 
ATOM     65  C   UNL     1       8.787  -6.224  13.978  1.00  0.00     0.031 C 
ATOM     66  C   UNL     1       8.095  -6.791  16.399  1.00  0.00     0.037 A 
BRANCH  53  67
ATOM     67  C   UNL     1       7.037 -10.197  12.338  1.00  0.00     0.058 A 
ATOM     68  C   UNL     1       8.057 -11.113  12.676  1.00  0.00     0.135 A 
ATOM     69  C   UNL     1       7.124  -9.648  11.040  1.00  0.00     0.135 A 
ATOM     70  F   UNL     1       8.074 -11.706  13.881  1.00  0.00    -0.206 F 
ATOM     71  C   UNL     1       9.130 -11.387  11.829  1.00  0.00     0.059 A 
ATOM     72  C   UNL     1       8.156  -9.949  10.159  1.00  0.00     0.059 A 
ATOM     73  F   UNL     1       6.272  -8.723  10.587  1.00  0.00    -0.206 F 
ATOM     74  C   UNL     1       9.178 -10.785  10.576  1.00  0.00     0.060 A 
BRANCH  74  75
ATOM     75  S   UNL     1      10.603 -11.065   9.515  1.00  0.00     0.124 S 
ATOM     76  O   UNL     1      11.652 -10.366  10.248  1.00  0.00    -0.237 OA
ATOM     77  O   UNL     1      10.688 -12.521   9.505  1.00  0.00    -0.237 OA
ATOM     78  O   UNL     1      10.202 -10.457   8.250  1.00  0.00    -0.744 OA
ENDBRANCH  74  75
ENDBRANCH  53  67
BRANCH  54  79
ATOM     79  C   UNL     1       8.408  -1.750  13.342  1.00  0.00     0.058 A 
ATOM     80  C   UNL     1       9.800  -1.538  13.269  1.00  0.00     0.135 A 
ATOM     81  C   UNL     1       7.630  -0.993  12.443  1.00  0.00     0.135 A 
ATOM     82  F   UNL     1      10.630  -2.207  14.085  1.00  0.00    -0.206 F 
ATOM     83  C   UNL     1      10.386  -0.703  12.307  1.00  0.00     0.059 A 
ATOM     84  C   UNL     1       8.189  -0.145  11.487  1.00  0.00     0.059 A 
ATOM     85  F   UNL     1       6.297  -1.126  12.390  1.00  0.00    -0.206 F 
ATOM     86  C   UNL     1       9.570  -0.035  11.396  1.00  0.00     0.060 A 
BRANCH  86  87
ATOM     87  S   UNL     1      10.311   0.839   9.995  1.00  0.00     0.124 S 
ATOM     88  O   UNL     1      10.873   2.022  10.637  1.00  0.00    -0.237 OA
ATOM     89  O   UNL     1      11.274  -0.136   9.496  1.00  0.00    -0.237 OA
ATOM     90  O   UNL     1       9.172   1.087   9.114  1.00  0.00    -0.744 OA
ENDBRANCH  86  87
ENDBRANCH  54  79
BRANCH  66  91
ATOM     91  C   UNL     1       7.927  -6.206  17.779  1.00  0.00     0.058 A 
ATOM     92  C   UNL     1       7.087  -5.123  18.096  1.00  0.00     0.135 A 
ATOM     93  C   UNL     1       8.518  -6.890  18.852  1.00  0.00     0.135 A 
ATOM     94  F   UNL     1       6.397  -4.480  17.144  1.00  0.00    -0.206 F 
ATOM     95  C   UNL     1       6.879  -4.714  19.415  1.00  0.00     0.059 A 
ATOM     96  C   UNL     1       8.298  -6.522  20.175  1.00  0.00     0.059 A 
ATOM     97  F   UNL     1       9.279  -7.972  18.620  1.00  0.00    -0.206 F 
ATOM     98  C   UNL     1       7.489  -5.422  20.449  1.00  0.00     0.060 A 
BRANCH  98  99
ATOM     99  S   UNL     1       7.171  -4.938  22.159  1.00  0.00     0.124 S 
ATOM    100  O   UNL     1       7.911  -3.685  22.264  1.00  0.00    -0.237 OA
ATOM    101  O   UNL     1       5.716  -4.821  22.191  1.00  0.00    -0.237 OA
ATOM    102  O   UNL     1       7.715  -6.051  22.935  1.00  0.00    -0.744 OA
ENDBRANCH  98  99
ENDBRANCH  66  91
ENDBRANCH  40  41
ENDBRANCH  32  35
ENDBRANCH  30  31
ENDBRANCH  29  30
ENDBRANCH  28  29
ENDBRANCH  27  28
ENDBRANCH   1  27
TORSDOF 21
