REMARK SMILES Cc1cc(C)c2c(c1)C=C(C(=O)NCCCCCCNC(=O)c1ccc(-c3c4nc(c(-c5c(F)cc(S(=O)(=O)[O-])cc5F)c5ccc([nH]5)c(-c5c(F)cc(S(=O)(=O)[O-])cc5F)c5nc(c(-c6c(F)cc(S(=O)(=O)[O-])cc6F)c6ccc3[nH]6)C=C5)C=C4)cc1)[C@@H](C(F)(F)F)O2
REMARK SMILES IDX 17 1 16 2 15 3 14 4 13 5 11 6 12 7 10 9 1 10 2 11 3 12 8 13
REMARK SMILES IDX 4 14 7 15 5 16 6 17 9 18 94 19 89 20 90 21 91 22 92 23 93 24
REMARK SMILES IDX 18 25 19 26 20 27 21 28 22 30 23 31 24 32 88 33 25 34 87 35
REMARK SMILES IDX 26 36 27 37 28 38 81 39 29 40 86 41 80 42 82 43 30 44 85 45
REMARK SMILES IDX 79 46 78 47 31 49 65 50 44 51 64 52 45 53 48 54 63 55 83 56
REMARK SMILES IDX 46 57 47 58 62 60 84 61 49 62 32 63 33 64 42 65 34 66 35 67
REMARK SMILES IDX 41 68 43 69 36 70 37 71 38 72 39 73 40 74 66 75 67 76 76 77
REMARK SMILES IDX 68 78 69 79 75 80 77 81 70 82 71 83 72 84 73 85 74 86 50 87
REMARK SMILES IDX 51 88 60 89 52 90 53 91 59 92 61 93 54 94 55 95 56 96 57 97
REMARK SMILES IDX 58 98
REMARK H PARENT 13 8 20 29 82 48 48 59
REMARK Flexibility Score: inf
ROOT
ATOM      1  C   UNL     1       0.591  12.127  -1.396  1.00  0.00     0.002 C 
ENDROOT
BRANCH   1   2
ATOM      2  C   UNL     1       0.088  11.361  -0.165  1.00  0.00     0.002 C 
BRANCH   2   3
ATOM      3  C   UNL     1      -0.469   9.966  -0.458  1.00  0.00     0.021 C 
BRANCH   3   4
ATOM      4  C   UNL     1       0.518   9.065  -1.193  1.00  0.00     0.116 C 
BRANCH   4   5
ATOM      5  N   UNL     1       1.422   8.397  -0.274  1.00  0.00    -0.352 N 
ATOM      6  C   UNL     1       1.731   7.122   0.061  1.00  0.00     0.251 C 
ATOM      7  O   UNL     1       2.615   7.000   0.915  1.00  0.00    -0.270 OA
ATOM      8  H   UNL     1       1.952   9.044   0.245  1.00  0.00     0.163 HD
BRANCH   6   9
ATOM      9  C   UNL     1       1.091   5.904  -0.518  1.00  0.00     0.067 C 
ATOM     10  C   UNL     1       1.130  -0.259  -0.001  1.00  0.00     0.044 C 
ATOM     11  C   UNL     1       0.681   1.078  -0.510  1.00  0.00    -0.050 A 
ATOM     12  C   UNL     1      -0.359   1.170  -1.446  1.00  0.00     0.010 A 
ATOM     13  C   UNL     1       1.268   2.251  -0.015  1.00  0.00     0.015 A 
ATOM     14  C   UNL     1      -0.801   2.415  -1.903  1.00  0.00    -0.008 A 
ATOM     15  C   UNL     1       0.840   3.502  -0.465  1.00  0.00     0.018 A 
ATOM     16  C   UNL     1      -1.911   2.517  -2.911  1.00  0.00     0.048 C 
ATOM     17  C   UNL     1      -0.185   3.571  -1.411  1.00  0.00     0.130 A 
ATOM     18  C   UNL     1       1.414   4.734   0.064  1.00  0.00     0.025 C 
ATOM     19  O   UNL     1      -0.676   4.760  -1.864  1.00  0.00    -0.475 OA
ATOM     20  C   UNL     1       0.167   5.925  -1.702  1.00  0.00     0.314 C 
BRANCH  20  21
ATOM     21  C   UNL     1       0.901   6.207  -3.025  1.00  0.00     0.429 C 
ATOM     22  F   UNL     1       0.021   6.580  -3.986  1.00  0.00    -0.167 F 
ATOM     23  F   UNL     1       1.799   7.215  -2.918  1.00  0.00    -0.167 F 
ATOM     24  F   UNL     1       1.576   5.130  -3.484  1.00  0.00    -0.167 F 
ENDBRANCH  20  21
ENDBRANCH   6   9
ENDBRANCH   4   5
ENDBRANCH   3   4
ENDBRANCH   2   3
ENDBRANCH   1   2
BRANCH   1  25
ATOM     25  C   UNL     1      -0.388  12.184  -2.572  1.00  0.00     0.021 C 
BRANCH  25  26
ATOM     26  C   UNL     1      -1.739  12.802  -2.234  1.00  0.00     0.116 C 
BRANCH  26  27
ATOM     27  N   UNL     1      -1.598  14.168  -1.758  1.00  0.00    -0.352 N 
ATOM     28  C   UNL     1      -2.123  15.322  -2.277  1.00  0.00     0.251 C 
ATOM     29  H   UNL     1      -1.047  14.280  -0.950  1.00  0.00     0.163 HD
ATOM     30  O   UNL     1      -1.709  16.414  -1.896  1.00  0.00    -0.269 OA
BRANCH  28  31
ATOM     31  C   UNL     1      -3.182  15.241  -3.303  1.00  0.00     0.039 A 
ATOM     32  C   UNL     1      -3.095  16.054  -4.434  1.00  0.00     0.014 A 
ATOM     33  C   UNL     1      -4.260  14.365  -3.140  1.00  0.00     0.014 A 
ATOM     34  C   UNL     1      -4.070  15.957  -5.426  1.00  0.00     0.010 A 
ATOM     35  C   UNL     1      -5.191  14.217  -4.163  1.00  0.00     0.010 A 
ATOM     36  C   UNL     1      -5.112  15.021  -5.310  1.00  0.00    -0.014 A 
BRANCH  36  37
ATOM     37  C   UNL     1      -6.143  14.891  -6.368  1.00  0.00     0.031 A 
ATOM     38  C   UNL     1      -7.573  15.248  -6.067  1.00  0.00     0.074 A 
ATOM     39  C   UNL     1      -5.796  14.423  -7.583  1.00  0.00     0.049 A 
ATOM     40  N   UNL     1      -8.623  15.166  -6.841  1.00  0.00    -0.248 NA
ATOM     41  C   UNL     1      -7.866  15.742  -4.710  1.00  0.00     0.031 C 
ATOM     42  C   UNL     1      -4.446  14.014  -7.978  1.00  0.00     0.029 A 
ATOM     43  N   UNL     1      -6.549  14.211  -8.711  1.00  0.00    -0.354 N 
ATOM     44  C   UNL     1      -9.696  15.596  -6.071  1.00  0.00     0.074 A 
ATOM     45  C   UNL     1      -9.184  15.880  -4.749  1.00  0.00     0.031 C 
ATOM     46  C   UNL     1      -4.461  13.631  -9.264  1.00  0.00     0.029 A 
ATOM     47  C   UNL     1      -5.825  13.727  -9.776  1.00  0.00     0.049 A 
ATOM     48  H   UNL     1      -7.516  14.389  -8.753  1.00  0.00     0.167 HD
ATOM     49  C   UNL     1     -10.986  15.768  -6.442  1.00  0.00     0.037 A 
ATOM     50  C   UNL     1      -6.218  13.397 -11.021  1.00  0.00     0.037 A 
ATOM     51  C   UNL     1     -11.481  15.508  -7.768  1.00  0.00     0.049 A 
ATOM     52  C   UNL     1      -7.665  13.571 -11.399  1.00  0.00     0.074 A 
ATOM     53  C   UNL     1     -12.762  15.692  -8.256  1.00  0.00     0.029 A 
ATOM     54  N   UNL     1     -10.720  15.010  -8.815  1.00  0.00    -0.354 N 
ATOM     55  N   UNL     1      -8.657  14.027 -10.672  1.00  0.00    -0.248 NA
ATOM     56  C   UNL     1      -8.048  13.188 -12.765  1.00  0.00     0.031 C 
ATOM     57  C   UNL     1     -12.789  15.260  -9.585  1.00  0.00     0.029 A 
ATOM     58  C   UNL     1     -11.511  14.858  -9.942  1.00  0.00     0.049 A 
ATOM     59  H   UNL     1      -9.761  14.797  -8.766  1.00  0.00     0.167 HD
ATOM     60  C   UNL     1      -9.776  14.007 -11.499  1.00  0.00     0.074 A 
ATOM     61  C   UNL     1      -9.334  13.510 -12.785  1.00  0.00     0.031 C 
ATOM     62  C   UNL     1     -11.053  14.366 -11.217  1.00  0.00     0.037 A 
BRANCH  49  63
ATOM     63  C   UNL     1     -11.954  16.281  -5.412  1.00  0.00     0.058 A 
ATOM     64  C   UNL     1     -11.908  17.610  -4.961  1.00  0.00     0.135 A 
ATOM     65  C   UNL     1     -12.983  15.460  -4.925  1.00  0.00     0.135 A 
ATOM     66  F   UNL     1     -10.933  18.433  -5.380  1.00  0.00    -0.206 F 
ATOM     67  C   UNL     1     -12.842  18.104  -4.057  1.00  0.00     0.059 A 
ATOM     68  C   UNL     1     -13.945  15.941  -4.041  1.00  0.00     0.059 A 
ATOM     69  F   UNL     1     -13.070  14.179  -5.318  1.00  0.00    -0.206 F 
ATOM     70  C   UNL     1     -13.862  17.264  -3.609  1.00  0.00     0.060 A 
BRANCH  70  71
ATOM     71  S   UNL     1     -15.087  17.937  -2.467  1.00  0.00     0.124 S 
ATOM     72  O   UNL     1     -14.286  18.134  -1.262  1.00  0.00    -0.237 OA
ATOM     73  O   UNL     1     -15.511  19.154  -3.151  1.00  0.00    -0.237 OA
ATOM     74  O   UNL     1     -16.093  16.882  -2.384  1.00  0.00    -0.744 OA
ENDBRANCH  70  71
ENDBRANCH  49  63
BRANCH  50  75
ATOM     75  C   UNL     1      -5.225  12.890 -12.007  1.00  0.00     0.058 A 
ATOM     76  C   UNL     1      -4.855  13.660 -13.119  1.00  0.00     0.135 A 
ATOM     77  C   UNL     1      -4.617  11.634 -11.851  1.00  0.00     0.135 A 
ATOM     78  F   UNL     1      -5.413  14.864 -13.316  1.00  0.00    -0.206 F 
ATOM     79  C   UNL     1      -3.931  13.199 -14.051  1.00  0.00     0.059 A 
ATOM     80  C   UNL     1      -3.669  11.162 -12.755  1.00  0.00     0.059 A 
ATOM     81  F   UNL     1      -4.923  10.864 -10.796  1.00  0.00    -0.206 F 
ATOM     82  C   UNL     1      -3.340  11.949 -13.857  1.00  0.00     0.060 A 
BRANCH  82  83
ATOM     83  S   UNL     1      -2.111  11.381 -15.052  1.00  0.00     0.124 S 
ATOM     84  O   UNL     1      -2.935  11.137 -16.230  1.00  0.00    -0.237 OA
ATOM     85  O   UNL     1      -1.210  12.527 -15.129  1.00  0.00    -0.237 OA
ATOM     86  O   UNL     1      -1.549  10.192 -14.418  1.00  0.00    -0.744 OA
ENDBRANCH  82  83
ENDBRANCH  50  75
BRANCH  62  87
ATOM     87  C   UNL     1     -12.069  14.253 -12.320  1.00  0.00     0.058 A 
ATOM     88  C   UNL     1     -12.547  13.007 -12.752  1.00  0.00     0.135 A 
ATOM     89  C   UNL     1     -12.631  15.407 -12.891  1.00  0.00     0.135 A 
ATOM     90  F   UNL     1     -12.039  11.874 -12.242  1.00  0.00    -0.206 F 
ATOM     91  C   UNL     1     -13.537  12.907 -13.724  1.00  0.00     0.059 A 
ATOM     92  C   UNL     1     -13.643  15.331 -13.842  1.00  0.00     0.059 A 
ATOM     93  F   UNL     1     -12.217  16.624 -12.504  1.00  0.00    -0.206 F 
ATOM     94  C   UNL     1     -14.085  14.076 -14.257  1.00  0.00     0.060 A 
BRANCH  94  95
ATOM     95  S   UNL     1     -15.403  13.927 -15.481  1.00  0.00     0.124 S 
ATOM     96  O   UNL     1     -14.678  13.402 -16.633  1.00  0.00    -0.237 OA
ATOM     97  O   UNL     1     -16.323  12.998 -14.833  1.00  0.00    -0.237 OA
ATOM     98  O   UNL     1     -15.896  15.294 -15.620  1.00  0.00    -0.744 OA
ENDBRANCH  94  95
ENDBRANCH  62  87
ENDBRANCH  36  37
ENDBRANCH  28  31
ENDBRANCH  26  27
ENDBRANCH  25  26
ENDBRANCH   1  25
TORSDOF 17
