REMARK SMILES CCCOc1ccc(-c2nc(C#N)c(N3CCC(C(=O)NCCCCCCNC(=O)c4ccc(-c5c6nc(c(-c7c(F)cc(S(=O)(=O)[O-])cc7F)c7ccc([nH]7)c(-c7c(F)cc(S(=O)(=O)[O-])cc7F)c7nc(c(-c8c(F)cc(S(=O)(=O)[O-])cc8F)c8ccc5[nH]8)C=C7)C=C6)cc4)CC3)o2)cc1
REMARK SMILES IDX 23 1 22 2 21 3 19 4 20 5 18 7 15 8 16 9 98 10 17 11 97 12
REMARK SMILES IDX 14 13 9 14 10 15 99 16 11 17 8 18 5 19 6 20 101 21 7 22
REMARK SMILES IDX 100 23 4 24 3 25 2 26 1 27 12 28 13 29 24 30 25 31 26 32
REMARK SMILES IDX 27 33 28 34 29 35 30 37 31 38 32 39 96 40 33 41 95 42 34 43
REMARK SMILES IDX 35 44 36 45 89 46 37 47 94 48 88 49 90 50 38 51 93 52 87 53
REMARK SMILES IDX 86 54 39 56 73 57 52 58 72 59 53 60 56 61 71 62 91 63 54 64
REMARK SMILES IDX 55 65 70 67 92 68 57 69 40 70 41 71 50 72 42 73 43 74 49 75
REMARK SMILES IDX 51 76 44 77 45 78 46 79 47 80 48 81 74 82 75 83 84 84 76 85
REMARK SMILES IDX 77 86 83 87 85 88 78 89 79 90 80 91 81 92 82 93 58 94 59 95
REMARK SMILES IDX 68 96 60 97 61 98 67 99 69 100 62 101 63 102 64 103 65 104
REMARK SMILES IDX 66 105
REMARK H PARENT 21 6 28 36 90 55 56 66
REMARK Flexibility Score: inf
ROOT
ATOM      1  C   UNL     1       3.797  11.988   1.738  1.00  0.00     0.021 C 
ENDROOT
BRANCH   1   2
ATOM      2  C   UNL     1       2.343  11.576   1.939  1.00  0.00     0.116 C 
BRANCH   2   3
ATOM      3  N   UNL     1       1.438  12.513   1.297  1.00  0.00    -0.356 N 
ATOM      4  C   UNL     1       0.510  12.321   0.321  1.00  0.00     0.223 C 
ATOM      5  O   UNL     1      -0.132  13.300  -0.068  1.00  0.00    -0.275 OA
ATOM      6  H   UNL     1       1.507  13.440   1.622  1.00  0.00     0.163 HD
BRANCH   4   7
ATOM      7  C   UNL     1       0.225  10.935  -0.241  1.00  0.00     0.082 C 
ATOM      8  N   UNL     1       0.815   8.173  -0.029  1.00  0.00    -0.340 N 
ATOM      9  C   UNL     1       1.328   8.841  -1.217  1.00  0.00     0.120 C 
ATOM     10  C   UNL     1      -0.503   8.587   0.419  1.00  0.00     0.120 C 
ATOM     11  C   UNL     1       1.444  10.341  -0.970  1.00  0.00     0.035 C 
ATOM     12  C   UNL     1      -0.414  10.048   0.843  1.00  0.00     0.035 C 
BRANCH   8  13
ATOM     13  C   UNL     1       1.490   7.184   0.602  1.00  0.00     0.235 A 
ATOM     14  C   UNL     1       1.703   5.234   1.533  1.00  0.00     0.230 A 
ATOM     15  N   UNL     1       2.899   5.765   1.679  1.00  0.00    -0.196 NA
ATOM     16  O   UNL     1       0.784   6.057   0.935  1.00  0.00    -0.419 OA
ATOM     17  C   UNL     1       2.786   6.979   1.038  1.00  0.00     0.204 A 
BRANCH  14  18
ATOM     18  C   UNL     1       1.249   3.892   1.871  1.00  0.00     0.037 A 
ATOM     19  C   UNL     1       0.568   1.219   2.371  1.00  0.00     0.119 A 
ATOM     20  C   UNL     1       1.358   1.911   3.286  1.00  0.00     0.047 A 
ATOM     21  C   UNL     1       0.040   1.877   1.265  1.00  0.00     0.047 A 
ATOM     22  C   UNL     1       1.704   3.245   3.031  1.00  0.00     0.017 A 
ATOM     23  C   UNL     1       0.401   3.197   1.000  1.00  0.00     0.017 A 
BRANCH  19  24
ATOM     24  O   UNL     1       0.235  -0.088   2.592  1.00  0.00    -0.494 OA
BRANCH  24  25
ATOM     25  C   UNL     1       1.095  -1.006   1.888  1.00  0.00     0.229 C 
BRANCH  25  26
ATOM     26  C   UNL     1       0.654  -1.255   0.439  1.00  0.00     0.038 C 
ATOM     27  C   UNL     1       1.514  -0.524  -0.587  1.00  0.00     0.007 C 
ENDBRANCH  25  26
ENDBRANCH  24  25
ENDBRANCH  19  24
ENDBRANCH  14  18
BRANCH  17  28
ATOM     28  C   UNL     1       3.867   7.891   0.992  1.00  0.00     0.125 C 
ATOM     29  N   UNL     1       4.736   8.682   0.992  1.00  0.00    -0.190 NA
ENDBRANCH  17  28
ENDBRANCH   8  13
ENDBRANCH   4   7
ENDBRANCH   2   3
ENDBRANCH   1   2
BRANCH   1  30
ATOM     30  C   UNL     1       4.202  13.237   2.524  1.00  0.00     0.002 C 
BRANCH  30  31
ATOM     31  C   UNL     1       3.898  13.192   4.032  1.00  0.00     0.002 C 
BRANCH  31  32
ATOM     32  C   UNL     1       4.376  11.942   4.789  1.00  0.00     0.021 C 
BRANCH  32  33
ATOM     33  C   UNL     1       5.877  11.740   4.724  1.00  0.00     0.116 C 
BRANCH  33  34
ATOM     34  N   UNL     1       6.628  12.778   5.442  1.00  0.00    -0.352 N 
ATOM     35  C   UNL     1       7.989  12.825   5.711  1.00  0.00     0.251 C 
ATOM     36  H   UNL     1       6.098  13.538   5.774  1.00  0.00     0.163 HD
ATOM     37  O   UNL     1       8.426  13.519   6.622  1.00  0.00    -0.269 OA
BRANCH  35  38
ATOM     38  C   UNL     1       8.903  12.054   4.847  1.00  0.00     0.039 A 
ATOM     39  C   UNL     1      10.099  11.469   5.273  1.00  0.00     0.014 A 
ATOM     40  C   UNL     1       8.495  11.892   3.539  1.00  0.00     0.014 A 
ATOM     41  C   UNL     1      10.858  10.768   4.330  1.00  0.00     0.010 A 
ATOM     42  C   UNL     1       8.970  10.812   2.877  1.00  0.00     0.010 A 
ATOM     43  C   UNL     1      10.282  10.487   3.085  1.00  0.00    -0.014 A 
BRANCH  43  44
ATOM     44  C   UNL     1      10.886   9.700   2.026  1.00  0.00     0.031 A 
ATOM     45  C   UNL     1      11.178   8.323   2.471  1.00  0.00     0.074 A 
ATOM     46  C   UNL     1      10.970  10.115   0.737  1.00  0.00     0.049 A 
ATOM     47  N   UNL     1      12.316   7.893   2.893  1.00  0.00    -0.248 NA
ATOM     48  C   UNL     1      10.060   7.405   2.747  1.00  0.00     0.031 C 
ATOM     49  C   UNL     1      10.456  11.335   0.097  1.00  0.00     0.029 A 
ATOM     50  N   UNL     1      11.550   9.468  -0.318  1.00  0.00    -0.354 N 
ATOM     51  C   UNL     1      12.121   6.556   3.205  1.00  0.00     0.074 A 
ATOM     52  C   UNL     1      10.699   6.392   3.340  1.00  0.00     0.031 C 
ATOM     53  C   UNL     1      10.565  11.239  -1.253  1.00  0.00     0.029 A 
ATOM     54  C   UNL     1      11.297  10.029  -1.578  1.00  0.00     0.049 A 
ATOM     55  H   UNL     1      12.107   8.665  -0.201  1.00  0.00     0.167 HD
ATOM     56  C   UNL     1      13.140   5.666   3.053  1.00  0.00     0.037 A 
ATOM     57  C   UNL     1      11.696   9.516  -2.779  1.00  0.00     0.037 A 
ATOM     58  C   UNL     1      14.383   6.370   2.822  1.00  0.00     0.049 A 
ATOM     59  C   UNL     1      12.850   8.617  -2.475  1.00  0.00     0.074 A 
ATOM     60  C   UNL     1      15.142   7.258   3.559  1.00  0.00     0.029 A 
ATOM     61  N   UNL     1      14.760   6.546   1.509  1.00  0.00    -0.354 N 
ATOM     62  N   UNL     1      13.987   9.060  -2.001  1.00  0.00    -0.248 NA
ATOM     63  C   UNL     1      12.540   7.229  -2.161  1.00  0.00     0.031 C 
ATOM     64  C   UNL     1      15.572   8.242   2.620  1.00  0.00     0.029 A 
ATOM     65  C   UNL     1      15.157   7.851   1.346  1.00  0.00     0.049 A 
ATOM     66  H   UNL     1      14.747   5.855   0.808  1.00  0.00     0.167 HD
ATOM     67  C   UNL     1      14.316   8.175  -0.981  1.00  0.00     0.074 A 
ATOM     68  C   UNL     1      13.395   7.047  -1.149  1.00  0.00     0.031 C 
ATOM     69  C   UNL     1      15.072   8.568   0.089  1.00  0.00     0.037 A 
BRANCH  56  70
ATOM     70  C   UNL     1      12.987   4.203   2.721  1.00  0.00     0.058 A 
ATOM     71  C   UNL     1      14.144   3.396   2.697  1.00  0.00     0.135 A 
ATOM     72  C   UNL     1      11.827   3.617   2.170  1.00  0.00     0.135 A 
ATOM     73  F   UNL     1      15.303   3.843   3.208  1.00  0.00    -0.206 F 
ATOM     74  C   UNL     1      14.170   2.141   2.093  1.00  0.00     0.059 A 
ATOM     75  C   UNL     1      11.820   2.346   1.603  1.00  0.00     0.059 A 
ATOM     76  F   UNL     1      10.665   4.271   2.073  1.00  0.00    -0.206 F 
ATOM     77  C   UNL     1      13.003   1.630   1.536  1.00  0.00     0.060 A 
BRANCH  77  78
ATOM     78  S   UNL     1      13.058   0.037   0.701  1.00  0.00     0.124 S 
ATOM     79  O   UNL     1      13.906   0.335  -0.447  1.00  0.00    -0.237 OA
ATOM     80  O   UNL     1      13.646  -0.818   1.727  1.00  0.00    -0.237 OA
ATOM     81  O   UNL     1      11.655  -0.233   0.398  1.00  0.00    -0.744 OA
ENDBRANCH  77  78
ENDBRANCH  56  70
BRANCH  57  82
ATOM     82  C   UNL     1      10.894   9.378  -4.037  1.00  0.00     0.058 A 
ATOM     83  C   UNL     1      11.467   8.934  -5.249  1.00  0.00     0.135 A 
ATOM     84  C   UNL     1       9.486   9.383  -3.999  1.00  0.00     0.135 A 
ATOM     85  F   UNL     1      12.802   8.879  -5.382  1.00  0.00    -0.206 F 
ATOM     86  C   UNL     1      10.694   8.469  -6.328  1.00  0.00     0.059 A 
ATOM     87  C   UNL     1       8.697   8.925  -5.058  1.00  0.00     0.059 A 
ATOM     88  F   UNL     1       8.830   9.748  -2.888  1.00  0.00    -0.206 F 
ATOM     89  C   UNL     1       9.305   8.444  -6.211  1.00  0.00     0.060 A 
BRANCH  89  90
ATOM     90  S   UNL     1       8.297   7.668  -7.504  1.00  0.00     0.124 S 
ATOM     91  O   UNL     1       8.435   8.612  -8.608  1.00  0.00    -0.237 OA
ATOM     92  O   UNL     1       8.956   6.378  -7.683  1.00  0.00    -0.237 OA
ATOM     93  O   UNL     1       6.966   7.603  -6.904  1.00  0.00    -0.744 OA
ENDBRANCH  89  90
ENDBRANCH  57  82
BRANCH  69  94
ATOM     94  C   UNL     1      15.745   9.921   0.040  1.00  0.00     0.058 A 
ATOM     95  C   UNL     1      15.078  11.161   0.026  1.00  0.00     0.135 A 
ATOM     96  C   UNL     1      17.139   9.957   0.183  1.00  0.00     0.135 A 
ATOM     97  F   UNL     1      13.740  11.223  -0.008  1.00  0.00    -0.206 F 
ATOM     98  C   UNL     1      15.767  12.376   0.112  1.00  0.00     0.059 A 
ATOM     99  C   UNL     1      17.844  11.151   0.299  1.00  0.00     0.059 A 
ATOM    100  F   UNL     1      17.833   8.810   0.268  1.00  0.00    -0.206 F 
ATOM    101  C   UNL     1      17.155  12.360   0.246  1.00  0.00     0.060 A 
BRANCH 101 102
ATOM    102  S   UNL     1      18.055  13.919   0.394  1.00  0.00     0.124 S 
ATOM    103  O   UNL     1      17.907  14.486  -0.942  1.00  0.00    -0.237 OA
ATOM    104  O   UNL     1      17.331  14.606   1.459  1.00  0.00    -0.237 OA
ATOM    105  O   UNL     1      19.410  13.499   0.745  1.00  0.00    -0.744 OA
ENDBRANCH 101 102
ENDBRANCH  69  94
ENDBRANCH  43  44
ENDBRANCH  35  38
ENDBRANCH  33  34
ENDBRANCH  32  33
ENDBRANCH  31  32
ENDBRANCH  30  31
ENDBRANCH   1  30
TORSDOF 22
