REMARK SMILES O=C(Cn1cc(/C=C2\SC(N3CCOCC3)=[NH+]C2=O)c2ccccc21)NCCCCCCNC(=O)c1ccc(-c2c3nc(c(-c4c(F)cc(S(=O)(=O)[O-])cc4F)c4ccc([nH]4)c(-c4c(F)cc(S(=O)(=O)[O-])cc4F)c4nc(c(-c5c(F)cc(S(=O)(=O)[O-])cc5F)c5ccc2[nH]5)C=C4)C=C3)cc1
REMARK SMILES IDX 30 1 29 2 28 3 27 4 26 5 1 6 2 7 3 9 4 10 5 11 25 12 6 13
REMARK SMILES IDX 20 14 24 15 21 16 23 17 22 18 7 19 8 20 9 21 18 22 10 23
REMARK SMILES IDX 17 24 19 25 11 26 12 28 16 29 13 30 15 31 14 32 31 33 32 34
REMARK SMILES IDX 33 35 34 36 35 38 36 39 37 40 101 41 38 42 100 43 39 44
REMARK SMILES IDX 40 45 41 46 94 47 42 48 99 49 93 50 95 51 43 52 98 53 92 54
REMARK SMILES IDX 91 55 44 57 78 58 57 59 77 60 58 61 61 62 76 63 96 64 59 65
REMARK SMILES IDX 60 66 75 68 97 69 62 70 45 71 46 72 55 73 47 74 48 75 54 76
REMARK SMILES IDX 56 77 49 78 50 79 51 80 52 81 53 82 79 83 80 84 89 85 81 86
REMARK SMILES IDX 82 87 88 88 90 89 83 90 84 91 85 92 86 93 87 94 63 95 64 96
REMARK SMILES IDX 73 97 65 98 66 99 72 100 74 101 67 102 68 103 69 104 70 105
REMARK SMILES IDX 71 106
REMARK H PARENT 26 8 17 27 33 37 95 56 61 67
REMARK Flexibility Score: inf
ROOT
ATOM      1  C   UNL     1       4.667  -1.222   4.173  1.00  0.00     0.002 C 
ENDROOT
BRANCH   1   2
ATOM      2  C   UNL     1       4.244  -2.055   2.958  1.00  0.00     0.002 C 
BRANCH   2   3
ATOM      3  C   UNL     1       2.745  -2.013   2.630  1.00  0.00     0.021 C 
BRANCH   3   4
ATOM      4  C   UNL     1       2.230  -0.631   2.229  1.00  0.00     0.116 C 
BRANCH   4   5
ATOM      5  N   UNL     1       2.892  -0.156   1.032  1.00  0.00    -0.355 N 
ATOM      6  O   UNL     1       1.063  -0.284  -0.347  1.00  0.00    -0.273 OA
ATOM      7  C   UNL     1       2.255  -0.027  -0.182  1.00  0.00     0.239 C 
ATOM      8  H   UNL     1       3.845   0.087   1.088  1.00  0.00     0.163 HD
BRANCH   7   9
ATOM      9  C   UNL     1       3.149   0.332  -1.352  1.00  0.00     0.222 C 
BRANCH   9  10
ATOM     10  N   UNL     1       3.960   1.515  -1.111  1.00  0.00    -0.337 N 
ATOM     11  C   UNL     1       3.482   2.794  -1.222  1.00  0.00     0.095 A 
ATOM     12  C   UNL     1       5.294   1.533  -0.749  1.00  0.00     0.049 A 
ATOM     13  C   UNL     1       4.502   3.655  -0.885  1.00  0.00     0.001 A 
ATOM     14  C   UNL     1       5.659   2.879  -0.606  1.00  0.00     0.007 A 
ATOM     15  C   UNL     1       6.206   0.489  -0.514  1.00  0.00     0.027 A 
ATOM     16  C   UNL     1       6.979   3.188  -0.219  1.00  0.00     0.011 A 
ATOM     17  C   UNL     1       7.506   0.825  -0.126  1.00  0.00     0.002 A 
ATOM     18  C   UNL     1       7.890   2.154   0.019  1.00  0.00     0.001 A 
BRANCH  13  19
ATOM     19  C   UNL     1       4.352   5.071  -0.849  1.00  0.00     0.034 C 
ATOM     20  C   UNL     1       3.577   5.747   0.010  1.00  0.00     0.110 C 
ATOM     21  S   UNL     1       2.697   5.126   1.345  1.00  0.00     0.006 SA
ATOM     22  C   UNL     1       3.303   7.206  -0.125  1.00  0.00     0.346 C 
ATOM     23  C   UNL     1       1.915   6.685   1.543  1.00  0.00     0.319 C 
ATOM     24  N   UNL     1       2.286   7.607   0.717  1.00  0.00    -0.200 N 
ATOM     25  O   UNL     1       3.878   7.922  -0.927  1.00  0.00    -0.240 OA
ATOM     26  N   UNL     1       0.918   6.789   2.469  1.00  0.00    -0.251 N 
ATOM     27  H   UNL     1       1.884   8.506   0.691  1.00  0.00     0.316 HD
ATOM     28  C   UNL     1       1.014   6.301   3.851  1.00  0.00     0.265 C 
ATOM     29  C   UNL     1      -0.337   7.479   2.184  1.00  0.00     0.265 C 
ATOM     30  C   UNL     1      -0.196   5.410   4.161  1.00  0.00     0.206 C 
ATOM     31  C   UNL     1      -1.497   6.527   2.522  1.00  0.00     0.206 C 
ATOM     32  O   UNL     1      -1.440   6.084   3.887  1.00  0.00    -0.373 OA
ENDBRANCH  13  19
ENDBRANCH   9  10
ENDBRANCH   7   9
ENDBRANCH   4   5
ENDBRANCH   3   4
ENDBRANCH   2   3
ENDBRANCH   1   2
BRANCH   1  33
ATOM     33  C   UNL     1       3.968  -1.587   5.490  1.00  0.00     0.021 C 
BRANCH  33  34
ATOM     34  C   UNL     1       4.002  -3.079   5.822  1.00  0.00     0.116 C 
BRANCH  34  35
ATOM     35  N   UNL     1       5.338  -3.617   5.969  1.00  0.00    -0.352 N 
ATOM     36  C   UNL     1       6.200  -3.771   7.018  1.00  0.00     0.251 C 
ATOM     37  H   UNL     1       5.710  -3.948   5.120  1.00  0.00     0.163 HD
ATOM     38  O   UNL     1       7.220  -4.427   6.793  1.00  0.00    -0.269 OA
BRANCH  36  39
ATOM     39  C   UNL     1       6.036  -3.124   8.345  1.00  0.00     0.039 A 
ATOM     40  C   UNL     1       4.889  -2.467   8.792  1.00  0.00     0.014 A 
ATOM     41  C   UNL     1       7.187  -3.103   9.155  1.00  0.00     0.014 A 
ATOM     42  C   UNL     1       4.940  -1.656   9.915  1.00  0.00     0.010 A 
ATOM     43  C   UNL     1       7.232  -2.325  10.300  1.00  0.00     0.010 A 
ATOM     44  C   UNL     1       6.134  -1.536  10.622  1.00  0.00    -0.014 A 
BRANCH  44  45
ATOM     45  C   UNL     1       6.173  -0.608  11.744  1.00  0.00     0.031 A 
ATOM     46  C   UNL     1       5.241  -0.952  12.859  1.00  0.00     0.074 A 
ATOM     47  C   UNL     1       7.074   0.397  11.783  1.00  0.00     0.049 A 
ATOM     48  N   UNL     1       4.289  -0.239  13.369  1.00  0.00    -0.248 NA
ATOM     49  C   UNL     1       5.280  -2.335  13.371  1.00  0.00     0.031 C 
ATOM     50  C   UNL     1       8.180   0.657  10.854  1.00  0.00     0.029 A 
ATOM     51  N   UNL     1       7.267   1.344  12.739  1.00  0.00    -0.354 N 
ATOM     52  C   UNL     1       3.751  -1.001  14.407  1.00  0.00     0.074 A 
ATOM     53  C   UNL     1       4.284  -2.329  14.257  1.00  0.00     0.031 C 
ATOM     54  C   UNL     1       9.061   1.506  11.430  1.00  0.00     0.029 A 
ATOM     55  C   UNL     1       8.518   1.956  12.697  1.00  0.00     0.049 A 
ATOM     56  H   UNL     1       6.581   1.577  13.405  1.00  0.00     0.167 HD
ATOM     57  C   UNL     1       3.062  -0.438  15.439  1.00  0.00     0.037 A 
ATOM     58  C   UNL     1       9.081   2.687  13.695  1.00  0.00     0.037 A 
ATOM     59  C   UNL     1       2.599   0.880  15.103  1.00  0.00     0.049 A 
ATOM     60  C   UNL     1       7.971   3.107  14.597  1.00  0.00     0.074 A 
ATOM     61  C   UNL     1       1.716   1.383  14.167  1.00  0.00     0.029 A 
ATOM     62  N   UNL     1       3.341   1.953  15.531  1.00  0.00    -0.354 N 
ATOM     63  N   UNL     1       7.021   3.929  14.239  1.00  0.00    -0.248 NA
ATOM     64  C   UNL     1       7.649   2.227  15.711  1.00  0.00     0.031 C 
ATOM     65  C   UNL     1       2.307   2.599  13.721  1.00  0.00     0.029 A 
ATOM     66  C   UNL     1       3.471   2.806  14.462  1.00  0.00     0.049 A 
ATOM     67  H   UNL     1       3.711   2.086  16.433  1.00  0.00     0.167 HD
ATOM     68  C   UNL     1       5.862   3.397  14.787  1.00  0.00     0.074 A 
ATOM     69  C   UNL     1       6.321   2.373  15.725  1.00  0.00     0.031 C 
ATOM     70  C   UNL     1       4.637   3.627  14.228  1.00  0.00     0.037 A 
BRANCH  57  71
ATOM     71  C   UNL     1       3.093  -0.951  16.858  1.00  0.00     0.058 A 
ATOM     72  C   UNL     1       2.204  -0.420  17.816  1.00  0.00     0.135 A 
ATOM     73  C   UNL     1       4.146  -1.738  17.377  1.00  0.00     0.135 A 
ATOM     74  F   UNL     1       1.171   0.349  17.438  1.00  0.00    -0.206 F 
ATOM     75  C   UNL     1       2.388  -0.603  19.188  1.00  0.00     0.059 A 
ATOM     76  C   UNL     1       4.318  -1.975  18.735  1.00  0.00     0.059 A 
ATOM     77  F   UNL     1       5.114  -2.235  16.597  1.00  0.00    -0.206 F 
ATOM     78  C   UNL     1       3.459  -1.370  19.637  1.00  0.00     0.060 A 
BRANCH  78  79
ATOM     79  S   UNL     1       3.764  -1.515  21.407  1.00  0.00     0.124 S 
ATOM     80  O   UNL     1       4.111  -0.142  21.758  1.00  0.00    -0.237 OA
ATOM     81  O   UNL     1       2.475  -1.994  21.896  1.00  0.00    -0.237 OA
ATOM     82  O   UNL     1       4.856  -2.481  21.483  1.00  0.00    -0.744 OA
ENDBRANCH  78  79
ENDBRANCH  57  71
BRANCH  58  83
ATOM     83  C   UNL     1      10.500   2.642  14.153  1.00  0.00     0.058 A 
ATOM     84  C   UNL     1      11.001   3.587  15.067  1.00  0.00     0.135 A 
ATOM     85  C   UNL     1      11.307   1.505  13.938  1.00  0.00     0.135 A 
ATOM     86  F   UNL     1      10.293   4.692  15.348  1.00  0.00    -0.206 F 
ATOM     87  C   UNL     1      12.200   3.391  15.766  1.00  0.00     0.059 A 
ATOM     88  C   UNL     1      12.507   1.292  14.616  1.00  0.00     0.059 A 
ATOM     89  F   UNL     1      10.906   0.512  13.130  1.00  0.00    -0.206 F 
ATOM     90  C   UNL     1      12.934   2.225  15.551  1.00  0.00     0.060 A 
BRANCH  90  91
ATOM     91  S   UNL     1      14.377   1.874  16.584  1.00  0.00     0.124 S 
ATOM     92  O   UNL     1      15.312   2.911  16.163  1.00  0.00    -0.237 OA
ATOM     93  O   UNL     1      13.833   2.014  17.930  1.00  0.00    -0.237 OA
ATOM     94  O   UNL     1      14.745   0.512  16.203  1.00  0.00    -0.744 OA
ENDBRANCH  90  91
ENDBRANCH  58  83
BRANCH  70  95
ATOM     95  C   UNL     1       4.530   4.668  13.141  1.00  0.00     0.058 A 
ATOM     96  C   UNL     1       5.170   4.587  11.891  1.00  0.00     0.135 A 
ATOM     97  C   UNL     1       3.616   5.716  13.321  1.00  0.00     0.135 A 
ATOM     98  F   UNL     1       5.973   3.556  11.593  1.00  0.00    -0.206 F 
ATOM     99  C   UNL     1       4.950   5.534  10.886  1.00  0.00     0.059 A 
ATOM    100  C   UNL     1       3.354   6.651  12.323  1.00  0.00     0.059 A 
ATOM    101  F   UNL     1       2.920   5.812  14.466  1.00  0.00    -0.206 F 
ATOM    102  C   UNL     1       4.038   6.564  11.113  1.00  0.00     0.060 A 
BRANCH 102 103
ATOM    103  S   UNL     1       3.717   7.763   9.801  1.00  0.00     0.124 S 
ATOM    104  O   UNL     1       4.992   8.466   9.708  1.00  0.00    -0.237 OA
ATOM    105  O   UNL     1       3.379   6.909   8.665  1.00  0.00    -0.237 OA
ATOM    106  O   UNL     1       2.606   8.554  10.324  1.00  0.00    -0.744 OA
ENDBRANCH 102 103
ENDBRANCH  70  95
ENDBRANCH  44  45
ENDBRANCH  36  39
ENDBRANCH  34  35
ENDBRANCH  33  34
ENDBRANCH   1  33
TORSDOF 18
