REMARK SMILES O=C(NCCCCCCNC(=O)c1cc(/C=C/c2cc(O)cc(O)c2)ccc1O)c1ccc(-c2c3nc(c(-c4c(F)cc(S(=O)(=O)[O-])cc4F)c4ccc([nH]4)c(-c4c(F)cc(S(=O)(=O)[O-])cc4F)c4nc(c(-c5c(F)cc(S(=O)(=O)[O-])cc5F)c5ccc2[nH]5)C=C4)C=C3)cc1
REMARK SMILES IDX 6 1 5 2 4 3 3 4 1 5 2 6 30 8 31 9 95 10 32 11 94 12 33 13
REMARK SMILES IDX 34 14 35 15 88 16 36 17 93 18 87 19 89 20 37 21 92 22 86 23
REMARK SMILES IDX 85 24 38 26 72 27 51 28 71 29 52 30 55 31 70 32 90 33 53 34
REMARK SMILES IDX 54 35 69 37 91 38 56 39 39 40 40 41 49 42 41 43 42 44 48 45
REMARK SMILES IDX 50 46 43 47 44 48 45 49 46 50 47 51 73 52 74 53 83 54 75 55
REMARK SMILES IDX 76 56 82 57 84 58 77 59 78 60 79 61 80 62 81 63 57 64 58 65
REMARK SMILES IDX 67 66 59 67 60 68 66 69 68 70 61 71 62 72 63 73 64 74 65 75
REMARK SMILES IDX 7 76 8 77 9 78 10 79 11 80 12 82 13 83 14 84 28 85 15 86
REMARK SMILES IDX 27 87 26 88 29 89 16 91 17 92 18 93 19 94 25 95 20 96 23 97
REMARK SMILES IDX 22 98 21 99 24 101
REMARK H PARENT 3 7 89 25 55 36 10 81 29 90 21 100 24 102
REMARK Flexibility Score: inf
ROOT
ATOM      1  C   UNL     1       4.197  -3.271   1.935  1.00  0.00     0.002 C 
ENDROOT
BRANCH   1   2
ATOM      2  C   UNL     1       4.674  -1.821   1.842  1.00  0.00     0.021 C 
BRANCH   2   3
ATOM      3  C   UNL     1       4.432  -1.139   0.501  1.00  0.00     0.116 C 
BRANCH   3   4
ATOM      4  N   UNL     1       3.021  -1.019   0.180  1.00  0.00    -0.352 N 
ATOM      5  O   UNL     1       1.084   0.039  -0.278  1.00  0.00    -0.269 OA
ATOM      6  C   UNL     1       2.307   0.096  -0.188  1.00  0.00     0.251 C 
ATOM      7  H   UNL     1       2.502  -1.854   0.233  1.00  0.00     0.163 HD
BRANCH   6   8
ATOM      8  C   UNL     1       3.013   1.370  -0.450  1.00  0.00     0.039 A 
ATOM      9  C   UNL     1       4.171   1.401  -1.230  1.00  0.00     0.014 A 
ATOM     10  C   UNL     1       2.498   2.554   0.088  1.00  0.00     0.014 A 
ATOM     11  C   UNL     1       4.883   2.590  -1.367  1.00  0.00     0.010 A 
ATOM     12  C   UNL     1       3.175   3.760  -0.113  1.00  0.00     0.010 A 
ATOM     13  C   UNL     1       4.387   3.784  -0.820  1.00  0.00    -0.014 A 
BRANCH  13  14
ATOM     14  C   UNL     1       5.118   5.056  -1.050  1.00  0.00     0.031 A 
ATOM     15  C   UNL     1       5.747   5.808   0.090  1.00  0.00     0.074 A 
ATOM     16  C   UNL     1       5.220   5.525  -2.309  1.00  0.00     0.049 A 
ATOM     17  N   UNL     1       6.414   6.934   0.064  1.00  0.00    -0.248 NA
ATOM     18  C   UNL     1       5.605   5.227   1.434  1.00  0.00     0.031 C 
ATOM     19  C   UNL     1       4.638   4.887  -3.493  1.00  0.00     0.029 A 
ATOM     20  N   UNL     1       5.850   6.636  -2.807  1.00  0.00    -0.354 N 
ATOM     21  C   UNL     1       6.756   7.208   1.383  1.00  0.00     0.074 A 
ATOM     22  C   UNL     1       6.203   6.140   2.189  1.00  0.00     0.031 C 
ATOM     23  C   UNL     1       4.966   5.598  -4.582  1.00  0.00     0.029 A 
ATOM     24  C   UNL     1       5.732   6.769  -4.170  1.00  0.00     0.049 A 
ATOM     25  H   UNL     1       6.340   7.277  -2.243  1.00  0.00     0.167 HD
ATOM     26  C   UNL     1       7.471   8.251   1.873  1.00  0.00     0.037 A 
ATOM     27  C   UNL     1       6.173   7.734  -4.998  1.00  0.00     0.037 A 
ATOM     28  C   UNL     1       8.027   9.304   1.061  1.00  0.00     0.049 A 
ATOM     29  C   UNL     1       6.948   8.887  -4.428  1.00  0.00     0.074 A 
ATOM     30  C   UNL     1       8.793  10.385   1.459  1.00  0.00     0.029 A 
ATOM     31  N   UNL     1       7.872   9.412  -0.314  1.00  0.00    -0.354 N 
ATOM     32  N   UNL     1       7.287   9.113  -3.181  1.00  0.00    -0.248 NA
ATOM     33  C   UNL     1       7.398   9.916  -5.373  1.00  0.00     0.031 C 
ATOM     34  C   UNL     1       9.069  11.167   0.332  1.00  0.00     0.029 A 
ATOM     35  C   UNL     1       8.513  10.550  -0.777  1.00  0.00     0.049 A 
ATOM     36  H   UNL     1       7.380   8.773  -0.879  1.00  0.00     0.167 HD
ATOM     37  C   UNL     1       8.003  10.303  -3.193  1.00  0.00     0.074 A 
ATOM     38  C   UNL     1       8.062  10.741  -4.574  1.00  0.00     0.031 C 
ATOM     39  C   UNL     1       8.561  10.973  -2.155  1.00  0.00     0.037 A 
BRANCH  26  40
ATOM     40  C   UNL     1       7.681   8.315   3.361  1.00  0.00     0.058 A 
ATOM     41  C   UNL     1       8.558   7.441   4.022  1.00  0.00     0.135 A 
ATOM     42  C   UNL     1       7.024   9.289   4.133  1.00  0.00     0.135 A 
ATOM     43  F   UNL     1       9.202   6.483   3.337  1.00  0.00    -0.206 F 
ATOM     44  C   UNL     1       8.756   7.511   5.398  1.00  0.00     0.059 A 
ATOM     45  C   UNL     1       7.225   9.392   5.507  1.00  0.00     0.059 A 
ATOM     46  F   UNL     1       6.176  10.152   3.552  1.00  0.00    -0.206 F 
ATOM     47  C   UNL     1       8.082   8.488   6.133  1.00  0.00     0.060 A 
BRANCH  47  48
ATOM     48  S   UNL     1       8.343   8.561   7.918  1.00  0.00     0.124 S 
ATOM     49  O   UNL     1       7.577   7.403   8.370  1.00  0.00    -0.237 OA
ATOM     50  O   UNL     1       9.794   8.440   8.028  1.00  0.00    -0.237 OA
ATOM     51  O   UNL     1       7.795   9.861   8.290  1.00  0.00    -0.744 OA
ENDBRANCH  47  48
ENDBRANCH  26  40
BRANCH  27  52
ATOM     52  C   UNL     1       5.884   7.641  -6.452  1.00  0.00     0.058 A 
ATOM     53  C   UNL     1       6.899   7.343  -7.372  1.00  0.00     0.135 A 
ATOM     54  C   UNL     1       4.579   7.801  -6.942  1.00  0.00     0.135 A 
ATOM     55  F   UNL     1       8.162   7.185  -6.950  1.00  0.00    -0.206 F 
ATOM     56  C   UNL     1       6.631   7.212  -8.730  1.00  0.00     0.059 A 
ATOM     57  C   UNL     1       4.282   7.649  -8.292  1.00  0.00     0.059 A 
ATOM     58  F   UNL     1       3.571   8.068  -6.097  1.00  0.00    -0.206 F 
ATOM     59  C   UNL     1       5.318   7.362  -9.180  1.00  0.00     0.060 A 
BRANCH  59  60
ATOM     60  S   UNL     1       4.969   7.121 -10.935  1.00  0.00     0.124 S 
ATOM     61  O   UNL     1       5.477   8.362 -11.507  1.00  0.00    -0.237 OA
ATOM     62  O   UNL     1       5.735   5.916 -11.239  1.00  0.00    -0.237 OA
ATOM     63  O   UNL     1       3.519   6.956 -10.968  1.00  0.00    -0.744 OA
ENDBRANCH  59  60
ENDBRANCH  27  52
BRANCH  39  64
ATOM     64  C   UNL     1       9.304  12.238  -2.476  1.00  0.00     0.058 A 
ATOM     65  C   UNL     1       8.630  13.422  -2.811  1.00  0.00     0.135 A 
ATOM     66  C   UNL     1      10.706  12.275  -2.409  1.00  0.00     0.135 A 
ATOM     67  F   UNL     1       7.291  13.436  -2.898  1.00  0.00    -0.206 F 
ATOM     68  C   UNL     1       9.322  14.596  -3.090  1.00  0.00     0.059 A 
ATOM     69  C   UNL     1      11.417  13.444  -2.661  1.00  0.00     0.059 A 
ATOM     70  F   UNL     1      11.397  11.170  -2.085  1.00  0.00    -0.206 F 
ATOM     71  C   UNL     1      10.716  14.597  -3.012  1.00  0.00     0.060 A 
BRANCH  71  72
ATOM     72  S   UNL     1      11.603  16.133  -3.346  1.00  0.00     0.124 S 
ATOM     73  O   UNL     1      11.527  16.206  -4.801  1.00  0.00    -0.237 OA
ATOM     74  O   UNL     1      10.809  17.119  -2.619  1.00  0.00    -0.237 OA
ATOM     75  O   UNL     1      12.933  15.883  -2.797  1.00  0.00    -0.744 OA
ENDBRANCH  71  72
ENDBRANCH  39  64
ENDBRANCH  13  14
ENDBRANCH   6   8
ENDBRANCH   3   4
ENDBRANCH   2   3
ENDBRANCH   1   2
BRANCH   1  76
ATOM     76  C   UNL     1       4.729  -4.215   0.853  1.00  0.00     0.002 C 
BRANCH  76  77
ATOM     77  C   UNL     1       6.251  -4.245   0.681  1.00  0.00     0.021 C 
BRANCH  77  78
ATOM     78  C   UNL     1       7.049  -4.532   1.950  1.00  0.00     0.116 C 
BRANCH  78  79
ATOM     79  N   UNL     1       6.740  -5.834   2.511  1.00  0.00    -0.352 N 
ATOM     80  C   UNL     1       7.607  -6.796   2.961  1.00  0.00     0.255 C 
ATOM     81  H   UNL     1       5.783  -6.055   2.578  1.00  0.00     0.163 HD
ATOM     82  O   UNL     1       7.184  -7.883   3.347  1.00  0.00    -0.269 OA
BRANCH  80  83
ATOM     83  C   UNL     1       9.065  -6.567   2.895  1.00  0.00     0.082 A 
ATOM     84  C   UNL     1       9.812  -7.470   2.123  1.00  0.00     0.025 A 
ATOM     85  C   UNL     1       9.704  -5.532   3.582  1.00  0.00     0.128 A 
ATOM     86  C   UNL     1      11.198  -7.326   1.995  1.00  0.00    -0.025 A 
ATOM     87  C   UNL     1      11.080  -5.367   3.454  1.00  0.00     0.047 A 
ATOM     88  C   UNL     1      11.817  -6.255   2.660  1.00  0.00     0.012 A 
BRANCH  85  89
ATOM     89  O   UNL     1       8.990  -4.683   4.377  1.00  0.00    -0.507 OA
ATOM     90  H   UNL     1       8.063  -4.791   4.466  1.00  0.00     0.293 HD
ENDBRANCH  85  89
BRANCH  86  91
ATOM     91  C   UNL     1      12.044  -8.255   1.222  1.00  0.00     0.009 C 
ATOM     92  C   UNL     1      11.620  -9.343   0.557  1.00  0.00     0.009 C 
BRANCH  92  93
ATOM     93  C   UNL     1      12.524 -10.268  -0.142  1.00  0.00    -0.018 A 
ATOM     94  C   UNL     1      13.718 -10.709   0.447  1.00  0.00     0.054 A 
ATOM     95  C   UNL     1      12.143 -10.786  -1.387  1.00  0.00     0.054 A 
ATOM     96  C   UNL     1      14.520 -11.636  -0.216  1.00  0.00     0.119 A 
ATOM     97  C   UNL     1      12.961 -11.711  -2.034  1.00  0.00     0.119 A 
ATOM     98  C   UNL     1      14.150 -12.140  -1.456  1.00  0.00     0.092 A 
BRANCH  96  99
ATOM     99  O   UNL     1      15.685 -12.086   0.334  1.00  0.00    -0.508 OA
ATOM    100  H   UNL     1      15.962 -11.765   1.170  1.00  0.00     0.293 HD
ENDBRANCH  96  99
BRANCH  97 101
ATOM    101  O   UNL     1      12.620 -12.232  -3.248  1.00  0.00    -0.508 OA
ATOM    102  H   UNL     1      13.183 -12.853  -3.667  1.00  0.00     0.293 HD
ENDBRANCH  97 101
ENDBRANCH  92  93
ENDBRANCH  86  91
ENDBRANCH  80  83
ENDBRANCH  78  79
ENDBRANCH  77  78
ENDBRANCH  76  77
ENDBRANCH   1  76
TORSDOF 21
