REMARK SMILES O=C(NCCCCCCNC(=O)[C@@H](CCc1ccccc1)[C@@H]1CCS(=O)(=O)C1)c1ccc(-c2c3nc(c(-c4c(F)cc(S(=O)(=O)[O-])cc4F)c4ccc([nH]4)c(-c4c(F)cc(S(=O)(=O)[O-])cc4F)c4nc(c(-c5c(F)cc(S(=O)(=O)[O-])cc5F)c5ccc2[nH]5)C=C4)C=C3)cc1
REMARK SMILES IDX 6 1 5 2 4 3 3 4 1 5 2 6 29 8 30 9 94 10 31 11 93 12 32 13
REMARK SMILES IDX 33 14 34 15 87 16 35 17 92 18 86 19 88 20 36 21 91 22 85 23
REMARK SMILES IDX 84 24 37 26 71 27 50 28 70 29 51 30 54 31 69 32 89 33 52 34
REMARK SMILES IDX 53 35 68 37 90 38 55 39 38 40 39 41 48 42 40 43 41 44 47 45
REMARK SMILES IDX 49 46 42 47 43 48 44 49 45 50 46 51 72 52 73 53 82 54 74 55
REMARK SMILES IDX 75 56 81 57 83 58 76 59 77 60 78 61 79 62 80 63 56 64 57 65
REMARK SMILES IDX 66 66 58 67 59 68 65 69 67 70 60 71 61 72 62 73 63 74 64 75
REMARK SMILES IDX 7 76 8 77 9 78 10 79 11 80 12 82 13 83 14 84 15 85 16 86
REMARK SMILES IDX 17 87 21 88 18 89 20 90 19 91 22 92 23 93 28 94 24 95 25 96
REMARK SMILES IDX 26 97 27 98
REMARK H PARENT 3 7 88 25 54 36 10 81
REMARK Flexibility Score: inf
ROOT
ATOM      1  C   UNL     1       3.909  -3.223  -2.001  1.00  0.00     0.002 C 
ENDROOT
BRANCH   1   2
ATOM      2  C   UNL     1       4.578  -2.471  -0.849  1.00  0.00     0.021 C 
BRANCH   2   3
ATOM      3  C   UNL     1       4.446  -0.956  -0.927  1.00  0.00     0.116 C 
BRANCH   3   4
ATOM      4  N   UNL     1       3.054  -0.527  -0.965  1.00  0.00    -0.352 N 
ATOM      5  O   UNL     1       1.129   0.329  -0.158  1.00  0.00    -0.269 OA
ATOM      6  C   UNL     1       2.350   0.243  -0.072  1.00  0.00     0.251 C 
ATOM      7  H   UNL     1       2.542  -0.835  -1.748  1.00  0.00     0.163 HD
BRANCH   6   8
ATOM      8  C   UNL     1       3.077   0.952   1.000  1.00  0.00     0.039 A 
ATOM      9  C   UNL     1       4.269   1.617   0.712  1.00  0.00     0.014 A 
ATOM     10  C   UNL     1       2.577   0.933   2.304  1.00  0.00     0.014 A 
ATOM     11  C   UNL     1       5.050   2.104   1.750  1.00  0.00     0.010 A 
ATOM     12  C   UNL     1       3.314   1.525   3.334  1.00  0.00     0.010 A 
ATOM     13  C   UNL     1       4.577   2.079   3.072  1.00  0.00    -0.014 A 
BRANCH  13  14
ATOM     14  C   UNL     1       5.412   2.679   4.144  1.00  0.00     0.031 A 
ATOM     15  C   UNL     1       5.938   1.847   5.283  1.00  0.00     0.074 A 
ATOM     16  C   UNL     1       5.731   3.986   4.053  1.00  0.00     0.049 A 
ATOM     17  N   UNL     1       6.719   2.207   6.270  1.00  0.00    -0.248 NA
ATOM     18  C   UNL     1       5.532   0.434   5.328  1.00  0.00     0.031 C 
ATOM     19  C   UNL     1       5.269   4.892   2.997  1.00  0.00     0.029 A 
ATOM     20  N   UNL     1       6.534   4.774   4.835  1.00  0.00    -0.354 N 
ATOM     21  C   UNL     1       6.876   1.078   7.067  1.00  0.00     0.074 A 
ATOM     22  C   UNL     1       6.088   0.026   6.461  1.00  0.00     0.031 C 
ATOM     23  C   UNL     1       5.845   6.091   3.161  1.00  0.00     0.029 A 
ATOM     24  C   UNL     1       6.654   6.064   4.373  1.00  0.00     0.049 A 
ATOM     25  H   UNL     1       6.983   4.449   5.648  1.00  0.00     0.167 HD
ATOM     26  C   UNL     1       7.614   0.934   8.195  1.00  0.00     0.037 A 
ATOM     27  C   UNL     1       7.326   7.116   4.875  1.00  0.00     0.037 A 
ATOM     28  C   UNL     1       8.405   1.990   8.779  1.00  0.00     0.049 A 
ATOM     29  C   UNL     1       8.117   6.933   6.138  1.00  0.00     0.074 A 
ATOM     30  C   UNL     1       9.222   1.934   9.896  1.00  0.00     0.029 A 
ATOM     31  N   UNL     1       8.471   3.292   8.304  1.00  0.00    -0.354 N 
ATOM     32  N   UNL     1       8.287   5.846   6.854  1.00  0.00    -0.248 NA
ATOM     33  C   UNL     1       8.809   8.117   6.661  1.00  0.00     0.031 C 
ATOM     34  C   UNL     1       9.732   3.215  10.130  1.00  0.00     0.029 A 
ATOM     35  C   UNL     1       9.292   4.055   9.120  1.00  0.00     0.049 A 
ATOM     36  H   UNL     1       8.004   3.626   7.504  1.00  0.00     0.167 HD
ATOM     37  C   UNL     1       9.130   6.209   7.897  1.00  0.00     0.074 A 
ATOM     38  C   UNL     1       9.446   7.611   7.707  1.00  0.00     0.031 C 
ATOM     39  C   UNL     1       9.603   5.450   8.917  1.00  0.00     0.037 A 
BRANCH  26  40
ATOM     40  C   UNL     1       7.580  -0.400   8.895  1.00  0.00     0.058 A 
ATOM     41  C   UNL     1       8.174  -1.548   8.345  1.00  0.00     0.135 A 
ATOM     42  C   UNL     1       6.980  -0.521  10.160  1.00  0.00     0.135 A 
ATOM     43  F   UNL     1       8.751  -1.498   7.134  1.00  0.00    -0.206 F 
ATOM     44  C   UNL     1       8.147  -2.771   9.009  1.00  0.00     0.059 A 
ATOM     45  C   UNL     1       6.968  -1.727  10.856  1.00  0.00     0.059 A 
ATOM     46  F   UNL     1       6.398   0.543  10.737  1.00  0.00    -0.206 F 
ATOM     47  C   UNL     1       7.542  -2.851  10.265  1.00  0.00     0.060 A 
BRANCH  47  48
ATOM     48  S   UNL     1       7.516  -4.446  11.110  1.00  0.00     0.124 S 
ATOM     49  O   UNL     1       6.557  -5.189  10.298  1.00  0.00    -0.237 OA
ATOM     50  O   UNL     1       8.906  -4.878  11.001  1.00  0.00    -0.237 OA
ATOM     51  O   UNL     1       7.069  -4.111  12.458  1.00  0.00    -0.744 OA
ENDBRANCH  47  48
ENDBRANCH  26  40
BRANCH  27  52
ATOM     52  C   UNL     1       7.280   8.428   4.176  1.00  0.00     0.058 A 
ATOM     53  C   UNL     1       8.422   8.959   3.560  1.00  0.00     0.135 A 
ATOM     54  C   UNL     1       6.088   9.166   4.093  1.00  0.00     0.135 A 
ATOM     55  F   UNL     1       9.585   8.292   3.613  1.00  0.00    -0.206 F 
ATOM     56  C   UNL     1       8.391  10.184   2.904  1.00  0.00     0.059 A 
ATOM     57  C   UNL     1       6.024  10.377   3.413  1.00  0.00     0.059 A 
ATOM     58  F   UNL     1       4.962   8.692   4.649  1.00  0.00    -0.206 F 
ATOM     59  C   UNL     1       7.185  10.884   2.833  1.00  0.00     0.060 A 
BRANCH  59  60
ATOM     60  S   UNL     1       7.147  12.453   1.941  1.00  0.00     0.124 S 
ATOM     61  O   UNL     1       7.891  13.322   2.846  1.00  0.00    -0.237 OA
ATOM     62  O   UNL     1       7.816  12.109   0.690  1.00  0.00    -0.237 OA
ATOM     63  O   UNL     1       5.720  12.738   1.822  1.00  0.00    -0.744 OA
ENDBRANCH  59  60
ENDBRANCH  27  52
BRANCH  39  64
ATOM     64  C   UNL     1      10.556   6.107   9.877  1.00  0.00     0.058 A 
ATOM     65  C   UNL     1      10.140   7.096  10.783  1.00  0.00     0.135 A 
ATOM     66  C   UNL     1      11.907   5.723   9.904  1.00  0.00     0.135 A 
ATOM     67  F   UNL     1       8.862   7.507  10.795  1.00  0.00    -0.206 F 
ATOM     68  C   UNL     1      11.037   7.708  11.653  1.00  0.00     0.059 A 
ATOM     69  C   UNL     1      12.814   6.296  10.790  1.00  0.00     0.059 A 
ATOM     70  F   UNL     1      12.358   4.774   9.067  1.00  0.00    -0.206 F 
ATOM     71  C   UNL     1      12.373   7.301  11.648  1.00  0.00     0.060 A 
BRANCH  71  72
ATOM     72  S   UNL     1      13.524   8.094  12.790  1.00  0.00     0.124 S 
ATOM     73  O   UNL     1      13.685   9.409  12.178  1.00  0.00    -0.237 OA
ATOM     74  O   UNL     1      12.785   8.065  14.048  1.00  0.00    -0.237 OA
ATOM     75  O   UNL     1      14.700   7.230  12.741  1.00  0.00    -0.744 OA
ENDBRANCH  71  72
ENDBRANCH  39  64
ENDBRANCH  13  14
ENDBRANCH   6   8
ENDBRANCH   3   4
ENDBRANCH   2   3
ENDBRANCH   1   2
BRANCH   1  76
ATOM     76  C   UNL     1       4.360  -2.801  -3.406  1.00  0.00     0.002 C 
BRANCH  76  77
ATOM     77  C   UNL     1       5.870  -2.866  -3.634  1.00  0.00     0.021 C 
BRANCH  77  78
ATOM     78  C   UNL     1       6.429  -4.282  -3.520  1.00  0.00     0.116 C 
BRANCH  78  79
ATOM     79  N   UNL     1       6.617  -4.901  -4.808  1.00  0.00    -0.356 N 
ATOM     80  C   UNL     1       7.720  -5.404  -5.408  1.00  0.00     0.223 C 
ATOM     81  H   UNL     1       5.797  -4.970  -5.348  1.00  0.00     0.163 HD
ATOM     82  O   UNL     1       7.561  -5.892  -6.534  1.00  0.00    -0.275 OA
BRANCH  80  83
ATOM     83  C   UNL     1       9.126  -5.430  -4.780  1.00  0.00     0.083 C 
BRANCH  83  84
ATOM     84  C   UNL     1       9.840  -4.059  -4.557  1.00  0.00     0.018 C 
BRANCH  84  85
ATOM     85  C   UNL     1       9.473  -2.960  -3.527  1.00  0.00     0.036 C 
BRANCH  85  86
ATOM     86  C   UNL     1       9.537  -3.098  -2.014  1.00  0.00    -0.048 A 
ATOM     87  C   UNL     1       9.214  -4.253  -1.300  1.00  0.00     0.004 A 
ATOM     88  C   UNL     1       9.799  -1.954  -1.240  1.00  0.00     0.004 A 
ATOM     89  C   UNL     1       9.238  -4.322   0.094  1.00  0.00     0.000 A 
ATOM     90  C   UNL     1       9.795  -1.999   0.162  1.00  0.00     0.000 A 
ATOM     91  C   UNL     1       9.533  -3.190   0.830  1.00  0.00     0.000 A 
ENDBRANCH  85  86
ENDBRANCH  84  85
ENDBRANCH  83  84
BRANCH  83  92
ATOM     92  C   UNL     1       9.478  -6.522  -3.729  1.00  0.00     0.017 C 
ATOM     93  C   UNL     1      10.405  -7.653  -4.230  1.00  0.00     0.021 C 
ATOM     94  C   UNL     1       8.327  -7.228  -3.003  1.00  0.00     0.141 C 
ATOM     95  C   UNL     1       9.581  -8.844  -4.696  1.00  0.00     0.137 C 
ATOM     96  S   UNL     1       8.053  -8.794  -3.790  1.00  0.00     0.150 S 
ATOM     97  O   UNL     1       6.954  -8.659  -4.725  1.00  0.00    -0.229 OA
ATOM     98  O   UNL     1       8.071  -9.823  -2.774  1.00  0.00    -0.229 OA
ENDBRANCH  83  92
ENDBRANCH  80  83
ENDBRANCH  78  79
ENDBRANCH  77  78
ENDBRANCH  76  77
ENDBRANCH   1  76
TORSDOF 20
