REMARK SMILES O=C(NCCCCCCNC(=O)[C@H]1[NH2+][C@@H](c2cc(Br)ccc2O)[C@@H]2C(=O)N(c3ccccc3)C(=O)[C@H]21)c1ccc(-c2c3nc(c(-c4c(F)cc(S(=O)(=O)[O-])cc4F)c4ccc([nH]4)c(-c4c(F)cc(S(=O)(=O)[O-])cc4F)c4nc(c(-c5c(F)cc(S(=O)(=O)[O-])cc5F)c5ccc2[nH]5)C=C4)C=C3)cc1
REMARK SMILES IDX 6 1 5 2 4 3 3 4 1 5 2 6 37 8 38 9 102 10 39 11 101 12 40 13
REMARK SMILES IDX 41 14 42 15 95 16 43 17 100 18 94 19 96 20 44 21 99 22 93 23
REMARK SMILES IDX 92 24 45 26 79 27 58 28 78 29 59 30 62 31 77 32 97 33 60 34
REMARK SMILES IDX 61 35 76 37 98 38 63 39 46 40 47 41 56 42 48 43 49 44 55 45
REMARK SMILES IDX 57 46 50 47 51 48 52 49 53 50 54 51 80 52 81 53 90 54 82 55
REMARK SMILES IDX 83 56 89 57 91 58 84 59 85 60 86 61 87 62 88 63 64 64 65 65
REMARK SMILES IDX 74 66 66 67 67 68 73 69 75 70 68 71 69 72 70 73 71 74 72 75
REMARK SMILES IDX 7 76 8 77 9 78 10 79 11 80 12 82 13 83 14 84 36 85 15 86
REMARK SMILES IDX 24 89 34 90 25 91 27 92 35 93 26 94 16 95 17 96 22 97 18 98
REMARK SMILES IDX 21 99 19 100 20 101 23 102 28 104 29 105 33 106 30 107
REMARK SMILES IDX 32 108 31 109
REMARK H PARENT 3 7 96 25 62 36 10 81 14 87 14 88 23 103
REMARK Flexibility Score: inf
ROOT
ATOM      1  C   UNL     1       5.958   7.546   1.271  1.00  0.00     0.002 C 
ENDROOT
BRANCH   1   2
ATOM      2  C   UNL     1       4.631   8.040   1.843  1.00  0.00     0.021 C 
BRANCH   2   3
ATOM      3  C   UNL     1       4.498   9.555   1.898  1.00  0.00     0.116 C 
BRANCH   3   4
ATOM      4  N   UNL     1       4.473  10.149   0.573  1.00  0.00    -0.352 N 
ATOM      5  O   UNL     1       3.527  11.246  -1.159  1.00  0.00    -0.269 OA
ATOM      6  C   UNL     1       3.521  10.981   0.038  1.00  0.00     0.251 C 
ATOM      7  H   UNL     1       5.231   9.927  -0.014  1.00  0.00     0.163 HD
BRANCH   6   8
ATOM      8  C   UNL     1       2.483  11.539   0.929  1.00  0.00     0.039 A 
ATOM      9  C   UNL     1       2.842  12.102   2.158  1.00  0.00     0.014 A 
ATOM     10  C   UNL     1       1.145  11.496   0.533  1.00  0.00     0.014 A 
ATOM     11  C   UNL     1       1.855  12.531   3.036  1.00  0.00     0.010 A 
ATOM     12  C   UNL     1       0.161  12.008   1.381  1.00  0.00     0.010 A 
ATOM     13  C   UNL     1       0.509  12.527   2.639  1.00  0.00    -0.014 A 
BRANCH  13  14
ATOM     14  C   UNL     1      -0.499  13.206   3.487  1.00  0.00     0.031 A 
ATOM     15  C   UNL     1      -1.629  12.449   4.121  1.00  0.00     0.074 A 
ATOM     16  C   UNL     1      -0.388  14.540   3.647  1.00  0.00     0.049 A 
ATOM     17  N   UNL     1      -2.621  12.910   4.838  1.00  0.00    -0.248 NA
ATOM     18  C   UNL     1      -1.659  10.991   3.925  1.00  0.00     0.031 C 
ATOM     19  C   UNL     1       0.664  15.373   3.052  1.00  0.00     0.029 A 
ATOM     20  N   UNL     1      -1.161  15.435   4.340  1.00  0.00    -0.354 N 
ATOM     21  C   UNL     1      -3.409  11.811   5.156  1.00  0.00     0.074 A 
ATOM     22  C   UNL     1      -2.782  10.655   4.550  1.00  0.00     0.031 C 
ATOM     23  C   UNL     1       0.478  16.649   3.416  1.00  0.00     0.029 A 
ATOM     24  C   UNL     1      -0.743  16.738   4.205  1.00  0.00     0.049 A 
ATOM     25  H   UNL     1      -1.940  15.170   4.881  1.00  0.00     0.167 HD
ATOM     26  C   UNL     1      -4.550  11.781   5.885  1.00  0.00     0.037 A 
ATOM     27  C   UNL     1      -1.303  17.887   4.626  1.00  0.00     0.037 A 
ATOM     28  C   UNL     1      -5.144  12.944   6.496  1.00  0.00     0.049 A 
ATOM     29  C   UNL     1      -2.587  17.820   5.402  1.00  0.00     0.074 A 
ATOM     30  C   UNL     1      -6.250  13.005   7.326  1.00  0.00     0.029 A 
ATOM     31  N   UNL     1      -4.699  14.248   6.330  1.00  0.00    -0.354 N 
ATOM     32  N   UNL     1      -3.271  16.762   5.767  1.00  0.00    -0.248 NA
ATOM     33  C   UNL     1      -3.182  19.097   5.814  1.00  0.00     0.031 C 
ATOM     34  C   UNL     1      -6.514  14.349   7.605  1.00  0.00     0.029 A 
ATOM     35  C   UNL     1      -5.538  15.123   7.000  1.00  0.00     0.049 A 
ATOM     36  H   UNL     1      -3.904  14.512   5.812  1.00  0.00     0.167 HD
ATOM     37  C   UNL     1      -4.373  17.246   6.460  1.00  0.00     0.074 A 
ATOM     38  C   UNL     1      -4.249  18.689   6.488  1.00  0.00     0.031 C 
ATOM     39  C   UNL     1      -5.399  16.558   7.016  1.00  0.00     0.037 A 
BRANCH  26  40
ATOM     40  C   UNL     1      -5.261  10.467   6.056  1.00  0.00     0.058 A 
ATOM     41  C   UNL     1      -4.776   9.465   6.909  1.00  0.00     0.135 A 
ATOM     42  C   UNL     1      -6.508  10.257   5.442  1.00  0.00     0.135 A 
ATOM     43  F   UNL     1      -3.585   9.607   7.512  1.00  0.00    -0.206 F 
ATOM     44  C   UNL     1      -5.501   8.300   7.147  1.00  0.00     0.059 A 
ATOM     45  C   UNL     1      -7.261   9.112   5.683  1.00  0.00     0.059 A 
ATOM     46  F   UNL     1      -7.018  11.184   4.615  1.00  0.00    -0.206 F 
ATOM     47  C   UNL     1      -6.747   8.137   6.536  1.00  0.00     0.060 A 
BRANCH  47  48
ATOM     48  S   UNL     1      -7.694   6.642   6.896  1.00  0.00     0.124 S 
ATOM     49  O   UNL     1      -6.909   5.625   6.203  1.00  0.00    -0.237 OA
ATOM     50  O   UNL     1      -7.650   6.590   8.354  1.00  0.00    -0.237 OA
ATOM     51  O   UNL     1      -9.006   6.921   6.321  1.00  0.00    -0.744 OA
ENDBRANCH  47  48
ENDBRANCH  26  40
BRANCH  27  52
ATOM     52  C   UNL     1      -0.684  19.191   4.271  1.00  0.00     0.058 A 
ATOM     53  C   UNL     1      -0.131  20.025   5.252  1.00  0.00     0.135 A 
ATOM     54  C   UNL     1      -0.637  19.629   2.937  1.00  0.00     0.135 A 
ATOM     55  F   UNL     1      -0.152  19.651   6.540  1.00  0.00    -0.206 F 
ATOM     56  C   UNL     1       0.419  21.261   4.929  1.00  0.00     0.059 A 
ATOM     57  C   UNL     1      -0.062  20.845   2.585  1.00  0.00     0.059 A 
ATOM     58  F   UNL     1      -1.133  18.859   1.956  1.00  0.00    -0.206 F 
ATOM     59  C   UNL     1       0.446  21.663   3.591  1.00  0.00     0.060 A 
BRANCH  59  60
ATOM     60  S   UNL     1       1.170  23.265   3.182  1.00  0.00     0.124 S 
ATOM     61  O   UNL     1       0.142  24.180   3.662  1.00  0.00    -0.237 OA
ATOM     62  O   UNL     1       2.414  23.243   3.944  1.00  0.00    -0.237 OA
ATOM     63  O   UNL     1       1.331  23.199   1.732  1.00  0.00    -0.744 OA
ENDBRANCH  59  60
ENDBRANCH  27  52
BRANCH  39  64
ATOM     64  C   UNL     1      -6.467  17.355   7.710  1.00  0.00     0.058 A 
ATOM     65  C   UNL     1      -7.403  18.110   6.987  1.00  0.00     0.135 A 
ATOM     66  C   UNL     1      -6.597  17.309   9.107  1.00  0.00     0.135 A 
ATOM     67  F   UNL     1      -7.312  18.198   5.650  1.00  0.00    -0.206 F 
ATOM     68  C   UNL     1      -8.428  18.799   7.625  1.00  0.00     0.059 A 
ATOM     69  C   UNL     1      -7.632  17.966   9.764  1.00  0.00     0.059 A 
ATOM     70  F   UNL     1      -5.729  16.598   9.845  1.00  0.00    -0.206 F 
ATOM     71  C   UNL     1      -8.540  18.712   9.014  1.00  0.00     0.060 A 
BRANCH  71  72
ATOM     72  S   UNL     1      -9.913  19.559   9.822  1.00  0.00     0.124 S 
ATOM     73  O   UNL     1      -9.515  20.957   9.694  1.00  0.00    -0.237 OA
ATOM     74  O   UNL     1     -11.054  19.147   9.009  1.00  0.00    -0.237 OA
ATOM     75  O   UNL     1      -9.892  19.024  11.180  1.00  0.00    -0.744 OA
ENDBRANCH  71  72
ENDBRANCH  39  64
ENDBRANCH  13  14
ENDBRANCH   6   8
ENDBRANCH   3   4
ENDBRANCH   2   3
ENDBRANCH   1   2
BRANCH   1  76
ATOM     76  C   UNL     1       7.202   8.133   1.941  1.00  0.00     0.002 C 
BRANCH  76  77
ATOM     77  C   UNL     1       7.242   8.018   3.471  1.00  0.00     0.021 C 
BRANCH  77  78
ATOM     78  C   UNL     1       7.112   6.598   4.016  1.00  0.00     0.116 C 
BRANCH  78  79
ATOM     79  N   UNL     1       8.167   5.758   3.498  1.00  0.00    -0.351 N 
ATOM     80  C   UNL     1       9.079   5.004   4.149  1.00  0.00     0.279 C 
ATOM     81  H   UNL     1       8.232   5.730   2.515  1.00  0.00     0.163 HD
ATOM     82  O   UNL     1       9.926   4.433   3.458  1.00  0.00    -0.268 OA
BRANCH  80  83
ATOM     83  C   UNL     1       9.011   4.813   5.678  1.00  0.00     0.286 C 
ATOM     84  N   UNL     1       9.598   3.466   6.039  1.00  0.00    -0.328 N 
ATOM     85  C   UNL     1       9.873   5.713   6.505  1.00  0.00     0.166 C 
ATOM     86  C   UNL     1      11.006   3.679   6.536  1.00  0.00     0.231 C 
ATOM     87  H   UNL     1       9.611   2.864   5.216  1.00  0.00     0.347 HD
ATOM     88  H   UNL     1       9.034   3.020   6.763  1.00  0.00     0.347 HD
ATOM     89  C   UNL     1      11.250   5.142   6.258  1.00  0.00     0.161 C 
ATOM     90  C   UNL     1      10.172   7.165   6.362  1.00  0.00     0.244 C 
ATOM     91  C   UNL     1      12.059   6.077   7.098  1.00  0.00     0.244 C 
ATOM     92  N   UNL     1      11.438   7.318   6.932  1.00  0.00    -0.250 N 
ATOM     93  O   UNL     1       9.401   7.996   5.917  1.00  0.00    -0.273 OA
ATOM     94  O   UNL     1      13.057   5.775   7.728  1.00  0.00    -0.273 OA
BRANCH  86  95
ATOM     95  C   UNL     1      11.965   2.695   5.890  1.00  0.00     0.053 A 
ATOM     96  C   UNL     1      12.385   2.846   4.554  1.00  0.00     0.029 A 
ATOM     97  C   UNL     1      12.392   1.546   6.572  1.00  0.00     0.124 A 
ATOM     98  C   UNL     1      13.178   1.884   3.930  1.00  0.00     0.018 A 
ATOM     99  C   UNL     1      13.194   0.584   5.951  1.00  0.00     0.048 A 
ATOM    100  Br  UNL     1      13.680   2.116   2.122  1.00  0.00    -0.051 Br
ATOM    101  C   UNL     1      13.583   0.750   4.623  1.00  0.00     0.019 A 
BRANCH  97 102
ATOM    102  O   UNL     1      12.006   1.361   7.869  1.00  0.00    -0.507 OA
ATOM    103  H   UNL     1      11.468   2.000   8.294  1.00  0.00     0.293 HD
ENDBRANCH  97 102
ENDBRANCH  86  95
BRANCH  92 104
ATOM    104  C   UNL     1      12.002   8.560   7.323  1.00  0.00     0.052 A 
ATOM    105  C   UNL     1      13.393   8.726   7.410  1.00  0.00     0.027 A 
ATOM    106  C   UNL     1      11.186   9.654   7.645  1.00  0.00     0.027 A 
ATOM    107  C   UNL     1      13.949   9.950   7.795  1.00  0.00     0.002 A 
ATOM    108  C   UNL     1      11.742  10.868   8.062  1.00  0.00     0.002 A 
ATOM    109  C   UNL     1      13.123  11.018   8.131  1.00  0.00     0.000 A 
ENDBRANCH  92 104
ENDBRANCH  80  83
ENDBRANCH  78  79
ENDBRANCH  77  78
ENDBRANCH  76  77
ENDBRANCH   1  76
TORSDOF 19
