REMARK SMILES N#Cc1ccc(C(=O)NCCCCCCNC(=O)c2ccc(-c3c4nc(c(-c5c(F)cc(S(=O)(=O)[O-])cc5F)c5ccc([nH]5)c(-c5c(F)cc(S(=O)(=O)[O-])cc5F)c5nc(c(-c6c(F)cc(S(=O)(=O)[O-])cc6F)c6ccc3[nH]6)C=C5)C=C4)cc2)nc1/C=C/c1ccc(O)c(Cl)c1
REMARK SMILES IDX 12 1 11 2 10 3 9 4 7 5 8 6 6 8 3 9 4 10 86 11 5 12 85 13
REMARK SMILES IDX 2 14 1 15 87 16 88 17 89 18 90 19 96 20 91 21 94 22 92 23
REMARK SMILES IDX 95 24 93 25 13 27 14 28 15 29 16 30 17 31 18 33 19 34 20 35
REMARK SMILES IDX 84 36 21 37 83 38 22 39 23 40 24 41 77 42 25 43 82 44 76 45
REMARK SMILES IDX 78 46 26 47 81 48 75 49 74 50 27 52 61 53 40 54 60 55 41 56
REMARK SMILES IDX 44 57 59 58 79 59 42 60 43 61 58 63 80 64 45 65 28 66 29 67
REMARK SMILES IDX 38 68 30 69 31 70 37 71 39 72 32 73 33 74 34 75 35 76 36 77
REMARK SMILES IDX 62 78 63 79 72 80 64 81 65 82 71 83 73 84 66 85 67 86 68 87
REMARK SMILES IDX 69 88 70 89 46 90 47 91 56 92 48 93 49 94 55 95 57 96 50 97
REMARK SMILES IDX 51 98 52 99 53 100 54 101
REMARK H PARENT 9 7 93 26 16 32 78 51 44 62
REMARK Flexibility Score: inf
ROOT
ATOM      1  C   UNL     1      -5.835   3.671  -1.438  1.00  0.00     0.002 C 
ENDROOT
BRANCH   1   2
ATOM      2  C   UNL     1      -4.354   3.334  -1.593  1.00  0.00     0.021 C 
BRANCH   2   3
ATOM      3  C   UNL     1      -3.690   2.689  -0.384  1.00  0.00     0.116 C 
BRANCH   3   4
ATOM      4  N   UNL     1      -4.104   1.319  -0.153  1.00  0.00    -0.351 N 
ATOM      5  C   UNL     1      -3.394   0.158   0.079  1.00  0.00     0.269 C 
ATOM      6  O   UNL     1      -4.051  -0.879   0.194  1.00  0.00    -0.268 OA
ATOM      7  H   UNL     1      -5.081   1.191  -0.165  1.00  0.00     0.163 HD
BRANCH   5   8
ATOM      8  C   UNL     1      -1.888   0.103   0.164  1.00  0.00     0.128 A 
ATOM      9  C   UNL     1       0.859  -0.156   0.081  1.00  0.00     0.078 A 
ATOM     10  C   UNL     1       0.289   1.077   0.392  1.00  0.00     0.024 A 
ATOM     11  C   UNL     1       0.009  -1.252  -0.072  1.00  0.00     0.082 A 
ATOM     12  C   UNL     1      -1.094   1.187   0.507  1.00  0.00     0.035 A 
ATOM     13  N   UNL     1      -1.343  -1.120  -0.086  1.00  0.00    -0.242 NA
BRANCH   9  14
ATOM     14  C   UNL     1       2.282  -0.262  -0.007  1.00  0.00     0.101 C 
ATOM     15  N   UNL     1       3.438  -0.353  -0.083  1.00  0.00    -0.192 NA
ENDBRANCH   9  14
BRANCH  11  16
ATOM     16  C   UNL     1       0.529  -2.634  -0.079  1.00  0.00     0.030 C 
ATOM     17  C   UNL     1      -0.222  -3.739   0.068  1.00  0.00     0.010 C 
BRANCH  17  18
ATOM     18  C   UNL     1       0.400  -5.056   0.259  1.00  0.00    -0.024 A 
ATOM     19  C   UNL     1      -0.047  -6.158  -0.479  1.00  0.00     0.012 A 
ATOM     20  C   UNL     1       1.420  -5.234   1.208  1.00  0.00     0.032 A 
ATOM     21  C   UNL     1       0.548  -7.412  -0.306  1.00  0.00     0.048 A 
ATOM     22  C   UNL     1       2.012  -6.484   1.377  1.00  0.00     0.083 A 
ATOM     23  C   UNL     1       1.579  -7.567   0.614  1.00  0.00     0.134 A 
ATOM     24  Cl  UNL     1       3.280  -6.676   2.531  1.00  0.00    -0.080 Cl
BRANCH  23  25
ATOM     25  O   UNL     1       2.142  -8.808   0.736  1.00  0.00    -0.506 OA
ATOM     26  H   UNL     1       1.830  -9.518   0.209  1.00  0.00     0.293 HD
ENDBRANCH  23  25
ENDBRANCH  17  18
ENDBRANCH  11  16
ENDBRANCH   5   8
ENDBRANCH   3   4
ENDBRANCH   2   3
ENDBRANCH   1   2
BRANCH   1  27
ATOM     27  C   UNL     1      -6.196   4.531  -0.224  1.00  0.00     0.002 C 
BRANCH  27  28
ATOM     28  C   UNL     1      -5.376   5.812  -0.050  1.00  0.00     0.021 C 
BRANCH  28  29
ATOM     29  C   UNL     1      -5.387   6.751  -1.251  1.00  0.00     0.116 C 
BRANCH  29  30
ATOM     30  N   UNL     1      -6.729   7.205  -1.575  1.00  0.00    -0.352 N 
ATOM     31  C   UNL     1      -7.218   8.484  -1.655  1.00  0.00     0.251 C 
ATOM     32  H   UNL     1      -7.380   6.492  -1.764  1.00  0.00     0.163 HD
ATOM     33  O   UNL     1      -8.430   8.672  -1.718  1.00  0.00    -0.269 OA
BRANCH  31  34
ATOM     34  C   UNL     1      -6.285   9.631  -1.648  1.00  0.00     0.039 A 
ATOM     35  C   UNL     1      -6.596  10.752  -0.875  1.00  0.00     0.014 A 
ATOM     36  C   UNL     1      -5.110   9.604  -2.405  1.00  0.00     0.014 A 
ATOM     37  C   UNL     1      -5.701  11.821  -0.819  1.00  0.00     0.010 A 
ATOM     38  C   UNL     1      -4.181  10.633  -2.280  1.00  0.00     0.010 A 
ATOM     39  C   UNL     1      -4.468  11.756  -1.491  1.00  0.00    -0.014 A 
BRANCH  39  40
ATOM     40  C   UNL     1      -3.473  12.854  -1.376  1.00  0.00     0.031 A 
ATOM     41  C   UNL     1      -3.050  13.626  -2.597  1.00  0.00     0.074 A 
ATOM     42  C   UNL     1      -2.916  13.123  -0.177  1.00  0.00     0.049 A 
ATOM     43  N   UNL     1      -2.160  14.578  -2.703  1.00  0.00    -0.248 NA
ATOM     44  C   UNL     1      -3.695  13.266  -3.871  1.00  0.00     0.031 C 
ATOM     45  C   UNL     1      -3.213  12.416   1.071  1.00  0.00     0.029 A 
ATOM     46  N   UNL     1      -1.980  14.057   0.189  1.00  0.00    -0.354 N 
ATOM     47  C   UNL     1      -2.136  14.929  -4.048  1.00  0.00     0.074 A 
ATOM     48  C   UNL     1      -3.053  14.044  -4.731  1.00  0.00     0.031 C 
ATOM     49  C   UNL     1      -2.496  12.959   2.067  1.00  0.00     0.029 A 
ATOM     50  C   UNL     1      -1.649  14.016   1.524  1.00  0.00     0.049 A 
ATOM     51  H   UNL     1      -1.582  14.698  -0.444  1.00  0.00     0.167 HD
ATOM     52  C   UNL     1      -1.434  15.916  -4.653  1.00  0.00     0.037 A 
ATOM     53  C   UNL     1      -0.754  14.735   2.230  1.00  0.00     0.037 A 
ATOM     54  C   UNL     1      -0.530  16.800  -3.962  1.00  0.00     0.049 A 
ATOM     55  C   UNL     1       0.042  15.802   1.524  1.00  0.00     0.074 A 
ATOM     56  C   UNL     1       0.197  17.858  -4.478  1.00  0.00     0.029 A 
ATOM     57  N   UNL     1      -0.223  16.727  -2.611  1.00  0.00    -0.354 N 
ATOM     58  N   UNL     1       0.004  16.161   0.263  1.00  0.00    -0.248 NA
ATOM     59  C   UNL     1       0.997  16.566   2.337  1.00  0.00     0.031 C 
ATOM     60  C   UNL     1       0.993  18.382  -3.455  1.00  0.00     0.029 A 
ATOM     61  C   UNL     1       0.705  17.701  -2.283  1.00  0.00     0.049 A 
ATOM     62  H   UNL     1      -0.609  16.078  -1.978  1.00  0.00     0.167 HD
ATOM     63  C   UNL     1       0.903  17.215   0.140  1.00  0.00     0.074 A 
ATOM     64  C   UNL     1       1.457  17.445   1.458  1.00  0.00     0.031 C 
ATOM     65  C   UNL     1       1.241  17.928  -0.963  1.00  0.00     0.037 A 
BRANCH  52  66
ATOM     66  C   UNL     1      -1.612  16.101  -6.137  1.00  0.00     0.058 A 
ATOM     67  C   UNL     1      -2.815  16.576  -6.684  1.00  0.00     0.135 A 
ATOM     68  C   UNL     1      -0.544  15.864  -7.019  1.00  0.00     0.135 A 
ATOM     69  F   UNL     1      -3.875  16.805  -5.891  1.00  0.00    -0.206 F 
ATOM     70  C   UNL     1      -2.960  16.790  -8.050  1.00  0.00     0.059 A 
ATOM     71  C   UNL     1      -0.656  16.103  -8.386  1.00  0.00     0.059 A 
ATOM     72  F   UNL     1       0.629  15.406  -6.553  1.00  0.00    -0.206 F 
ATOM     73  C   UNL     1      -1.872  16.558  -8.893  1.00  0.00     0.060 A 
BRANCH  73  74
ATOM     74  S   UNL     1      -2.071  16.872 -10.659  1.00  0.00     0.124 S 
ATOM     75  O   UNL     1      -2.996  15.809 -11.041  1.00  0.00    -0.237 OA
ATOM     76  O   UNL     1      -2.619  18.224 -10.672  1.00  0.00    -0.237 OA
ATOM     77  O   UNL     1      -0.716  16.741 -11.184  1.00  0.00    -0.744 OA
ENDBRANCH  73  74
ENDBRANCH  52  66
BRANCH  53  78
ATOM     78  C   UNL     1      -0.556  14.472   3.682  1.00  0.00     0.058 A 
ATOM     79  C   UNL     1      -0.893  15.432   4.649  1.00  0.00     0.135 A 
ATOM     80  C   UNL     1      -0.011  13.259   4.133  1.00  0.00     0.135 A 
ATOM     81  F   UNL     1      -1.413  16.610   4.272  1.00  0.00    -0.206 F 
ATOM     82  C   UNL     1      -0.667  15.214   6.005  1.00  0.00     0.059 A 
ATOM     83  C   UNL     1       0.191  13.004   5.485  1.00  0.00     0.059 A 
ATOM     84  F   UNL     1       0.314  12.298   3.254  1.00  0.00    -0.206 F 
ATOM     85  C   UNL     1      -0.125  13.994   6.413  1.00  0.00     0.060 A 
BRANCH  85  86
ATOM     86  S   UNL     1       0.140  13.711   8.176  1.00  0.00     0.124 S 
ATOM     87  O   UNL     1       1.245  14.620   8.457  1.00  0.00    -0.237 OA
ATOM     88  O   UNL     1      -1.153  14.081   8.741  1.00  0.00    -0.237 OA
ATOM     89  O   UNL     1       0.461  12.288   8.242  1.00  0.00    -0.744 OA
ENDBRANCH  85  86
ENDBRANCH  53  78
BRANCH  65  90
ATOM     90  C   UNL     1       2.221  19.058  -0.791  1.00  0.00     0.058 A 
ATOM     91  C   UNL     1       3.576  18.831  -0.502  1.00  0.00     0.135 A 
ATOM     92  C   UNL     1       1.806  20.388  -0.971  1.00  0.00     0.135 A 
ATOM     93  F   UNL     1       4.027  17.581  -0.313  1.00  0.00    -0.206 F 
ATOM     94  C   UNL     1       4.477  19.883  -0.368  1.00  0.00     0.059 A 
ATOM     95  C   UNL     1       2.697  21.452  -0.880  1.00  0.00     0.059 A 
ATOM     96  F   UNL     1       0.524  20.663  -1.260  1.00  0.00    -0.206 F 
ATOM     97  C   UNL     1       4.028  21.190  -0.566  1.00  0.00     0.060 A 
BRANCH  97  98
ATOM     98  S   UNL     1       5.218  22.541  -0.425  1.00  0.00     0.124 S 
ATOM     99  O   UNL     1       5.488  22.548   1.008  1.00  0.00    -0.237 OA
ATOM    100  O   UNL     1       6.311  22.079  -1.275  1.00  0.00    -0.237 OA
ATOM    101  O   UNL     1       4.483  23.696  -0.931  1.00  0.00    -0.744 OA
ENDBRANCH  97  98
ENDBRANCH  65  90
ENDBRANCH  39  40
ENDBRANCH  31  34
ENDBRANCH  29  30
ENDBRANCH  28  29
ENDBRANCH  27  28
ENDBRANCH   1  27
TORSDOF 20
