REMARK SMILES Cc1cc(C)c(C(N)=O)c(N[C@H]2C=C[C@H](C(=O)NCCCCCCNC(=O)c3ccc(-c4c5nc(c(-c6c(F)cc(S(=O)(=O)[O-])cc6F)c6ccc([nH]6)c(-c6c(F)cc(S(=O)(=O)[O-])cc6F)c6nc(c(-c7c(F)cc(S(=O)(=O)[O-])cc7F)c7ccc4[nH]7)C=C6)C=C5)cc3)C2)n1
REMARK SMILES IDX 21 1 20 2 19 3 18 4 16 5 17 6 15 8 12 9 13 10 94 11 14 12
REMARK SMILES IDX 11 13 10 15 1 16 2 17 3 18 95 19 4 20 5 21 6 22 7 23 8 24
REMARK SMILES IDX 9 25 22 28 23 29 24 30 25 31 26 32 27 34 28 35 29 36 93 37
REMARK SMILES IDX 30 38 92 39 31 40 32 41 33 42 86 43 34 44 91 45 85 46 87 47
REMARK SMILES IDX 35 48 90 49 84 50 83 51 36 53 70 54 49 55 69 56 50 57 53 58
REMARK SMILES IDX 68 59 88 60 51 61 52 62 67 64 89 65 54 66 37 67 38 68 47 69
REMARK SMILES IDX 39 70 40 71 46 72 48 73 41 74 42 75 43 76 44 77 45 78 71 79
REMARK SMILES IDX 72 80 81 81 73 82 74 83 80 84 82 85 75 86 76 87 77 88 78 89
REMARK SMILES IDX 79 90 55 91 56 92 65 93 57 94 58 95 64 96 66 97 59 98 60 99
REMARK SMILES IDX 61 100 62 101 63 102
REMARK H PARENT 18 7 11 14 8 26 8 27 25 33 87 52 53 63
REMARK Flexibility Score: inf
ROOT
ATOM      1  C   UNL     1      -8.921  -3.546  -1.323  1.00  0.00     0.002 C 
ENDROOT
BRANCH   1   2
ATOM      2  C   UNL     1      -7.842  -2.477  -1.115  1.00  0.00     0.021 C 
BRANCH   2   3
ATOM      3  C   UNL     1      -6.616  -2.952  -0.345  1.00  0.00     0.116 C 
BRANCH   3   4
ATOM      4  N   UNL     1      -5.959  -4.062  -1.008  1.00  0.00    -0.356 N 
ATOM      5  C   UNL     1      -4.627  -4.251  -1.239  1.00  0.00     0.227 C 
ATOM      6  O   UNL     1      -4.269  -5.313  -1.749  1.00  0.00    -0.274 OA
ATOM      7  H   UNL     1      -6.553  -4.776  -1.335  1.00  0.00     0.163 HD
BRANCH   5   8
ATOM      8  C   UNL     1      -3.656  -3.139  -0.852  1.00  0.00     0.103 C 
ATOM      9  C   UNL     1      -1.379  -3.784  -0.229  1.00  0.00     0.104 C 
ATOM     10  C   UNL     1      -2.206  -3.498   0.976  1.00  0.00    -0.006 C 
ATOM     11  C   UNL     1      -2.249  -3.375  -1.421  1.00  0.00     0.046 C 
ATOM     12  C   UNL     1      -3.449  -3.142   0.639  1.00  0.00    -0.016 C 
BRANCH   9  13
ATOM     13  N   UNL     1      -0.095  -3.104  -0.201  1.00  0.00    -0.363 N 
ATOM     14  H   UNL     1       0.720  -3.653  -0.264  1.00  0.00     0.162 HD
BRANCH  13  15
ATOM     15  C   UNL     1       0.054  -1.722  -0.090  1.00  0.00     0.139 A 
ATOM     16  C   UNL     1      -2.279   1.131   0.071  1.00  0.00     0.067 C 
ATOM     17  C   UNL     1      -0.989   0.368   0.055  1.00  0.00     0.040 A 
ATOM     18  C   UNL     1       0.226   1.027   0.088  1.00  0.00     0.028 A 
ATOM     19  N   UNL     1      -1.072  -0.974  -0.021  1.00  0.00    -0.236 NA
ATOM     20  C   UNL     1       1.415   0.284   0.057  1.00  0.00    -0.033 A 
ATOM     21  C   UNL     1       2.699   1.065   0.091  1.00  0.00     0.045 C 
ATOM     22  C   UNL     1       1.329  -1.122  -0.039  1.00  0.00     0.084 A 
BRANCH  22  23
ATOM     23  C   UNL     1       2.563  -1.959  -0.142  1.00  0.00     0.252 C 
ATOM     24  N   UNL     1       2.537  -3.193   0.452  1.00  0.00    -0.365 N 
ATOM     25  O   UNL     1       3.565  -1.592  -0.742  1.00  0.00    -0.269 OA
ATOM     26  H   UNL     1       1.731  -3.489   0.935  1.00  0.00     0.159 HD
ATOM     27  H   UNL     1       3.322  -3.783   0.396  1.00  0.00     0.159 HD
ENDBRANCH  22  23
ENDBRANCH  13  15
ENDBRANCH   9  13
ENDBRANCH   5   8
ENDBRANCH   3   4
ENDBRANCH   2   3
ENDBRANCH   1   2
BRANCH   1  28
ATOM     28  C   UNL     1      -9.412  -4.235  -0.047  1.00  0.00     0.002 C 
BRANCH  28  29
ATOM     29  C   UNL     1      -9.931  -3.295   1.042  1.00  0.00     0.021 C 
BRANCH  29  30
ATOM     30  C   UNL     1     -11.031  -2.341   0.594  1.00  0.00     0.116 C 
BRANCH  30  31
ATOM     31  N   UNL     1     -12.215  -3.042   0.127  1.00  0.00    -0.352 N 
ATOM     32  C   UNL     1     -13.527  -2.865   0.490  1.00  0.00     0.251 C 
ATOM     33  H   UNL     1     -12.053  -3.744  -0.545  1.00  0.00     0.163 HD
ATOM     34  O   UNL     1     -14.378  -3.670   0.124  1.00  0.00    -0.269 OA
BRANCH  32  35
ATOM     35  C   UNL     1     -13.904  -1.718   1.344  1.00  0.00     0.039 A 
ATOM     36  C   UNL     1     -14.767  -1.933   2.420  1.00  0.00     0.014 A 
ATOM     37  C   UNL     1     -13.405  -0.437   1.088  1.00  0.00     0.014 A 
ATOM     38  C   UNL     1     -15.083  -0.874   3.275  1.00  0.00     0.010 A 
ATOM     39  C   UNL     1     -13.659   0.598   1.984  1.00  0.00     0.010 A 
ATOM     40  C   UNL     1     -14.504   0.392   3.084  1.00  0.00    -0.014 A 
BRANCH  40  41
ATOM     41  C   UNL     1     -14.770   1.508   4.028  1.00  0.00     0.031 A 
ATOM     42  C   UNL     1     -15.467   2.755   3.551  1.00  0.00     0.074 A 
ATOM     43  C   UNL     1     -14.335   1.422   5.301  1.00  0.00     0.049 A 
ATOM     44  N   UNL     1     -15.737   3.852   4.209  1.00  0.00    -0.248 NA
ATOM     45  C   UNL     1     -15.893   2.781   2.142  1.00  0.00     0.031 C 
ATOM     46  C   UNL     1     -13.605   0.286   5.870  1.00  0.00     0.029 A 
ATOM     47  N   UNL     1     -14.433   2.307   6.346  1.00  0.00    -0.354 N 
ATOM     48  C   UNL     1     -16.353   4.701   3.296  1.00  0.00     0.074 A 
ATOM     49  C   UNL     1     -16.365   4.013   2.024  1.00  0.00     0.031 C 
ATOM     50  C   UNL     1     -13.345   0.533   7.164  1.00  0.00     0.029 A 
ATOM     51  C   UNL     1     -13.848   1.859   7.507  1.00  0.00     0.049 A 
ATOM     52  H   UNL     1     -14.880   3.181   6.270  1.00  0.00     0.167 HD
ATOM     53  C   UNL     1     -16.882   5.930   3.506  1.00  0.00     0.037 A 
ATOM     54  C   UNL     1     -13.723   2.452   8.711  1.00  0.00     0.037 A 
ATOM     55  C   UNL     1     -16.883   6.600   4.781  1.00  0.00     0.049 A 
ATOM     56  C   UNL     1     -14.310   3.823   8.916  1.00  0.00     0.074 A 
ATOM     57  C   UNL     1     -17.443   7.822   5.109  1.00  0.00     0.029 A 
ATOM     58  N   UNL     1     -16.294   6.107   5.937  1.00  0.00    -0.354 N 
ATOM     59  N   UNL     1     -14.948   4.583   8.058  1.00  0.00    -0.248 NA
ATOM     60  C   UNL     1     -14.167   4.414  10.253  1.00  0.00     0.031 C 
ATOM     61  C   UNL     1     -17.146   8.094   6.449  1.00  0.00     0.029 A 
ATOM     62  C   UNL     1     -16.455   7.013   6.973  1.00  0.00     0.049 A 
ATOM     63  H   UNL     1     -15.831   5.242   6.010  1.00  0.00     0.167 HD
ATOM     64  C   UNL     1     -15.308   5.729   8.759  1.00  0.00     0.074 A 
ATOM     65  C   UNL     1     -14.828   5.555  10.115  1.00  0.00     0.031 C 
ATOM     66  C   UNL     1     -15.977   6.824   8.321  1.00  0.00     0.037 A 
BRANCH  53  67
ATOM     67  C   UNL     1     -17.506   6.634   2.330  1.00  0.00     0.058 A 
ATOM     68  C   UNL     1     -18.704   6.185   1.751  1.00  0.00     0.135 A 
ATOM     69  C   UNL     1     -16.922   7.797   1.802  1.00  0.00     0.135 A 
ATOM     70  F   UNL     1     -19.299   5.070   2.205  1.00  0.00    -0.206 F 
ATOM     71  C   UNL     1     -19.285   6.845   0.673  1.00  0.00     0.059 A 
ATOM     72  C   UNL     1     -17.502   8.492   0.744  1.00  0.00     0.059 A 
ATOM     73  F   UNL     1     -15.776   8.272   2.315  1.00  0.00    -0.206 F 
ATOM     74  C   UNL     1     -18.676   7.999   0.177  1.00  0.00     0.060 A 
BRANCH  74  75
ATOM     75  S   UNL     1     -19.449   8.848  -1.216  1.00  0.00     0.124 S 
ATOM     76  O   UNL     1     -19.176   7.920  -2.309  1.00  0.00    -0.237 OA
ATOM     77  O   UNL     1     -20.843   8.937  -0.793  1.00  0.00    -0.237 OA
ATOM     78  O   UNL     1     -18.734  10.119  -1.280  1.00  0.00    -0.744 OA
ENDBRANCH  74  75
ENDBRANCH  53  67
BRANCH  54  79
ATOM     79  C   UNL     1     -13.028   1.744   9.821  1.00  0.00     0.058 A 
ATOM     80  C   UNL     1     -13.736   1.283  10.941  1.00  0.00     0.135 A 
ATOM     81  C   UNL     1     -11.645   1.508   9.780  1.00  0.00     0.135 A 
ATOM     82  F   UNL     1     -15.059   1.490  11.029  1.00  0.00    -0.206 F 
ATOM     83  C   UNL     1     -13.097   0.631  11.990  1.00  0.00     0.059 A 
ATOM     84  C   UNL     1     -10.988   0.832  10.804  1.00  0.00     0.059 A 
ATOM     85  F   UNL     1     -10.923   1.913   8.724  1.00  0.00    -0.206 F 
ATOM     86  C   UNL     1     -11.722   0.407  11.911  1.00  0.00     0.060 A 
BRANCH  86  87
ATOM     87  S   UNL     1     -10.909  -0.479  13.258  1.00  0.00     0.124 S 
ATOM     88  O   UNL     1     -10.930   0.519  14.321  1.00  0.00    -0.237 OA
ATOM     89  O   UNL     1     -11.790  -1.628  13.442  1.00  0.00    -0.237 OA
ATOM     90  O   UNL     1      -9.592  -0.789  12.709  1.00  0.00    -0.744 OA
ENDBRANCH  86  87
ENDBRANCH  54  79
BRANCH  66  91
ATOM     91  C   UNL     1     -16.266   7.909   9.324  1.00  0.00     0.058 A 
ATOM     92  C   UNL     1     -15.255   8.741   9.828  1.00  0.00     0.135 A 
ATOM     93  C   UNL     1     -17.584   8.150   9.746  1.00  0.00     0.135 A 
ATOM     94  F   UNL     1     -13.977   8.550   9.463  1.00  0.00    -0.206 F 
ATOM     95  C   UNL     1     -15.536   9.758  10.735  1.00  0.00     0.059 A 
ATOM     96  C   UNL     1     -17.892   9.181  10.627  1.00  0.00     0.059 A 
ATOM     97  F   UNL     1     -18.592   7.391   9.286  1.00  0.00    -0.206 F 
ATOM     98  C   UNL     1     -16.859   9.972  11.127  1.00  0.00     0.060 A 
BRANCH  98  99
ATOM     99  S   UNL     1     -17.213  11.316  12.278  1.00  0.00     0.124 S 
ATOM    100  O   UNL     1     -16.687  10.778  13.529  1.00  0.00    -0.237 OA
ATOM    101  O   UNL     1     -16.462  12.427  11.701  1.00  0.00    -0.237 OA
ATOM    102  O   UNL     1     -18.665  11.448  12.213  1.00  0.00    -0.744 OA
ENDBRANCH  98  99
ENDBRANCH  66  91
ENDBRANCH  40  41
ENDBRANCH  32  35
ENDBRANCH  30  31
ENDBRANCH  29  30
ENDBRANCH  28  29
ENDBRANCH   1  28
TORSDOF 19
