REMARK SMILES CCC(CC)NC(=O)N[C@@H]1C=C[C@@H](C(=O)NCCCCCCNC(=O)c2ccc(-c3c4nc(c(-c5c(F)cc(S(=O)(=O)[O-])cc5F)c5ccc([nH]5)c(-c5c(F)cc(S(=O)(=O)[O-])cc5F)c5nc(c(-c6c(F)cc(S(=O)(=O)[O-])cc6F)c6ccc3[nH]6)C=C5)C=C4)cc2)C1
REMARK SMILES IDX 19 1 18 2 17 3 16 4 14 5 15 6 13 8 10 9 11 10 92 11 12 12
REMARK SMILES IDX 9 13 6 14 7 15 8 17 3 19 2 20 1 21 4 22 5 23 20 24 21 25
REMARK SMILES IDX 22 26 23 27 24 28 25 30 26 31 27 32 91 33 28 34 90 35 29 36
REMARK SMILES IDX 30 37 31 38 84 39 32 40 89 41 83 42 85 43 33 44 88 45 82 46
REMARK SMILES IDX 81 47 34 49 68 50 47 51 67 52 48 53 51 54 66 55 86 56 49 57
REMARK SMILES IDX 50 58 65 60 87 61 52 62 35 63 36 64 45 65 37 66 38 67 44 68
REMARK SMILES IDX 46 69 39 70 40 71 41 72 42 73 43 74 69 75 70 76 79 77 71 78
REMARK SMILES IDX 72 79 78 80 80 81 73 82 74 83 75 84 76 85 77 86 53 87 54 88
REMARK SMILES IDX 63 89 55 90 56 91 62 92 64 93 57 94 58 95 59 96 60 97 61 98
REMARK H PARENT 16 7 6 16 9 18 23 29 85 48 51 59
REMARK Flexibility Score: inf
ROOT
ATOM      1  C   UNL     1       1.702   1.149   6.776  1.00  0.00     0.002 C 
ENDROOT
BRANCH   1   2
ATOM      2  C   UNL     1       1.587   1.943   5.476  1.00  0.00     0.021 C 
BRANCH   2   3
ATOM      3  C   UNL     1       2.791   1.791   4.574  1.00  0.00     0.116 C 
BRANCH   3   4
ATOM      4  N   UNL     1       2.809   0.467   4.004  1.00  0.00    -0.356 N 
ATOM      5  C   UNL     1       2.963   0.121   2.704  1.00  0.00     0.227 C 
ATOM      6  O   UNL     1       2.752  -1.050   2.383  1.00  0.00    -0.274 OA
ATOM      7  H   UNL     1       2.696  -0.278   4.638  1.00  0.00     0.163 HD
BRANCH   5   8
ATOM      8  C   UNL     1       3.430   1.142   1.679  1.00  0.00     0.103 C 
ATOM      9  C   UNL     1       3.205   3.328   0.668  1.00  0.00     0.107 C 
ATOM     10  C   UNL     1       4.366   3.309   1.596  1.00  0.00    -0.006 C 
ATOM     11  C   UNL     1       2.401   2.072   1.049  1.00  0.00     0.047 C 
ATOM     12  C   UNL     1       4.482   2.110   2.187  1.00  0.00    -0.016 C 
BRANCH   9  13
ATOM     13  N   UNL     1       3.567   3.473  -0.744  1.00  0.00    -0.332 N 
ATOM     14  N   UNL     1       5.306   2.088  -1.652  1.00  0.00    -0.335 N 
ATOM     15  C   UNL     1       4.311   2.977  -1.732  1.00  0.00     0.315 C 
ATOM     16  H   UNL     1       5.646   1.810  -2.533  1.00  0.00     0.165 HD
ATOM     17  O   UNL     1       4.053   3.405  -2.865  1.00  0.00    -0.249 OA
ATOM     18  H   UNL     1       3.061   4.237  -1.105  1.00  0.00     0.165 HD
BRANCH  14  19
ATOM     19  C   UNL     1       5.992   1.446  -0.551  1.00  0.00     0.083 C 
BRANCH  19  20
ATOM     20  C   UNL     1       6.088  -0.079  -0.712  1.00  0.00     0.021 C 
ATOM     21  C   UNL     1       6.458  -0.789   0.591  1.00  0.00     0.006 C 
ENDBRANCH  19  20
BRANCH  19  22
ATOM     22  C   UNL     1       7.260   2.181  -0.101  1.00  0.00     0.021 C 
ATOM     23  C   UNL     1       8.530   1.785  -0.828  1.00  0.00     0.006 C 
ENDBRANCH  19  22
ENDBRANCH  14  19
ENDBRANCH   9  13
ENDBRANCH   5   8
ENDBRANCH   3   4
ENDBRANCH   2   3
ENDBRANCH   1   2
BRANCH   1  24
ATOM     24  C   UNL     1       2.974   1.417   7.588  1.00  0.00     0.002 C 
BRANCH  24  25
ATOM     25  C   UNL     1       3.301   2.894   7.817  1.00  0.00     0.021 C 
BRANCH  25  26
ATOM     26  C   UNL     1       2.139   3.727   8.335  1.00  0.00     0.116 C 
BRANCH  26  27
ATOM     27  N   UNL     1       1.576   3.176   9.553  1.00  0.00    -0.352 N 
ATOM     28  C   UNL     1       1.304   3.821  10.733  1.00  0.00     0.251 C 
ATOM     29  H   UNL     1       1.361   2.216   9.530  1.00  0.00     0.163 HD
ATOM     30  O   UNL     1       1.004   3.191  11.732  1.00  0.00    -0.269 OA
BRANCH  28  31
ATOM     31  C   UNL     1       1.413   5.293  10.765  1.00  0.00     0.039 A 
ATOM     32  C   UNL     1       2.168   5.886  11.775  1.00  0.00     0.014 A 
ATOM     33  C   UNL     1       0.809   6.071   9.771  1.00  0.00     0.014 A 
ATOM     34  C   UNL     1       2.354   7.267  11.765  1.00  0.00     0.010 A 
ATOM     35  C   UNL     1       1.063   7.435   9.718  1.00  0.00     0.010 A 
ATOM     36  C   UNL     1       1.828   8.047  10.721  1.00  0.00    -0.014 A 
BRANCH  36  37
ATOM     37  C   UNL     1       2.062   9.511  10.674  1.00  0.00     0.031 A 
ATOM     38  C   UNL     1       0.902  10.460  10.787  1.00  0.00     0.074 A 
ATOM     39  C   UNL     1       3.312   9.977  10.486  1.00  0.00     0.049 A 
ATOM     40  N   UNL     1       0.897  11.766  10.733  1.00  0.00    -0.248 NA
ATOM     41  C   UNL     1      -0.434   9.863  10.955  1.00  0.00     0.031 C 
ATOM     42  C   UNL     1       4.508   9.148  10.313  1.00  0.00     0.029 A 
ATOM     43  N   UNL     1       3.786  11.262  10.403  1.00  0.00    -0.354 N 
ATOM     44  C   UNL     1      -0.434  12.145  10.852  1.00  0.00     0.074 A 
ATOM     45  C   UNL     1      -1.216  10.931  10.919  1.00  0.00     0.031 C 
ATOM     46  C   UNL     1       5.579   9.945  10.174  1.00  0.00     0.029 A 
ATOM     47  C   UNL     1       5.144  11.338  10.205  1.00  0.00     0.049 A 
ATOM     48  H   UNL     1       3.208  12.055  10.478  1.00  0.00     0.167 HD
ATOM     49  C   UNL     1      -0.954  13.393  10.927  1.00  0.00     0.037 A 
ATOM     50  C   UNL     1       5.947  12.409  10.059  1.00  0.00     0.037 A 
ATOM     51  C   UNL     1      -0.163  14.594  10.881  1.00  0.00     0.049 A 
ATOM     52  C   UNL     1       5.344  13.786  10.132  1.00  0.00     0.074 A 
ATOM     53  C   UNL     1      -0.583  15.906  11.010  1.00  0.00     0.029 A 
ATOM     54  N   UNL     1       1.211  14.632  10.686  1.00  0.00    -0.354 N 
ATOM     55  N   UNL     1       4.091  14.128  10.321  1.00  0.00    -0.248 NA
ATOM     56  C   UNL     1       6.261  14.923   9.978  1.00  0.00     0.031 C 
ATOM     57  C   UNL     1       0.527  16.739  10.838  1.00  0.00     0.029 A 
ATOM     58  C   UNL     1       1.650  15.945  10.660  1.00  0.00     0.049 A 
ATOM     59  H   UNL     1       1.788  13.841  10.582  1.00  0.00     0.167 HD
ATOM     60  C   UNL     1       4.073  15.518  10.331  1.00  0.00     0.074 A 
ATOM     61  C   UNL     1       5.443  15.953  10.146  1.00  0.00     0.031 C 
ATOM     62  C   UNL     1       3.019  16.359  10.477  1.00  0.00     0.037 A 
BRANCH  49  63
ATOM     63  C   UNL     1      -2.446  13.521  11.069  1.00  0.00     0.058 A 
ATOM     64  C   UNL     1      -3.112  13.138  12.245  1.00  0.00     0.135 A 
ATOM     65  C   UNL     1      -3.218  14.066  10.030  1.00  0.00     0.135 A 
ATOM     66  F   UNL     1      -2.427  12.595  13.265  1.00  0.00    -0.206 F 
ATOM     67  C   UNL     1      -4.491  13.263  12.375  1.00  0.00     0.059 A 
ATOM     68  C   UNL     1      -4.595  14.229  10.150  1.00  0.00     0.059 A 
ATOM     69  F   UNL     1      -2.635  14.447   8.883  1.00  0.00    -0.206 F 
ATOM     70  C   UNL     1      -5.224  13.811  11.322  1.00  0.00     0.060 A 
BRANCH  70  71
ATOM     71  S   UNL     1      -7.012  13.972  11.511  1.00  0.00     0.124 S 
ATOM     72  O   UNL     1      -7.440  12.579  11.427  1.00  0.00    -0.237 OA
ATOM     73  O   UNL     1      -7.131  14.593  12.826  1.00  0.00    -0.237 OA
ATOM     74  O   UNL     1      -7.399  14.815  10.384  1.00  0.00    -0.744 OA
ENDBRANCH  70  71
ENDBRANCH  49  63
BRANCH  50  75
ATOM     75  C   UNL     1       7.407  12.222   9.843  1.00  0.00     0.058 A 
ATOM     76  C   UNL     1       8.336  12.581  10.831  1.00  0.00     0.135 A 
ATOM     77  C   UNL     1       7.902  11.668   8.652  1.00  0.00     0.135 A 
ATOM     78  F   UNL     1       7.914  13.118  11.985  1.00  0.00    -0.206 F 
ATOM     79  C   UNL     1       9.704  12.415  10.640  1.00  0.00     0.059 A 
ATOM     80  C   UNL     1       9.263  11.467   8.448  1.00  0.00     0.059 A 
ATOM     81  F   UNL     1       7.054  11.291   7.682  1.00  0.00    -0.206 F 
ATOM     82  C   UNL     1      10.158  11.854   9.445  1.00  0.00     0.060 A 
BRANCH  82  83
ATOM     83  S   UNL     1      11.932  11.600   9.226  1.00  0.00     0.124 S 
ATOM     84  O   UNL     1      12.404  12.968   9.044  1.00  0.00    -0.237 OA
ATOM     85  O   UNL     1      12.306  10.956  10.481  1.00  0.00    -0.237 OA
ATOM     86  O   UNL     1      12.005  10.744   8.045  1.00  0.00    -0.744 OA
ENDBRANCH  82  83
ENDBRANCH  50  75
BRANCH  62  87
ATOM     87  C   UNL     1       3.305  17.836  10.466  1.00  0.00     0.058 A 
ATOM     88  C   UNL     1       3.661  18.509   9.287  1.00  0.00     0.135 A 
ATOM     89  C   UNL     1       3.162  18.597  11.638  1.00  0.00     0.135 A 
ATOM     90  F   UNL     1       3.818  17.827   8.141  1.00  0.00    -0.206 F 
ATOM     91  C   UNL     1       3.886  19.881   9.274  1.00  0.00     0.059 A 
ATOM     92  C   UNL     1       3.352  19.974  11.642  1.00  0.00     0.059 A 
ATOM     93  F   UNL     1       2.813  18.004  12.791  1.00  0.00    -0.206 F 
ATOM     94  C   UNL     1       3.725  20.606  10.456  1.00  0.00     0.060 A 
BRANCH  94  95
ATOM     95  S   UNL     1       3.981  22.392  10.415  1.00  0.00     0.124 S 
ATOM     96  O   UNL     1       5.431  22.479  10.281  1.00  0.00    -0.237 OA
ATOM     97  O   UNL     1       3.211  22.790   9.240  1.00  0.00    -0.237 OA
ATOM     98  O   UNL     1       3.440  22.844  11.693  1.00  0.00    -0.744 OA
ENDBRANCH  94  95
ENDBRANCH  62  87
ENDBRANCH  36  37
ENDBRANCH  28  31
ENDBRANCH  26  27
ENDBRANCH  25  26
ENDBRANCH  24  25
ENDBRANCH   1  24
TORSDOF 20
