REMARK SMILES O=C(NCCCCCCNC(=O)c1cnn2c(C(F)(F)F)ccnc12)c1ccc(-c2c3nc(c(-c4c(F)cc(S(=O)(=O)[O-])cc4F)c4ccc([nH]4)c(-c4c(F)cc(S(=O)(=O)[O-])cc4F)c4nc(c(-c5c(F)cc(S(=O)(=O)[O-])cc5F)c5ccc2[nH]5)C=C4)C=C3)cc1
REMARK SMILES IDX 5 1 4 2 3 3 1 4 2 5 26 7 27 8 91 9 28 10 90 11 29 12 30 13
REMARK SMILES IDX 31 14 84 15 32 16 89 17 83 18 85 19 33 20 88 21 82 22 81 23
REMARK SMILES IDX 34 25 68 26 47 27 67 28 48 29 51 30 66 31 86 32 49 33 50 34
REMARK SMILES IDX 65 36 87 37 52 38 35 39 36 40 45 41 37 42 38 43 44 44 46 45
REMARK SMILES IDX 39 46 40 47 41 48 42 49 43 50 69 51 70 52 79 53 71 54 72 55
REMARK SMILES IDX 78 56 80 57 73 58 74 59 75 60 76 61 77 62 53 63 54 64 63 65
REMARK SMILES IDX 55 66 56 67 62 68 64 69 57 70 58 71 59 72 60 73 61 74 6 75
REMARK SMILES IDX 7 76 8 77 9 78 10 79 11 80 12 82 13 83 14 84 25 85 15 86
REMARK SMILES IDX 16 87 24 88 17 89 23 90 22 91 18 92 19 93 20 94 21 95
REMARK H PARENT 3 6 85 24 51 35 10 81
REMARK Flexibility Score: inf
ROOT
ATOM      1  C   UNL     1       4.795  -0.540   2.630  1.00  0.00     0.021 C 
ENDROOT
BRANCH   1   2
ATOM      2  C   UNL     1       4.568  -0.680   1.126  1.00  0.00     0.116 C 
BRANCH   2   3
ATOM      3  N   UNL     1       3.163  -0.804   0.784  1.00  0.00    -0.352 N 
ATOM      4  O   UNL     1       1.191  -0.237  -0.133  1.00  0.00    -0.269 OA
ATOM      5  C   UNL     1       2.407  -0.072  -0.098  1.00  0.00     0.251 C 
ATOM      6  H   UNL     1       2.679  -1.520   1.255  1.00  0.00     0.163 HD
BRANCH   5   7
ATOM      7  C   UNL     1       3.043   0.927  -0.986  1.00  0.00     0.039 A 
ATOM      8  C   UNL     1       4.196   0.626  -1.718  1.00  0.00     0.014 A 
ATOM      9  C   UNL     1       2.434   2.178  -1.124  1.00  0.00     0.014 A 
ATOM     10  C   UNL     1       4.792   1.605  -2.515  1.00  0.00     0.010 A 
ATOM     11  C   UNL     1       3.005   3.142  -1.957  1.00  0.00     0.010 A 
ATOM     12  C   UNL     1       4.199   2.871  -2.643  1.00  0.00    -0.014 A 
BRANCH  12  13
ATOM     13  C   UNL     1       4.798   3.900  -3.529  1.00  0.00     0.031 A 
ATOM     14  C   UNL     1       5.416   5.140  -2.950  1.00  0.00     0.074 A 
ATOM     15  C   UNL     1       4.743   3.733  -4.863  1.00  0.00     0.049 A 
ATOM     16  N   UNL     1       5.910   6.181  -3.570  1.00  0.00    -0.248 NA
ATOM     17  C   UNL     1       5.479   5.226  -1.484  1.00  0.00     0.031 C 
ATOM     18  C   UNL     1       4.155   2.578  -5.543  1.00  0.00     0.029 A 
ATOM     19  N   UNL     1       5.171   4.542  -5.885  1.00  0.00    -0.354 N 
ATOM     20  C   UNL     1       6.320   7.057  -2.574  1.00  0.00     0.074 A 
ATOM     21  C   UNL     1       6.007   6.429  -1.306  1.00  0.00     0.031 C 
ATOM     22  C   UNL     1       4.257   2.753  -6.869  1.00  0.00     0.029 A 
ATOM     23  C   UNL     1       4.879   4.048  -7.133  1.00  0.00     0.049 A 
ATOM     24  H   UNL     1       5.643   5.394  -5.738  1.00  0.00     0.167 HD
ATOM     25  C   UNL     1       6.905   8.273  -2.704  1.00  0.00     0.037 A 
ATOM     26  C   UNL     1       5.065   4.585  -8.354  1.00  0.00     0.037 A 
ATOM     27  C   UNL     1       7.225   8.889  -3.964  1.00  0.00     0.049 A 
ATOM     28  C   UNL     1       5.711   5.933  -8.478  1.00  0.00     0.074 A 
ATOM     29  C   UNL     1       7.855  10.100  -4.197  1.00  0.00     0.029 A 
ATOM     30  N   UNL     1       6.933   8.346  -5.207  1.00  0.00    -0.354 N 
ATOM     31  N   UNL     1       6.128   6.732  -7.526  1.00  0.00    -0.248 NA
ATOM     32  C   UNL     1       5.913   6.454  -9.836  1.00  0.00     0.031 C 
ATOM     33  C   UNL     1       7.920  10.300  -5.581  1.00  0.00     0.029 A 
ATOM     34  C   UNL     1       7.356   9.202  -6.210  1.00  0.00     0.049 A 
ATOM     35  H   UNL     1       6.489   7.479  -5.354  1.00  0.00     0.167 HD
ATOM     36  C   UNL     1       6.653   7.847  -8.168  1.00  0.00     0.074 A 
ATOM     37  C   UNL     1       6.506   7.617  -9.591  1.00  0.00     0.031 C 
ATOM     38  C   UNL     1       7.207   8.957  -7.624  1.00  0.00     0.037 A 
BRANCH  25  39
ATOM     39  C   UNL     1       7.213   9.022  -1.440  1.00  0.00     0.058 A 
ATOM     40  C   UNL     1       8.291   8.663  -0.616  1.00  0.00     0.135 A 
ATOM     41  C   UNL     1       6.415  10.107  -1.043  1.00  0.00     0.135 A 
ATOM     42  F   UNL     1       9.075   7.624  -0.944  1.00  0.00    -0.206 F 
ATOM     43  C   UNL     1       8.544   9.329   0.579  1.00  0.00     0.059 A 
ATOM     44  C   UNL     1       6.660  10.798   0.139  1.00  0.00     0.059 A 
ATOM     45  F   UNL     1       5.372  10.490  -1.797  1.00  0.00    -0.206 F 
ATOM     46  C   UNL     1       7.714  10.386   0.955  1.00  0.00     0.060 A 
BRANCH  46  47
ATOM     47  S   UNL     1       8.020  11.214   2.530  1.00  0.00     0.124 S 
ATOM     48  O   UNL     1       7.400  10.283   3.468  1.00  0.00    -0.237 OA
ATOM     49  O   UNL     1       9.477  11.281   2.577  1.00  0.00    -0.237 OA
ATOM     50  O   UNL     1       7.342  12.496   2.375  1.00  0.00    -0.744 OA
ENDBRANCH  46  47
ENDBRANCH  25  39
BRANCH  26  51
ATOM     51  C   UNL     1       4.620   3.823  -9.546  1.00  0.00     0.058 A 
ATOM     52  C   UNL     1       5.540   3.123 -10.337  1.00  0.00     0.135 A 
ATOM     53  C   UNL     1       3.256   3.699  -9.854  1.00  0.00     0.135 A 
ATOM     54  F   UNL     1       6.853   3.216 -10.079  1.00  0.00    -0.206 F 
ATOM     55  C   UNL     1       5.124   2.311 -11.386  1.00  0.00     0.059 A 
ATOM     56  C   UNL     1       2.814   2.880 -10.887  1.00  0.00     0.059 A 
ATOM     57  F   UNL     1       2.339   4.339  -9.112  1.00  0.00    -0.206 F 
ATOM     58  C   UNL     1       3.757   2.187 -11.646  1.00  0.00     0.060 A 
BRANCH  58  59
ATOM     59  S   UNL     1       3.216   1.037 -12.931  1.00  0.00     0.124 S 
ATOM     60  O   UNL     1       3.455   1.816 -14.140  1.00  0.00    -0.237 OA
ATOM     61  O   UNL     1       4.102  -0.104 -12.720  1.00  0.00    -0.237 OA
ATOM     62  O   UNL     1       1.815   0.800 -12.596  1.00  0.00    -0.744 OA
ENDBRANCH  58  59
ENDBRANCH  26  51
BRANCH  38  63
ATOM     63  C   UNL     1       7.718  10.008  -8.565  1.00  0.00     0.058 A 
ATOM     64  C   UNL     1       6.851  10.928  -9.173  1.00  0.00     0.135 A 
ATOM     65  C   UNL     1       9.096  10.146  -8.796  1.00  0.00     0.135 A 
ATOM     66  F   UNL     1       5.526  10.831  -8.988  1.00  0.00    -0.206 F 
ATOM     67  C   UNL     1       7.334  11.953  -9.979  1.00  0.00     0.059 A 
ATOM     68  C   UNL     1       9.601  11.172  -9.587  1.00  0.00     0.059 A 
ATOM     69  F   UNL     1       9.964   9.291  -8.232  1.00  0.00    -0.206 F 
ATOM     70  C   UNL     1       8.712  12.070 -10.177  1.00  0.00     0.060 A 
BRANCH  70  71
ATOM     71  S   UNL     1       9.337  13.443 -11.170  1.00  0.00     0.124 S 
ATOM     72  O   UNL     1       9.098  12.958 -12.525  1.00  0.00    -0.237 OA
ATOM     73  O   UNL     1       8.497  14.555 -10.737  1.00  0.00    -0.237 OA
ATOM     74  O   UNL     1      10.739  13.534 -10.773  1.00  0.00    -0.744 OA
ENDBRANCH  70  71
ENDBRANCH  38  63
ENDBRANCH  12  13
ENDBRANCH   5   7
ENDBRANCH   2   3
ENDBRANCH   1   2
BRANCH   1  75
ATOM     75  C   UNL     1       4.317  -1.715   3.487  1.00  0.00     0.002 C 
BRANCH  75  76
ATOM     76  C   UNL     1       4.848  -3.095   3.092  1.00  0.00     0.002 C 
BRANCH  76  77
ATOM     77  C   UNL     1       6.369  -3.215   2.961  1.00  0.00     0.021 C 
BRANCH  77  78
ATOM     78  C   UNL     1       7.171  -2.818   4.200  1.00  0.00     0.116 C 
BRANCH  78  79
ATOM     79  N   UNL     1       6.916  -3.702   5.323  1.00  0.00    -0.352 N 
ATOM     80  C   UNL     1       7.810  -4.384   6.106  1.00  0.00     0.256 C 
ATOM     81  H   UNL     1       5.968  -3.829   5.554  1.00  0.00     0.163 HD
ATOM     82  O   UNL     1       7.380  -5.220   6.904  1.00  0.00    -0.269 OA
BRANCH  80  83
ATOM     83  C   UNL     1       9.229  -4.173   5.938  1.00  0.00     0.104 A 
ATOM     84  C   UNL     1      10.219  -5.169   5.877  1.00  0.00     0.151 A 
ATOM     85  C   UNL     1       9.937  -2.985   5.884  1.00  0.00     0.168 A 
ATOM     86  N   UNL     1      11.446  -4.682   5.704  1.00  0.00    -0.174 NA
ATOM     87  N   UNL     1      11.284  -3.336   5.693  1.00  0.00    -0.209 N 
ATOM     88  N   UNL     1       9.538  -1.677   5.972  1.00  0.00    -0.236 NA
ATOM     89  C   UNL     1      12.255  -2.352   5.522  1.00  0.00     0.150 A 
ATOM     90  C   UNL     1      10.466  -0.781   5.829  1.00  0.00     0.116 A 
ATOM     91  C   UNL     1      11.902  -1.054   5.575  1.00  0.00     0.053 A 
BRANCH  89  92
ATOM     92  C   UNL     1      13.637  -2.821   5.273  1.00  0.00     0.433 C 
ATOM     93  F   UNL     1      14.144  -3.544   6.302  1.00  0.00    -0.165 F 
ATOM     94  F   UNL     1      13.744  -3.569   4.147  1.00  0.00    -0.165 F 
ATOM     95  F   UNL     1      14.491  -1.772   5.103  1.00  0.00    -0.165 F 
ENDBRANCH  89  92
ENDBRANCH  80  83
ENDBRANCH  78  79
ENDBRANCH  77  78
ENDBRANCH  76  77
ENDBRANCH  75  76
ENDBRANCH   1  75
TORSDOF 17
