REMARK SMILES O=C(NCCCCCCNC(=O)[C@@H]1Nc2ccc(NC(=O)c3ccccc3)cc2[C@@H]2C=CC[C@H]12)c1ccc(-c2c3nc(c(-c4c(F)cc(S(=O)(=O)[O-])cc4F)c4ccc([nH]4)c(-c4c(F)cc(S(=O)(=O)[O-])cc4F)c4nc(c(-c5c(F)cc(S(=O)(=O)[O-])cc5F)c5ccc2[nH]5)C=C4)C=C3)cc1
REMARK SMILES IDX 6 1 5 2 4 3 3 4 1 5 2 6 35 8 36 9 100 10 37 11 99 12 38 13
REMARK SMILES IDX 39 14 40 15 93 16 41 17 98 18 92 19 94 20 42 21 97 22 91 23
REMARK SMILES IDX 90 24 43 26 77 27 56 28 76 29 57 30 60 31 75 32 95 33 58 34
REMARK SMILES IDX 59 35 74 37 96 38 61 39 44 40 45 41 54 42 46 43 47 44 53 45
REMARK SMILES IDX 55 46 48 47 49 48 50 49 51 50 52 51 78 52 79 53 88 54 80 55
REMARK SMILES IDX 81 56 87 57 89 58 82 59 83 60 84 61 85 62 86 63 62 64 63 65
REMARK SMILES IDX 72 66 64 67 65 68 71 69 73 70 66 71 67 72 68 73 69 74 70 75
REMARK SMILES IDX 7 76 8 77 9 78 10 79 11 80 12 82 13 83 14 84 34 85 15 86
REMARK SMILES IDX 30 88 33 89 16 90 29 91 31 92 32 93 17 94 28 95 18 96 19 97
REMARK SMILES IDX 20 98 21 100 22 101 23 102 27 103 24 104 26 105 25 106
REMARK H PARENT 3 7 94 25 60 36 10 81 14 87 19 99
REMARK Flexibility Score: inf
ROOT
ATOM      1  C   UNL     1      13.832  -0.884  -5.815  1.00  0.00     0.002 C 
ENDROOT
BRANCH   1   2
ATOM      2  C   UNL     1      14.786  -0.045  -4.963  1.00  0.00     0.021 C 
BRANCH   2   3
ATOM      3  C   UNL     1      14.856  -0.468  -3.502  1.00  0.00     0.116 C 
BRANCH   3   4
ATOM      4  N   UNL     1      15.421  -1.802  -3.351  1.00  0.00    -0.352 N 
ATOM      5  O   UNL     1      17.042  -3.310  -2.912  1.00  0.00    -0.269 OA
ATOM      6  C   UNL     1      16.595  -2.178  -2.745  1.00  0.00     0.251 C 
ATOM      7  H   UNL     1      14.888  -2.534  -3.736  1.00  0.00     0.163 HD
BRANCH   6   8
ATOM      8  C   UNL     1      17.317  -1.204  -1.900  1.00  0.00     0.039 A 
ATOM      9  C   UNL     1      16.606  -0.406  -1.002  1.00  0.00     0.014 A 
ATOM     10  C   UNL     1      18.705  -1.081  -2.004  1.00  0.00     0.014 A 
ATOM     11  C   UNL     1      17.255   0.617  -0.330  1.00  0.00     0.010 A 
ATOM     12  C   UNL     1      19.375  -0.120  -1.238  1.00  0.00     0.010 A 
ATOM     13  C   UNL     1      18.652   0.753  -0.412  1.00  0.00    -0.014 A 
BRANCH  13  14
ATOM     14  C   UNL     1      19.311   1.761   0.458  1.00  0.00     0.031 A 
ATOM     15  C   UNL     1      20.066   2.928  -0.112  1.00  0.00     0.074 A 
ATOM     16  C   UNL     1      19.153   1.637   1.792  1.00  0.00     0.049 A 
ATOM     17  N   UNL     1      20.630   3.926   0.520  1.00  0.00    -0.248 NA
ATOM     18  C   UNL     1      20.219   2.985  -1.574  1.00  0.00     0.031 C 
ATOM     19  C   UNL     1      18.463   0.524   2.455  1.00  0.00     0.029 A 
ATOM     20  N   UNL     1      19.522   2.457   2.826  1.00  0.00    -0.354 N 
ATOM     21  C   UNL     1      21.205   4.728  -0.459  1.00  0.00     0.074 A 
ATOM     22  C   UNL     1      20.955   4.079  -1.729  1.00  0.00     0.031 C 
ATOM     23  C   UNL     1      18.403   0.763   3.772  1.00  0.00     0.029 A 
ATOM     24  C   UNL     1      19.112   2.003   4.058  1.00  0.00     0.049 A 
ATOM     25  H   UNL     1      20.031   3.290   2.699  1.00  0.00     0.167 HD
ATOM     26  C   UNL     1      21.867   5.901  -0.309  1.00  0.00     0.037 A 
ATOM     27  C   UNL     1      19.300   2.515   5.287  1.00  0.00     0.037 A 
ATOM     28  C   UNL     1      22.109   6.535   0.964  1.00  0.00     0.049 A 
ATOM     29  C   UNL     1      20.045   3.811   5.422  1.00  0.00     0.074 A 
ATOM     30  C   UNL     1      22.768   7.725   1.223  1.00  0.00     0.029 A 
ATOM     31  N   UNL     1      21.700   6.035   2.193  1.00  0.00    -0.354 N 
ATOM     32  N   UNL     1      20.565   4.561   4.480  1.00  0.00    -0.248 NA
ATOM     33  C   UNL     1      20.229   4.330   6.782  1.00  0.00     0.031 C 
ATOM     34  C   UNL     1      22.792   7.923   2.608  1.00  0.00     0.029 A 
ATOM     35  C   UNL     1      22.103   6.884   3.212  1.00  0.00     0.049 A 
ATOM     36  H   UNL     1      21.197   5.198   2.322  1.00  0.00     0.167 HD
ATOM     37  C   UNL     1      21.135   5.646   5.133  1.00  0.00     0.074 A 
ATOM     38  C   UNL     1      20.862   5.470   6.546  1.00  0.00     0.031 C 
ATOM     39  C   UNL     1      21.830   6.688   4.614  1.00  0.00     0.037 A 
BRANCH  26  40
ATOM     40  C   UNL     1      22.383   6.582  -1.550  1.00  0.00     0.058 A 
ATOM     41  C   UNL     1      21.515   7.203  -2.463  1.00  0.00     0.135 A 
ATOM     42  C   UNL     1      23.763   6.674  -1.797  1.00  0.00     0.135 A 
ATOM     43  F   UNL     1      20.186   7.134  -2.286  1.00  0.00    -0.206 F 
ATOM     44  C   UNL     1      21.995   7.875  -3.583  1.00  0.00     0.059 A 
ATOM     45  C   UNL     1      24.267   7.363  -2.898  1.00  0.00     0.059 A 
ATOM     46  F   UNL     1      24.640   6.100  -0.959  1.00  0.00    -0.206 F 
ATOM     47  C   UNL     1      23.373   7.952  -3.791  1.00  0.00     0.060 A 
BRANCH  47  48
ATOM     48  S   UNL     1      23.976   8.846  -5.240  1.00  0.00     0.124 S 
ATOM     49  O   UNL     1      23.595   7.940  -6.320  1.00  0.00    -0.237 OA
ATOM     50  O   UNL     1      23.227  10.096  -5.169  1.00  0.00    -0.237 OA
ATOM     51  O   UNL     1      25.411   8.962  -4.997  1.00  0.00    -0.744 OA
ENDBRANCH  47  48
ENDBRANCH  26  40
BRANCH  27  52
ATOM     52  C   UNL     1      18.797   1.781   6.479  1.00  0.00     0.058 A 
ATOM     53  C   UNL     1      17.759   2.291   7.270  1.00  0.00     0.135 A 
ATOM     54  C   UNL     1      19.343   0.538   6.838  1.00  0.00     0.135 A 
ATOM     55  F   UNL     1      17.203   3.474   6.968  1.00  0.00    -0.206 F 
ATOM     56  C   UNL     1      17.296   1.608   8.390  1.00  0.00     0.059 A 
ATOM     57  C   UNL     1      18.874  -0.179   7.931  1.00  0.00     0.059 A 
ATOM     58  F   UNL     1      20.324  -0.006   6.100  1.00  0.00    -0.206 F 
ATOM     59  C   UNL     1      17.861   0.372   8.712  1.00  0.00     0.060 A 
BRANCH  59  60
ATOM     60  S   UNL     1      17.236  -0.523  10.149  1.00  0.00     0.124 S 
ATOM     61  O   UNL     1      17.824   0.237  11.245  1.00  0.00    -0.237 OA
ATOM     62  O   UNL     1      15.791  -0.397   9.986  1.00  0.00    -0.237 OA
ATOM     63  O   UNL     1      17.764  -1.871   9.959  1.00  0.00    -0.744 OA
ENDBRANCH  59  60
ENDBRANCH  27  52
BRANCH  39  64
ATOM     64  C   UNL     1      22.326   7.721   5.587  1.00  0.00     0.058 A 
ATOM     65  C   UNL     1      23.372   7.448   6.483  1.00  0.00     0.135 A 
ATOM     66  C   UNL     1      21.749   9.001   5.622  1.00  0.00     0.135 A 
ATOM     67  F   UNL     1      23.952   6.237   6.495  1.00  0.00    -0.206 F 
ATOM     68  C   UNL     1      23.799   8.392   7.410  1.00  0.00     0.059 A 
ATOM     69  C   UNL     1      22.183   9.971   6.520  1.00  0.00     0.059 A 
ATOM     70  F   UNL     1      20.753   9.318   4.780  1.00  0.00    -0.206 F 
ATOM     71  C   UNL     1      23.195   9.650   7.423  1.00  0.00     0.060 A 
BRANCH  71  72
ATOM     72  S   UNL     1      23.756  10.866   8.633  1.00  0.00     0.124 S 
ATOM     73  O   UNL     1      23.163  10.352   9.863  1.00  0.00    -0.237 OA
ATOM     74  O   UNL     1      25.209  10.757   8.535  1.00  0.00    -0.237 OA
ATOM     75  O   UNL     1      23.194  12.120   8.140  1.00  0.00    -0.744 OA
ENDBRANCH  71  72
ENDBRANCH  39  64
ENDBRANCH  13  14
ENDBRANCH   6   8
ENDBRANCH   3   4
ENDBRANCH   2   3
ENDBRANCH   1   2
BRANCH   1  76
ATOM     76  C   UNL     1      12.391  -0.950  -5.299  1.00  0.00     0.002 C 
BRANCH  76  77
ATOM     77  C   UNL     1      11.755   0.413  -5.018  1.00  0.00     0.021 C 
BRANCH  77  78
ATOM     78  C   UNL     1      11.503   1.247  -6.276  1.00  0.00     0.116 C 
BRANCH  78  79
ATOM     79  N   UNL     1      10.181   0.962  -6.785  1.00  0.00    -0.354 N 
ATOM     80  C   UNL     1       9.016   1.643  -6.628  1.00  0.00     0.242 C 
ATOM     81  H   UNL     1      10.115   0.146  -7.332  1.00  0.00     0.163 HD
ATOM     82  O   UNL     1       7.988   1.060  -6.996  1.00  0.00    -0.273 OA
BRANCH  80  83
ATOM     83  C   UNL     1       8.935   3.089  -6.090  1.00  0.00     0.173 C 
ATOM     84  N   UNL     1       9.805   4.006  -6.819  1.00  0.00    -0.373 N 
ATOM     85  C   UNL     1       9.031   3.330  -4.585  1.00  0.00     0.036 C 
ATOM     86  C   UNL     1       9.698   5.354  -6.491  1.00  0.00     0.039 A 
ATOM     87  H   UNL     1      10.434   3.688  -7.507  1.00  0.00     0.161 HD
ATOM     88  C   UNL     1       8.566   4.778  -4.282  1.00  0.00     0.050 C 
ATOM     89  C   UNL     1      10.395   3.251  -3.879  1.00  0.00     0.034 C 
ATOM     90  C   UNL     1      10.311   6.301  -7.306  1.00  0.00     0.028 A 
ATOM     91  C   UNL     1       9.082   5.785  -5.301  1.00  0.00    -0.015 A 
ATOM     92  C   UNL     1       9.180   4.995  -2.922  1.00  0.00    -0.023 C 
ATOM     93  C   UNL     1      10.206   4.165  -2.711  1.00  0.00    -0.030 C 
ATOM     94  C   UNL     1      10.234   7.663  -7.004  1.00  0.00     0.028 A 
ATOM     95  C   UNL     1       8.956   7.164  -5.043  1.00  0.00     0.032 A 
ATOM     96  C   UNL     1       9.498   8.114  -5.912  1.00  0.00     0.041 A 
BRANCH  96  97
ATOM     97  N   UNL     1       9.283   9.470  -5.593  1.00  0.00    -0.322 N 
ATOM     98  C   UNL     1       9.436  10.625  -6.328  1.00  0.00     0.255 C 
ATOM     99  H   UNL     1       8.965   9.619  -4.674  1.00  0.00     0.170 HD
ATOM    100  O   UNL     1       9.336  11.725  -5.788  1.00  0.00    -0.269 OA
BRANCH  98 101
ATOM    101  C   UNL     1       9.660  10.573  -7.784  1.00  0.00     0.040 A 
ATOM    102  C   UNL     1      10.819  11.154  -8.304  1.00  0.00     0.014 A 
ATOM    103  C   UNL     1       8.759   9.902  -8.620  1.00  0.00     0.014 A 
ATOM    104  C   UNL     1      11.119  10.991  -9.656  1.00  0.00     0.001 A 
ATOM    105  C   UNL     1       9.069   9.735  -9.969  1.00  0.00     0.001 A 
ATOM    106  C   UNL     1      10.254  10.268 -10.482  1.00  0.00     0.000 A 
ENDBRANCH  98 101
ENDBRANCH  96  97
ENDBRANCH  80  83
ENDBRANCH  78  79
ENDBRANCH  77  78
ENDBRANCH  76  77
ENDBRANCH   1  76
TORSDOF 18
