REMARK SMILES Cc1cc2c(c(C)c1Br)C=C(C(=O)NCCCCCCNC(=O)c1ccc(-c3c4nc(c(-c5c(F)cc(S(=O)(=O)[O-])cc5F)c5ccc([nH]5)c(-c5c(F)cc(S(=O)(=O)[O-])cc5F)c5nc(c(-c6c(F)cc(S(=O)(=O)[O-])cc6F)c6ccc3[nH]6)C=C5)C=C4)cc1)[C@@H](C(F)(F)F)O2
REMARK SMILES IDX 18 1 17 2 16 3 15 4 14 5 12 6 13 7 11 9 1 10 2 11 3 12 8 13
REMARK SMILES IDX 4 14 6 15 9 16 5 17 95 18 7 19 10 20 90 21 91 22 92 23 93 24
REMARK SMILES IDX 94 25 19 26 20 27 21 28 22 29 23 31 24 32 25 33 89 34 26 35
REMARK SMILES IDX 88 36 27 37 28 38 29 39 82 40 30 41 87 42 81 43 83 44 31 45
REMARK SMILES IDX 86 46 80 47 79 48 32 50 66 51 45 52 65 53 46 54 49 55 64 56
REMARK SMILES IDX 84 57 47 58 48 59 63 61 85 62 50 63 33 64 34 65 43 66 35 67
REMARK SMILES IDX 36 68 42 69 44 70 37 71 38 72 39 73 40 74 41 75 67 76 68 77
REMARK SMILES IDX 77 78 69 79 70 80 76 81 78 82 71 83 72 84 73 85 74 86 75 87
REMARK SMILES IDX 51 88 52 89 61 90 53 91 54 92 60 93 62 94 55 95 56 96 57 97
REMARK SMILES IDX 58 98 59 99
REMARK H PARENT 14 8 21 30 83 49 49 60
REMARK Flexibility Score: inf
ROOT
ATOM      1  C   UNL     1      -3.955   5.186   9.710  1.00  0.00     0.002 C 
ENDROOT
BRANCH   1   2
ATOM      2  C   UNL     1      -2.434   5.194   9.505  1.00  0.00     0.002 C 
BRANCH   2   3
ATOM      3  C   UNL     1      -1.913   4.177   8.487  1.00  0.00     0.021 C 
BRANCH   3   4
ATOM      4  C   UNL     1      -2.563   4.300   7.114  1.00  0.00     0.116 C 
BRANCH   4   5
ATOM      5  N   UNL     1      -1.928   5.330   6.310  1.00  0.00    -0.352 N 
ATOM      6  C   UNL     1      -1.299   5.406   5.114  1.00  0.00     0.251 C 
ATOM      7  O   UNL     1      -0.918   6.537   4.791  1.00  0.00    -0.270 OA
ATOM      8  H   UNL     1      -1.966   6.208   6.754  1.00  0.00     0.163 HD
BRANCH   6   9
ATOM      9  C   UNL     1      -1.045   4.252   4.199  1.00  0.00     0.067 C 
ATOM     10  C   UNL     1       1.073   0.021  -0.274  1.00  0.00     0.046 C 
ATOM     11  C   UNL     1       0.738   1.242   0.539  1.00  0.00    -0.033 A 
ATOM     12  C   UNL     1       0.003   1.061   1.712  1.00  0.00     0.051 A 
ATOM     13  C   UNL     1       1.136   2.549   0.182  1.00  0.00     0.024 A 
ATOM     14  C   UNL     1      -0.324   2.143   2.519  1.00  0.00     0.128 A 
ATOM     15  C   UNL     1       0.808   3.663   0.998  1.00  0.00    -0.026 A 
ATOM     16  Br  UNL     1       2.148   2.773  -1.427  1.00  0.00    -0.050 Br
ATOM     17  C   UNL     1       0.081   3.439   2.195  1.00  0.00     0.021 A 
ATOM     18  O   UNL     1      -1.013   1.821   3.648  1.00  0.00    -0.475 OA
ATOM     19  C   UNL     1       1.218   5.074   0.646  1.00  0.00     0.046 C 
ATOM     20  C   UNL     1      -0.230   4.502   3.157  1.00  0.00     0.026 C 
ATOM     21  C   UNL     1      -1.660   2.896   4.368  1.00  0.00     0.314 C 
BRANCH  21  22
ATOM     22  C   UNL     1      -3.166   2.881   4.054  1.00  0.00     0.429 C 
ATOM     23  F   UNL     1      -3.747   1.769   4.567  1.00  0.00    -0.167 F 
ATOM     24  F   UNL     1      -3.821   3.937   4.592  1.00  0.00    -0.167 F 
ATOM     25  F   UNL     1      -3.416   2.898   2.725  1.00  0.00    -0.167 F 
ENDBRANCH  21  22
ENDBRANCH   6   9
ENDBRANCH   4   5
ENDBRANCH   3   4
ENDBRANCH   2   3
ENDBRANCH   1   2
BRANCH   1  26
ATOM     26  C   UNL     1      -4.571   3.808   9.969  1.00  0.00     0.021 C 
BRANCH  26  27
ATOM     27  C   UNL     1      -3.987   3.074  11.170  1.00  0.00     0.116 C 
BRANCH  27  28
ATOM     28  N   UNL     1      -4.173   3.825  12.400  1.00  0.00    -0.352 N 
ATOM     29  C   UNL     1      -4.854   3.469  13.534  1.00  0.00     0.251 C 
ATOM     30  H   UNL     1      -3.752   4.715  12.421  1.00  0.00     0.163 HD
ATOM     31  O   UNL     1      -5.114   4.313  14.389  1.00  0.00    -0.269 OA
BRANCH  29  32
ATOM     32  C   UNL     1      -5.282   2.067  13.715  1.00  0.00     0.039 A 
ATOM     33  C   UNL     1      -6.580   1.806  14.156  1.00  0.00     0.014 A 
ATOM     34  C   UNL     1      -4.396   1.016  13.455  1.00  0.00     0.014 A 
ATOM     35  C   UNL     1      -7.005   0.484  14.295  1.00  0.00     0.010 A 
ATOM     36  C   UNL     1      -4.845  -0.298  13.522  1.00  0.00     0.010 A 
ATOM     37  C   UNL     1      -6.148  -0.577  13.958  1.00  0.00    -0.014 A 
BRANCH  37  38
ATOM     38  C   UNL     1      -6.591  -1.987  14.093  1.00  0.00     0.031 A 
ATOM     39  C   UNL     1      -5.929  -2.883  15.103  1.00  0.00     0.074 A 
ATOM     40  C   UNL     1      -7.564  -2.462  13.291  1.00  0.00     0.049 A 
ATOM     41  N   UNL     1      -6.150  -4.147  15.353  1.00  0.00    -0.248 NA
ATOM     42  C   UNL     1      -4.864  -2.287  15.928  1.00  0.00     0.031 C 
ATOM     43  C   UNL     1      -8.255  -1.692  12.254  1.00  0.00     0.029 A 
ATOM     44  N   UNL     1      -8.142  -3.704  13.223  1.00  0.00    -0.354 N 
ATOM     45  C   UNL     1      -5.258  -4.495  16.360  1.00  0.00     0.074 A 
ATOM     46  C   UNL     1      -4.446  -3.330  16.629  1.00  0.00     0.031 C 
ATOM     47  C   UNL     1      -9.188  -2.469  11.679  1.00  0.00     0.029 A 
ATOM     48  C   UNL     1      -9.135  -3.800  12.277  1.00  0.00     0.049 A 
ATOM     49  H   UNL     1      -7.872  -4.456  13.798  1.00  0.00     0.167 HD
ATOM     50  C   UNL     1      -5.149  -5.669  17.025  1.00  0.00     0.037 A 
ATOM     51  C   UNL     1      -9.914  -4.844  11.932  1.00  0.00     0.037 A 
ATOM     52  C   UNL     1      -5.977  -6.817  16.765  1.00  0.00     0.049 A 
ATOM     53  C   UNL     1      -9.747  -6.152  12.658  1.00  0.00     0.074 A 
ATOM     54  C   UNL     1      -5.973  -8.042  17.409  1.00  0.00     0.029 A 
ATOM     55  N   UNL     1      -6.956  -6.883  15.784  1.00  0.00    -0.354 N 
ATOM     56  N   UNL     1      -8.932  -6.448  13.643  1.00  0.00    -0.248 NA
ATOM     57  C   UNL     1     -10.602  -7.266  12.229  1.00  0.00     0.031 C 
ATOM     58  C   UNL     1      -6.916  -8.864  16.786  1.00  0.00     0.029 A 
ATOM     59  C   UNL     1      -7.544  -8.136  15.787  1.00  0.00     0.049 A 
ATOM     60  H   UNL     1      -7.197  -6.147  15.176  1.00  0.00     0.167 HD
ATOM     61  C   UNL     1      -9.188  -7.777  13.962  1.00  0.00     0.074 A 
ATOM     62  C   UNL     1     -10.247  -8.221  13.079  1.00  0.00     0.031 C 
ATOM     63  C   UNL     1      -8.598  -8.561  14.898  1.00  0.00     0.037 A 
BRANCH  50  64
ATOM     64  C   UNL     1      -4.113  -5.766  18.110  1.00  0.00     0.058 A 
ATOM     65  C   UNL     1      -4.257  -5.076  19.324  1.00  0.00     0.135 A 
ATOM     66  C   UNL     1      -2.990  -6.596  17.958  1.00  0.00     0.135 A 
ATOM     67  F   UNL     1      -5.302  -4.254  19.515  1.00  0.00    -0.206 F 
ATOM     68  C   UNL     1      -3.316  -5.188  20.341  1.00  0.00     0.059 A 
ATOM     69  C   UNL     1      -2.050  -6.745  18.974  1.00  0.00     0.059 A 
ATOM     70  F   UNL     1      -2.800  -7.275  16.816  1.00  0.00    -0.206 F 
ATOM     71  C   UNL     1      -2.217  -6.030  20.158  1.00  0.00     0.060 A 
BRANCH  71  72
ATOM     72  S   UNL     1      -1.019  -6.177  21.500  1.00  0.00     0.124 S 
ATOM     73  O   UNL     1      -0.401  -4.855  21.485  1.00  0.00    -0.237 OA
ATOM     74  O   UNL     1      -1.873  -6.465  22.647  1.00  0.00    -0.237 OA
ATOM     75  O   UNL     1      -0.158  -7.275  21.069  1.00  0.00    -0.744 OA
ENDBRANCH  71  72
ENDBRANCH  50  64
BRANCH  51  76
ATOM     76  C   UNL     1     -10.941  -4.685  10.866  1.00  0.00     0.058 A 
ATOM     77  C   UNL     1     -12.308  -4.693  11.178  1.00  0.00     0.135 A 
ATOM     78  C   UNL     1     -10.579  -4.500   9.523  1.00  0.00     0.135 A 
ATOM     79  F   UNL     1     -12.705  -4.874  12.447  1.00  0.00    -0.206 F 
ATOM     80  C   UNL     1     -13.281  -4.533  10.197  1.00  0.00     0.059 A 
ATOM     81  C   UNL     1     -11.533  -4.312   8.527  1.00  0.00     0.059 A 
ATOM     82  F   UNL     1      -9.284  -4.471   9.172  1.00  0.00    -0.206 F 
ATOM     83  C   UNL     1     -12.883  -4.337   8.874  1.00  0.00     0.060 A 
BRANCH  83  84
ATOM     84  S   UNL     1     -14.156  -4.078   7.620  1.00  0.00     0.124 S 
ATOM     85  O   UNL     1     -14.776  -5.396   7.551  1.00  0.00    -0.237 OA
ATOM     86  O   UNL     1     -14.964  -3.022   8.221  1.00  0.00    -0.237 OA
ATOM     87  O   UNL     1     -13.391  -3.679   6.442  1.00  0.00    -0.744 OA
ENDBRANCH  83  84
ENDBRANCH  51  76
BRANCH  63  88
ATOM     88  C   UNL     1      -9.080  -9.979  15.026  1.00  0.00     0.058 A 
ATOM     89  C   UNL     1      -8.763 -10.948  14.062  1.00  0.00     0.135 A 
ATOM     90  C   UNL     1      -9.793 -10.392  16.163  1.00  0.00     0.135 A 
ATOM     91  F   UNL     1      -8.088 -10.604  12.953  1.00  0.00    -0.206 F 
ATOM     92  C   UNL     1      -9.146 -12.276  14.214  1.00  0.00     0.059 A 
ATOM     93  C   UNL     1     -10.162 -11.721  16.350  1.00  0.00     0.059 A 
ATOM     94  F   UNL     1     -10.113  -9.506  17.120  1.00  0.00    -0.206 F 
ATOM     95  C   UNL     1      -9.838 -12.654  15.367  1.00  0.00     0.060 A 
BRANCH  95  96
ATOM     96  S   UNL     1     -10.281 -14.392  15.572  1.00  0.00     0.124 S 
ATOM     97  O   UNL     1     -11.313 -14.556  14.554  1.00  0.00    -0.237 OA
ATOM     98  O   UNL     1      -9.014 -15.067  15.305  1.00  0.00    -0.237 OA
ATOM     99  O   UNL     1     -10.745 -14.465  16.954  1.00  0.00    -0.744 OA
ENDBRANCH  95  96
ENDBRANCH  63  88
ENDBRANCH  37  38
ENDBRANCH  29  32
ENDBRANCH  27  28
ENDBRANCH  26  27
ENDBRANCH   1  26
TORSDOF 17
