REMARK SMILES Cc1cc([C@H]([NH3+])CCCC(=O)NCCCCCCNC(=O)c2ccc(-c3c4nc(c(-c5c(F)cc(S(=O)(=O)[O-])cc5F)c5ccc([nH]5)c(-c5c(F)cc(S(=O)(=O)[O-])cc5F)c5nc(c(-c6c(F)cc(S(=O)(=O)[O-])cc6F)c6ccc3[nH]6)C=C5)C=C4)cc2)c(F)cc1F
REMARK SMILES IDX 15 1 14 2 13 3 12 4 10 5 11 6 9 8 8 9 7 10 5 11 4 12 1 13
REMARK SMILES IDX 2 14 3 15 91 16 90 17 92 18 88 19 89 20 6 21 16 25 17 26
REMARK SMILES IDX 18 27 19 28 20 29 21 31 22 32 23 33 87 34 24 35 86 36 25 37
REMARK SMILES IDX 26 38 27 39 80 40 28 41 85 42 79 43 81 44 29 45 84 46 78 47
REMARK SMILES IDX 77 48 30 50 64 51 43 52 63 53 44 54 47 55 62 56 82 57 45 58
REMARK SMILES IDX 46 59 61 61 83 62 48 63 31 64 32 65 41 66 33 67 34 68 40 69
REMARK SMILES IDX 42 70 35 71 36 72 37 73 38 74 39 75 65 76 66 77 75 78 67 79
REMARK SMILES IDX 68 80 74 81 76 82 69 83 70 84 71 85 72 86 73 87 49 88 50 89
REMARK SMILES IDX 59 90 51 91 52 92 58 93 60 94 53 95 54 96 55 97 56 98 57 99
REMARK H PARENT 12 7 6 22 6 23 6 24 19 30 81 49 47 60
REMARK Flexibility Score: inf
ROOT
ATOM      1  C   UNL     1      -1.496  -7.496   5.851  1.00  0.00     0.002 C 
ENDROOT
BRANCH   1   2
ATOM      2  C   UNL     1      -1.501  -6.192   5.051  1.00  0.00     0.021 C 
BRANCH   2   3
ATOM      3  C   UNL     1      -0.784  -6.283   3.702  1.00  0.00     0.116 C 
BRANCH   3   4
ATOM      4  N   UNL     1      -1.717  -6.643   2.655  1.00  0.00    -0.356 N 
ATOM      5  C   UNL     1      -2.201  -5.896   1.626  1.00  0.00     0.219 C 
ATOM      6  O   UNL     1      -3.078  -6.388   0.913  1.00  0.00    -0.275 OA
ATOM      7  H   UNL     1      -2.051  -7.568   2.694  1.00  0.00     0.163 HD
BRANCH   5   8
ATOM      8  C   UNL     1      -1.639  -4.514   1.335  1.00  0.00     0.100 C 
BRANCH   8   9
ATOM      9  C   UNL     1      -2.313  -3.358   2.083  1.00  0.00     0.016 C 
BRANCH   9  10
ATOM     10  C   UNL     1      -1.740  -2.982   3.461  1.00  0.00     0.071 C 
BRANCH  10  11
ATOM     11  C   UNL     1      -0.248  -2.569   3.481  1.00  0.00     0.214 C 
BRANCH  11  12
ATOM     12  C   UNL     1       0.439  -2.776   4.822  1.00  0.00     0.045 A 
ATOM     13  C   UNL     1       3.668  -4.372   6.123  1.00  0.00     0.047 C 
ATOM     14  C   UNL     1       2.365  -3.627   6.082  1.00  0.00    -0.015 A 
ATOM     15  C   UNL     1       1.702  -3.405   4.865  1.00  0.00     0.019 A 
ATOM     16  C   UNL     1       1.749  -3.212   7.264  1.00  0.00     0.129 A 
ATOM     17  C   UNL     1       0.514  -2.579   7.249  1.00  0.00     0.079 A 
ATOM     18  F   UNL     1       2.335  -3.459   8.443  1.00  0.00    -0.207 F 
ATOM     19  C   UNL     1      -0.128  -2.364   6.033  1.00  0.00     0.135 A 
ATOM     20  F   UNL     1      -1.325  -1.762   6.044  1.00  0.00    -0.206 F 
ENDBRANCH  11  12
BRANCH  11  21
ATOM     21  N   UNL     1      -0.095  -1.192   3.013  1.00  0.00    -0.351 N 
ATOM     22  H   UNL     1      -0.573  -0.560   3.656  1.00  0.00     0.345 HD
ATOM     23  H   UNL     1      -0.503  -1.102   2.083  1.00  0.00     0.345 HD
ATOM     24  H   UNL     1       0.896  -0.953   2.975  1.00  0.00     0.345 HD
ENDBRANCH  11  21
ENDBRANCH  10  11
ENDBRANCH   9  10
ENDBRANCH   8   9
ENDBRANCH   5   8
ENDBRANCH   3   4
ENDBRANCH   2   3
ENDBRANCH   1   2
BRANCH   1  25
ATOM     25  C   UNL     1      -0.108  -7.977   6.292  1.00  0.00     0.002 C 
BRANCH  25  26
ATOM     26  C   UNL     1       0.731  -6.946   7.046  1.00  0.00     0.021 C 
BRANCH  26  27
ATOM     27  C   UNL     1       0.106  -6.422   8.335  1.00  0.00     0.116 C 
BRANCH  27  28
ATOM     28  N   UNL     1      -0.031  -7.463   9.341  1.00  0.00    -0.352 N 
ATOM     29  C   UNL     1       0.459  -7.505  10.626  1.00  0.00     0.251 C 
ATOM     30  H   UNL     1      -0.550  -8.253   9.062  1.00  0.00     0.163 HD
ATOM     31  O   UNL     1       0.423  -8.553  11.259  1.00  0.00    -0.269 OA
BRANCH  29  32
ATOM     32  C   UNL     1       1.049  -6.287  11.230  1.00  0.00     0.039 A 
ATOM     33  C   UNL     1       0.436  -5.043  11.070  1.00  0.00     0.014 A 
ATOM     34  C   UNL     1       2.238  -6.391  11.958  1.00  0.00     0.014 A 
ATOM     35  C   UNL     1       1.096  -3.890  11.484  1.00  0.00     0.010 A 
ATOM     36  C   UNL     1       2.854  -5.237  12.453  1.00  0.00     0.010 A 
ATOM     37  C   UNL     1       2.317  -3.970  12.173  1.00  0.00    -0.014 A 
BRANCH  37  38
ATOM     38  C   UNL     1       3.022  -2.717  12.566  1.00  0.00     0.031 A 
ATOM     39  C   UNL     1       4.382  -2.392  12.002  1.00  0.00     0.074 A 
ATOM     40  C   UNL     1       2.412  -1.841  13.389  1.00  0.00     0.049 A 
ATOM     41  N   UNL     1       5.138  -1.346  12.225  1.00  0.00    -0.248 NA
ATOM     42  C   UNL     1       4.975  -3.368  11.074  1.00  0.00     0.031 C 
ATOM     43  C   UNL     1       1.092  -2.034  13.994  1.00  0.00     0.029 A 
ATOM     44  N   UNL     1       2.804  -0.606  13.841  1.00  0.00    -0.354 N 
ATOM     45  C   UNL     1       6.298  -1.546  11.483  1.00  0.00     0.074 A 
ATOM     46  C   UNL     1       6.165  -2.834  10.838  1.00  0.00     0.031 C 
ATOM     47  C   UNL     1       0.761  -0.936  14.690  1.00  0.00     0.029 A 
ATOM     48  C   UNL     1       1.870   0.011  14.640  1.00  0.00     0.049 A 
ATOM     49  H   UNL     1       3.672  -0.200  13.615  1.00  0.00     0.167 HD
ATOM     50  C   UNL     1       7.364  -0.723  11.334  1.00  0.00     0.037 A 
ATOM     51  C   UNL     1       1.903   1.199  15.275  1.00  0.00     0.037 A 
ATOM     52  C   UNL     1       7.478   0.573  11.955  1.00  0.00     0.049 A 
ATOM     53  C   UNL     1       3.120   2.071  15.138  1.00  0.00     0.074 A 
ATOM     54  C   UNL     1       8.506   1.492  11.841  1.00  0.00     0.029 A 
ATOM     55  N   UNL     1       6.535   1.134  12.805  1.00  0.00    -0.354 N 
ATOM     56  N   UNL     1       4.198   1.872  14.418  1.00  0.00    -0.248 NA
ATOM     57  C   UNL     1       3.131   3.323  15.907  1.00  0.00     0.031 C 
ATOM     58  C   UNL     1       8.211   2.585  12.661  1.00  0.00     0.029 A 
ATOM     59  C   UNL     1       6.973   2.373  13.245  1.00  0.00     0.049 A 
ATOM     60  H   UNL     1       5.682   0.713  13.058  1.00  0.00     0.167 HD
ATOM     61  C   UNL     1       5.013   2.976  14.640  1.00  0.00     0.074 A 
ATOM     62  C   UNL     1       4.292   3.852  15.541  1.00  0.00     0.031 C 
ATOM     63  C   UNL     1       6.249   3.235  14.148  1.00  0.00     0.037 A 
BRANCH  50  64
ATOM     64  C   UNL     1       8.502  -1.193  10.467  1.00  0.00     0.058 A 
ATOM     65  C   UNL     1       8.376  -1.288   9.072  1.00  0.00     0.135 A 
ATOM     66  C   UNL     1       9.752  -1.500  11.031  1.00  0.00     0.135 A 
ATOM     67  F   UNL     1       7.202  -1.021   8.477  1.00  0.00    -0.206 F 
ATOM     68  C   UNL     1       9.439  -1.695   8.271  1.00  0.00     0.059 A 
ATOM     69  C   UNL     1      10.837  -1.881  10.247  1.00  0.00     0.059 A 
ATOM     70  F   UNL     1       9.930  -1.424  12.360  1.00  0.00    -0.206 F 
ATOM     71  C   UNL     1      10.667  -1.987   8.868  1.00  0.00     0.060 A 
BRANCH  71  72
ATOM     72  S   UNL     1      12.031  -2.510   7.808  1.00  0.00     0.124 S 
ATOM     73  O   UNL     1      11.566  -3.819   7.359  1.00  0.00    -0.237 OA
ATOM     74  O   UNL     1      12.051  -1.463   6.791  1.00  0.00    -0.237 OA
ATOM     75  O   UNL     1      13.178  -2.528   8.710  1.00  0.00    -0.744 OA
ENDBRANCH  71  72
ENDBRANCH  50  64
BRANCH  51  76
ATOM     76  C   UNL     1       0.739   1.626  16.099  1.00  0.00     0.058 A 
ATOM     77  C   UNL     1      -0.075   2.695  15.699  1.00  0.00     0.135 A 
ATOM     78  C   UNL     1       0.396   0.949  17.280  1.00  0.00     0.135 A 
ATOM     79  F   UNL     1       0.218   3.381  14.583  1.00  0.00    -0.206 F 
ATOM     80  C   UNL     1      -1.188   3.079  16.439  1.00  0.00     0.059 A 
ATOM     81  C   UNL     1      -0.729   1.294  18.022  1.00  0.00     0.059 A 
ATOM     82  F   UNL     1       1.136  -0.088  17.701  1.00  0.00    -0.206 F 
ATOM     83  C   UNL     1      -1.513   2.365  17.594  1.00  0.00     0.060 A 
BRANCH  83  84
ATOM     84  S   UNL     1      -3.001   2.829  18.506  1.00  0.00     0.124 S 
ATOM     85  O   UNL     1      -2.621   4.129  19.047  1.00  0.00    -0.237 OA
ATOM     86  O   UNL     1      -4.009   2.846  17.451  1.00  0.00    -0.237 OA
ATOM     87  O   UNL     1      -3.146   1.756  19.485  1.00  0.00    -0.744 OA
ENDBRANCH  83  84
ENDBRANCH  51  76
BRANCH  63  88
ATOM     88  C   UNL     1       6.912   4.519  14.569  1.00  0.00     0.058 A 
ATOM     89  C   UNL     1       7.416   4.690  15.867  1.00  0.00     0.135 A 
ATOM     90  C   UNL     1       7.116   5.557  13.644  1.00  0.00     0.135 A 
ATOM     91  F   UNL     1       7.241   3.733  16.792  1.00  0.00    -0.206 F 
ATOM     92  C   UNL     1       8.087   5.850  16.239  1.00  0.00     0.059 A 
ATOM     93  C   UNL     1       7.810   6.713  13.986  1.00  0.00     0.059 A 
ATOM     94  F   UNL     1       6.663   5.441  12.386  1.00  0.00    -0.206 F 
ATOM     95  C   UNL     1       8.287   6.853  15.289  1.00  0.00     0.060 A 
BRANCH  95  96
ATOM     96  S   UNL     1       9.204   8.329  15.776  1.00  0.00     0.124 S 
ATOM     97  O   UNL     1       8.269   8.969  16.696  1.00  0.00    -0.237 OA
ATOM     98  O   UNL     1      10.403   7.761  16.384  1.00  0.00    -0.237 OA
ATOM     99  O   UNL     1       9.419   9.030  14.514  1.00  0.00    -0.744 OA
ENDBRANCH  95  96
ENDBRANCH  63  88
ENDBRANCH  37  38
ENDBRANCH  29  32
ENDBRANCH  27  28
ENDBRANCH  26  27
ENDBRANCH  25  26
ENDBRANCH   1  25
TORSDOF 21
