REMARK SMILES Cc1ccc(C)c(Oc2cccc(F)c2C(=O)NCCCCCCNC(=O)c2ccc(-c3c4nc(c(-c5c(F)cc(S(=O)(=O)[O-])cc5F)c5ccc([nH]5)c(-c5c(F)cc(S(=O)(=O)[O-])cc5F)c5nc(c(-c6c(F)cc(S(=O)(=O)[O-])cc6F)c6ccc3[nH]6)C=C5)C=C4)cc2)c1
REMARK SMILES IDX 22 1 21 2 20 3 19 4 18 5 16 6 17 7 15 9 9 10 10 11 11 12
REMARK SMILES IDX 13 13 12 14 14 15 8 16 7 17 1 18 2 19 3 20 94 21 4 22 5 23
REMARK SMILES IDX 6 24 23 25 24 26 25 27 26 28 27 30 28 31 29 32 93 33 30 34
REMARK SMILES IDX 92 35 31 36 32 37 33 38 86 39 34 40 91 41 85 42 87 43 35 44
REMARK SMILES IDX 90 45 84 46 83 47 36 49 70 50 49 51 69 52 50 53 53 54 68 55
REMARK SMILES IDX 88 56 51 57 52 58 67 60 89 61 54 62 37 63 38 64 47 65 39 66
REMARK SMILES IDX 40 67 46 68 48 69 41 70 42 71 43 72 44 73 45 74 71 75 72 76
REMARK SMILES IDX 81 77 73 78 74 79 80 80 82 81 75 82 76 83 77 84 78 85 79 86
REMARK SMILES IDX 55 87 56 88 65 89 57 90 58 91 64 92 66 93 59 94 60 95 61 96
REMARK SMILES IDX 62 97 63 98
REMARK H PARENT 18 8 25 29 87 48 53 59
REMARK Flexibility Score: inf
ROOT
ATOM      1  C   UNL     1      -2.221   7.086   6.195  1.00  0.00     0.002 C 
ENDROOT
BRANCH   1   2
ATOM      2  C   UNL     1      -3.161   7.259   4.995  1.00  0.00     0.002 C 
BRANCH   2   3
ATOM      3  C   UNL     1      -2.584   7.550   3.607  1.00  0.00     0.021 C 
BRANCH   3   4
ATOM      4  C   UNL     1      -1.468   6.650   3.081  1.00  0.00     0.116 C 
BRANCH   4   5
ATOM      5  N   UNL     1      -1.765   5.229   3.056  1.00  0.00    -0.352 N 
ATOM      6  C   UNL     1      -1.275   4.210   2.260  1.00  0.00     0.258 C 
ATOM      7  O   UNL     1      -1.567   3.061   2.595  1.00  0.00    -0.269 OA
ATOM      8  H   UNL     1      -2.431   4.941   3.722  1.00  0.00     0.163 HD
BRANCH   6   9
ATOM      9  C   UNL     1      -0.483   4.451   1.018  1.00  0.00     0.118 A 
ATOM     10  C   UNL     1      -0.656   3.629  -0.112  1.00  0.00     0.143 A 
ATOM     11  C   UNL     1      -0.084   3.966  -1.351  1.00  0.00     0.048 A 
ATOM     12  C   UNL     1       0.779   5.053  -1.448  1.00  0.00     0.007 A 
ATOM     13  C   UNL     1       0.476   5.460   0.916  1.00  0.00     0.139 A 
ATOM     14  C   UNL     1       1.091   5.774  -0.300  1.00  0.00     0.040 A 
ATOM     15  F   UNL     1       0.895   6.133   1.998  1.00  0.00    -0.206 F 
BRANCH  10  16
ATOM     16  O   UNL     1      -1.374   2.454  -0.044  1.00  0.00    -0.456 OA
BRANCH  16  17
ATOM     17  C   UNL     1      -0.659   1.261  -0.018  1.00  0.00     0.130 A 
ATOM     18  C   UNL     1       2.909  -0.118   0.069  1.00  0.00     0.044 C 
ATOM     19  C   UNL     1       1.410  -0.052   0.038  1.00  0.00    -0.047 A 
ATOM     20  C   UNL     1       0.657  -1.226   0.013  1.00  0.00     0.004 A 
ATOM     21  C   UNL     1       0.746   1.183   0.034  1.00  0.00     0.050 A 
ATOM     22  C   UNL     1      -0.737  -1.164  -0.017  1.00  0.00     0.007 A 
ATOM     23  C   UNL     1      -1.408   0.072  -0.031  1.00  0.00    -0.008 A 
ATOM     24  C   UNL     1      -2.911   0.064  -0.047  1.00  0.00     0.048 C 
ENDBRANCH  16  17
ENDBRANCH  10  16
ENDBRANCH   6   9
ENDBRANCH   4   5
ENDBRANCH   3   4
ENDBRANCH   2   3
ENDBRANCH   1   2
BRANCH   1  25
ATOM     25  C   UNL     1      -1.095   8.088   6.481  1.00  0.00     0.021 C 
BRANCH  25  26
ATOM     26  C   UNL     1      -1.438   9.566   6.649  1.00  0.00     0.116 C 
BRANCH  26  27
ATOM     27  N   UNL     1      -2.464   9.854   7.662  1.00  0.00    -0.352 N 
ATOM     28  C   UNL     1      -3.468  10.820   7.759  1.00  0.00     0.251 C 
ATOM     29  H   UNL     1      -2.438   9.239   8.430  1.00  0.00     0.163 HD
ATOM     30  O   UNL     1      -3.964  11.058   8.842  1.00  0.00    -0.269 OA
BRANCH  28  31
ATOM     31  C   UNL     1      -3.942  11.556   6.560  1.00  0.00     0.039 A 
ATOM     32  C   UNL     1      -4.885  12.586   6.571  1.00  0.00     0.014 A 
ATOM     33  C   UNL     1      -3.498  11.134   5.335  1.00  0.00     0.014 A 
ATOM     34  C   UNL     1      -5.412  13.017   5.340  1.00  0.00     0.010 A 
ATOM     35  C   UNL     1      -3.605  11.937   4.254  1.00  0.00     0.010 A 
ATOM     36  C   UNL     1      -4.798  12.591   4.162  1.00  0.00    -0.014 A 
BRANCH  36  37
ATOM     37  C   UNL     1      -5.273  12.823   2.812  1.00  0.00     0.031 A 
ATOM     38  C   UNL     1      -4.981  14.169   2.293  1.00  0.00     0.074 A 
ATOM     39  C   UNL     1      -5.589  11.826   1.951  1.00  0.00     0.049 A 
ATOM     40  N   UNL     1      -5.811  15.139   2.126  1.00  0.00    -0.248 NA
ATOM     41  C   UNL     1      -3.570  14.530   2.086  1.00  0.00     0.031 C 
ATOM     42  C   UNL     1      -5.477  10.372   2.123  1.00  0.00     0.029 A 
ATOM     43  N   UNL     1      -5.984  11.939   0.654  1.00  0.00    -0.354 N 
ATOM     44  C   UNL     1      -5.056  16.175   1.598  1.00  0.00     0.074 A 
ATOM     45  C   UNL     1      -3.675  15.832   1.824  1.00  0.00     0.031 C 
ATOM     46  C   UNL     1      -5.608   9.764   0.919  1.00  0.00     0.029 A 
ATOM     47  C   UNL     1      -5.936  10.764  -0.084  1.00  0.00     0.049 A 
ATOM     48  H   UNL     1      -6.283  12.793   0.266  1.00  0.00     0.167 HD
ATOM     49  C   UNL     1      -5.598  17.127   0.793  1.00  0.00     0.037 A 
ATOM     50  C   UNL     1      -6.082  10.667  -1.432  1.00  0.00     0.037 A 
ATOM     51  C   UNL     1      -7.036  17.047   0.761  1.00  0.00     0.049 A 
ATOM     52  C   UNL     1      -6.767  11.918  -1.881  1.00  0.00     0.074 A 
ATOM     53  C   UNL     1      -8.018  17.084   1.734  1.00  0.00     0.029 A 
ATOM     54  N   UNL     1      -7.623  16.451  -0.334  1.00  0.00    -0.354 N 
ATOM     55  N   UNL     1      -7.989  12.249  -1.553  1.00  0.00    -0.248 NA
ATOM     56  C   UNL     1      -5.929  13.023  -2.326  1.00  0.00     0.031 C 
ATOM     57  C   UNL     1      -8.950  16.072   1.356  1.00  0.00     0.029 A 
ATOM     58  C   UNL     1      -8.521  15.526   0.144  1.00  0.00     0.049 A 
ATOM     59  H   UNL     1      -7.435  16.650  -1.279  1.00  0.00     0.167 HD
ATOM     60  C   UNL     1      -7.952  13.624  -1.353  1.00  0.00     0.074 A 
ATOM     61  C   UNL     1      -6.681  14.054  -1.932  1.00  0.00     0.031 C 
ATOM     62  C   UNL     1      -8.807  14.252  -0.490  1.00  0.00     0.037 A 
BRANCH  49  63
ATOM     63  C   UNL     1      -4.796  17.925  -0.189  1.00  0.00     0.058 A 
ATOM     64  C   UNL     1      -3.650  17.424  -0.845  1.00  0.00     0.135 A 
ATOM     65  C   UNL     1      -5.276  19.165  -0.642  1.00  0.00     0.135 A 
ATOM     66  F   UNL     1      -3.188  16.187  -0.616  1.00  0.00    -0.206 F 
ATOM     67  C   UNL     1      -2.977  18.136  -1.826  1.00  0.00     0.059 A 
ATOM     68  C   UNL     1      -4.655  19.866  -1.676  1.00  0.00     0.059 A 
ATOM     69  F   UNL     1      -6.390  19.697  -0.116  1.00  0.00    -0.206 F 
ATOM     70  C   UNL     1      -3.498  19.348  -2.252  1.00  0.00     0.060 A 
BRANCH  70  71
ATOM     71  S   UNL     1      -2.695  20.163  -3.642  1.00  0.00     0.124 S 
ATOM     72  O   UNL     1      -1.468  20.652  -3.023  1.00  0.00    -0.237 OA
ATOM     73  O   UNL     1      -2.537  19.062  -4.588  1.00  0.00    -0.237 OA
ATOM     74  O   UNL     1      -3.659  21.187  -4.032  1.00  0.00    -0.744 OA
ENDBRANCH  70  71
ENDBRANCH  49  63
BRANCH  50  75
ATOM     75  C   UNL     1      -5.354   9.764  -2.372  1.00  0.00     0.058 A 
ATOM     76  C   UNL     1      -4.125   9.161  -2.030  1.00  0.00     0.135 A 
ATOM     77  C   UNL     1      -5.710   9.694  -3.734  1.00  0.00     0.135 A 
ATOM     78  F   UNL     1      -3.650   9.202  -0.777  1.00  0.00    -0.206 F 
ATOM     79  C   UNL     1      -3.283   8.578  -2.974  1.00  0.00     0.059 A 
ATOM     80  C   UNL     1      -4.873   9.126  -4.704  1.00  0.00     0.059 A 
ATOM     81  F   UNL     1      -6.855  10.250  -4.159  1.00  0.00    -0.206 F 
ATOM     82  C   UNL     1      -3.645   8.598  -4.316  1.00  0.00     0.060 A 
BRANCH  82  83
ATOM     83  S   UNL     1      -2.430   8.020  -5.522  1.00  0.00     0.124 S 
ATOM     84  O   UNL     1      -1.333   8.960  -5.311  1.00  0.00    -0.237 OA
ATOM     85  O   UNL     1      -2.177   6.654  -5.072  1.00  0.00    -0.237 OA
ATOM     86  O   UNL     1      -3.127   8.142  -6.797  1.00  0.00    -0.744 OA
ENDBRANCH  82  83
ENDBRANCH  50  75
BRANCH  62  87
ATOM     87  C   UNL     1      -9.995  13.489   0.054  1.00  0.00     0.058 A 
ATOM     88  C   UNL     1     -11.270  14.065  -0.069  1.00  0.00     0.135 A 
ATOM     89  C   UNL     1      -9.898  12.330   0.847  1.00  0.00     0.135 A 
ATOM     90  F   UNL     1     -11.430  15.202  -0.768  1.00  0.00    -0.206 F 
ATOM     91  C   UNL     1     -12.388  13.535   0.570  1.00  0.00     0.059 A 
ATOM     92  C   UNL     1     -11.012  11.759   1.468  1.00  0.00     0.059 A 
ATOM     93  F   UNL     1      -8.711  11.766   1.103  1.00  0.00    -0.206 F 
ATOM     94  C   UNL     1     -12.251  12.381   1.340  1.00  0.00     0.060 A 
BRANCH  94  95
ATOM     95  S   UNL     1     -13.706  11.741   2.194  1.00  0.00     0.124 S 
ATOM     96  O   UNL     1     -13.952  12.778   3.192  1.00  0.00    -0.237 OA
ATOM     97  O   UNL     1     -14.689  11.659   1.117  1.00  0.00    -0.237 OA
ATOM     98  O   UNL     1     -13.262  10.456   2.727  1.00  0.00    -0.744 OA
ENDBRANCH  94  95
ENDBRANCH  62  87
ENDBRANCH  36  37
ENDBRANCH  28  31
ENDBRANCH  26  27
ENDBRANCH  25  26
ENDBRANCH   1  25
TORSDOF 18
