REMARK SMILES Cc1nc(SCc2ccccc2)[nH]c(=O)c1CCC(=O)NCCCCCCNC(=O)c1ccc(-c2c3nc(c(-c4c(F)cc(S(=O)(=O)[O-])cc4F)c4ccc([nH]4)c(-c4c(F)cc(S(=O)(=O)[O-])cc4F)c4nc(c(-c5c(F)cc(S(=O)(=O)[O-])cc5F)c5ccc2[nH]5)C=C4)C=C3)cc1
REMARK SMILES IDX 23 1 22 2 21 3 19 4 20 5 18 7 17 8 16 9 1 10 2 11 3 12 4 13
REMARK SMILES IDX 14 14 13 15 15 16 5 18 6 19 7 20 8 21 12 22 9 23 11 24 10 25
REMARK SMILES IDX 24 26 25 27 26 28 27 29 28 30 29 31 30 33 31 34 32 35 96 36
REMARK SMILES IDX 33 37 95 38 34 39 35 40 36 41 89 42 37 43 94 44 88 45 90 46
REMARK SMILES IDX 38 47 93 48 87 49 86 50 39 52 73 53 52 54 72 55 53 56 56 57
REMARK SMILES IDX 71 58 91 59 54 60 55 61 70 63 92 64 57 65 40 66 41 67 50 68
REMARK SMILES IDX 42 69 43 70 49 71 51 72 44 73 45 74 46 75 47 76 48 77 74 78
REMARK SMILES IDX 75 79 84 80 76 81 77 82 83 83 85 84 78 85 79 86 80 87 81 88
REMARK SMILES IDX 82 89 58 90 59 91 68 92 60 93 61 94 67 95 69 96 62 97 63 98
REMARK SMILES IDX 64 99 65 100 66 101
REMARK H PARENT 21 6 13 17 28 32 90 51 56 62
REMARK Flexibility Score: inf
ROOT
ATOM      1  C   UNL     1       3.005   0.736  -0.305  1.00  0.00     0.021 C 
ENDROOT
BRANCH   1   2
ATOM      2  C   UNL     1       2.420  -0.098  -1.454  1.00  0.00     0.116 C 
BRANCH   2   3
ATOM      3  N   UNL     1       2.749  -1.507  -1.291  1.00  0.00    -0.356 N 
ATOM      4  C   UNL     1       1.965  -2.607  -1.119  1.00  0.00     0.220 C 
ATOM      5  O   UNL     1       2.520  -3.684  -0.886  1.00  0.00    -0.275 OA
ATOM      6  H   UNL     1       3.715  -1.699  -1.309  1.00  0.00     0.163 HD
BRANCH   4   7
ATOM      7  C   UNL     1       0.456  -2.542  -1.278  1.00  0.00     0.105 C 
BRANCH   7   8
ATOM      8  C   UNL     1      -0.319  -2.694   0.046  1.00  0.00     0.053 C 
BRANCH   8   9
ATOM      9  C   UNL     1      -0.819  -1.369   0.567  1.00  0.00     0.039 A 
ATOM     10  C   UNL     1      -3.249  -1.671   0.037  1.00  0.00     0.067 C 
ATOM     11  C   UNL     1      -2.074  -0.866   0.533  1.00  0.00     0.049 A 
ATOM     12  N   UNL     1      -2.372   0.466   0.788  1.00  0.00    -0.229 NA
ATOM     13  C   UNL     1      -1.378   1.252   1.017  1.00  0.00     0.168 A 
ATOM     14  C   UNL     1       0.197  -0.502   1.197  1.00  0.00     0.254 A 
ATOM     15  N   UNL     1      -0.123   0.809   1.260  1.00  0.00    -0.301 N 
ATOM     16  O   UNL     1       1.277  -0.935   1.589  1.00  0.00    -0.269 OA
ATOM     17  H   UNL     1       0.578   1.461   1.490  1.00  0.00     0.172 HD
BRANCH  13  18
ATOM     18  S   UNL     1      -1.382   2.980   1.018  1.00  0.00    -0.083 SA
BRANCH  18  19
ATOM     19  C   UNL     1      -2.897   3.499   0.206  1.00  0.00     0.113 C 
BRANCH  19  20
ATOM     20  C   UNL     1      -3.154   3.223  -1.263  1.00  0.00    -0.038 A 
ATOM     21  C   UNL     1      -3.837   4.202  -2.011  1.00  0.00     0.004 A 
ATOM     22  C   UNL     1      -2.954   1.981  -1.877  1.00  0.00     0.004 A 
ATOM     23  C   UNL     1      -4.351   3.922  -3.281  1.00  0.00     0.000 A 
ATOM     24  C   UNL     1      -3.484   1.689  -3.137  1.00  0.00     0.000 A 
ATOM     25  C   UNL     1      -4.198   2.655  -3.833  1.00  0.00     0.000 A 
ENDBRANCH  19  20
ENDBRANCH  18  19
ENDBRANCH  13  18
ENDBRANCH   8   9
ENDBRANCH   7   8
ENDBRANCH   4   7
ENDBRANCH   2   3
ENDBRANCH   1   2
BRANCH   1  26
ATOM     26  C   UNL     1       4.004   1.830  -0.680  1.00  0.00     0.002 C 
BRANCH  26  27
ATOM     27  C   UNL     1       3.543   2.852  -1.721  1.00  0.00     0.002 C 
BRANCH  27  28
ATOM     28  C   UNL     1       2.179   3.511  -1.490  1.00  0.00     0.021 C 
BRANCH  28  29
ATOM     29  C   UNL     1       1.989   4.247  -0.164  1.00  0.00     0.116 C 
BRANCH  29  30
ATOM     30  N   UNL     1       3.011   5.245   0.090  1.00  0.00    -0.352 N 
ATOM     31  C   UNL     1       2.920   6.608   0.227  1.00  0.00     0.251 C 
ATOM     32  H   UNL     1       3.922   4.884   0.179  1.00  0.00     0.163 HD
ATOM     33  O   UNL     1       3.955   7.269   0.279  1.00  0.00    -0.269 OA
BRANCH  31  34
ATOM     34  C   UNL     1       1.609   7.296   0.293  1.00  0.00     0.039 A 
ATOM     35  C   UNL     1       1.459   8.501  -0.402  1.00  0.00     0.014 A 
ATOM     36  C   UNL     1       0.556   6.816   1.077  1.00  0.00     0.014 A 
ATOM     37  C   UNL     1       0.244   9.192  -0.354  1.00  0.00     0.010 A 
ATOM     38  C   UNL     1      -0.677   7.474   1.073  1.00  0.00     0.010 A 
ATOM     39  C   UNL     1      -0.846   8.671   0.361  1.00  0.00    -0.014 A 
BRANCH  39  40
ATOM     40  C   UNL     1      -2.162   9.369   0.356  1.00  0.00     0.031 A 
ATOM     41  C   UNL     1      -2.730   9.950   1.623  1.00  0.00     0.074 A 
ATOM     42  C   UNL     1      -2.866   9.450  -0.790  1.00  0.00     0.049 A 
ATOM     43  N   UNL     1      -3.869  10.569   1.810  1.00  0.00    -0.248 NA
ATOM     44  C   UNL     1      -1.925   9.797   2.844  1.00  0.00     0.031 C 
ATOM     45  C   UNL     1      -2.444   8.898  -2.079  1.00  0.00     0.029 A 
ATOM     46  N   UNL     1      -4.084  10.024  -1.059  1.00  0.00    -0.354 N 
ATOM     47  C   UNL     1      -3.920  10.875   3.165  1.00  0.00     0.074 A 
ATOM     48  C   UNL     1      -2.722  10.323   3.763  1.00  0.00     0.031 C 
ATOM     49  C   UNL     1      -3.374   9.181  -3.004  1.00  0.00     0.029 A 
ATOM     50  C   UNL     1      -4.478   9.897  -2.370  1.00  0.00     0.049 A 
ATOM     51  H   UNL     1      -4.625  10.483  -0.377  1.00  0.00     0.167 HD
ATOM     52  C   UNL     1      -4.866  11.567   3.847  1.00  0.00     0.037 A 
ATOM     53  C   UNL     1      -5.602  10.301  -2.994  1.00  0.00     0.037 A 
ATOM     54  C   UNL     1      -6.054  12.121   3.246  1.00  0.00     0.049 A 
ATOM     55  C   UNL     1      -6.649  11.052  -2.216  1.00  0.00     0.074 A 
ATOM     56  C   UNL     1      -7.047  12.878   3.843  1.00  0.00     0.029 A 
ATOM     57  N   UNL     1      -6.417  11.970   1.915  1.00  0.00    -0.354 N 
ATOM     58  N   UNL     1      -6.651  11.385  -0.948  1.00  0.00    -0.248 NA
ATOM     59  C   UNL     1      -7.843  11.488  -2.954  1.00  0.00     0.031 C 
ATOM     60  C   UNL     1      -8.037  13.136   2.889  1.00  0.00     0.029 A 
ATOM     61  C   UNL     1      -7.632  12.595   1.679  1.00  0.00     0.049 A 
ATOM     62  H   UNL     1      -5.888  11.491   1.237  1.00  0.00     0.167 HD
ATOM     63  C   UNL     1      -7.831  12.091  -0.741  1.00  0.00     0.074 A 
ATOM     64  C   UNL     1      -8.512  12.148  -2.018  1.00  0.00     0.031 C 
ATOM     65  C   UNL     1      -8.305  12.645   0.403  1.00  0.00     0.037 A 
BRANCH  52  66
ATOM     66  C   UNL     1      -4.660  11.755   5.328  1.00  0.00     0.058 A 
ATOM     67  C   UNL     1      -3.635  12.571   5.836  1.00  0.00     0.135 A 
ATOM     68  C   UNL     1      -5.513  11.131   6.253  1.00  0.00     0.135 A 
ATOM     69  F   UNL     1      -2.784  13.186   5.000  1.00  0.00    -0.206 F 
ATOM     70  C   UNL     1      -3.437  12.725   7.204  1.00  0.00     0.059 A 
ATOM     71  C   UNL     1      -5.354  11.297   7.626  1.00  0.00     0.059 A 
ATOM     72  F   UNL     1      -6.514  10.344   5.826  1.00  0.00    -0.206 F 
ATOM     73  C   UNL     1      -4.299  12.080   8.092  1.00  0.00     0.060 A 
BRANCH  73  74
ATOM     74  S   UNL     1      -4.014  12.274   9.864  1.00  0.00     0.124 S 
ATOM     75  O   UNL     1      -2.809  11.473  10.053  1.00  0.00    -0.237 OA
ATOM     76  O   UNL     1      -3.843  13.717   9.996  1.00  0.00    -0.237 OA
ATOM     77  O   UNL     1      -5.228  11.731  10.466  1.00  0.00    -0.744 OA
ENDBRANCH  73  74
ENDBRANCH  52  66
BRANCH  53  78
ATOM     78  C   UNL     1      -5.782  10.014  -4.443  1.00  0.00     0.058 A 
ATOM     79  C   UNL     1      -5.738  11.041  -5.397  1.00  0.00     0.135 A 
ATOM     80  C   UNL     1      -5.967   8.700  -4.906  1.00  0.00     0.135 A 
ATOM     81  F   UNL     1      -5.572  12.314  -5.005  1.00  0.00    -0.206 F 
ATOM     82  C   UNL     1      -5.878  10.781  -6.756  1.00  0.00     0.059 A 
ATOM     83  C   UNL     1      -6.082   8.412  -6.261  1.00  0.00     0.059 A 
ATOM     84  F   UNL     1      -5.998   7.678  -4.036  1.00  0.00    -0.206 F 
ATOM     85  C   UNL     1      -6.042   9.460  -7.179  1.00  0.00     0.060 A 
BRANCH  85  86
ATOM     86  S   UNL     1      -6.152   9.126  -8.950  1.00  0.00     0.124 S 
ATOM     87  O   UNL     1      -7.473   9.656  -9.269  1.00  0.00    -0.237 OA
ATOM     88  O   UNL     1      -5.017   9.878  -9.474  1.00  0.00    -0.237 OA
ATOM     89  O   UNL     1      -6.021   7.673  -9.025  1.00  0.00    -0.744 OA
ENDBRANCH  85  86
ENDBRANCH  53  78
BRANCH  65  90
ATOM     90  C   UNL     1      -9.612  13.390   0.328  1.00  0.00     0.058 A 
ATOM     91  C   UNL     1     -10.836  12.725   0.153  1.00  0.00     0.135 A 
ATOM     92  C   UNL     1      -9.645  14.785   0.488  1.00  0.00     0.135 A 
ATOM     93  F   UNL     1     -10.864  11.393  -0.012  1.00  0.00    -0.206 F 
ATOM     94  C   UNL     1     -12.042  13.418   0.114  1.00  0.00     0.059 A 
ATOM     95  C   UNL     1     -10.842  15.495   0.484  1.00  0.00     0.059 A 
ATOM     96  F   UNL     1      -8.505  15.472   0.668  1.00  0.00    -0.206 F 
ATOM     97  C   UNL     1     -12.035  14.804   0.284  1.00  0.00     0.060 A 
BRANCH  97  98
ATOM     98  S   UNL     1     -13.611  15.686   0.267  1.00  0.00     0.124 S 
ATOM     99  O   UNL     1     -13.969  15.621  -1.146  1.00  0.00    -0.237 OA
ATOM    100  O   UNL     1     -14.429  14.879   1.166  1.00  0.00    -0.237 OA
ATOM    101  O   UNL     1     -13.263  17.013   0.767  1.00  0.00    -0.744 OA
ENDBRANCH  97  98
ENDBRANCH  65  90
ENDBRANCH  39  40
ENDBRANCH  31  34
ENDBRANCH  29  30
ENDBRANCH  28  29
ENDBRANCH  27  28
ENDBRANCH  26  27
ENDBRANCH   1  26
TORSDOF 21
