REMARK SMILES CC(C)[C@H](NC(=O)OCc1ccccc1)C(=O)NCC(=O)NCCCCCCNC(=O)c1ccc(-c2c3nc(c(-c4c(F)cc(S(=O)(=O)[O-])cc4F)c4ccc([nH]4)c(-c4c(F)cc(S(=O)(=O)[O-])cc4F)c4nc(c(-c5c(F)cc(S(=O)(=O)[O-])cc5F)c5ccc2[nH]5)C=C4)C=C3)cc1
REMARK SMILES IDX 24 1 23 2 22 3 20 4 21 5 19 7 18 8 16 9 17 10 4 12 2 13 1 14
REMARK SMILES IDX 3 15 5 16 6 17 7 19 8 20 9 21 10 22 11 23 15 24 12 25 14 26
REMARK SMILES IDX 13 27 25 28 26 29 27 30 28 31 29 32 30 33 31 35 32 36 33 37
REMARK SMILES IDX 97 38 34 39 96 40 35 41 36 42 37 43 90 44 38 45 95 46 89 47
REMARK SMILES IDX 91 48 39 49 94 50 88 51 87 52 40 54 74 55 53 56 73 57 54 58
REMARK SMILES IDX 57 59 72 60 92 61 55 62 56 63 71 65 93 66 58 67 41 68 42 69
REMARK SMILES IDX 51 70 43 71 44 72 50 73 52 74 45 75 46 76 47 77 48 78 49 79
REMARK SMILES IDX 75 80 76 81 85 82 77 83 78 84 84 85 86 86 79 87 80 88 81 89
REMARK SMILES IDX 82 90 83 91 59 92 60 93 69 94 61 95 62 96 68 97 70 98 63 99
REMARK SMILES IDX 64 100 65 101 66 102 67 103
REMARK H PARENT 22 6 18 11 5 18 29 34 91 53 57 64
REMARK Flexibility Score: inf
ROOT
ATOM      1  C   UNL     1       1.863   5.096   0.512  1.00  0.00     0.021 C 
ENDROOT
BRANCH   1   2
ATOM      2  C   UNL     1       1.811   3.801   1.316  1.00  0.00     0.116 C 
BRANCH   2   3
ATOM      3  N   UNL     1       1.742   4.036   2.746  1.00  0.00    -0.355 N 
ATOM      4  C   UNL     1       0.912   3.476   3.675  1.00  0.00     0.239 C 
ATOM      5  O   UNL     1       1.185   3.637   4.867  1.00  0.00    -0.273 OA
ATOM      6  H   UNL     1       2.385   4.693   3.097  1.00  0.00     0.163 HD
BRANCH   4   7
ATOM      7  C   UNL     1      -0.243   2.553   3.255  1.00  0.00     0.216 C 
BRANCH   7   8
ATOM      8  N   UNL     1      -1.095   3.125   2.228  1.00  0.00    -0.345 N 
ATOM      9  C   UNL     1      -1.627   2.574   1.106  1.00  0.00     0.243 C 
ATOM     10  O   UNL     1      -2.252   3.335   0.359  1.00  0.00    -0.273 OA
ATOM     11  H   UNL     1      -1.327   4.072   2.369  1.00  0.00     0.164 HD
BRANCH   9  12
ATOM     12  C   UNL     1      -1.441   1.082   0.723  1.00  0.00     0.177 C 
BRANCH  12  13
ATOM     13  C   UNL     1      -2.099   0.079   1.692  1.00  0.00     0.015 C 
ATOM     14  C   UNL     1      -3.447   0.586   2.225  1.00  0.00     0.010 C 
ATOM     15  C   UNL     1      -2.339  -1.260   0.977  1.00  0.00     0.010 C 
ENDBRANCH  12  13
BRANCH  12  16
ATOM     16  N   UNL     1      -0.040   0.879   0.328  1.00  0.00    -0.309 N 
ATOM     17  C   UNL     1       1.004   0.240   0.916  1.00  0.00     0.408 C 
ATOM     18  H   UNL     1       0.188   1.290  -0.538  1.00  0.00     0.167 HD
ATOM     19  O   UNL     1       2.151   0.606   0.670  1.00  0.00    -0.225 OA
BRANCH  17  20
ATOM     20  O   UNL     1       0.665  -0.748   1.769  1.00  0.00    -0.445 OA
BRANCH  20  21
ATOM     21  C   UNL     1       1.746  -1.389   2.466  1.00  0.00     0.270 C 
BRANCH  21  22
ATOM     22  C   UNL     1       2.492  -2.408   1.636  1.00  0.00    -0.011 A 
ATOM     23  C   UNL     1       2.045  -3.732   1.534  1.00  0.00     0.007 A 
ATOM     24  C   UNL     1       3.659  -2.039   0.948  1.00  0.00     0.007 A 
ATOM     25  C   UNL     1       2.755  -4.664   0.770  1.00  0.00     0.000 A 
ATOM     26  C   UNL     1       4.359  -2.965   0.174  1.00  0.00     0.000 A 
ATOM     27  C   UNL     1       3.909  -4.279   0.088  1.00  0.00     0.000 A 
ENDBRANCH  21  22
ENDBRANCH  20  21
ENDBRANCH  17  20
ENDBRANCH  12  16
ENDBRANCH   9  12
ENDBRANCH   7   8
ENDBRANCH   4   7
ENDBRANCH   2   3
ENDBRANCH   1   2
BRANCH   1  28
ATOM     28  C   UNL     1       3.244   5.758   0.471  1.00  0.00     0.002 C 
BRANCH  28  29
ATOM     29  C   UNL     1       4.374   4.896  -0.104  1.00  0.00     0.002 C 
BRANCH  29  30
ATOM     30  C   UNL     1       4.107   4.272  -1.478  1.00  0.00     0.021 C 
BRANCH  30  31
ATOM     31  C   UNL     1       3.771   5.262  -2.591  1.00  0.00     0.116 C 
BRANCH  31  32
ATOM     32  N   UNL     1       4.844   6.212  -2.834  1.00  0.00    -0.352 N 
ATOM     33  C   UNL     1       5.427   6.582  -4.021  1.00  0.00     0.251 C 
ATOM     34  H   UNL     1       5.206   6.653  -2.032  1.00  0.00     0.163 HD
ATOM     35  O   UNL     1       6.430   7.289  -4.018  1.00  0.00    -0.269 OA
BRANCH  33  36
ATOM     36  C   UNL     1       4.857   6.109  -5.302  1.00  0.00     0.039 A 
ATOM     37  C   UNL     1       5.716   5.574  -6.267  1.00  0.00     0.014 A 
ATOM     38  C   UNL     1       3.486   6.205  -5.556  1.00  0.00     0.014 A 
ATOM     39  C   UNL     1       5.193   5.075  -7.462  1.00  0.00     0.010 A 
ATOM     40  C   UNL     1       2.961   5.664  -6.727  1.00  0.00     0.010 A 
ATOM     41  C   UNL     1       3.808   5.090  -7.688  1.00  0.00    -0.014 A 
BRANCH  41  42
ATOM     42  C   UNL     1       3.213   4.520  -8.923  1.00  0.00     0.031 A 
ATOM     43  C   UNL     1       2.533   5.426  -9.911  1.00  0.00     0.074 A 
ATOM     44  C   UNL     1       3.214   3.186  -9.114  1.00  0.00     0.049 A 
ATOM     45  N   UNL     1       1.815   5.117 -10.959  1.00  0.00    -0.248 NA
ATOM     46  C   UNL     1       2.659   6.873  -9.672  1.00  0.00     0.031 C 
ATOM     47  C   UNL     1       3.825   2.202  -8.219  1.00  0.00     0.029 A 
ATOM     48  N   UNL     1       2.662   2.426 -10.115  1.00  0.00    -0.354 N 
ATOM     49  C   UNL     1       1.387   6.325 -11.494  1.00  0.00     0.074 A 
ATOM     50  C   UNL     1       1.898   7.373 -10.636  1.00  0.00     0.031 C 
ATOM     51  C   UNL     1       3.617   0.970  -8.711  1.00  0.00     0.029 A 
ATOM     52  C   UNL     1       2.825   1.073  -9.933  1.00  0.00     0.049 A 
ATOM     53  H   UNL     1       2.194   2.813 -10.889  1.00  0.00     0.167 HD
ATOM     54  C   UNL     1       0.647   6.543 -12.608  1.00  0.00     0.037 A 
ATOM     55  C   UNL     1       2.370   0.033 -10.659  1.00  0.00     0.037 A 
ATOM     56  C   UNL     1       0.162   5.499 -13.471  1.00  0.00     0.049 A 
ATOM     57  C   UNL     1       1.544   0.299 -11.889  1.00  0.00     0.074 A 
ATOM     58  C   UNL     1      -0.582   5.617 -14.633  1.00  0.00     0.029 A 
ATOM     59  N   UNL     1       0.382   4.144 -13.273  1.00  0.00    -0.354 N 
ATOM     60  N   UNL     1       1.158   1.449 -12.387  1.00  0.00    -0.248 NA
ATOM     61  C   UNL     1       1.091  -0.871 -12.654  1.00  0.00     0.031 C 
ATOM     62  C   UNL     1      -0.827   4.331 -15.127  1.00  0.00     0.029 A 
ATOM     63  C   UNL     1      -0.211   3.415 -14.290  1.00  0.00     0.049 A 
ATOM     64  H   UNL     1       0.885   3.758 -12.520  1.00  0.00     0.167 HD
ATOM     65  C   UNL     1       0.440   1.142 -13.537  1.00  0.00     0.074 A 
ATOM     66  C   UNL     1       0.448  -0.300 -13.664  1.00  0.00     0.031 C 
ATOM     67  C   UNL     1      -0.170   1.980 -14.410  1.00  0.00     0.037 A 
BRANCH  54  68
ATOM     68  C   UNL     1       0.324   7.967 -12.956  1.00  0.00     0.058 A 
ATOM     69  C   UNL     1       1.300   8.832 -13.475  1.00  0.00     0.135 A 
ATOM     70  C   UNL     1      -0.977   8.469 -12.792  1.00  0.00     0.135 A 
ATOM     71  F   UNL     1       2.563   8.406 -13.635  1.00  0.00    -0.206 F 
ATOM     72  C   UNL     1       1.006  10.153 -13.792  1.00  0.00     0.059 A 
ATOM     73  C   UNL     1      -1.300   9.781 -13.125  1.00  0.00     0.059 A 
ATOM     74  F   UNL     1      -1.948   7.683 -12.299  1.00  0.00    -0.206 F 
ATOM     75  C   UNL     1      -0.297  10.620 -13.609  1.00  0.00     0.060 A 
BRANCH  75  76
ATOM     76  S   UNL     1      -0.666  12.339 -14.021  1.00  0.00     0.124 S 
ATOM     77  O   UNL     1      -0.101  13.040 -12.872  1.00  0.00    -0.237 OA
ATOM     78  O   UNL     1       0.042  12.521 -15.284  1.00  0.00    -0.237 OA
ATOM     79  O   UNL     1      -2.123  12.359 -14.115  1.00  0.00    -0.744 OA
ENDBRANCH  75  76
ENDBRANCH  54  68
BRANCH  55  80
ATOM     80  C   UNL     1       2.687  -1.359 -10.248  1.00  0.00     0.058 A 
ATOM     81  C   UNL     1       3.608  -2.129 -10.974  1.00  0.00     0.135 A 
ATOM     82  C   UNL     1       2.080  -1.946  -9.128  1.00  0.00     0.135 A 
ATOM     83  F   UNL     1       4.209  -1.611 -12.056  1.00  0.00    -0.206 F 
ATOM     84  C   UNL     1       3.901  -3.441 -10.617  1.00  0.00     0.059 A 
ATOM     85  C   UNL     1       2.373  -3.250  -8.738  1.00  0.00     0.059 A 
ATOM     86  F   UNL     1       1.205  -1.244  -8.392  1.00  0.00    -0.206 F 
ATOM     87  C   UNL     1       3.276  -3.994  -9.498  1.00  0.00     0.060 A 
BRANCH  87  88
ATOM     88  S   UNL     1       3.686  -5.686  -9.018  1.00  0.00     0.124 S 
ATOM     89  O   UNL     1       2.901  -6.459  -9.973  1.00  0.00    -0.237 OA
ATOM     90  O   UNL     1       5.134  -5.721  -9.206  1.00  0.00    -0.237 OA
ATOM     91  O   UNL     1       3.242  -5.756  -7.630  1.00  0.00    -0.744 OA
ENDBRANCH  87  88
ENDBRANCH  55  80
BRANCH  67  92
ATOM     92  C   UNL     1      -0.842   1.367 -15.604  1.00  0.00     0.058 A 
ATOM     93  C   UNL     1      -2.099   0.754 -15.505  1.00  0.00     0.135 A 
ATOM     94  C   UNL     1      -0.252   1.465 -16.875  1.00  0.00     0.135 A 
ATOM     95  F   UNL     1      -2.698   0.630 -14.310  1.00  0.00    -0.206 F 
ATOM     96  C   UNL     1      -2.749   0.250 -16.627  1.00  0.00     0.059 A 
ATOM     97  C   UNL     1      -0.892   0.985 -18.012  1.00  0.00     0.059 A 
ATOM     98  F   UNL     1       0.948   2.049 -17.020  1.00  0.00    -0.206 F 
ATOM     99  C   UNL     1      -2.139   0.374 -17.878  1.00  0.00     0.060 A 
BRANCH  99 100
ATOM    100  S   UNL     1      -3.018  -0.226 -19.336  1.00  0.00     0.124 S 
ATOM    101  O   UNL     1      -2.802  -1.666 -19.237  1.00  0.00    -0.237 OA
ATOM    102  O   UNL     1      -4.383   0.228 -19.091  1.00  0.00    -0.237 OA
ATOM    103  O   UNL     1      -2.333   0.439 -20.441  1.00  0.00    -0.744 OA
ENDBRANCH  99 100
ENDBRANCH  67  92
ENDBRANCH  41  42
ENDBRANCH  33  36
ENDBRANCH  31  32
ENDBRANCH  30  31
ENDBRANCH  29  30
ENDBRANCH  28  29
ENDBRANCH   1  28
TORSDOF 23
