REMARK SMILES O=C(Cc1c(C(=O)c2cc3c(cn2)CCCC3)[nH]c2cc(Cl)ccc12)NCCCCCCNC(=O)c1ccc(-c2c3nc(c(-c4c(F)cc(S(=O)(=O)[O-])cc4F)c4ccc([nH]4)c(-c4c(F)cc(S(=O)(=O)[O-])cc4F)c4nc(c(-c5c(F)cc(S(=O)(=O)[O-])cc5F)c5ccc2[nH]5)C=C4)C=C3)cc1
REMARK SMILES IDX 29 1 28 2 27 3 26 4 1 5 2 6 3 8 4 9 5 10 25 11 18 12 19 13
REMARK SMILES IDX 24 14 20 16 23 17 21 18 22 19 6 20 7 21 8 22 9 23 13 24
REMARK SMILES IDX 10 25 12 26 11 27 17 28 14 29 16 30 15 31 30 32 31 33 32 34
REMARK SMILES IDX 33 35 34 36 35 38 36 39 37 40 101 41 38 42 100 43 39 44
REMARK SMILES IDX 40 45 41 46 94 47 42 48 99 49 93 50 95 51 43 52 98 53 92 54
REMARK SMILES IDX 91 55 44 57 78 58 57 59 77 60 58 61 61 62 76 63 96 64 59 65
REMARK SMILES IDX 60 66 75 68 97 69 62 70 45 71 46 72 55 73 47 74 48 75 54 76
REMARK SMILES IDX 56 77 49 78 50 79 51 80 52 81 53 82 79 83 80 84 89 85 81 86
REMARK SMILES IDX 82 87 88 88 90 89 83 90 84 91 85 92 86 93 87 94 63 95 64 96
REMARK SMILES IDX 73 97 65 98 66 99 72 100 74 101 67 102 68 103 69 104 70 105
REMARK SMILES IDX 71 106
REMARK H PARENT 26 7 18 15 33 37 95 56 61 67
REMARK Flexibility Score: inf
ROOT
ATOM      1  C   UNL     1       4.070  -3.876   0.664  1.00  0.00     0.002 C 
ENDROOT
BRANCH   1   2
ATOM      2  C   UNL     1       2.559  -3.679   0.478  1.00  0.00     0.021 C 
BRANCH   2   3
ATOM      3  C   UNL     1       2.033  -2.298   0.864  1.00  0.00     0.116 C 
BRANCH   3   4
ATOM      4  N   UNL     1       2.653  -1.245   0.089  1.00  0.00    -0.356 N 
ATOM      5  O   UNL     1       1.225   0.400   0.803  1.00  0.00    -0.275 OA
ATOM      6  C   UNL     1       2.227   0.065   0.179  1.00  0.00     0.224 C 
ATOM      7  H   UNL     1       3.397  -1.468  -0.517  1.00  0.00     0.163 HD
BRANCH   6   8
ATOM      8  C   UNL     1       3.151   1.059  -0.518  1.00  0.00     0.138 C 
BRANCH   8   9
ATOM      9  C   UNL     1       3.885   1.889   0.498  1.00  0.00    -0.002 A 
ATOM     10  C   UNL     1       3.779   3.265   0.707  1.00  0.00     0.093 A 
ATOM     11  C   UNL     1       4.848   1.387   1.440  1.00  0.00     0.004 A 
ATOM     12  N   UNL     1       4.483   3.535   1.863  1.00  0.00    -0.351 N 
ATOM     13  C   UNL     1       5.191   2.438   2.284  1.00  0.00     0.048 A 
ATOM     14  C   UNL     1       5.444   0.128   1.667  1.00  0.00     0.012 A 
ATOM     15  H   UNL     1       4.477   4.404   2.327  1.00  0.00     0.167 HD
ATOM     16  C   UNL     1       6.084   2.295   3.355  1.00  0.00     0.047 A 
ATOM     17  C   UNL     1       6.347  -0.037   2.724  1.00  0.00     0.021 A 
ATOM     18  C   UNL     1       6.655   1.036   3.553  1.00  0.00     0.043 A 
ATOM     19  Cl  UNL     1       7.769   0.811   4.848  1.00  0.00    -0.084 Cl
BRANCH  10  20
ATOM     20  C   UNL     1       3.046   4.261  -0.073  1.00  0.00     0.227 C 
ATOM     21  O   UNL     1       2.346   3.993  -1.047  1.00  0.00    -0.285 OA
BRANCH  20  22
ATOM     22  C   UNL     1       3.234   5.701   0.260  1.00  0.00     0.113 A 
ATOM     23  C   UNL     1       4.503   6.267   0.180  1.00  0.00     0.036 A 
ATOM     24  N   UNL     1       2.125   6.386   0.621  1.00  0.00    -0.252 NA
ATOM     25  C   UNL     1       4.650   7.623   0.488  1.00  0.00    -0.041 A 
ATOM     26  C   UNL     1       2.289   7.695   0.902  1.00  0.00     0.115 A 
ATOM     27  C   UNL     1       3.515   8.355   0.868  1.00  0.00    -0.026 A 
ATOM     28  C   UNL     1       6.021   8.250   0.463  1.00  0.00     0.036 C 
ATOM     29  C   UNL     1       3.579   9.831   1.154  1.00  0.00     0.037 C 
ATOM     30  C   UNL     1       5.979   9.777   0.422  1.00  0.00     0.005 C 
ATOM     31  C   UNL     1       4.996  10.317   1.455  1.00  0.00     0.005 C 
ENDBRANCH  20  22
ENDBRANCH  10  20
ENDBRANCH   8   9
ENDBRANCH   6   8
ENDBRANCH   3   4
ENDBRANCH   2   3
ENDBRANCH   1   2
BRANCH   1  32
ATOM     32  C   UNL     1       4.589  -3.741   2.098  1.00  0.00     0.002 C 
BRANCH  32  33
ATOM     33  C   UNL     1       3.989  -4.713   3.114  1.00  0.00     0.021 C 
BRANCH  33  34
ATOM     34  C   UNL     1       4.073  -6.188   2.739  1.00  0.00     0.116 C 
BRANCH  34  35
ATOM     35  N   UNL     1       5.436  -6.688   2.625  1.00  0.00    -0.352 N 
ATOM     36  C   UNL     1       5.914  -7.937   2.958  1.00  0.00     0.251 C 
ATOM     37  H   UNL     1       6.099  -6.055   2.265  1.00  0.00     0.163 HD
ATOM     38  O   UNL     1       7.114  -8.184   2.889  1.00  0.00    -0.269 OA
BRANCH  36  39
ATOM     39  C   UNL     1       4.964  -8.961   3.449  1.00  0.00     0.039 A 
ATOM     40  C   UNL     1       3.776  -9.211   2.759  1.00  0.00     0.014 A 
ATOM     41  C   UNL     1       5.232  -9.621   4.652  1.00  0.00     0.014 A 
ATOM     42  C   UNL     1       2.784  -9.979   3.358  1.00  0.00     0.010 A 
ATOM     43  C   UNL     1       4.260 -10.455   5.215  1.00  0.00     0.010 A 
ATOM     44  C   UNL     1       3.005 -10.593   4.602  1.00  0.00    -0.014 A 
BRANCH  44  45
ATOM     45  C   UNL     1       1.892 -11.332   5.255  1.00  0.00     0.031 A 
ATOM     46  C   UNL     1       1.276 -10.820   6.533  1.00  0.00     0.074 A 
ATOM     47  C   UNL     1       1.379 -12.422   4.653  1.00  0.00     0.049 A 
ATOM     48  N   UNL     1       0.270 -11.306   7.215  1.00  0.00    -0.248 NA
ATOM     49  C   UNL     1       1.865  -9.607   7.124  1.00  0.00     0.031 C 
ATOM     50  C   UNL     1       1.877 -13.007   3.406  1.00  0.00     0.029 A 
ATOM     51  N   UNL     1       0.307 -13.211   4.985  1.00  0.00    -0.354 N 
ATOM     52  C   UNL     1       0.114 -10.472   8.317  1.00  0.00     0.074 A 
ATOM     53  C   UNL     1       1.149  -9.464   8.231  1.00  0.00     0.031 C 
ATOM     54  C   UNL     1       1.077 -14.023   3.048  1.00  0.00     0.029 A 
ATOM     55  C   UNL     1       0.043 -14.196   4.064  1.00  0.00     0.049 A 
ATOM     56  H   UNL     1      -0.223 -13.083   5.805  1.00  0.00     0.167 HD
ATOM     57  C   UNL     1      -0.814 -10.531   9.302  1.00  0.00     0.037 A 
ATOM     58  C   UNL     1      -0.920 -15.138   4.038  1.00  0.00     0.037 A 
ATOM     59  C   UNL     1      -1.863 -11.515   9.371  1.00  0.00     0.049 A 
ATOM     60  C   UNL     1      -1.916 -15.203   5.160  1.00  0.00     0.074 A 
ATOM     61  C   UNL     1      -2.864 -11.640  10.320  1.00  0.00     0.029 A 
ATOM     62  N   UNL     1      -2.052 -12.538   8.455  1.00  0.00    -0.354 N 
ATOM     63  N   UNL     1      -2.040 -14.409   6.196  1.00  0.00    -0.248 NA
ATOM     64  C   UNL     1      -2.891 -16.302   5.120  1.00  0.00     0.031 C 
ATOM     65  C   UNL     1      -3.638 -12.758   9.994  1.00  0.00     0.029 A 
ATOM     66  C   UNL     1      -3.140 -13.310   8.825  1.00  0.00     0.049 A 
ATOM     67  H   UNL     1      -1.494 -12.693   7.658  1.00  0.00     0.167 HD
ATOM     68  C   UNL     1      -3.107 -14.912   6.932  1.00  0.00     0.074 A 
ATOM     69  C   UNL     1      -3.607 -16.064   6.212  1.00  0.00     0.031 C 
ATOM     70  C   UNL     1      -3.619 -14.462   8.103  1.00  0.00     0.037 A 
BRANCH  57  71
ATOM     71  C   UNL     1      -0.741  -9.501  10.395  1.00  0.00     0.058 A 
ATOM     72  C   UNL     1      -1.152  -8.176  10.184  1.00  0.00     0.135 A 
ATOM     73  C   UNL     1      -0.304  -9.855  11.681  1.00  0.00     0.135 A 
ATOM     74  F   UNL     1      -1.563  -7.781   8.968  1.00  0.00    -0.206 F 
ATOM     75  C   UNL     1      -1.116  -7.233  11.206  1.00  0.00     0.059 A 
ATOM     76  C   UNL     1      -0.279  -8.934  12.724  1.00  0.00     0.059 A 
ATOM     77  F   UNL     1       0.100 -11.110  11.936  1.00  0.00    -0.206 F 
ATOM     78  C   UNL     1      -0.678  -7.621  12.474  1.00  0.00     0.060 A 
BRANCH  78  79
ATOM     79  S   UNL     1      -0.646  -6.387  13.791  1.00  0.00     0.124 S 
ATOM     80  O   UNL     1       0.499  -5.572  13.398  1.00  0.00    -0.237 OA
ATOM     81  O   UNL     1      -1.952  -5.751  13.656  1.00  0.00    -0.237 OA
ATOM     82  O   UNL     1      -0.462  -7.184  15.000  1.00  0.00    -0.744 OA
ENDBRANCH  78  79
ENDBRANCH  57  71
BRANCH  58  83
ATOM     83  C   UNL     1      -0.982 -16.093   2.903  1.00  0.00     0.058 A 
ATOM     84  C   UNL     1      -1.996 -16.000   1.939  1.00  0.00     0.135 A 
ATOM     85  C   UNL     1      -0.009 -17.091   2.740  1.00  0.00     0.135 A 
ATOM     86  F   UNL     1      -2.952 -15.066   2.059  1.00  0.00    -0.206 F 
ATOM     87  C   UNL     1      -2.043 -16.863   0.849  1.00  0.00     0.059 A 
ATOM     88  C   UNL     1      -0.023 -17.951   1.647  1.00  0.00     0.059 A 
ATOM     89  F   UNL     1       0.987 -17.211   3.631  1.00  0.00    -0.206 F 
ATOM     90  C   UNL     1      -1.048 -17.832   0.709  1.00  0.00     0.060 A 
BRANCH  90  91
ATOM     91  S   UNL     1      -1.076 -18.901  -0.746  1.00  0.00     0.124 S 
ATOM     92  O   UNL     1      -2.163 -19.816  -0.417  1.00  0.00    -0.237 OA
ATOM     93  O   UNL     1      -1.345 -17.950  -1.821  1.00  0.00    -0.237 OA
ATOM     94  O   UNL     1       0.262 -19.485  -0.758  1.00  0.00    -0.744 OA
ENDBRANCH  90  91
ENDBRANCH  58  83
BRANCH  70  95
ATOM     95  C   UNL     1      -4.774 -15.221   8.688  1.00  0.00     0.058 A 
ATOM     96  C   UNL     1      -4.579 -16.446   9.345  1.00  0.00     0.135 A 
ATOM     97  C   UNL     1      -6.073 -14.692   8.652  1.00  0.00     0.135 A 
ATOM     98  F   UNL     1      -3.356 -16.996   9.399  1.00  0.00    -0.206 F 
ATOM     99  C   UNL     1      -5.636 -17.126   9.940  1.00  0.00     0.059 A 
ATOM    100  C   UNL     1      -7.143 -15.346   9.256  1.00  0.00     0.059 A 
ATOM    101  F   UNL     1      -6.309 -13.521   8.041  1.00  0.00    -0.206 F 
ATOM    102  C   UNL     1      -6.914 -16.566   9.893  1.00  0.00     0.060 A 
BRANCH 102 103
ATOM    103  S   UNL     1      -8.268 -17.436  10.711  1.00  0.00     0.124 S 
ATOM    104  O   UNL     1      -8.509 -18.540   9.788  1.00  0.00    -0.237 OA
ATOM    105  O   UNL     1      -7.676 -17.800  11.995  1.00  0.00    -0.237 OA
ATOM    106  O   UNL     1      -9.326 -16.432  10.779  1.00  0.00    -0.744 OA
ENDBRANCH 102 103
ENDBRANCH  70  95
ENDBRANCH  44  45
ENDBRANCH  36  39
ENDBRANCH  34  35
ENDBRANCH  33  34
ENDBRANCH  32  33
ENDBRANCH   1  32
TORSDOF 19
