REMARK SMILES O=C(NCCCCCCNC(=O)c1cccc([C@@H]2CCC[N@@H+](Cc3cccc(OCCO)c3)C2)c1)c1ccc(-c2c3nc(c(-c4c(F)cc(S(=O)(=O)[O-])cc4F)c4ccc([nH]4)c(-c4c(F)cc(S(=O)(=O)[O-])cc4F)c4nc(c(-c5c(F)cc(S(=O)(=O)[O-])cc5F)c5ccc2[nH]5)C=C4)C=C3)cc1
REMARK SMILES IDX 8 1 7 2 6 3 5 4 4 5 3 6 1 7 2 8 36 10 37 11 101 12 38 13
REMARK SMILES IDX 100 14 39 15 40 16 41 17 94 18 42 19 99 20 93 21 95 22 43 23
REMARK SMILES IDX 98 24 92 25 91 26 44 28 78 29 57 30 77 31 58 32 61 33 76 34
REMARK SMILES IDX 96 35 59 36 60 37 75 39 97 40 62 41 45 42 46 43 55 44 47 45
REMARK SMILES IDX 48 46 54 47 56 48 49 49 50 50 51 51 52 52 53 53 79 54 80 55
REMARK SMILES IDX 89 56 81 57 82 58 88 59 90 60 83 61 84 62 85 63 86 64 87 65
REMARK SMILES IDX 63 66 64 67 73 68 65 69 66 70 72 71 74 72 67 73 68 74 69 75
REMARK SMILES IDX 70 76 71 77 9 78 10 79 11 80 12 82 13 83 14 84 35 85 15 86
REMARK SMILES IDX 17 87 16 88 18 89 19 90 34 91 20 92 22 93 21 94 23 96 24 97
REMARK SMILES IDX 25 98 33 99 26 100 28 101 27 102 29 103 30 104 31 105 32 106
REMARK H PARENT 3 9 95 27 61 38 10 81 22 95 32 107
REMARK Flexibility Score: inf
ROOT
ATOM      1  C   UNL     1       6.144  -4.128   2.289  1.00  0.00     0.021 C 
ENDROOT
BRANCH   1   2
ATOM      2  C   UNL     1       4.633  -3.877   2.427  1.00  0.00     0.002 C 
BRANCH   2   3
ATOM      3  C   UNL     1       4.195  -2.517   2.986  1.00  0.00     0.002 C 
BRANCH   3   4
ATOM      4  C   UNL     1       4.704  -1.277   2.249  1.00  0.00     0.021 C 
BRANCH   4   5
ATOM      5  C   UNL     1       4.340  -1.156   0.772  1.00  0.00     0.116 C 
BRANCH   5   6
ATOM      6  N   UNL     1       2.911  -1.014   0.547  1.00  0.00    -0.352 N 
ATOM      7  O   UNL     1       0.972  -0.044  -0.036  1.00  0.00    -0.269 OA
ATOM      8  C   UNL     1       2.204  -0.028  -0.095  1.00  0.00     0.251 C 
ATOM      9  H   UNL     1       2.361  -1.743   0.915  1.00  0.00     0.163 HD
BRANCH   8  10
ATOM     10  C   UNL     1       2.883   1.063  -0.836  1.00  0.00     0.039 A 
ATOM     11  C   UNL     1       3.992   0.825  -1.653  1.00  0.00     0.014 A 
ATOM     12  C   UNL     1       2.348   2.355  -0.762  1.00  0.00     0.014 A 
ATOM     13  C   UNL     1       4.631   1.887  -2.298  1.00  0.00     0.010 A 
ATOM     14  C   UNL     1       2.947   3.406  -1.464  1.00  0.00     0.010 A 
ATOM     15  C   UNL     1       4.109   3.186  -2.221  1.00  0.00    -0.014 A 
BRANCH  15  16
ATOM     16  C   UNL     1       4.738   4.307  -2.970  1.00  0.00     0.031 A 
ATOM     17  C   UNL     1       5.343   5.474  -2.240  1.00  0.00     0.074 A 
ATOM     18  C   UNL     1       4.720   4.294  -4.317  1.00  0.00     0.049 A 
ATOM     19  N   UNL     1       5.839   6.585  -2.723  1.00  0.00    -0.248 NA
ATOM     20  C   UNL     1       5.386   5.385  -0.773  1.00  0.00     0.031 C 
ATOM     21  C   UNL     1       4.159   3.222  -5.141  1.00  0.00     0.029 A 
ATOM     22  N   UNL     1       5.166   5.217  -5.232  1.00  0.00    -0.354 N 
ATOM     23  C   UNL     1       6.229   7.340  -1.623  1.00  0.00     0.074 A 
ATOM     24  C   UNL     1       5.891   6.567  -0.446  1.00  0.00     0.031 C 
ATOM     25  C   UNL     1       4.294   3.545  -6.435  1.00  0.00     0.029 A 
ATOM     26  C   UNL     1       4.894   4.872  -6.535  1.00  0.00     0.049 A 
ATOM     27  H   UNL     1       5.634   6.045  -4.979  1.00  0.00     0.167 HD
ATOM     28  C   UNL     1       6.815   8.562  -1.599  1.00  0.00     0.037 A 
ATOM     29  C   UNL     1       5.071   5.556  -7.682  1.00  0.00     0.037 A 
ATOM     30  C   UNL     1       7.146   9.322  -2.779  1.00  0.00     0.049 A 
ATOM     31  C   UNL     1       5.690   6.924  -7.634  1.00  0.00     0.074 A 
ATOM     32  C   UNL     1       7.773  10.553  -2.861  1.00  0.00     0.029 A 
ATOM     33  N   UNL     1       6.864   8.931  -4.081  1.00  0.00    -0.354 N 
ATOM     34  N   UNL     1       6.086   7.610  -6.588  1.00  0.00    -0.248 NA
ATOM     35  C   UNL     1       5.890   7.612  -8.917  1.00  0.00     0.031 C 
ATOM     36  C   UNL     1       7.821  10.931  -4.207  1.00  0.00     0.029 A 
ATOM     37  C   UNL     1       7.282   9.908  -4.971  1.00  0.00     0.049 A 
ATOM     38  H   UNL     1       6.429   8.085  -4.335  1.00  0.00     0.167 HD
ATOM     39  C   UNL     1       6.610   8.796  -7.087  1.00  0.00     0.074 A 
ATOM     40  C   UNL     1       6.478   8.738  -8.529  1.00  0.00     0.031 C 
ATOM     41  C   UNL     1       7.159   9.833  -6.408  1.00  0.00     0.037 A 
BRANCH  28  42
ATOM     42  C   UNL     1       7.100   9.169  -0.250  1.00  0.00     0.058 A 
ATOM     43  C   UNL     1       8.082   8.648   0.609  1.00  0.00     0.135 A 
ATOM     44  C   UNL     1       6.381  10.294   0.189  1.00  0.00     0.135 A 
ATOM     45  F   UNL     1       8.795   7.570   0.245  1.00  0.00    -0.206 F 
ATOM     46  C   UNL     1       8.302   9.184   1.874  1.00  0.00     0.059 A 
ATOM     47  C   UNL     1       6.606  10.866   1.438  1.00  0.00     0.059 A 
ATOM     48  F   UNL     1       5.438  10.841  -0.593  1.00  0.00    -0.206 F 
ATOM     49  C   UNL     1       7.550  10.287   2.284  1.00  0.00     0.060 A 
BRANCH  49  50
ATOM     50  S   UNL     1       7.811  10.937   3.948  1.00  0.00     0.124 S 
ATOM     51  O   UNL     1       7.167   9.911   4.762  1.00  0.00    -0.237 OA
ATOM     52  O   UNL     1       9.264  10.998   4.038  1.00  0.00    -0.237 OA
ATOM     53  O   UNL     1       7.131  12.231   3.918  1.00  0.00    -0.744 OA
ENDBRANCH  49  50
ENDBRANCH  28  42
BRANCH  29  54
ATOM     54  C   UNL     1       4.643   4.939  -8.964  1.00  0.00     0.058 A 
ATOM     55  C   UNL     1       5.583   4.450  -9.881  1.00  0.00     0.135 A 
ATOM     56  C   UNL     1       3.282   4.752  -9.258  1.00  0.00     0.135 A 
ATOM     57  F   UNL     1       6.894   4.612  -9.648  1.00  0.00    -0.206 F 
ATOM     58  C   UNL     1       5.191   3.786 -11.039  1.00  0.00     0.059 A 
ATOM     59  C   UNL     1       2.866   4.069 -10.396  1.00  0.00     0.059 A 
ATOM     60  F   UNL     1       2.344   5.188  -8.402  1.00  0.00    -0.206 F 
ATOM     61  C   UNL     1       3.830   3.589 -11.281  1.00  0.00     0.060 A 
BRANCH  61  62
ATOM     62  S   UNL     1       3.340   2.638 -12.736  1.00  0.00     0.124 S 
ATOM     63  O   UNL     1       3.637   3.575 -13.814  1.00  0.00    -0.237 OA
ATOM     64  O   UNL     1       4.212   1.471 -12.645  1.00  0.00    -0.237 OA
ATOM     65  O   UNL     1       1.923   2.372 -12.502  1.00  0.00    -0.744 OA
ENDBRANCH  61  62
ENDBRANCH  29  54
BRANCH  41  66
ATOM     66  C   UNL     1       7.716  10.980  -7.207  1.00  0.00     0.058 A 
ATOM     67  C   UNL     1       6.888  11.929  -7.824  1.00  0.00     0.135 A 
ATOM     68  C   UNL     1       9.105  11.181  -7.270  1.00  0.00     0.135 A 
ATOM     69  F   UNL     1       5.554  11.777  -7.803  1.00  0.00    -0.206 F 
ATOM     70  C   UNL     1       7.417  13.040  -8.474  1.00  0.00     0.059 A 
ATOM     71  C   UNL     1       9.655  12.296  -7.893  1.00  0.00     0.059 A 
ATOM     72  F   UNL     1       9.942  10.304  -6.692  1.00  0.00    -0.206 F 
ATOM     73  C   UNL     1       8.802  13.220  -8.494  1.00  0.00     0.060 A 
BRANCH  73  74
ATOM     74  S   UNL     1       9.472  14.707  -9.271  1.00  0.00     0.124 S 
ATOM     75  O   UNL     1       9.271  14.416 -10.686  1.00  0.00    -0.237 OA
ATOM     76  O   UNL     1       8.627  15.758  -8.713  1.00  0.00    -0.237 OA
ATOM     77  O   UNL     1      10.862  14.726  -8.826  1.00  0.00    -0.744 OA
ENDBRANCH  73  74
ENDBRANCH  41  66
ENDBRANCH  15  16
ENDBRANCH   8  10
ENDBRANCH   5   6
ENDBRANCH   4   5
ENDBRANCH   3   4
ENDBRANCH   2   3
ENDBRANCH   1   2
BRANCH   1  78
ATOM     78  C   UNL     1       6.966  -4.062   3.581  1.00  0.00     0.116 C 
BRANCH  78  79
ATOM     79  N   UNL     1       6.671  -5.117   4.538  1.00  0.00    -0.352 N 
ATOM     80  C   UNL     1       7.495  -5.701   5.473  1.00  0.00     0.251 C 
ATOM     81  H   UNL     1       5.750  -5.463   4.512  1.00  0.00     0.163 HD
ATOM     82  O   UNL     1       7.056  -6.576   6.223  1.00  0.00    -0.269 OA
BRANCH  80  83
ATOM     83  C   UNL     1       8.924  -5.332   5.565  1.00  0.00     0.040 A 
ATOM     84  C   UNL     1       9.885  -6.260   5.162  1.00  0.00     0.014 A 
ATOM     85  C   UNL     1       9.317  -4.074   6.032  1.00  0.00     0.018 A 
ATOM     86  C   UNL     1      11.236  -5.911   5.192  1.00  0.00     0.001 A 
ATOM     87  C   UNL     1      10.666  -3.665   5.954  1.00  0.00    -0.039 A 
ATOM     88  C   UNL     1      11.623  -4.621   5.574  1.00  0.00     0.004 A 
BRANCH  87  89
ATOM     89  C   UNL     1      11.066  -2.182   5.944  1.00  0.00     0.074 C 
ATOM     90  C   UNL     1      11.485  -1.485   7.245  1.00  0.00     0.020 C 
ATOM     91  C   UNL     1       9.992  -1.362   5.214  1.00  0.00     0.270 C 
ATOM     92  C   UNL     1      10.337  -0.827   8.019  1.00  0.00     0.062 C 
ATOM     93  N   UNL     1       8.883  -0.988   6.086  1.00  0.00    -0.331 N 
ATOM     94  C   UNL     1       9.328  -0.083   7.131  1.00  0.00     0.262 C 
ATOM     95  H   UNL     1       8.599  -1.854   6.545  1.00  0.00     0.348 HD
BRANCH  93  96
ATOM     96  C   UNL     1       7.605  -0.668   5.454  1.00  0.00     0.299 C 
BRANCH  96  97
ATOM     97  C   UNL     1       7.564   0.231   4.239  1.00  0.00     0.010 A 
ATOM     98  C   UNL     1       6.692   1.323   4.220  1.00  0.00     0.010 A 
ATOM     99  C   UNL     1       8.285  -0.050   3.062  1.00  0.00     0.056 A 
ATOM    100  C   UNL     1       6.604   2.138   3.091  1.00  0.00     0.004 A 
ATOM    101  C   UNL     1       8.286   0.810   1.968  1.00  0.00     0.119 A 
ATOM    102  C   UNL     1       7.418   1.897   1.982  1.00  0.00     0.046 A 
BRANCH 101 103
ATOM    103  O   UNL     1       9.079   0.690   0.862  1.00  0.00    -0.491 OA
BRANCH 103 104
ATOM    104  C   UNL     1      10.170  -0.242   0.858  1.00  0.00     0.257 C 
BRANCH 104 105
ATOM    105  C   UNL     1      11.457   0.340   1.452  1.00  0.00     0.197 C 
BRANCH 105 106
ATOM    106  O   UNL     1      11.361   0.567   2.852  1.00  0.00    -0.393 OA
ATOM    107  H   UNL     1      10.658   1.212   3.027  1.00  0.00     0.210 HD
ENDBRANCH 105 106
ENDBRANCH 104 105
ENDBRANCH 103 104
ENDBRANCH 101 103
ENDBRANCH  96  97
ENDBRANCH  93  96
ENDBRANCH  87  89
ENDBRANCH  80  83
ENDBRANCH  78  79
ENDBRANCH   1  78
TORSDOF 23
