REMARK SMILES COC(=O)c1ccc2c(c1)=N[C@H](c1cn(CCC(=O)NCCCCCCNC(=O)c3ccc(-c4c5nc(c(-c6c(F)cc(S(=O)(=O)[O-])cc6F)c6ccc([nH]6)c(-c6c(F)cc(S(=O)(=O)[O-])cc6F)c6nc(c(-c7c(F)cc(S(=O)(=O)[O-])cc7F)c7ccc4[nH]7)C=C6)C=C5)cc3)c3ccccc13)N=2
REMARK SMILES IDX 22 1 21 2 20 3 18 4 19 5 17 7 16 8 15 9 13 10 14 11 101 12
REMARK SMILES IDX 96 13 100 14 97 15 99 16 98 17 12 18 5 19 6 20 10 21 7 22
REMARK SMILES IDX 9 23 8 24 11 25 102 26 3 27 4 28 2 29 1 30 23 31 24 32 25 33
REMARK SMILES IDX 26 34 27 35 28 36 29 38 30 39 31 40 95 41 32 42 94 43 33 44
REMARK SMILES IDX 34 45 35 46 88 47 36 48 93 49 87 50 89 51 37 52 92 53 86 54
REMARK SMILES IDX 85 55 38 57 72 58 51 59 71 60 52 61 55 62 70 63 90 64 53 65
REMARK SMILES IDX 54 66 69 68 91 69 56 70 39 71 40 72 49 73 41 74 42 75 48 76
REMARK SMILES IDX 50 77 43 78 44 79 45 80 46 81 47 82 73 83 74 84 83 85 75 86
REMARK SMILES IDX 76 87 82 88 84 89 77 90 78 91 79 92 80 93 81 94 57 95 58 96
REMARK SMILES IDX 67 97 59 98 60 99 66 100 68 101 61 102 62 103 63 104 64 105
REMARK SMILES IDX 65 106
REMARK H PARENT 20 6 27 37 89 56 55 67
REMARK Flexibility Score: inf
ROOT
ATOM      1  C   UNL     1      -2.451   4.489 -10.013  1.00  0.00     0.021 C 
ENDROOT
BRANCH   1   2
ATOM      2  C   UNL     1      -1.764   5.429 -11.027  1.00  0.00     0.116 C 
BRANCH   2   3
ATOM      3  N   UNL     1      -1.766   6.846 -10.679  1.00  0.00    -0.356 N 
ATOM      4  C   UNL     1      -0.771   7.765 -10.522  1.00  0.00     0.221 C 
ATOM      5  O   UNL     1      -1.103   8.944 -10.361  1.00  0.00    -0.275 OA
ATOM      6  H   UNL     1      -2.667   7.212 -10.527  1.00  0.00     0.163 HD
BRANCH   4   7
ATOM      7  C   UNL     1       0.698   7.400 -10.615  1.00  0.00     0.122 C 
BRANCH   7   8
ATOM      8  C   UNL     1       1.528   7.974  -9.437  1.00  0.00     0.132 C 
BRANCH   8   9
ATOM      9  N   UNL     1       1.566   7.120  -8.236  1.00  0.00    -0.347 N 
ATOM     10  C   UNL     1       0.651   5.133  -7.905  1.00  0.00     0.024 A 
ATOM     11  C   UNL     1       1.809   5.771  -8.360  1.00  0.00     0.094 A 
ATOM     12  C   UNL     1      -0.266   6.214  -7.614  1.00  0.00     0.007 A 
ATOM     13  C   UNL     1       0.635   7.193  -7.221  1.00  0.00     0.048 A 
ATOM     14  C   UNL     1      -1.563   6.384  -7.125  1.00  0.00     0.011 A 
ATOM     15  C   UNL     1       0.555   7.723  -5.926  1.00  0.00     0.027 A 
ATOM     16  C   UNL     1      -1.765   7.033  -5.916  1.00  0.00     0.001 A 
ATOM     17  C   UNL     1      -0.666   7.551  -5.249  1.00  0.00     0.002 A 
BRANCH  10  18
ATOM     18  C   UNL     1       0.588   3.653  -7.660  1.00  0.00     0.255 C 
ATOM     19  C   UNL     1       0.843   1.695  -3.592  1.00  0.00     0.062 A 
ATOM     20  C   UNL     1      -0.531   1.362  -3.945  1.00  0.00     0.018 A 
ATOM     21  C   UNL     1       1.657   2.351  -4.439  1.00  0.00     0.046 A 
ATOM     22  C   UNL     1      -1.132   1.803  -5.059  1.00  0.00     0.031 A 
ATOM     23  C   UNL     1       1.101   2.776  -5.729  1.00  0.00     0.087 A 
ATOM     24  C   UNL     1      -0.337   2.600  -6.000  1.00  0.00     0.086 A 
ATOM     25  N   UNL     1       1.709   3.323  -6.719  1.00  0.00    -0.252 NA
ATOM     26  N   UNL     1      -0.696   3.162  -7.101  1.00  0.00    -0.252 NA
BRANCH  19  27
ATOM     27  C   UNL     1       1.395   1.367  -2.250  1.00  0.00     0.337 C 
ATOM     28  O   UNL     1       2.359   1.951  -1.737  1.00  0.00    -0.246 OA
BRANCH  27  29
ATOM     29  O   UNL     1       0.688   0.370  -1.674  1.00  0.00    -0.465 OA
ATOM     30  C   UNL     1       1.076   0.048  -0.338  1.00  0.00     0.282 C 
ENDBRANCH  27  29
ENDBRANCH  19  27
ENDBRANCH  10  18
ENDBRANCH   8   9
ENDBRANCH   7   8
ENDBRANCH   4   7
ENDBRANCH   2   3
ENDBRANCH   1   2
BRANCH   1  31
ATOM     31  C   UNL     1      -3.796   4.952  -9.422  1.00  0.00     0.002 C 
BRANCH  31  32
ATOM     32  C   UNL     1      -4.898   3.903  -9.295  1.00  0.00     0.002 C 
BRANCH  32  33
ATOM     33  C   UNL     1      -4.507   2.590  -8.621  1.00  0.00     0.021 C 
BRANCH  33  34
ATOM     34  C   UNL     1      -3.868   2.701  -7.237  1.00  0.00     0.116 C 
BRANCH  34  35
ATOM     35  N   UNL     1      -4.749   2.820  -6.082  1.00  0.00    -0.352 N 
ATOM     36  C   UNL     1      -5.580   1.940  -5.434  1.00  0.00     0.251 C 
ATOM     37  H   UNL     1      -4.748   3.720  -5.683  1.00  0.00     0.163 HD
ATOM     38  O   UNL     1      -6.029   2.264  -4.334  1.00  0.00    -0.269 OA
BRANCH  36  39
ATOM     39  C   UNL     1      -6.026   0.668  -6.045  1.00  0.00     0.039 A 
ATOM     40  C   UNL     1      -5.255  -0.055  -6.944  1.00  0.00     0.014 A 
ATOM     41  C   UNL     1      -7.322   0.219  -5.736  1.00  0.00     0.014 A 
ATOM     42  C   UNL     1      -5.839  -1.065  -7.684  1.00  0.00     0.010 A 
ATOM     43  C   UNL     1      -7.881  -0.863  -6.414  1.00  0.00     0.010 A 
ATOM     44  C   UNL     1      -7.161  -1.466  -7.438  1.00  0.00    -0.014 A 
BRANCH  44  45
ATOM     45  C   UNL     1      -7.637  -2.611  -8.219  1.00  0.00     0.031 A 
ATOM     46  C   UNL     1      -6.666  -3.738  -8.238  1.00  0.00     0.074 A 
ATOM     47  C   UNL     1      -8.815  -2.718  -8.866  1.00  0.00     0.049 A 
ATOM     48  N   UNL     1      -5.889  -4.075  -9.214  1.00  0.00    -0.248 NA
ATOM     49  C   UNL     1      -6.371  -4.427  -6.973  1.00  0.00     0.031 C 
ATOM     50  C   UNL     1      -9.989  -1.854  -8.740  1.00  0.00     0.029 A 
ATOM     51  N   UNL     1      -9.240  -3.691  -9.731  1.00  0.00    -0.354 N 
ATOM     52  C   UNL     1      -5.192  -5.193  -8.767  1.00  0.00     0.074 A 
ATOM     53  C   UNL     1      -5.375  -5.236  -7.341  1.00  0.00     0.031 C 
ATOM     54  C   UNL     1     -11.057  -2.470  -9.297  1.00  0.00     0.029 A 
ATOM     55  C   UNL     1     -10.609  -3.679  -9.968  1.00  0.00     0.049 A 
ATOM     56  H   UNL     1      -8.630  -4.342 -10.148  1.00  0.00     0.167 HD
ATOM     57  C   UNL     1      -4.791  -6.144  -9.654  1.00  0.00     0.037 A 
ATOM     58  C   UNL     1     -11.332  -4.605 -10.644  1.00  0.00     0.037 A 
ATOM     59  C   UNL     1      -4.853  -5.649 -11.006  1.00  0.00     0.049 A 
ATOM     60  C   UNL     1     -10.425  -5.281 -11.603  1.00  0.00     0.074 A 
ATOM     61  C   UNL     1      -4.091  -4.875 -11.851  1.00  0.00     0.029 A 
ATOM     62  N   UNL     1      -6.097  -5.755 -11.560  1.00  0.00    -0.354 N 
ATOM     63  N   UNL     1      -9.867  -4.679 -12.619  1.00  0.00    -0.248 NA
ATOM     64  C   UNL     1      -9.877  -6.594 -11.273  1.00  0.00     0.031 C 
ATOM     65  C   UNL     1      -4.964  -4.434 -12.892  1.00  0.00     0.029 A 
ATOM     66  C   UNL     1      -6.230  -4.968 -12.668  1.00  0.00     0.049 A 
ATOM     67  H   UNL     1      -6.812  -6.331 -11.204  1.00  0.00     0.167 HD
ATOM     68  C   UNL     1      -8.665  -5.335 -12.784  1.00  0.00     0.074 A 
ATOM     69  C   UNL     1      -8.798  -6.590 -12.058  1.00  0.00     0.031 C 
ATOM     70  C   UNL     1      -7.547  -4.668 -13.184  1.00  0.00     0.037 A 
BRANCH  57  71
ATOM     71  C   UNL     1      -4.888  -7.640  -9.401  1.00  0.00     0.058 A 
ATOM     72  C   UNL     1      -4.438  -8.524 -10.408  1.00  0.00     0.135 A 
ATOM     73  C   UNL     1      -5.703  -8.223  -8.406  1.00  0.00     0.135 A 
ATOM     74  F   UNL     1      -3.648  -8.085 -11.401  1.00  0.00    -0.206 F 
ATOM     75  C   UNL     1      -4.849  -9.857 -10.474  1.00  0.00     0.059 A 
ATOM     76  C   UNL     1      -6.085  -9.560  -8.428  1.00  0.00     0.059 A 
ATOM     77  F   UNL     1      -6.253  -7.513  -7.416  1.00  0.00    -0.206 F 
ATOM     78  C   UNL     1      -5.690 -10.358  -9.487  1.00  0.00     0.060 A 
BRANCH  78  79
ATOM     79  S   UNL     1      -6.306 -12.045  -9.619  1.00  0.00     0.124 S 
ATOM     80  O   UNL     1      -7.182 -11.945 -10.781  1.00  0.00    -0.237 OA
ATOM     81  O   UNL     1      -5.072 -12.800  -9.808  1.00  0.00    -0.237 OA
ATOM     82  O   UNL     1      -6.973 -12.257  -8.338  1.00  0.00    -0.744 OA
ENDBRANCH  78  79
ENDBRANCH  57  71
BRANCH  58  83
ATOM     83  C   UNL     1     -12.683  -5.139 -10.322  1.00  0.00     0.058 A 
ATOM     84  C   UNL     1     -13.372  -5.961 -11.234  1.00  0.00     0.135 A 
ATOM     85  C   UNL     1     -13.187  -5.112  -9.007  1.00  0.00     0.135 A 
ATOM     86  F   UNL     1     -12.960  -6.051 -12.508  1.00  0.00    -0.206 F 
ATOM     87  C   UNL     1     -14.444  -6.771 -10.847  1.00  0.00     0.059 A 
ATOM     88  C   UNL     1     -14.262  -5.902  -8.601  1.00  0.00     0.059 A 
ATOM     89  F   UNL     1     -12.587  -4.388  -8.051  1.00  0.00    -0.206 F 
ATOM     90  C   UNL     1     -14.864  -6.755  -9.518  1.00  0.00     0.060 A 
BRANCH  90  91
ATOM     91  S   UNL     1     -16.113  -7.944  -8.971  1.00  0.00     0.124 S 
ATOM     92  O   UNL     1     -17.304  -7.473  -9.670  1.00  0.00    -0.237 OA
ATOM     93  O   UNL     1     -15.558  -9.209  -9.437  1.00  0.00    -0.237 OA
ATOM     94  O   UNL     1     -16.132  -7.771  -7.520  1.00  0.00    -0.744 OA
ENDBRANCH  90  91
ENDBRANCH  58  83
BRANCH  70  95
ATOM     95  C   UNL     1      -7.700  -3.487 -14.084  1.00  0.00     0.058 A 
ATOM     96  C   UNL     1      -8.211  -2.238 -13.705  1.00  0.00     0.135 A 
ATOM     97  C   UNL     1      -7.173  -3.613 -15.380  1.00  0.00     0.135 A 
ATOM     98  F   UNL     1      -8.678  -2.030 -12.465  1.00  0.00    -0.206 F 
ATOM     99  C   UNL     1      -8.190  -1.153 -14.585  1.00  0.00     0.059 A 
ATOM    100  C   UNL     1      -7.118  -2.542 -16.261  1.00  0.00     0.059 A 
ATOM    101  F   UNL     1      -6.644  -4.781 -15.780  1.00  0.00    -0.206 F 
ATOM    102  C   UNL     1      -7.628  -1.312 -15.855  1.00  0.00     0.060 A 
BRANCH 102 103
ATOM    103  S   UNL     1      -7.481   0.121 -16.944  1.00  0.00     0.124 S 
ATOM    104  O   UNL     1      -8.872   0.388 -17.292  1.00  0.00    -0.237 OA
ATOM    105  O   UNL     1      -6.841   1.108 -16.079  1.00  0.00    -0.237 OA
ATOM    106  O   UNL     1      -6.647  -0.366 -18.041  1.00  0.00    -0.744 OA
ENDBRANCH 102 103
ENDBRANCH  70  95
ENDBRANCH  44  45
ENDBRANCH  36  39
ENDBRANCH  34  35
ENDBRANCH  33  34
ENDBRANCH  32  33
ENDBRANCH  31  32
ENDBRANCH   1  31
TORSDOF 21
