REMARK SMILES Cc1c(CC(=O)NCCCCCCNC(=O)c2ccc(-c3c4nc(c(-c5c(F)cc(S(=O)(=O)[O-])cc5F)c5ccc([nH]5)c(-c5c(F)cc(S(=O)(=O)[O-])cc5F)c5nc(c(-c6c(F)cc(S(=O)(=O)[O-])cc6F)c6ccc3[nH]6)C=C5)C=C4)cc2)cccc1-c1ccn(C(F)F)c(=O)c1
REMARK SMILES IDX 10 1 9 2 8 3 7 4 5 5 6 6 4 8 3 9 1 10 2 11 86 12 83 13 85 14
REMARK SMILES IDX 84 15 87 16 88 17 96 18 89 19 94 20 90 21 95 22 91 23 92 24
REMARK SMILES IDX 93 25 11 26 12 27 13 28 14 29 15 30 16 32 17 33 18 34 82 35
REMARK SMILES IDX 19 36 81 37 20 38 21 39 22 40 75 41 23 42 80 43 74 44 76 45
REMARK SMILES IDX 24 46 79 47 73 48 72 49 25 51 59 52 38 53 58 54 39 55 42 56
REMARK SMILES IDX 57 57 77 58 40 59 41 60 56 62 78 63 43 64 26 65 27 66 36 67
REMARK SMILES IDX 28 68 29 69 35 70 37 71 30 72 31 73 32 74 33 75 34 76 60 77
REMARK SMILES IDX 61 78 70 79 62 80 63 81 69 82 71 83 64 84 65 85 66 86 67 87
REMARK SMILES IDX 68 88 44 89 45 90 54 91 46 92 47 93 53 94 55 95 48 96 49 97
REMARK SMILES IDX 50 98 51 99 52 100
REMARK H PARENT 7 7 14 31 76 50 42 61
REMARK Flexibility Score: inf
ROOT
ATOM      1  C   UNL     1       0.323  -1.346   5.056  1.00  0.00     0.002 C 
ENDROOT
BRANCH   1   2
ATOM      2  C   UNL     1       0.578  -0.956   3.594  1.00  0.00     0.021 C 
BRANCH   2   3
ATOM      3  C   UNL     1       1.489  -1.911   2.821  1.00  0.00     0.116 C 
BRANCH   3   4
ATOM      4  N   UNL     1       0.785  -3.078   2.325  1.00  0.00    -0.356 N 
ATOM      5  C   UNL     1       0.485  -3.421   1.038  1.00  0.00     0.224 C 
ATOM      6  O   UNL     1      -0.111  -4.481   0.833  1.00  0.00    -0.275 OA
ATOM      7  H   UNL     1       0.480  -3.712   3.014  1.00  0.00     0.163 HD
BRANCH   5   8
ATOM      8  C   UNL     1       0.932  -2.541  -0.125  1.00  0.00     0.135 C 
BRANCH   8   9
ATOM      9  C   UNL     1       0.281  -1.169  -0.166  1.00  0.00    -0.035 A 
ATOM     10  C   UNL     1       2.526   0.010  -0.415  1.00  0.00     0.045 C 
ATOM     11  C   UNL     1       1.023   0.040  -0.239  1.00  0.00    -0.040 A 
ATOM     12  C   UNL     1       0.326   1.275  -0.187  1.00  0.00    -0.015 A 
ATOM     13  C   UNL     1      -1.125  -1.116  -0.120  1.00  0.00     0.004 A 
ATOM     14  C   UNL     1      -1.077   1.289  -0.125  1.00  0.00     0.009 A 
ATOM     15  C   UNL     1      -1.798   0.101  -0.102  1.00  0.00     0.001 A 
BRANCH  12  16
ATOM     16  C   UNL     1       1.032   2.574  -0.126  1.00  0.00    -0.011 A 
ATOM     17  C   UNL     1       1.761   3.142  -1.244  1.00  0.00     0.027 A 
ATOM     18  C   UNL     1       1.050   3.208   1.059  1.00  0.00     0.080 A 
ATOM     19  C   UNL     1       2.506   4.241  -1.076  1.00  0.00     0.095 A 
ATOM     20  C   UNL     1       1.848   4.449   1.252  1.00  0.00     0.255 A 
ATOM     21  N   UNL     1       2.569   4.879   0.150  1.00  0.00    -0.258 N 
ATOM     22  O   UNL     1       1.847   4.979   2.358  1.00  0.00    -0.269 OA
BRANCH  21  23
ATOM     23  C   UNL     1       3.407   6.035   0.333  1.00  0.00     0.451 C 
ATOM     24  F   UNL     1       2.680   7.124   0.676  1.00  0.00    -0.185 F 
ATOM     25  F   UNL     1       4.330   5.819   1.302  1.00  0.00    -0.185 F 
ENDBRANCH  21  23
ENDBRANCH  12  16
ENDBRANCH   8   9
ENDBRANCH   5   8
ENDBRANCH   3   4
ENDBRANCH   2   3
ENDBRANCH   1   2
BRANCH   1  26
ATOM     26  C   UNL     1       1.563  -1.621   5.923  1.00  0.00     0.002 C 
BRANCH  26  27
ATOM     27  C   UNL     1       2.692  -0.591   5.838  1.00  0.00     0.021 C 
BRANCH  27  28
ATOM     28  C   UNL     1       2.360   0.744   6.494  1.00  0.00     0.116 C 
BRANCH  28  29
ATOM     29  N   UNL     1       3.138   0.991   7.701  1.00  0.00    -0.352 N 
ATOM     30  C   UNL     1       3.269   2.176   8.398  1.00  0.00     0.251 C 
ATOM     31  H   UNL     1       3.630   0.219   8.063  1.00  0.00     0.163 HD
ATOM     32  O   UNL     1       4.150   2.365   9.231  1.00  0.00    -0.269 OA
BRANCH  30  33
ATOM     33  C   UNL     1       2.178   3.156   8.250  1.00  0.00     0.039 A 
ATOM     34  C   UNL     1       1.346   3.328   9.364  1.00  0.00     0.014 A 
ATOM     35  C   UNL     1       1.811   3.629   6.992  1.00  0.00     0.014 A 
ATOM     36  C   UNL     1       0.053   3.794   9.177  1.00  0.00     0.010 A 
ATOM     37  C   UNL     1       0.500   4.013   6.793  1.00  0.00     0.010 A 
ATOM     38  C   UNL     1      -0.389   4.037   7.876  1.00  0.00    -0.014 A 
BRANCH  38  39
ATOM     39  C   UNL     1      -1.795   4.240   7.560  1.00  0.00     0.031 A 
ATOM     40  C   UNL     1      -2.308   5.612   7.371  1.00  0.00     0.074 A 
ATOM     41  C   UNL     1      -2.616   3.173   7.466  1.00  0.00     0.049 A 
ATOM     42  N   UNL     1      -3.527   5.976   7.580  1.00  0.00    -0.248 NA
ATOM     43  C   UNL     1      -1.433   6.712   6.983  1.00  0.00     0.031 C 
ATOM     44  C   UNL     1      -3.987   3.152   6.970  1.00  0.00     0.029 A 
ATOM     45  N   UNL     1      -2.425   1.906   8.023  1.00  0.00    -0.354 N 
ATOM     46  C   UNL     1      -3.659   7.274   7.137  1.00  0.00     0.074 A 
ATOM     47  C   UNL     1      -2.315   7.703   6.826  1.00  0.00     0.031 C 
ATOM     48  C   UNL     1      -4.599   2.053   7.439  1.00  0.00     0.029 A 
ATOM     49  C   UNL     1      -3.688   1.405   8.370  1.00  0.00     0.049 A 
ATOM     50  H   UNL     1      -1.562   1.449   8.149  1.00  0.00     0.167 HD
ATOM     51  C   UNL     1      -4.904   7.804   6.953  1.00  0.00     0.037 A 
ATOM     52  C   UNL     1      -3.993   1.120   9.670  1.00  0.00     0.037 A 
ATOM     53  C   UNL     1      -5.939   6.860   7.367  1.00  0.00     0.049 A 
ATOM     54  C   UNL     1      -5.106   1.975  10.232  1.00  0.00     0.074 A 
ATOM     55  C   UNL     1      -6.657   5.909   6.658  1.00  0.00     0.029 A 
ATOM     56  N   UNL     1      -6.108   6.555   8.715  1.00  0.00    -0.354 N 
ATOM     57  N   UNL     1      -5.490   3.112   9.717  1.00  0.00    -0.248 NA
ATOM     58  C   UNL     1      -5.881   1.608  11.414  1.00  0.00     0.031 C 
ATOM     59  C   UNL     1      -7.181   4.974   7.583  1.00  0.00     0.029 A 
ATOM     60  C   UNL     1      -6.817   5.375   8.857  1.00  0.00     0.049 A 
ATOM     61  H   UNL     1      -5.770   7.101   9.461  1.00  0.00     0.167 HD
ATOM     62  C   UNL     1      -6.516   3.629  10.464  1.00  0.00     0.074 A 
ATOM     63  C   UNL     1      -6.737   2.641  11.505  1.00  0.00     0.031 C 
ATOM     64  C   UNL     1      -7.112   4.824  10.171  1.00  0.00     0.037 A 
BRANCH  51  65
ATOM     65  C   UNL     1      -5.143   9.014   6.069  1.00  0.00     0.058 A 
ATOM     66  C   UNL     1      -6.271   9.082   5.225  1.00  0.00     0.135 A 
ATOM     67  C   UNL     1      -4.246  10.093   5.939  1.00  0.00     0.135 A 
ATOM     68  F   UNL     1      -7.271   8.195   5.317  1.00  0.00    -0.206 F 
ATOM     69  C   UNL     1      -6.420  10.053   4.232  1.00  0.00     0.059 A 
ATOM     70  C   UNL     1      -4.338  11.042   4.914  1.00  0.00     0.059 A 
ATOM     71  F   UNL     1      -3.260  10.281   6.829  1.00  0.00    -0.206 F 
ATOM     72  C   UNL     1      -5.423  11.002   4.050  1.00  0.00     0.060 A 
BRANCH  72  73
ATOM     73  S   UNL     1      -5.569  12.162   2.676  1.00  0.00     0.124 S 
ATOM     74  O   UNL     1      -5.807  11.274   1.542  1.00  0.00    -0.237 OA
ATOM     75  O   UNL     1      -6.704  12.980   3.090  1.00  0.00    -0.237 OA
ATOM     76  O   UNL     1      -4.277  12.843   2.666  1.00  0.00    -0.744 OA
ENDBRANCH  72  73
ENDBRANCH  51  65
BRANCH  52  77
ATOM     77  C   UNL     1      -2.864   0.539  10.445  1.00  0.00     0.058 A 
ATOM     78  C   UNL     1      -2.460  -0.774  10.136  1.00  0.00     0.135 A 
ATOM     79  C   UNL     1      -1.966   1.334  11.171  1.00  0.00     0.135 A 
ATOM     80  F   UNL     1      -3.288  -1.586   9.459  1.00  0.00    -0.206 F 
ATOM     81  C   UNL     1      -1.178  -1.237  10.416  1.00  0.00     0.059 A 
ATOM     82  C   UNL     1      -0.671   0.890  11.461  1.00  0.00     0.059 A 
ATOM     83  F   UNL     1      -2.295   2.590  11.506  1.00  0.00    -0.206 F 
ATOM     84  C   UNL     1      -0.269  -0.373  11.023  1.00  0.00     0.060 A 
BRANCH  84  85
ATOM     85  S   UNL     1       1.458  -0.900  11.147  1.00  0.00     0.124 S 
ATOM     86  O   UNL     1       1.330  -2.249  11.691  1.00  0.00    -0.237 OA
ATOM     87  O   UNL     1       1.897  -0.827   9.754  1.00  0.00    -0.237 OA
ATOM     88  O   UNL     1       2.042   0.085  12.049  1.00  0.00    -0.744 OA
ENDBRANCH  84  85
ENDBRANCH  52  77
BRANCH  64  89
ATOM     89  C   UNL     1      -8.118   5.529  11.047  1.00  0.00     0.058 A 
ATOM     90  C   UNL     1      -8.087   5.494  12.451  1.00  0.00     0.135 A 
ATOM     91  C   UNL     1      -9.083   6.392  10.476  1.00  0.00     0.135 A 
ATOM     92  F   UNL     1      -7.151   4.794  13.108  1.00  0.00    -0.206 F 
ATOM     93  C   UNL     1      -8.990   6.213  13.236  1.00  0.00     0.059 A 
ATOM     94  C   UNL     1      -9.957   7.159  11.240  1.00  0.00     0.059 A 
ATOM     95  F   UNL     1      -9.200   6.526   9.146  1.00  0.00    -0.206 F 
ATOM     96  C   UNL     1      -9.921   7.045  12.622  1.00  0.00     0.060 A 
BRANCH  96  97
ATOM     97  S   UNL     1     -11.050   8.031  13.623  1.00  0.00     0.124 S 
ATOM     98  O   UNL     1     -12.225   7.167  13.675  1.00  0.00    -0.237 OA
ATOM     99  O   UNL     1     -10.325   8.183  14.882  1.00  0.00    -0.237 OA
ATOM    100  O   UNL     1     -11.197   9.255  12.843  1.00  0.00    -0.744 OA
ENDBRANCH  96  97
ENDBRANCH  64  89
ENDBRANCH  38  39
ENDBRANCH  30  33
ENDBRANCH  28  29
ENDBRANCH  27  28
ENDBRANCH  26  27
ENDBRANCH   1  26
TORSDOF 19
