REMARK SMILES C#CCNC(=O)[C@H](C)S(=O)(=O)c1ccc(C(=O)NCCCCCCNC(=O)c2ccc(-c3c4nc(c(-c5c(F)cc(S(=O)(=O)[O-])cc5F)c5ccc([nH]5)c(-c5c(F)cc(S(=O)(=O)[O-])cc5F)c5nc(c(-c6c(F)cc(S(=O)(=O)[O-])cc6F)c6ccc3[nH]6)C=C5)C=C4)cc2)cc1F
REMARK SMILES IDX 20 1 19 2 18 3 16 4 17 5 15 7 12 8 13 9 95 10 14 11 94 12
REMARK SMILES IDX 96 13 9 14 10 15 11 16 7 17 8 18 5 19 4 20 6 22 3 23 2 24
REMARK SMILES IDX 1 25 21 26 22 27 23 28 24 29 25 30 26 31 27 33 28 34 29 35
REMARK SMILES IDX 93 36 30 37 92 38 31 39 32 40 33 41 86 42 34 43 91 44 85 45
REMARK SMILES IDX 87 46 35 47 90 48 84 49 83 50 36 52 70 53 49 54 69 55 50 56
REMARK SMILES IDX 53 57 68 58 88 59 51 60 52 61 67 63 89 64 54 65 37 66 38 67
REMARK SMILES IDX 47 68 39 69 40 70 46 71 48 72 41 73 42 74 43 75 44 76 45 77
REMARK SMILES IDX 71 78 72 79 81 80 73 81 74 82 80 83 82 84 75 85 76 86 77 87
REMARK SMILES IDX 78 88 79 89 55 90 56 91 65 92 57 93 58 94 64 95 66 96 59 97
REMARK SMILES IDX 60 98 61 99 62 100 63 101
REMARK H PARENT 18 6 4 21 25 32 87 51 53 62
REMARK Flexibility Score: inf
ROOT
ATOM      1  C   UNL     1       1.040  -1.718   4.966  1.00  0.00     0.021 C 
ENDROOT
BRANCH   1   2
ATOM      2  C   UNL     1      -0.381  -1.293   5.349  1.00  0.00     0.116 C 
BRANCH   2   3
ATOM      3  N   UNL     1      -0.511   0.150   5.223  1.00  0.00    -0.352 N 
ATOM      4  C   UNL     1      -1.049   0.967   4.264  1.00  0.00     0.251 C 
ATOM      5  O   UNL     1      -0.981   2.184   4.438  1.00  0.00    -0.269 OA
ATOM      6  H   UNL     1      -0.133   0.643   5.987  1.00  0.00     0.163 HD
BRANCH   4   7
ATOM      7  C   UNL     1      -1.770   0.455   3.071  1.00  0.00     0.042 A 
ATOM      8  C   UNL     1      -3.397  -0.496   1.004  1.00  0.00     0.103 A 
ATOM      9  C   UNL     1      -3.524   0.830   1.415  1.00  0.00     0.024 A 
ATOM     10  C   UNL     1      -2.450  -1.309   1.597  1.00  0.00     0.142 A 
ATOM     11  C   UNL     1      -2.722   1.294   2.464  1.00  0.00     0.015 A 
ATOM     12  C   UNL     1      -1.581  -0.818   2.552  1.00  0.00     0.054 A 
ATOM     13  F   UNL     1      -2.358  -2.608   1.315  1.00  0.00    -0.206 F 
BRANCH   8  14
ATOM     14  S   UNL     1      -4.502  -1.191  -0.173  1.00  0.00     0.192 S 
ATOM     15  O   UNL     1      -5.375  -0.107  -0.602  1.00  0.00    -0.223 OA
ATOM     16  O   UNL     1      -5.118  -2.334   0.470  1.00  0.00    -0.223 OA
BRANCH  14  17
ATOM     17  C   UNL     1      -3.565  -1.703  -1.605  1.00  0.00     0.199 C 
ATOM     18  C   UNL     1      -3.116  -0.455  -2.384  1.00  0.00     0.036 C 
BRANCH  17  19
ATOM     19  C   UNL     1      -2.354  -2.567  -1.306  1.00  0.00     0.239 C 
ATOM     20  N   UNL     1      -2.455  -3.904  -1.039  1.00  0.00    -0.344 N 
ATOM     21  H   UNL     1      -1.681  -4.458  -1.289  1.00  0.00     0.164 HD
ATOM     22  O   UNL     1      -1.212  -2.099  -1.386  1.00  0.00    -0.274 OA
BRANCH  20  23
ATOM     23  C   UNL     1      -3.570  -4.599  -0.430  1.00  0.00     0.206 C 
BRANCH  23  24
ATOM     24  C   UNL     1      -3.566  -6.035  -0.680  1.00  0.00    -0.085 C 
ATOM     25  C   UNL     1      -3.706  -7.226  -0.795  1.00  0.00     0.006 C 
ENDBRANCH  23  24
ENDBRANCH  20  23
ENDBRANCH  17  19
ENDBRANCH  14  17
ENDBRANCH   8  14
ENDBRANCH   4   7
ENDBRANCH   2   3
ENDBRANCH   1   2
BRANCH   1  26
ATOM     26  C   UNL     1       2.046  -1.453   6.093  1.00  0.00     0.002 C 
BRANCH  26  27
ATOM     27  C   UNL     1       1.743  -2.209   7.392  1.00  0.00     0.002 C 
BRANCH  27  28
ATOM     28  C   UNL     1       1.651  -3.727   7.229  1.00  0.00     0.021 C 
BRANCH  28  29
ATOM     29  C   UNL     1       2.955  -4.365   6.770  1.00  0.00     0.116 C 
BRANCH  29  30
ATOM     30  N   UNL     1       4.010  -4.166   7.755  1.00  0.00    -0.352 N 
ATOM     31  C   UNL     1       4.740  -5.107   8.434  1.00  0.00     0.251 C 
ATOM     32  H   UNL     1       4.229  -3.228   7.960  1.00  0.00     0.163 HD
ATOM     33  O   UNL     1       5.387  -4.792   9.427  1.00  0.00    -0.269 OA
BRANCH  31  34
ATOM     34  C   UNL     1       4.731  -6.502   7.952  1.00  0.00     0.039 A 
ATOM     35  C   UNL     1       4.589  -7.543   8.870  1.00  0.00     0.014 A 
ATOM     36  C   UNL     1       4.847  -6.770   6.585  1.00  0.00     0.014 A 
ATOM     37  C   UNL     1       4.508  -8.857   8.407  1.00  0.00     0.010 A 
ATOM     38  C   UNL     1       4.678  -8.067   6.122  1.00  0.00     0.010 A 
ATOM     39  C   UNL     1       4.516  -9.125   7.027  1.00  0.00    -0.014 A 
BRANCH  39  40
ATOM     40  C   UNL     1       4.364 -10.503   6.499  1.00  0.00     0.031 A 
ATOM     41  C   UNL     1       5.470 -11.115   5.685  1.00  0.00     0.074 A 
ATOM     42  C   UNL     1       3.208 -11.169   6.691  1.00  0.00     0.049 A 
ATOM     43  N   UNL     1       5.488 -12.255   5.045  1.00  0.00    -0.248 NA
ATOM     44  C   UNL     1       6.711 -10.332   5.549  1.00  0.00     0.031 C 
ATOM     45  C   UNL     1       2.057 -10.665   7.442  1.00  0.00     0.029 A 
ATOM     46  N   UNL     1       2.804 -12.409   6.261  1.00  0.00    -0.354 N 
ATOM     47  C   UNL     1       6.731 -12.322   4.428  1.00  0.00     0.074 A 
ATOM     48  C   UNL     1       7.417 -11.083   4.716  1.00  0.00     0.031 C 
ATOM     49  C   UNL     1       1.090 -11.596   7.444  1.00  0.00     0.029 A 
ATOM     50  C   UNL     1       1.526 -12.739   6.647  1.00  0.00     0.049 A 
ATOM     51  H   UNL     1       3.376 -13.005   5.726  1.00  0.00     0.167 HD
ATOM     52  C   UNL     1       7.261 -13.339   3.710  1.00  0.00     0.037 A 
ATOM     53  C   UNL     1       0.783 -13.830   6.377  1.00  0.00     0.037 A 
ATOM     54  C   UNL     1       6.574 -14.576   3.447  1.00  0.00     0.049 A 
ATOM     55  C   UNL     1       1.375 -14.927   5.532  1.00  0.00     0.074 A 
ATOM     56  C   UNL     1       7.041 -15.685   2.765  1.00  0.00     0.029 A 
ATOM     57  N   UNL     1       5.278 -14.868   3.848  1.00  0.00    -0.354 N 
ATOM     58  N   UNL     1       2.571 -14.996   4.996  1.00  0.00    -0.248 NA
ATOM     59  C   UNL     1       0.523 -16.090   5.250  1.00  0.00     0.031 C 
ATOM     60  C   UNL     1       6.007 -16.620   2.695  1.00  0.00     0.029 A 
ATOM     61  C   UNL     1       4.918 -16.126   3.397  1.00  0.00     0.049 A 
ATOM     62  H   UNL     1       4.700 -14.269   4.374  1.00  0.00     0.167 HD
ATOM     63  C   UNL     1       2.624 -16.221   4.340  1.00  0.00     0.074 A 
ATOM     64  C   UNL     1       1.345 -16.864   4.552  1.00  0.00     0.031 C 
ATOM     65  C   UNL     1       3.643 -16.762   3.627  1.00  0.00     0.037 A 
BRANCH  52  66
ATOM     66  C   UNL     1       8.653 -13.173   3.164  1.00  0.00     0.058 A 
ATOM     67  C   UNL     1       8.875 -13.119   1.779  1.00  0.00     0.135 A 
ATOM     68  C   UNL     1       9.777 -13.147   4.007  1.00  0.00     0.135 A 
ATOM     69  F   UNL     1       7.839 -13.133   0.926  1.00  0.00    -0.206 F 
ATOM     70  C   UNL     1      10.160 -13.068   1.248  1.00  0.00     0.059 A 
ATOM     71  C   UNL     1      11.070 -13.062   3.499  1.00  0.00     0.059 A 
ATOM     72  F   UNL     1       9.623 -13.175   5.341  1.00  0.00    -0.206 F 
ATOM     73  C   UNL     1      11.251 -13.041   2.117  1.00  0.00     0.060 A 
BRANCH  73  74
ATOM     74  S   UNL     1      12.910 -12.954   1.410  1.00  0.00     0.124 S 
ATOM     75  O   UNL     1      13.022 -14.247   0.745  1.00  0.00    -0.237 OA
ATOM     76  O   UNL     1      12.804 -11.792   0.533  1.00  0.00    -0.237 OA
ATOM     77  O   UNL     1      13.766 -12.770   2.579  1.00  0.00    -0.744 OA
ENDBRANCH  73  74
ENDBRANCH  52  66
BRANCH  53  78
ATOM     78  C   UNL     1      -0.594 -13.941   6.931  1.00  0.00     0.058 A 
ATOM     79  C   UNL     1      -1.623 -13.082   6.515  1.00  0.00     0.135 A 
ATOM     80  C   UNL     1      -0.897 -14.887   7.923  1.00  0.00     0.135 A 
ATOM     81  F   UNL     1      -1.387 -12.151   5.577  1.00  0.00    -0.206 F 
ATOM     82  C   UNL     1      -2.892 -13.134   7.082  1.00  0.00     0.059 A 
ATOM     83  C   UNL     1      -2.168 -14.980   8.484  1.00  0.00     0.059 A 
ATOM     84  F   UNL     1       0.049 -15.739   8.346  1.00  0.00    -0.206 F 
ATOM     85  C   UNL     1      -3.154 -14.086   8.068  1.00  0.00     0.060 A 
BRANCH  85  86
ATOM     86  S   UNL     1      -4.804 -14.125   8.801  1.00  0.00     0.124 S 
ATOM     87  O   UNL     1      -4.846 -12.840   9.492  1.00  0.00    -0.237 OA
ATOM     88  O   UNL     1      -5.655 -14.240   7.621  1.00  0.00    -0.237 OA
ATOM     89  O   UNL     1      -4.764 -15.301   9.664  1.00  0.00    -0.744 OA
ENDBRANCH  85  86
ENDBRANCH  53  78
BRANCH  65  90
ATOM     90  C   UNL     1       3.448 -18.131   3.033  1.00  0.00     0.058 A 
ATOM     91  C   UNL     1       4.204 -19.219   3.501  1.00  0.00     0.135 A 
ATOM     92  C   UNL     1       2.619 -18.339   1.920  1.00  0.00     0.135 A 
ATOM     93  F   UNL     1       5.018 -19.074   4.559  1.00  0.00    -0.206 F 
ATOM     94  C   UNL     1       4.175 -20.453   2.863  1.00  0.00     0.059 A 
ATOM     95  C   UNL     1       2.549 -19.576   1.285  1.00  0.00     0.059 A 
ATOM     96  F   UNL     1       1.869 -17.335   1.440  1.00  0.00    -0.206 F 
ATOM     97  C   UNL     1       3.349 -20.620   1.750  1.00  0.00     0.060 A 
BRANCH  97  98
ATOM     98  S   UNL     1       3.350 -22.220   0.916  1.00  0.00     0.124 S 
ATOM     99  O   UNL     1       4.706 -22.281   0.382  1.00  0.00    -0.237 OA
ATOM    100  O   UNL     1       3.057 -23.136   2.014  1.00  0.00    -0.237 OA
ATOM    101  O   UNL     1       2.290 -22.086  -0.080  1.00  0.00    -0.744 OA
ENDBRANCH  97  98
ENDBRANCH  65  90
ENDBRANCH  39  40
ENDBRANCH  31  34
ENDBRANCH  29  30
ENDBRANCH  28  29
ENDBRANCH  27  28
ENDBRANCH  26  27
ENDBRANCH   1  26
TORSDOF 21
