REMARK SMILES C=CCN(CC(=O)NCCCCCCNC(=O)c1ccc(-c2c3nc(c(-c4c(F)cc(S(=O)(=O)[O-])cc4F)c4ccc([nH]4)c(-c4c(F)cc(S(=O)(=O)[O-])cc4F)c4nc(c(-c5c(F)cc(S(=O)(=O)[O-])cc5F)c5ccc2[nH]5)C=C4)C=C3)cc1)C(=O)c1cc(-c2csc(C)n2)c[nH]1
REMARK SMILES IDX 11 1 10 2 9 3 8 4 6 5 7 6 5 8 4 9 3 10 2 11 1 12 84 13 85 14
REMARK SMILES IDX 86 15 87 16 96 17 88 18 95 19 89 21 90 22 94 23 91 24 92 25
REMARK SMILES IDX 93 26 12 27 13 28 14 29 15 30 16 31 17 33 18 34 19 35 83 36
REMARK SMILES IDX 20 37 82 38 21 39 22 40 23 41 76 42 24 43 81 44 75 45 77 46
REMARK SMILES IDX 25 47 80 48 74 49 73 50 26 52 60 53 39 54 59 55 40 56 43 57
REMARK SMILES IDX 58 58 78 59 41 60 42 61 57 63 79 64 44 65 27 66 28 67 37 68
REMARK SMILES IDX 29 69 30 70 36 71 38 72 31 73 32 74 33 75 34 76 35 77 61 78
REMARK SMILES IDX 62 79 71 80 63 81 64 82 70 83 72 84 65 85 66 86 67 87 68 88
REMARK SMILES IDX 69 89 45 90 46 91 55 92 47 93 48 94 54 95 56 96 49 97 50 98
REMARK SMILES IDX 51 99 52 100 53 101
REMARK H PARENT 8 7 96 20 15 32 77 51 43 62
REMARK Flexibility Score: inf
ROOT
ATOM      1  C   UNL     1      -5.766   0.407   1.287  1.00  0.00     0.002 C 
ENDROOT
BRANCH   1   2
ATOM      2  C   UNL     1      -4.475   0.160   0.498  1.00  0.00     0.021 C 
BRANCH   2   3
ATOM      3  C   UNL     1      -4.534   0.524  -0.982  1.00  0.00     0.116 C 
BRANCH   3   4
ATOM      4  N   UNL     1      -4.747   1.933  -1.221  1.00  0.00    -0.355 N 
ATOM      5  C   UNL     1      -3.854   2.895  -1.585  1.00  0.00     0.239 C 
ATOM      6  O   UNL     1      -4.321   3.934  -2.065  1.00  0.00    -0.273 OA
ATOM      7  H   UNL     1      -5.674   2.243  -1.104  1.00  0.00     0.163 HD
BRANCH   5   8
ATOM      8  C   UNL     1      -2.336   2.653  -1.568  1.00  0.00     0.220 C 
BRANCH   8   9
ATOM      9  N   UNL     1      -1.735   2.081  -0.352  1.00  0.00    -0.324 N 
BRANCH   9  10
ATOM     10  C   UNL     1      -1.010   0.822  -0.479  1.00  0.00     0.147 C 
BRANCH  10  11
ATOM     11  C   UNL     1       0.350   1.087  -1.059  1.00  0.00    -0.014 C 
ATOM     12  C   UNL     1       1.496   0.947  -0.380  1.00  0.00     0.006 C 
ENDBRANCH  10  11
ENDBRANCH   9  10
BRANCH   9  13
ATOM     13  C   UNL     1      -1.524   2.813   0.824  1.00  0.00     0.271 C 
ATOM     14  O   UNL     1      -0.857   2.367   1.757  1.00  0.00    -0.267 OA
BRANCH  13  15
ATOM     15  C   UNL     1      -2.040   4.160   0.888  1.00  0.00     0.105 A 
ATOM     16  C   UNL     1      -3.340   4.633   0.951  1.00  0.00     0.043 A 
ATOM     17  N   UNL     1      -1.215   5.258   0.996  1.00  0.00    -0.357 N 
ATOM     18  C   UNL     1      -3.288   6.050   0.952  1.00  0.00     0.019 A 
ATOM     19  C   UNL     1      -1.958   6.407   0.974  1.00  0.00     0.093 A 
ATOM     20  H   UNL     1      -0.234   5.222   1.076  1.00  0.00     0.166 HD
BRANCH  18  21
ATOM     21  C   UNL     1      -4.444   6.947   0.917  1.00  0.00     0.083 A 
ATOM     22  C   UNL     1      -5.761   6.597   1.126  1.00  0.00     0.095 A 
ATOM     23  N   UNL     1      -4.228   8.286   0.632  1.00  0.00    -0.241 NA
ATOM     24  S   UNL     1      -6.767   7.972   0.942  1.00  0.00    -0.127 S 
ATOM     25  C   UNL     1      -5.378   8.921   0.585  1.00  0.00     0.090 A 
ATOM     26  C   UNL     1      -5.528  10.362   0.250  1.00  0.00     0.079 C 
ENDBRANCH  18  21
ENDBRANCH  13  15
ENDBRANCH   9  13
ENDBRANCH   8   9
ENDBRANCH   5   8
ENDBRANCH   3   4
ENDBRANCH   2   3
ENDBRANCH   1   2
BRANCH   1  27
ATOM     27  C   UNL     1      -7.032  -0.269   0.751  1.00  0.00     0.002 C 
BRANCH  27  28
ATOM     28  C   UNL     1      -6.935  -1.772   0.468  1.00  0.00     0.021 C 
BRANCH  28  29
ATOM     29  C   UNL     1      -6.473  -2.647   1.631  1.00  0.00     0.116 C 
BRANCH  29  30
ATOM     30  N   UNL     1      -7.397  -2.633   2.749  1.00  0.00    -0.352 N 
ATOM     31  C   UNL     1      -7.794  -3.672   3.556  1.00  0.00     0.251 C 
ATOM     32  H   UNL     1      -7.795  -1.757   2.958  1.00  0.00     0.163 HD
ATOM     33  O   UNL     1      -8.685  -3.494   4.381  1.00  0.00    -0.269 OA
BRANCH  31  34
ATOM     34  C   UNL     1      -7.177  -5.012   3.414  1.00  0.00     0.039 A 
ATOM     35  C   UNL     1      -8.018  -6.129   3.353  1.00  0.00     0.014 A 
ATOM     36  C   UNL     1      -5.789  -5.179   3.381  1.00  0.00     0.014 A 
ATOM     37  C   UNL     1      -7.472  -7.406   3.201  1.00  0.00     0.010 A 
ATOM     38  C   UNL     1      -5.245  -6.454   3.209  1.00  0.00     0.010 A 
ATOM     39  C   UNL     1      -6.083  -7.575   3.111  1.00  0.00    -0.014 A 
BRANCH  39  40
ATOM     40  C   UNL     1      -5.495  -8.920   2.906  1.00  0.00     0.031 A 
ATOM     41  C   UNL     1      -4.851  -9.650   4.048  1.00  0.00     0.074 A 
ATOM     42  C   UNL     1      -5.504  -9.471   1.679  1.00  0.00     0.049 A 
ATOM     43  N   UNL     1      -4.190 -10.779   4.034  1.00  0.00    -0.248 NA
ATOM     44  C   UNL     1      -4.953  -9.021   5.373  1.00  0.00     0.031 C 
ATOM     45  C   UNL     1      -6.082  -8.860   0.481  1.00  0.00     0.029 A 
ATOM     46  N   UNL     1      -5.002 -10.668   1.237  1.00  0.00    -0.354 N 
ATOM     47  C   UNL     1      -3.761 -10.981   5.339  1.00  0.00     0.074 A 
ATOM     48  C   UNL     1      -4.257  -9.866   6.122  1.00  0.00     0.031 C 
ATOM     49  C   UNL     1      -5.907  -9.691  -0.560  1.00  0.00     0.029 A 
ATOM     50  C   UNL     1      -5.194 -10.882  -0.105  1.00  0.00     0.049 A 
ATOM     51  H   UNL     1      -4.548 -11.313   1.826  1.00  0.00     0.167 HD
ATOM     52  C   UNL     1      -3.012 -11.993   5.837  1.00  0.00     0.037 A 
ATOM     53  C   UNL     1      -4.831 -11.918  -0.884  1.00  0.00     0.037 A 
ATOM     54  C   UNL     1      -2.540 -13.118   5.076  1.00  0.00     0.049 A 
ATOM     55  C   UNL     1      -4.085 -13.076  -0.291  1.00  0.00     0.074 A 
ATOM     56  C   UNL     1      -1.752 -14.177   5.493  1.00  0.00     0.029 A 
ATOM     57  N   UNL     1      -2.830 -13.340   3.739  1.00  0.00    -0.354 N 
ATOM     58  N   UNL     1      -3.657 -13.232   0.938  1.00  0.00    -0.248 NA
ATOM     59  C   UNL     1      -3.775 -14.196  -1.189  1.00  0.00     0.031 C 
ATOM     60  C   UNL     1      -1.576 -15.047   4.408  1.00  0.00     0.029 A 
ATOM     61  C   UNL     1      -2.255 -14.527   3.318  1.00  0.00     0.049 A 
ATOM     62  H   UNL     1      -3.367 -12.741   3.171  1.00  0.00     0.167 HD
ATOM     63  C   UNL     1      -3.016 -14.464   0.959  1.00  0.00     0.074 A 
ATOM     64  C   UNL     1      -3.126 -15.019  -0.375  1.00  0.00     0.031 C 
ATOM     65  C   UNL     1      -2.382 -15.072   1.991  1.00  0.00     0.037 A 
BRANCH  52  66
ATOM     66  C   UNL     1      -2.644 -11.897   7.285  1.00  0.00     0.058 A 
ATOM     67  C   UNL     1      -3.489 -12.397   8.286  1.00  0.00     0.135 A 
ATOM     68  C   UNL     1      -1.454 -11.264   7.675  1.00  0.00     0.135 A 
ATOM     69  F   UNL     1      -4.645 -12.994   7.957  1.00  0.00    -0.206 F 
ATOM     70  C   UNL     1      -3.179 -12.250   9.634  1.00  0.00     0.059 A 
ATOM     71  C   UNL     1      -1.123 -11.108   9.017  1.00  0.00     0.059 A 
ATOM     72  F   UNL     1      -0.623 -10.758   6.751  1.00  0.00    -0.206 F 
ATOM     73  C   UNL     1      -2.002 -11.589   9.989  1.00  0.00     0.060 A 
BRANCH  73  74
ATOM     74  S   UNL     1      -1.602 -11.340  11.732  1.00  0.00     0.124 S 
ATOM     75  O   UNL     1      -2.121  -9.995  11.957  1.00  0.00    -0.237 OA
ATOM     76  O   UNL     1      -2.330 -12.416  12.397  1.00  0.00    -0.237 OA
ATOM     77  O   UNL     1      -0.148 -11.469  11.752  1.00  0.00    -0.744 OA
ENDBRANCH  73  74
ENDBRANCH  52  66
BRANCH  53  78
ATOM     78  C   UNL     1      -5.178 -11.895  -2.323  1.00  0.00     0.058 A 
ATOM     79  C   UNL     1      -6.377 -12.458  -2.779  1.00  0.00     0.135 A 
ATOM     80  C   UNL     1      -4.348 -11.255  -3.252  1.00  0.00     0.135 A 
ATOM     81  F   UNL     1      -7.198 -13.077  -1.917  1.00  0.00    -0.206 F 
ATOM     82  C   UNL     1      -6.752 -12.379  -4.115  1.00  0.00     0.059 A 
ATOM     83  C   UNL     1      -4.703 -11.160  -4.593  1.00  0.00     0.059 A 
ATOM     84  F   UNL     1      -3.196 -10.696  -2.852  1.00  0.00    -0.206 F 
ATOM     85  C   UNL     1      -5.909 -11.724  -5.014  1.00  0.00     0.060 A 
BRANCH  85  86
ATOM     86  S   UNL     1      -6.419 -11.518  -6.735  1.00  0.00     0.124 S 
ATOM     87  O   UNL     1      -5.741 -12.638  -7.377  1.00  0.00    -0.237 OA
ATOM     88  O   UNL     1      -7.873 -11.613  -6.659  1.00  0.00    -0.237 OA
ATOM     89  O   UNL     1      -5.905 -10.191  -7.061  1.00  0.00    -0.744 OA
ENDBRANCH  85  86
ENDBRANCH  53  78
BRANCH  65  90
ATOM     90  C   UNL     1      -1.761 -16.406   1.712  1.00  0.00     0.058 A 
ATOM     91  C   UNL     1      -0.442 -16.502   1.244  1.00  0.00     0.135 A 
ATOM     92  C   UNL     1      -2.478 -17.592   1.922  1.00  0.00     0.135 A 
ATOM     93  F   UNL     1       0.279 -15.391   1.024  1.00  0.00    -0.206 F 
ATOM     94  C   UNL     1       0.146 -17.735   0.985  1.00  0.00     0.059 A 
ATOM     95  C   UNL     1      -1.909 -18.836   1.670  1.00  0.00     0.059 A 
ATOM     96  F   UNL     1      -3.745 -17.546   2.364  1.00  0.00    -0.206 F 
ATOM     97  C   UNL     1      -0.599 -18.897   1.192  1.00  0.00     0.060 A 
BRANCH  97  98
ATOM     98  S   UNL     1       0.155 -20.507   0.872  1.00  0.00     0.124 S 
ATOM     99  O   UNL     1      -0.219 -20.733  -0.520  1.00  0.00    -0.237 OA
ATOM    100  O   UNL     1       1.573 -20.259   1.113  1.00  0.00    -0.237 OA
ATOM    101  O   UNL     1      -0.496 -21.373   1.850  1.00  0.00    -0.744 OA
ENDBRANCH  97  98
ENDBRANCH  65  90
ENDBRANCH  39  40
ENDBRANCH  31  34
ENDBRANCH  29  30
ENDBRANCH  28  29
ENDBRANCH  27  28
ENDBRANCH   1  27
TORSDOF 22
