REMARK SMILES CC(C)CN(C)c1cc2c(cc1Cl)C=C(C(=O)NCCCCCCNC(=O)c1ccc(-c3c4nc(c(-c5c(F)cc(S(=O)(=O)[O-])cc5F)c5ccc([nH]5)c(-c5c(F)cc(S(=O)(=O)[O-])cc5F)c5nc(c(-c6c(F)cc(S(=O)(=O)[O-])cc6F)c6ccc3[nH]6)C=C5)C=C4)cc1)[C@H](C(F)(F)F)O2
REMARK SMILES IDX 21 1 20 2 19 3 18 4 16 5 17 6 15 8 7 9 8 10 12 11 9 12 11 13
REMARK SMILES IDX 13 14 10 15 99 16 14 17 94 18 5 19 6 20 4 21 2 22 1 23 3 24
REMARK SMILES IDX 95 25 96 26 97 27 98 28 22 29 23 30 24 31 25 32 26 33 27 35
REMARK SMILES IDX 28 36 29 37 93 38 30 39 92 40 31 41 32 42 33 43 86 44 34 45
REMARK SMILES IDX 91 46 85 47 87 48 35 49 90 50 84 51 83 52 36 54 70 55 49 56
REMARK SMILES IDX 69 57 50 58 53 59 68 60 88 61 51 62 52 63 67 65 89 66 54 67
REMARK SMILES IDX 37 68 38 69 47 70 39 71 40 72 46 73 48 74 41 75 42 76 43 77
REMARK SMILES IDX 44 78 45 79 71 80 72 81 81 82 73 83 74 84 80 85 82 86 75 87
REMARK SMILES IDX 76 88 77 89 78 90 79 91 55 92 56 93 65 94 57 95 58 96 64 97
REMARK SMILES IDX 66 98 59 99 60 100 61 101 62 102 63 103
REMARK H PARENT 18 7 25 34 87 53 53 64
REMARK Flexibility Score: inf
ROOT
ATOM      1  C   UNL     1      -3.655  -1.317  10.601  1.00  0.00     0.002 C 
ENDROOT
BRANCH   1   2
ATOM      2  C   UNL     1      -3.787  -1.017   9.104  1.00  0.00     0.021 C 
BRANCH   2   3
ATOM      3  C   UNL     1      -2.975   0.193   8.641  1.00  0.00     0.116 C 
BRANCH   3   4
ATOM      4  N   UNL     1      -1.605  -0.199   8.381  1.00  0.00    -0.352 N 
ATOM      5  C   UNL     1      -0.811  -0.276   7.291  1.00  0.00     0.251 C 
ATOM      6  O   UNL     1       0.327  -0.716   7.486  1.00  0.00    -0.270 OA
ATOM      7  H   UNL     1      -1.137  -0.477   9.201  1.00  0.00     0.163 HD
BRANCH   5   8
ATOM      8  C   UNL     1      -1.210   0.160   5.922  1.00  0.00     0.067 C 
ATOM      9  C   UNL     1      -0.829   1.588   1.076  1.00  0.00     0.059 A 
ATOM     10  C   UNL     1      -1.877   1.151   1.904  1.00  0.00     0.074 A 
ATOM     11  C   UNL     1       0.426   1.806   1.681  1.00  0.00     0.065 A 
ATOM     12  C   UNL     1      -1.667   0.872   3.255  1.00  0.00     0.130 A 
ATOM     13  C   UNL     1       0.648   1.471   3.021  1.00  0.00     0.034 A 
ATOM     14  Cl  UNL     1       1.755   2.506   0.821  1.00  0.00    -0.082 Cl
ATOM     15  C   UNL     1      -0.398   0.984   3.805  1.00  0.00     0.019 A 
ATOM     16  O   UNL     1      -2.760   0.477   3.959  1.00  0.00    -0.475 OA
ATOM     17  C   UNL     1      -0.171   0.574   5.177  1.00  0.00     0.025 C 
ATOM     18  C   UNL     1      -2.612   0.116   5.362  1.00  0.00     0.314 C 
BRANCH   9  19
ATOM     19  N   UNL     1      -1.039   1.747  -0.305  1.00  0.00    -0.373 N 
ATOM     20  C   UNL     1      -2.108   2.680  -0.661  1.00  0.00     0.143 C 
BRANCH  19  21
ATOM     21  C   UNL     1      -0.961   0.509  -1.114  1.00  0.00     0.119 C 
BRANCH  21  22
ATOM     22  C   UNL     1       0.492   0.076  -1.400  1.00  0.00     0.002 C 
ATOM     23  C   UNL     1       0.997  -0.966  -0.396  1.00  0.00     0.009 C 
ATOM     24  C   UNL     1       0.629  -0.498  -2.813  1.00  0.00     0.009 C 
ENDBRANCH  21  22
ENDBRANCH  19  21
ENDBRANCH   9  19
BRANCH  18  25
ATOM     25  C   UNL     1      -3.357  -1.220   5.558  1.00  0.00     0.429 C 
ATOM     26  F   UNL     1      -2.676  -2.110   6.312  1.00  0.00    -0.167 F 
ATOM     27  F   UNL     1      -4.548  -1.007   6.175  1.00  0.00    -0.167 F 
ATOM     28  F   UNL     1      -3.631  -1.840   4.385  1.00  0.00    -0.167 F 
ENDBRANCH  18  25
ENDBRANCH   5   8
ENDBRANCH   3   4
ENDBRANCH   2   3
ENDBRANCH   1   2
BRANCH   1  29
ATOM     29  C   UNL     1      -4.176  -0.218  11.532  1.00  0.00     0.002 C 
BRANCH  29  30
ATOM     30  C   UNL     1      -5.576   0.303  11.201  1.00  0.00     0.021 C 
BRANCH  30  31
ATOM     31  C   UNL     1      -6.656  -0.771  11.149  1.00  0.00     0.116 C 
BRANCH  31  32
ATOM     32  N   UNL     1      -6.879  -1.388  12.447  1.00  0.00    -0.352 N 
ATOM     33  C   UNL     1      -8.035  -1.448  13.187  1.00  0.00     0.251 C 
ATOM     34  H   UNL     1      -6.093  -1.823  12.851  1.00  0.00     0.163 HD
ATOM     35  O   UNL     1      -8.007  -1.841  14.350  1.00  0.00    -0.269 OA
BRANCH  33  36
ATOM     36  C   UNL     1      -9.306  -1.007  12.576  1.00  0.00     0.039 A 
ATOM     37  C   UNL     1      -9.658  -1.438  11.295  1.00  0.00     0.014 A 
ATOM     38  C   UNL     1     -10.135  -0.128  13.278  1.00  0.00     0.014 A 
ATOM     39  C   UNL     1     -10.752  -0.868  10.655  1.00  0.00     0.010 A 
ATOM     40  C   UNL     1     -11.283   0.379  12.662  1.00  0.00     0.010 A 
ATOM     41  C   UNL     1     -11.577   0.047  11.329  1.00  0.00    -0.014 A 
BRANCH  41  42
ATOM     42  C   UNL     1     -12.744   0.638  10.624  1.00  0.00     0.031 A 
ATOM     43  C   UNL     1     -12.803   2.115  10.338  1.00  0.00     0.074 A 
ATOM     44  C   UNL     1     -13.729  -0.175  10.195  1.00  0.00     0.049 A 
ATOM     45  N   UNL     1     -13.744   2.800   9.740  1.00  0.00    -0.248 NA
ATOM     46  C   UNL     1     -11.660   2.930  10.779  1.00  0.00     0.031 C 
ATOM     47  C   UNL     1     -13.771  -1.626  10.396  1.00  0.00     0.029 A 
ATOM     48  N   UNL     1     -14.870   0.093   9.482  1.00  0.00    -0.354 N 
ATOM     49  C   UNL     1     -13.317   4.123   9.745  1.00  0.00     0.074 A 
ATOM     50  C   UNL     1     -12.044   4.151  10.432  1.00  0.00     0.031 C 
ATOM     51  C   UNL     1     -14.849  -2.125   9.776  1.00  0.00     0.029 A 
ATOM     52  C   UNL     1     -15.612  -1.027   9.193  1.00  0.00     0.049 A 
ATOM     53  H   UNL     1     -15.132   1.000   9.205  1.00  0.00     0.167 HD
ATOM     54  C   UNL     1     -13.926   5.211   9.213  1.00  0.00     0.037 A 
ATOM     55  C   UNL     1     -16.785  -1.157   8.545  1.00  0.00     0.037 A 
ATOM     56  C   UNL     1     -15.187   5.171   8.516  1.00  0.00     0.049 A 
ATOM     57  C   UNL     1     -17.465   0.071   8.012  1.00  0.00     0.074 A 
ATOM     58  C   UNL     1     -15.885   6.219   7.941  1.00  0.00     0.029 A 
ATOM     59  N   UNL     1     -15.937   4.025   8.295  1.00  0.00    -0.354 N 
ATOM     60  N   UNL     1     -17.054   1.316   8.043  1.00  0.00    -0.248 NA
ATOM     61  C   UNL     1     -18.770  -0.119   7.368  1.00  0.00     0.031 C 
ATOM     62  C   UNL     1     -17.074   5.713   7.406  1.00  0.00     0.029 A 
ATOM     63  C   UNL     1     -17.096   4.342   7.606  1.00  0.00     0.049 A 
ATOM     64  H   UNL     1     -15.682   3.119   8.585  1.00  0.00     0.167 HD
ATOM     65  C   UNL     1     -18.045   2.057   7.410  1.00  0.00     0.074 A 
ATOM     66  C   UNL     1     -19.066   1.118   6.993  1.00  0.00     0.031 C 
ATOM     67  C   UNL     1     -18.104   3.395   7.198  1.00  0.00     0.037 A 
BRANCH  54  68
ATOM     68  C   UNL     1     -13.244   6.544   9.365  1.00  0.00     0.058 A 
ATOM     69  C   UNL     1     -12.095   6.871   8.629  1.00  0.00     0.135 A 
ATOM     70  C   UNL     1     -13.779   7.528  10.213  1.00  0.00     0.135 A 
ATOM     71  F   UNL     1     -11.531   5.963   7.816  1.00  0.00    -0.206 F 
ATOM     72  C   UNL     1     -11.491   8.120   8.739  1.00  0.00     0.059 A 
ATOM     73  C   UNL     1     -13.205   8.792  10.321  1.00  0.00     0.059 A 
ATOM     74  F   UNL     1     -14.876   7.268  10.942  1.00  0.00    -0.206 F 
ATOM     75  C   UNL     1     -12.055   9.075   9.586  1.00  0.00     0.060 A 
BRANCH  75  76
ATOM     76  S   UNL     1     -11.263  10.693   9.705  1.00  0.00     0.124 S 
ATOM     77  O   UNL     1     -10.036  10.364  10.425  1.00  0.00    -0.237 OA
ATOM     78  O   UNL     1     -11.094  11.060   8.303  1.00  0.00    -0.237 OA
ATOM     79  O   UNL     1     -12.231  11.493  10.449  1.00  0.00    -0.744 OA
ENDBRANCH  75  76
ENDBRANCH  54  68
BRANCH  55  80
ATOM     80  C   UNL     1     -17.383  -2.507   8.369  1.00  0.00     0.058 A 
ATOM     81  C   UNL     1     -17.433  -3.113   7.106  1.00  0.00     0.135 A 
ATOM     82  C   UNL     1     -17.876  -3.233   9.465  1.00  0.00     0.135 A 
ATOM     83  F   UNL     1     -16.980  -2.456   6.028  1.00  0.00    -0.206 F 
ATOM     84  C   UNL     1     -17.952  -4.392   6.934  1.00  0.00     0.059 A 
ATOM     85  C   UNL     1     -18.375  -4.523   9.322  1.00  0.00     0.059 A 
ATOM     86  F   UNL     1     -17.837  -2.701  10.697  1.00  0.00    -0.206 F 
ATOM     87  C   UNL     1     -18.414  -5.092   8.050  1.00  0.00     0.060 A 
BRANCH  87  88
ATOM     88  S   UNL     1     -19.024  -6.776   7.823  1.00  0.00     0.124 S 
ATOM     89  O   UNL     1     -20.292  -6.540   7.144  1.00  0.00    -0.237 OA
ATOM     90  O   UNL     1     -17.968  -7.376   7.015  1.00  0.00    -0.237 OA
ATOM     91  O   UNL     1     -19.123  -7.284   9.188  1.00  0.00    -0.744 OA
ENDBRANCH  87  88
ENDBRANCH  55  80
BRANCH  67  92
ATOM     92  C   UNL     1     -19.303   3.924   6.465  1.00  0.00     0.058 A 
ATOM     93  C   UNL     1     -20.561   4.013   7.082  1.00  0.00     0.135 A 
ATOM     94  C   UNL     1     -19.181   4.398   5.149  1.00  0.00     0.135 A 
ATOM     95  F   UNL     1     -20.731   3.566   8.336  1.00  0.00    -0.206 F 
ATOM     96  C   UNL     1     -21.661   4.538   6.412  1.00  0.00     0.059 A 
ATOM     97  C   UNL     1     -20.262   4.949   4.469  1.00  0.00     0.059 A 
ATOM     98  F   UNL     1     -17.998   4.343   4.517  1.00  0.00    -0.206 F 
ATOM     99  C   UNL     1     -21.501   5.006   5.107  1.00  0.00     0.060 A 
BRANCH  99 100
ATOM    100  S   UNL     1     -22.930   5.718   4.264  1.00  0.00     0.124 S 
ATOM    101  O   UNL     1     -23.733   4.530   3.992  1.00  0.00    -0.237 OA
ATOM    102  O   UNL     1     -23.465   6.627   5.272  1.00  0.00    -0.237 OA
ATOM    103  O   UNL     1     -22.348   6.363   3.091  1.00  0.00    -0.744 OA
ENDBRANCH  99 100
ENDBRANCH  67  92
ENDBRANCH  41  42
ENDBRANCH  33  36
ENDBRANCH  31  32
ENDBRANCH  30  31
ENDBRANCH  29  30
ENDBRANCH   1  29
TORSDOF 20
