REMARK SMILES O=C(C[C@H]1C[C@H]2CC[C@@H](C1)[N@H+]2C[C@@H]1CCCOC1)NCCCCCCNC(=O)c1ccc(-c2c3nc(c(-c4c(F)cc(S(=O)(=O)[O-])cc4F)c4ccc([nH]4)c(-c4c(F)cc(S(=O)(=O)[O-])cc4F)c4nc(c(-c5c(F)cc(S(=O)(=O)[O-])cc5F)c5ccc2[nH]5)C=C4)C=C3)cc1
REMARK SMILES IDX 22 1 21 2 20 3 19 4 1 5 2 6 3 8 4 9 5 10 10 11 6 12 9 13
REMARK SMILES IDX 7 14 11 15 8 16 12 18 13 19 14 20 18 21 15 22 17 23 16 24
REMARK SMILES IDX 23 25 24 26 25 27 26 28 27 29 28 31 29 32 30 33 94 34 31 35
REMARK SMILES IDX 93 36 32 37 33 38 34 39 87 40 35 41 92 42 86 43 88 44 36 45
REMARK SMILES IDX 91 46 85 47 84 48 37 50 71 51 50 52 70 53 51 54 54 55 69 56
REMARK SMILES IDX 89 57 52 58 53 59 68 61 90 62 55 63 38 64 39 65 48 66 40 67
REMARK SMILES IDX 41 68 47 69 49 70 42 71 43 72 44 73 45 74 46 75 72 76 73 77
REMARK SMILES IDX 82 78 74 79 75 80 81 81 83 82 76 83 77 84 78 85 79 86 80 87
REMARK SMILES IDX 56 88 57 89 66 90 58 91 59 92 65 93 67 94 60 95 61 96 62 97
REMARK SMILES IDX 63 98 64 99
REMARK H PARENT 19 7 11 17 26 30 88 49 54 60
REMARK Flexibility Score: inf
ROOT
ATOM      1  C   UNL     1       3.662   3.962  -0.315  1.00  0.00     0.002 C 
ENDROOT
BRANCH   1   2
ATOM      2  C   UNL     1       2.131   3.992  -0.160  1.00  0.00     0.021 C 
BRANCH   2   3
ATOM      3  C   UNL     1       1.421   2.700  -0.565  1.00  0.00     0.116 C 
BRANCH   3   4
ATOM      4  N   UNL     1       1.782   1.627   0.333  1.00  0.00    -0.356 N 
ATOM      5  O   UNL     1       0.647  -0.066  -0.749  1.00  0.00    -0.275 OA
ATOM      6  C   UNL     1       1.460   0.314   0.086  1.00  0.00     0.220 C 
ATOM      7  H   UNL     1       2.278   1.846   1.154  1.00  0.00     0.163 HD
BRANCH   6   8
ATOM      8  C   UNL     1       2.341  -0.633   0.867  1.00  0.00     0.104 C 
BRANCH   8   9
ATOM      9  C   UNL     1       3.569  -1.074   0.048  1.00  0.00     0.010 C 
ATOM     10  C   UNL     1       4.268   0.045  -0.767  1.00  0.00     0.069 C 
ATOM     11  C   UNL     1       4.492  -1.943   0.939  1.00  0.00     0.069 C 
ATOM     12  C   UNL     1       5.753   0.215  -0.506  1.00  0.00     0.184 C 
ATOM     13  C   UNL     1       5.988  -1.609   0.887  1.00  0.00     0.184 C 
ATOM     14  C   UNL     1       5.944   0.814   0.899  1.00  0.00     0.071 C 
ATOM     15  N   UNL     1       6.393  -1.079  -0.394  1.00  0.00    -0.330 N 
ATOM     16  C   UNL     1       6.259  -0.386   1.784  1.00  0.00     0.071 C 
ATOM     17  H   UNL     1       7.412  -1.046  -0.401  1.00  0.00     0.348 HD
BRANCH  15  18
ATOM     18  C   UNL     1       6.738  -1.866  -1.566  1.00  0.00     0.268 C 
BRANCH  18  19
ATOM     19  C   UNL     1       5.904  -2.955  -2.318  1.00  0.00     0.070 C 
ATOM     20  C   UNL     1       4.748  -2.477  -3.214  1.00  0.00     0.014 C 
ATOM     21  C   UNL     1       5.658  -4.242  -1.532  1.00  0.00     0.169 C 
ATOM     22  C   UNL     1       3.420  -3.232  -3.134  1.00  0.00     0.029 C 
ATOM     23  O   UNL     1       4.610  -5.038  -2.081  1.00  0.00    -0.381 OA
ATOM     24  C   UNL     1       3.376  -4.332  -2.094  1.00  0.00     0.160 C 
ENDBRANCH  18  19
ENDBRANCH  15  18
ENDBRANCH   8   9
ENDBRANCH   6   8
ENDBRANCH   3   4
ENDBRANCH   2   3
ENDBRANCH   1   2
BRANCH   1  25
ATOM     25  C   UNL     1       4.187   3.956  -1.754  1.00  0.00     0.002 C 
BRANCH  25  26
ATOM     26  C   UNL     1       3.719   5.129  -2.615  1.00  0.00     0.021 C 
BRANCH  26  27
ATOM     27  C   UNL     1       3.929   6.506  -1.997  1.00  0.00     0.116 C 
BRANCH  27  28
ATOM     28  N   UNL     1       5.334   6.852  -1.838  1.00  0.00    -0.352 N 
ATOM     29  C   UNL     1       5.952   8.048  -2.124  1.00  0.00     0.251 C 
ATOM     30  H   UNL     1       5.915   6.141  -1.481  1.00  0.00     0.163 HD
ATOM     31  O   UNL     1       7.172   8.150  -2.062  1.00  0.00    -0.269 OA
BRANCH  29  32
ATOM     32  C   UNL     1       5.124   9.198  -2.550  1.00  0.00     0.039 A 
ATOM     33  C   UNL     1       5.460   9.877  -3.722  1.00  0.00     0.014 A 
ATOM     34  C   UNL     1       3.981   9.555  -1.828  1.00  0.00     0.014 A 
ATOM     35  C   UNL     1       4.603  10.864  -4.214  1.00  0.00     0.010 A 
ATOM     36  C   UNL     1       3.090  10.482  -2.362  1.00  0.00     0.010 A 
ATOM     37  C   UNL     1       3.388  11.140  -3.565  1.00  0.00    -0.014 A 
BRANCH  37  38
ATOM     38  C   UNL     1       2.402  12.086  -4.149  1.00  0.00     0.031 A 
ATOM     39  C   UNL     1       2.017  13.338  -3.411  1.00  0.00     0.074 A 
ATOM     40  C   UNL     1       1.797  11.778  -5.314  1.00  0.00     0.049 A 
ATOM     41  N   UNL     1       1.137  14.251  -3.735  1.00  0.00    -0.248 NA
ATOM     42  C   UNL     1       2.689  13.582  -2.125  1.00  0.00     0.031 C 
ATOM     43  C   UNL     1       2.036  10.562  -6.093  1.00  0.00     0.029 A 
ATOM     44  N   UNL     1       0.846  12.453  -6.038  1.00  0.00    -0.354 N 
ATOM     45  C   UNL     1       1.147  15.173  -2.696  1.00  0.00     0.074 A 
ATOM     46  C   UNL     1       2.071  14.674  -1.701  1.00  0.00     0.031 C 
ATOM     47  C   UNL     1       1.267  10.585  -7.192  1.00  0.00     0.029 A 
ATOM     48  C   UNL     1       0.450  11.794  -7.178  1.00  0.00     0.049 A 
ATOM     49  H   UNL     1       0.481  13.326  -5.766  1.00  0.00     0.167 HD
ATOM     50  C   UNL     1       0.468  16.341  -2.592  1.00  0.00     0.037 A 
ATOM     51  C   UNL     1      -0.476  12.117  -8.103  1.00  0.00     0.037 A 
ATOM     52  C   UNL     1      -0.451  16.830  -3.588  1.00  0.00     0.049 A 
ATOM     53  C   UNL     1      -1.230  13.410  -7.965  1.00  0.00     0.074 A 
ATOM     54  C   UNL     1      -1.147  18.026  -3.604  1.00  0.00     0.029 A 
ATOM     55  N   UNL     1      -0.814  16.143  -4.739  1.00  0.00    -0.354 N 
ATOM     56  N   UNL     1      -1.149  14.312  -7.015  1.00  0.00    -0.248 NA
ATOM     57  C   UNL     1      -2.194  13.735  -9.023  1.00  0.00     0.031 C 
ATOM     58  C   UNL     1      -1.971  18.037  -4.735  1.00  0.00     0.029 A 
ATOM     59  C   UNL     1      -1.747  16.875  -5.456  1.00  0.00     0.049 A 
ATOM     60  H   UNL     1      -0.459  15.264  -5.006  1.00  0.00     0.167 HD
ATOM     61  C   UNL     1      -2.043  15.317  -7.367  1.00  0.00     0.074 A 
ATOM     62  C   UNL     1      -2.637  14.921  -8.628  1.00  0.00     0.031 C 
ATOM     63  C   UNL     1      -2.344  16.462  -6.704  1.00  0.00     0.037 A 
BRANCH  50  64
ATOM     64  C   UNL     1       0.697  17.163  -1.350  1.00  0.00     0.058 A 
ATOM     65  C   UNL     1       1.933  17.778  -1.089  1.00  0.00     0.135 A 
ATOM     66  C   UNL     1      -0.329  17.337  -0.406  1.00  0.00     0.135 A 
ATOM     67  F   UNL     1       2.954  17.637  -1.951  1.00  0.00    -0.206 F 
ATOM     68  C   UNL     1       2.161  18.489   0.084  1.00  0.00     0.059 A 
ATOM     69  C   UNL     1      -0.133  18.073   0.759  1.00  0.00     0.059 A 
ATOM     70  F   UNL     1      -1.533  16.777  -0.604  1.00  0.00    -0.206 F 
ATOM     71  C   UNL     1       1.123  18.624   1.007  1.00  0.00     0.060 A 
BRANCH  71  72
ATOM     72  S   UNL     1       1.446  19.519   2.541  1.00  0.00     0.124 S 
ATOM     73  O   UNL     1       2.283  18.565   3.262  1.00  0.00    -0.237 OA
ATOM     74  O   UNL     1       2.123  20.721   2.065  1.00  0.00    -0.237 OA
ATOM     75  O   UNL     1       0.114  19.731   3.098  1.00  0.00    -0.744 OA
ENDBRANCH  71  72
ENDBRANCH  50  64
BRANCH  51  76
ATOM     76  C   UNL     1      -0.722  11.194  -9.243  1.00  0.00     0.058 A 
ATOM     77  C   UNL     1      -0.301  11.515 -10.541  1.00  0.00     0.135 A 
ATOM     78  C   UNL     1      -1.333   9.945  -9.043  1.00  0.00     0.135 A 
ATOM     79  F   UNL     1       0.279  12.700 -10.784  1.00  0.00    -0.206 F 
ATOM     80  C   UNL     1      -0.472  10.631 -11.601  1.00  0.00     0.059 A 
ATOM     81  C   UNL     1      -1.492   9.034 -10.082  1.00  0.00     0.059 A 
ATOM     82  F   UNL     1      -1.740   9.585  -7.816  1.00  0.00    -0.206 F 
ATOM     83  C   UNL     1      -1.060   9.387 -11.359  1.00  0.00     0.060 A 
BRANCH  83  84
ATOM     84  S   UNL     1      -1.193   8.213 -12.725  1.00  0.00     0.124 S 
ATOM     85  O   UNL     1      -2.244   8.819 -13.534  1.00  0.00    -0.237 OA
ATOM     86  O   UNL     1       0.151   8.250 -13.292  1.00  0.00    -0.237 OA
ATOM     87  O   UNL     1      -1.549   6.963 -12.059  1.00  0.00    -0.744 OA
ENDBRANCH  83  84
ENDBRANCH  51  76
BRANCH  63  88
ATOM     88  C   UNL     1      -3.361  17.378  -7.332  1.00  0.00     0.058 A 
ATOM     89  C   UNL     1      -4.725  17.050  -7.365  1.00  0.00     0.135 A 
ATOM     90  C   UNL     1      -2.974  18.621  -7.858  1.00  0.00     0.135 A 
ATOM     91  F   UNL     1      -5.149  15.871  -6.883  1.00  0.00    -0.206 F 
ATOM     92  C   UNL     1      -5.667  17.913  -7.916  1.00  0.00     0.059 A 
ATOM     93  C   UNL     1      -3.902  19.512  -8.387  1.00  0.00     0.059 A 
ATOM     94  F   UNL     1      -1.683  18.989  -7.844  1.00  0.00    -0.206 F 
ATOM     95  C   UNL     1      -5.246  19.145  -8.421  1.00  0.00     0.060 A 
BRANCH  95  96
ATOM     96  S   UNL     1      -6.485  20.270  -9.098  1.00  0.00     0.124 S 
ATOM     97  O   UNL     1      -6.832  19.607 -10.350  1.00  0.00    -0.237 OA
ATOM     98  O   UNL     1      -7.517  20.255  -8.065  1.00  0.00    -0.237 OA
ATOM     99  O   UNL     1      -5.761  21.530  -9.235  1.00  0.00    -0.744 OA
ENDBRANCH  95  96
ENDBRANCH  63  88
ENDBRANCH  37  38
ENDBRANCH  29  32
ENDBRANCH  27  28
ENDBRANCH  26  27
ENDBRANCH  25  26
ENDBRANCH   1  25
TORSDOF 19
