REMARK SMILES O=C(NCCCCCCNC(=O)c1cccc2nc(Cl)c(Cl)nc12)c1ccc(-c2c3nc(c(-c4c(F)cc(S(=O)(=O)[O-])cc4F)c4ccc([nH]4)c(-c4c(F)cc(S(=O)(=O)[O-])cc4F)c4nc(c(-c5c(F)cc(S(=O)(=O)[O-])cc5F)c5ccc2[nH]5)C=C4)C=C3)cc1
REMARK SMILES IDX 5 1 4 2 3 3 1 4 2 5 25 7 26 8 90 9 27 10 89 11 28 12 29 13
REMARK SMILES IDX 30 14 83 15 31 16 88 17 82 18 84 19 32 20 87 21 81 22 80 23
REMARK SMILES IDX 33 25 67 26 46 27 66 28 47 29 50 30 65 31 85 32 48 33 49 34
REMARK SMILES IDX 64 36 86 37 51 38 34 39 35 40 44 41 36 42 37 43 43 44 45 45
REMARK SMILES IDX 38 46 39 47 40 48 41 49 42 50 68 51 69 52 78 53 70 54 71 55
REMARK SMILES IDX 77 56 79 57 72 58 73 59 74 60 75 61 76 62 52 63 53 64 62 65
REMARK SMILES IDX 54 66 55 67 61 68 63 69 56 70 57 71 58 72 59 73 60 74 6 75
REMARK SMILES IDX 7 76 8 77 9 78 10 79 11 80 12 82 13 83 14 84 24 85 15 86
REMARK SMILES IDX 17 87 23 88 16 89 18 90 21 91 19 92 22 93 20 94
REMARK H PARENT 3 6 84 24 50 35 10 81
REMARK Flexibility Score: inf
ROOT
ATOM      1  C   UNL     1       4.858   2.536   0.540  1.00  0.00     0.021 C 
ENDROOT
BRANCH   1   2
ATOM      2  C   UNL     1       4.520   1.048   0.598  1.00  0.00     0.116 C 
BRANCH   2   3
ATOM      3  N   UNL     1       3.089   0.805   0.636  1.00  0.00    -0.352 N 
ATOM      4  O   UNL     1       1.103  -0.012  -0.023  1.00  0.00    -0.269 OA
ATOM      5  C   UNL     1       2.330  -0.077  -0.090  1.00  0.00     0.251 C 
ATOM      6  H   UNL     1       2.588   1.357   1.280  1.00  0.00     0.163 HD
BRANCH   5   7
ATOM      7  C   UNL     1       2.964  -1.095  -0.960  1.00  0.00     0.039 A 
ATOM      8  C   UNL     1       2.400  -1.345  -2.216  1.00  0.00     0.014 A 
ATOM      9  C   UNL     1       4.055  -1.854  -0.525  1.00  0.00     0.014 A 
ATOM     10  C   UNL     1       2.944  -2.331  -3.046  1.00  0.00     0.010 A 
ATOM     11  C   UNL     1       4.623  -2.809  -1.371  1.00  0.00     0.010 A 
ATOM     12  C   UNL     1       4.066  -3.064  -2.634  1.00  0.00    -0.014 A 
BRANCH  12  13
ATOM     13  C   UNL     1       4.633  -4.147  -3.479  1.00  0.00     0.031 A 
ATOM     14  C   UNL     1       4.489  -5.581  -3.044  1.00  0.00     0.074 A 
ATOM     15  C   UNL     1       5.292  -3.849  -4.616  1.00  0.00     0.049 A 
ATOM     16  N   UNL     1       5.023  -6.659  -3.558  1.00  0.00    -0.248 NA
ATOM     17  C   UNL     1       3.639  -5.834  -1.868  1.00  0.00     0.031 C 
ATOM     18  C   UNL     1       5.481  -2.503  -5.159  1.00  0.00     0.029 A 
ATOM     19  N   UNL     1       5.928  -4.664  -5.519  1.00  0.00    -0.354 N 
ATOM     20  C   UNL     1       4.582  -7.715  -2.769  1.00  0.00     0.074 A 
ATOM     21  C   UNL     1       3.764  -7.146  -1.719  1.00  0.00     0.031 C 
ATOM     22  C   UNL     1       6.171  -2.587  -6.310  1.00  0.00     0.029 A 
ATOM     23  C   UNL     1       6.507  -3.985  -6.565  1.00  0.00     0.049 A 
ATOM     24  H   UNL     1       5.966  -5.643  -5.426  1.00  0.00     0.167 HD
ATOM     25  C   UNL     1       4.823  -9.039  -2.915  1.00  0.00     0.037 A 
ATOM     26  C   UNL     1       7.235  -4.439  -7.604  1.00  0.00     0.037 A 
ATOM     27  C   UNL     1       5.620  -9.607  -3.970  1.00  0.00     0.049 A 
ATOM     28  C   UNL     1       7.515  -5.913  -7.723  1.00  0.00     0.074 A 
ATOM     29  C   UNL     1       5.957 -10.934  -4.178  1.00  0.00     0.029 A 
ATOM     30  N   UNL     1       6.182  -8.885  -5.012  1.00  0.00    -0.354 N 
ATOM     31  N   UNL     1       7.138  -6.890  -6.934  1.00  0.00    -0.248 NA
ATOM     32  C   UNL     1       8.322  -6.346  -8.874  1.00  0.00     0.031 C 
ATOM     33  C   UNL     1       6.729 -11.014  -5.342  1.00  0.00     0.029 A 
ATOM     34  C   UNL     1       6.848  -9.740  -5.873  1.00  0.00     0.049 A 
ATOM     35  H   UNL     1       6.116  -7.909  -5.123  1.00  0.00     0.167 HD
ATOM     36  C   UNL     1       7.631  -8.055  -7.511  1.00  0.00     0.074 A 
ATOM     37  C   UNL     1       8.332  -7.663  -8.716  1.00  0.00     0.031 C 
ATOM     38  C   UNL     1       7.514  -9.335  -7.083  1.00  0.00     0.037 A 
BRANCH  25  39
ATOM     39  C   UNL     1       4.204  -9.977  -1.920  1.00  0.00     0.058 A 
ATOM     40  C   UNL     1       2.840 -10.300  -1.978  1.00  0.00     0.135 A 
ATOM     41  C   UNL     1       4.991 -10.617  -0.949  1.00  0.00     0.135 A 
ATOM     42  F   UNL     1       2.042  -9.699  -2.874  1.00  0.00    -0.206 F 
ATOM     43  C   UNL     1       2.275 -11.224  -1.106  1.00  0.00     0.059 A 
ATOM     44  C   UNL     1       4.451 -11.559  -0.079  1.00  0.00     0.059 A 
ATOM     45  F   UNL     1       6.300 -10.338  -0.849  1.00  0.00    -0.206 F 
ATOM     46  C   UNL     1       3.090 -11.854  -0.164  1.00  0.00     0.060 A 
BRANCH  46  47
ATOM     47  S   UNL     1       2.350 -13.084   0.931  1.00  0.00     0.124 S 
ATOM     48  O   UNL     1       1.570 -12.241   1.832  1.00  0.00    -0.237 OA
ATOM     49  O   UNL     1       1.577 -13.903   0.002  1.00  0.00    -0.237 OA
ATOM     50  O   UNL     1       3.505 -13.743   1.532  1.00  0.00    -0.744 OA
ENDBRANCH  46  47
ENDBRANCH  25  39
BRANCH  26  51
ATOM     51  C   UNL     1       7.748  -3.496  -8.633  1.00  0.00     0.058 A 
ATOM     52  C   UNL     1       7.206  -3.485  -9.927  1.00  0.00     0.135 A 
ATOM     53  C   UNL     1       8.803  -2.615  -8.356  1.00  0.00     0.135 A 
ATOM     54  F   UNL     1       6.201  -4.318 -10.239  1.00  0.00    -0.206 F 
ATOM     55  C   UNL     1       7.709  -2.652 -10.920  1.00  0.00     0.059 A 
ATOM     56  C   UNL     1       9.309  -1.756  -9.327  1.00  0.00     0.059 A 
ATOM     57  F   UNL     1       9.345  -2.578  -7.129  1.00  0.00    -0.206 F 
ATOM     58  C   UNL     1       8.766  -1.794 -10.611  1.00  0.00     0.060 A 
BRANCH  58  59
ATOM     59  S   UNL     1       9.404  -0.701 -11.899  1.00  0.00     0.124 S 
ATOM     60  O   UNL     1      10.210  -1.622 -12.691  1.00  0.00    -0.237 OA
ATOM     61  O   UNL     1       8.180  -0.218 -12.530  1.00  0.00    -0.237 OA
ATOM     62  O   UNL     1      10.148   0.303 -11.144  1.00  0.00    -0.744 OA
ENDBRANCH  58  59
ENDBRANCH  26  51
BRANCH  38  63
ATOM     63  C   UNL     1       8.101 -10.410  -7.950  1.00  0.00     0.058 A 
ATOM     64  C   UNL     1       9.482 -10.655  -7.988  1.00  0.00     0.135 A 
ATOM     65  C   UNL     1       7.263 -11.235  -8.717  1.00  0.00     0.135 A 
ATOM     66  F   UNL     1      10.323  -9.890  -7.274  1.00  0.00    -0.206 F 
ATOM     67  C   UNL     1      10.015 -11.669  -8.776  1.00  0.00     0.059 A 
ATOM     68  C   UNL     1       7.774 -12.267  -9.497  1.00  0.00     0.059 A 
ATOM     69  F   UNL     1       5.934 -11.045  -8.707  1.00  0.00    -0.206 F 
ATOM     70  C   UNL     1       9.153 -12.469  -9.529  1.00  0.00     0.060 A 
BRANCH  70  71
ATOM     71  S   UNL     1       9.854 -13.799 -10.528  1.00  0.00     0.124 S 
ATOM     72  O   UNL     1      10.396 -13.059 -11.663  1.00  0.00    -0.237 OA
ATOM     73  O   UNL     1      10.840 -14.385  -9.625  1.00  0.00    -0.237 OA
ATOM     74  O   UNL     1       8.702 -14.646 -10.822  1.00  0.00    -0.744 OA
ENDBRANCH  70  71
ENDBRANCH  38  63
ENDBRANCH  12  13
ENDBRANCH   5   7
ENDBRANCH   2   3
ENDBRANCH   1   2
BRANCH   1  75
ATOM     75  C   UNL     1       4.393   3.372   1.737  1.00  0.00     0.002 C 
BRANCH  75  76
ATOM     76  C   UNL     1       4.884   2.905   3.110  1.00  0.00     0.002 C 
BRANCH  76  77
ATOM     77  C   UNL     1       6.402   2.769   3.271  1.00  0.00     0.021 C 
BRANCH  77  78
ATOM     78  C   UNL     1       7.220   4.015   2.932  1.00  0.00     0.116 C 
BRANCH  78  79
ATOM     79  N   UNL     1       6.870   5.157   3.760  1.00  0.00    -0.352 N 
ATOM     80  C   UNL     1       7.691   6.030   4.426  1.00  0.00     0.253 C 
ATOM     81  H   UNL     1       5.905   5.328   3.857  1.00  0.00     0.163 HD
ATOM     82  O   UNL     1       7.215   6.970   5.064  1.00  0.00    -0.269 OA
BRANCH  80  83
ATOM     83  C   UNL     1       9.152   5.894   4.314  1.00  0.00     0.067 A 
ATOM     84  C   UNL     1       9.736   6.110   3.057  1.00  0.00     0.016 A 
ATOM     85  C   UNL     1       9.913   5.636   5.462  1.00  0.00     0.103 A 
ATOM     86  C   UNL     1      11.114   6.036   2.925  1.00  0.00     0.003 A 
ATOM     87  C   UNL     1      11.325   5.588   5.306  1.00  0.00     0.091 A 
ATOM     88  N   UNL     1       9.359   5.424   6.684  1.00  0.00    -0.230 NA
ATOM     89  C   UNL     1      11.892   5.778   4.052  1.00  0.00     0.031 A 
ATOM     90  N   UNL     1      12.153   5.365   6.344  1.00  0.00    -0.231 NA
ATOM     91  C   UNL     1      10.201   5.211   7.720  1.00  0.00     0.167 A 
ATOM     92  C   UNL     1      11.573   5.185   7.553  1.00  0.00     0.167 A 
ATOM     93  Cl  UNL     1       9.410   4.986   9.225  1.00  0.00    -0.059 Cl
ATOM     94  Cl  UNL     1      12.696   4.934   8.826  1.00  0.00    -0.059 Cl
ENDBRANCH  80  83
ENDBRANCH  78  79
ENDBRANCH  77  78
ENDBRANCH  76  77
ENDBRANCH  75  76
ENDBRANCH   1  75
TORSDOF 16
