REMARK SMILES O=C1[NH+]=C(Nc2ccc(C(=O)NCCCCCCNC(=O)c3ccc(-c4c5nc(c(-c6c(F)cc(S(=O)(=O)[O-])cc6F)c6ccc([nH]6)c(-c6c(F)cc(S(=O)(=O)[O-])cc6F)c6nc(c(-c7c(F)cc(S(=O)(=O)[O-])cc7F)c7ccc4[nH]7)C=C6)C=C5)cc3)c(O)c2)S/C1=C\c1ccc[nH]1
REMARK SMILES IDX 16 1 15 2 14 3 13 4 12 5 10 6 11 7 9 9 6 10 7 11 90 12 8 13
REMARK SMILES IDX 88 14 5 15 1 16 2 17 3 18 92 19 4 20 91 22 93 23 94 25 95 26
REMARK SMILES IDX 98 27 96 28 97 29 89 31 17 33 18 34 19 35 20 36 21 38 22 39
REMARK SMILES IDX 23 40 87 41 24 42 86 43 25 44 26 45 27 46 80 47 28 48 85 49
REMARK SMILES IDX 79 50 81 51 29 52 84 53 78 54 77 55 30 57 64 58 43 59 63 60
REMARK SMILES IDX 44 61 47 62 62 63 82 64 45 65 46 66 61 68 83 69 48 70 31 71
REMARK SMILES IDX 32 72 41 73 33 74 34 75 40 76 42 77 35 78 36 79 37 80 38 81
REMARK SMILES IDX 39 82 65 83 66 84 75 85 67 86 68 87 74 88 76 89 69 90 70 91
REMARK SMILES IDX 71 92 72 93 73 94 49 95 50 96 59 97 51 98 52 99 58 100
REMARK SMILES IDX 60 101 53 102 54 103 55 104 56 105 57 106
REMARK H PARENT 12 8 3 21 5 24 98 30 89 32 19 37 81 56 47 67
REMARK Flexibility Score: inf
ROOT
ATOM      1  C   UNL     1      -0.242  11.083  -3.574  1.00  0.00     0.002 C 
ENDROOT
BRANCH   1   2
ATOM      2  C   UNL     1      -1.512  10.229  -3.543  1.00  0.00     0.002 C 
BRANCH   2   3
ATOM      3  C   UNL     1      -1.324   8.709  -3.483  1.00  0.00     0.021 C 
BRANCH   3   4
ATOM      4  C   UNL     1      -0.381   8.184  -2.405  1.00  0.00     0.116 C 
BRANCH   4   5
ATOM      5  N   UNL     1      -0.777   8.521  -1.048  1.00  0.00    -0.352 N 
ATOM      6  C   UNL     1      -0.608   7.826   0.126  1.00  0.00     0.255 C 
ATOM      7  O   UNL     1      -1.058   8.304   1.166  1.00  0.00    -0.269 OA
ATOM      8  H   UNL     1      -1.242   9.384  -0.956  1.00  0.00     0.163 HD
BRANCH   6   9
ATOM      9  C   UNL     1       0.048   6.495   0.168  1.00  0.00     0.081 A 
ATOM     10  C   UNL     1       1.022   3.839   0.243  1.00  0.00     0.129 A 
ATOM     11  C   UNL     1      -0.084   4.217   1.010  1.00  0.00     0.053 A 
ATOM     12  C   UNL     1       1.670   4.822  -0.513  1.00  0.00     0.098 A 
ATOM     13  C   UNL     1      -0.564   5.530   0.979  1.00  0.00     0.022 A 
ATOM     14  C   UNL     1       1.213   6.143  -0.517  1.00  0.00     0.132 A 
BRANCH  10  15
ATOM     15  N   UNL     1       1.446   2.509   0.144  1.00  0.00    -0.234 N 
ATOM     16  O   UNL     1      -2.280  -0.295   0.003  1.00  0.00    -0.240 OA
ATOM     17  C   UNL     1      -1.100   0.028   0.063  1.00  0.00     0.346 C 
ATOM     18  N   UNL     1      -0.638   1.321   0.129  1.00  0.00    -0.199 N 
ATOM     19  C   UNL     1       0.016  -0.960   0.078  1.00  0.00     0.111 C 
ATOM     20  C   UNL     1       0.651   1.403   0.146  1.00  0.00     0.322 C 
ATOM     21  H   UNL     1      -1.231   2.106   0.161  1.00  0.00     0.316 HD
ATOM     22  S   UNL     1       1.514  -0.118   0.124  1.00  0.00     0.006 SA
ATOM     23  C   UNL     1      -0.200  -2.281   0.040  1.00  0.00     0.050 C 
ATOM     24  H   UNL     1       2.416   2.358   0.065  1.00  0.00     0.313 HD
BRANCH  23  25
ATOM     25  C   UNL     1       0.847  -3.228   0.135  1.00  0.00     0.039 A 
ATOM     26  C   UNL     1       1.845  -3.453   1.062  1.00  0.00     0.027 A 
ATOM     27  N   UNL     1       0.988  -4.164  -0.861  1.00  0.00    -0.362 N 
ATOM     28  C   UNL     1       2.628  -4.534   0.597  1.00  0.00     0.020 A 
ATOM     29  C   UNL     1       2.082  -4.949  -0.596  1.00  0.00     0.083 A 
ATOM     30  H   UNL     1       0.397  -4.256  -1.642  1.00  0.00     0.166 HD
ENDBRANCH  23  25
ENDBRANCH  10  15
BRANCH  14  31
ATOM     31  O   UNL     1       2.001   7.028  -1.197  1.00  0.00    -0.507 OA
ATOM     32  H   UNL     1       1.758   7.932  -1.243  1.00  0.00     0.293 HD
ENDBRANCH  14  31
ENDBRANCH   6   9
ENDBRANCH   4   5
ENDBRANCH   3   4
ENDBRANCH   2   3
ENDBRANCH   1   2
BRANCH   1  33
ATOM     33  C   UNL     1       0.788  10.739  -4.652  1.00  0.00     0.021 C 
BRANCH  33  34
ATOM     34  C   UNL     1       0.258  10.657  -6.079  1.00  0.00     0.116 C 
BRANCH  34  35
ATOM     35  N   UNL     1      -0.350  11.898  -6.530  1.00  0.00    -0.352 N 
ATOM     36  C   UNL     1      -0.094  12.637  -7.659  1.00  0.00     0.251 C 
ATOM     37  H   UNL     1      -1.047  12.262  -5.939  1.00  0.00     0.163 HD
ATOM     38  O   UNL     1      -0.614  13.741  -7.797  1.00  0.00    -0.269 OA
BRANCH  36  39
ATOM     39  C   UNL     1       0.832  12.120  -8.691  1.00  0.00     0.039 A 
ATOM     40  C   UNL     1       1.807  12.976  -9.210  1.00  0.00     0.014 A 
ATOM     41  C   UNL     1       0.751  10.798  -9.140  1.00  0.00     0.014 A 
ATOM     42  C   UNL     1       2.748  12.486 -10.119  1.00  0.00     0.010 A 
ATOM     43  C   UNL     1       1.734  10.293  -9.989  1.00  0.00     0.010 A 
ATOM     44  C   UNL     1       2.748  11.128 -10.481  1.00  0.00    -0.014 A 
BRANCH  44  45
ATOM     45  C   UNL     1       3.820  10.561 -11.342  1.00  0.00     0.031 A 
ATOM     46  C   UNL     1       3.487   9.970 -12.685  1.00  0.00     0.074 A 
ATOM     47  C   UNL     1       5.087  10.519 -10.880  1.00  0.00     0.049 A 
ATOM     48  N   UNL     1       4.275   9.368 -13.539  1.00  0.00    -0.248 NA
ATOM     49  C   UNL     1       2.083  10.046 -13.116  1.00  0.00     0.031 C 
ATOM     50  C   UNL     1       5.527  11.020  -9.576  1.00  0.00     0.029 A 
ATOM     51  N   UNL     1       6.235  10.021 -11.446  1.00  0.00    -0.354 N 
ATOM     52  C   UNL     1       3.464   8.986 -14.601  1.00  0.00     0.074 A 
ATOM     53  C   UNL     1       2.114   9.379 -14.262  1.00  0.00     0.031 C 
ATOM     54  C   UNL     1       6.849  10.822  -9.451  1.00  0.00     0.029 A 
ATOM     55  C   UNL     1       7.344  10.138 -10.641  1.00  0.00     0.049 A 
ATOM     56  H   UNL     1       6.261   9.619 -12.344  1.00  0.00     0.167 HD
ATOM     57  C   UNL     1       3.817   8.382 -15.761  1.00  0.00     0.037 A 
ATOM     58  C   UNL     1       8.614   9.726 -10.829  1.00  0.00     0.037 A 
ATOM     59  C   UNL     1       5.167   8.007 -16.096  1.00  0.00     0.049 A 
ATOM     60  C   UNL     1       8.974   9.030 -12.114  1.00  0.00     0.074 A 
ATOM     61  C   UNL     1       5.635   7.443 -17.270  1.00  0.00     0.029 A 
ATOM     62  N   UNL     1       6.263   8.146 -15.257  1.00  0.00    -0.354 N 
ATOM     63  N   UNL     1       8.207   8.743 -13.139  1.00  0.00    -0.248 NA
ATOM     64  C   UNL     1      10.372   8.604 -12.272  1.00  0.00     0.031 C 
ATOM     65  C   UNL     1       7.001   7.184 -17.118  1.00  0.00     0.029 A 
ATOM     66  C   UNL     1       7.399   7.647 -15.874  1.00  0.00     0.049 A 
ATOM     67  H   UNL     1       6.238   8.541 -14.356  1.00  0.00     0.167 HD
ATOM     68  C   UNL     1       9.034   8.126 -14.072  1.00  0.00     0.074 A 
ATOM     69  C   UNL     1      10.362   8.097 -13.497  1.00  0.00     0.031 C 
ATOM     70  C   UNL     1       8.719   7.627 -15.293  1.00  0.00     0.037 A 
BRANCH  57  71
ATOM     71  C   UNL     1       2.730   8.084 -16.759  1.00  0.00     0.058 A 
ATOM     72  C   UNL     1       2.073   9.105 -17.464  1.00  0.00     0.135 A 
ATOM     73  C   UNL     1       2.379   6.756 -17.056  1.00  0.00     0.135 A 
ATOM     74  F   UNL     1       2.357  10.393 -17.212  1.00  0.00    -0.206 F 
ATOM     75  C   UNL     1       1.091   8.823 -18.409  1.00  0.00     0.059 A 
ATOM     76  C   UNL     1       1.423   6.449 -18.020  1.00  0.00     0.059 A 
ATOM     77  F   UNL     1       2.975   5.739 -16.413  1.00  0.00    -0.206 F 
ATOM     78  C   UNL     1       0.776   7.491 -18.683  1.00  0.00     0.060 A 
BRANCH  78  79
ATOM     79  S   UNL     1      -0.488   7.144 -19.924  1.00  0.00     0.124 S 
ATOM     80  O   UNL     1      -1.699   7.587 -19.239  1.00  0.00    -0.237 OA
ATOM     81  O   UNL     1      -0.056   7.972 -21.046  1.00  0.00    -0.237 OA
ATOM     82  O   UNL     1      -0.377   5.704 -20.131  1.00  0.00    -0.744 OA
ENDBRANCH  78  79
ENDBRANCH  57  71
BRANCH  58  83
ATOM     83  C   UNL     1       9.638   9.958  -9.773  1.00  0.00     0.058 A 
ATOM     84  C   UNL     1      10.701  10.850  -9.979  1.00  0.00     0.135 A 
ATOM     85  C   UNL     1       9.574   9.295  -8.537  1.00  0.00     0.135 A 
ATOM     86  F   UNL     1      10.813  11.502 -11.146  1.00  0.00    -0.206 F 
ATOM     87  C   UNL     1      11.675  11.061  -9.008  1.00  0.00     0.059 A 
ATOM     88  C   UNL     1      10.518   9.513  -7.538  1.00  0.00     0.059 A 
ATOM     89  F   UNL     1       8.569   8.443  -8.281  1.00  0.00    -0.206 F 
ATOM     90  C   UNL     1      11.572  10.389  -7.788  1.00  0.00     0.060 A 
BRANCH  90  91
ATOM     91  S   UNL     1      12.819  10.701  -6.520  1.00  0.00     0.124 S 
ATOM     92  O   UNL     1      13.986  10.033  -7.085  1.00  0.00    -0.237 OA
ATOM     93  O   UNL     1      12.868  12.159  -6.492  1.00  0.00    -0.237 OA
ATOM     94  O   UNL     1      12.250  10.077  -5.329  1.00  0.00    -0.744 OA
ENDBRANCH  90  91
ENDBRANCH  58  83
BRANCH  70  95
ATOM     95  C   UNL     1       9.834   7.030 -16.110  1.00  0.00     0.058 A 
ATOM     96  C   UNL     1      10.424   5.803 -15.769  1.00  0.00     0.135 A 
ATOM     97  C   UNL     1      10.274   7.664 -17.284  1.00  0.00     0.135 A 
ATOM     98  F   UNL     1      10.048   5.158 -14.653  1.00  0.00    -0.206 F 
ATOM     99  C   UNL     1      11.422   5.234 -16.553  1.00  0.00     0.059 A 
ATOM    100  C   UNL     1      11.248   7.098 -18.100  1.00  0.00     0.059 A 
ATOM    101  F   UNL     1       9.738   8.836 -17.661  1.00  0.00    -0.206 F 
ATOM    102  C   UNL     1      11.823   5.886 -17.721  1.00  0.00     0.060 A 
BRANCH 102 103
ATOM    103  S   UNL     1      13.086   5.112 -18.752  1.00  0.00     0.124 S 
ATOM    104  O   UNL     1      14.282   5.285 -17.934  1.00  0.00    -0.237 OA
ATOM    105  O   UNL     1      12.592   3.743 -18.871  1.00  0.00    -0.237 OA
ATOM    106  O   UNL     1      13.049   5.895 -19.983  1.00  0.00    -0.744 OA
ENDBRANCH 102 103
ENDBRANCH  70  95
ENDBRANCH  44  45
ENDBRANCH  36  39
ENDBRANCH  34  35
ENDBRANCH  33  34
ENDBRANCH   1  33
TORSDOF 19
