REMARK SMILES CNC(=O)NC(=O)CCSc1csc(C(=O)NCCCCCCNC(=O)c2ccc(-c3c4nc(c(-c5c(F)cc(S(=O)(=O)[O-])cc5F)c5ccc([nH]5)c(-c5c(F)cc(S(=O)(=O)[O-])cc5F)c5nc(c(-c6c(F)cc(S(=O)(=O)[O-])cc6F)c6ccc3[nH]6)C=C5)C=C4)cc2)c1
REMARK SMILES IDX 20 1 19 2 18 3 17 4 15 5 16 6 14 8 11 9 12 10 93 11 13 12
REMARK SMILES IDX 10 13 9 14 8 15 6 16 1 17 2 18 3 19 4 21 5 22 7 24 21 25
REMARK SMILES IDX 22 26 23 27 24 28 25 29 26 31 27 32 28 33 92 34 29 35 91 36
REMARK SMILES IDX 30 37 31 38 32 39 85 40 33 41 90 42 84 43 86 44 34 45 89 46
REMARK SMILES IDX 83 47 82 48 35 50 69 51 48 52 68 53 49 54 52 55 67 56 87 57
REMARK SMILES IDX 50 58 51 59 66 61 88 62 53 63 36 64 37 65 46 66 38 67 39 68
REMARK SMILES IDX 45 69 47 70 40 71 41 72 42 73 43 74 44 75 70 76 71 77 80 78
REMARK SMILES IDX 72 79 73 80 79 81 81 82 74 83 75 84 76 85 77 86 78 87 54 88
REMARK SMILES IDX 55 89 64 90 56 91 57 92 63 93 65 94 58 95 59 96 60 97 61 98
REMARK SMILES IDX 62 99
REMARK H PARENT 17 7 2 20 5 23 24 30 86 49 52 60
REMARK Flexibility Score: inf
ROOT
ATOM      1  C   UNL     1       2.717  -7.602   0.037  1.00  0.00     0.002 C 
ENDROOT
BRANCH   1   2
ATOM      2  C   UNL     1       2.328  -6.185  -0.392  1.00  0.00     0.021 C 
BRANCH   2   3
ATOM      3  C   UNL     1       2.298  -6.015  -1.912  1.00  0.00     0.116 C 
BRANCH   3   4
ATOM      4  N   UNL     1       1.044  -6.504  -2.464  1.00  0.00    -0.351 N 
ATOM      5  C   UNL     1      -0.013  -5.811  -3.025  1.00  0.00     0.261 C 
ATOM      6  O   UNL     1      -0.914  -6.468  -3.529  1.00  0.00    -0.268 OA
ATOM      7  H   UNL     1       0.930  -7.481  -2.433  1.00  0.00     0.163 HD
BRANCH   5   8
ATOM      8  C   UNL     1       0.048  -4.360  -3.026  1.00  0.00     0.093 A 
ATOM      9  C   UNL     1       0.813  -2.221  -2.572  1.00  0.00     0.019 A 
ATOM     10  C   UNL     1       0.205  -2.031  -3.792  1.00  0.00     0.080 A 
ATOM     11  C   UNL     1       0.537  -3.510  -2.057  1.00  0.00     0.040 A 
ATOM     12  S   UNL     1      -0.522  -3.472  -4.373  1.00  0.00    -0.137 S 
BRANCH   9  13
ATOM     13  S   UNL     1       1.848  -1.024  -1.811  1.00  0.00    -0.125 SA
BRANCH  13  14
ATOM     14  C   UNL     1       2.073  -1.620  -0.112  1.00  0.00     0.085 C 
BRANCH  14  15
ATOM     15  C   UNL     1       0.972  -1.322   0.900  1.00  0.00     0.112 C 
BRANCH  15  16
ATOM     16  C   UNL     1      -0.444  -1.643   0.510  1.00  0.00     0.228 C 
ATOM     17  C   UNL     1       0.506   1.791   0.126  1.00  0.00     0.144 C 
ATOM     18  N   UNL     1      -0.299   1.271  -0.948  1.00  0.00    -0.341 N 
ATOM     19  C   UNL     1      -1.172   0.257  -1.028  1.00  0.00     0.321 C 
ATOM     20  H   UNL     1      -0.187   1.760  -1.795  1.00  0.00     0.165 HD
ATOM     21  O   UNL     1      -1.923   0.223  -2.007  1.00  0.00    -0.248 OA
ATOM     22  N   UNL     1      -1.284  -0.726  -0.089  1.00  0.00    -0.278 N 
ATOM     23  H   UNL     1      -2.206  -0.801   0.249  1.00  0.00     0.174 HD
ATOM     24  O   UNL     1      -0.887  -2.778   0.726  1.00  0.00    -0.275 OA
ENDBRANCH  15  16
ENDBRANCH  14  15
ENDBRANCH  13  14
ENDBRANCH   9  13
ENDBRANCH   5   8
ENDBRANCH   3   4
ENDBRANCH   2   3
ENDBRANCH   1   2
BRANCH   1  25
ATOM     25  C   UNL     1       4.119  -8.033  -0.409  1.00  0.00     0.002 C 
BRANCH  25  26
ATOM     26  C   UNL     1       5.253  -7.125   0.074  1.00  0.00     0.021 C 
BRANCH  26  27
ATOM     27  C   UNL     1       5.393  -7.064   1.591  1.00  0.00     0.116 C 
BRANCH  27  28
ATOM     28  N   UNL     1       5.696  -8.373   2.144  1.00  0.00    -0.352 N 
ATOM     29  C   UNL     1       6.752  -8.758   2.929  1.00  0.00     0.251 C 
ATOM     30  H   UNL     1       5.052  -9.085   1.925  1.00  0.00     0.163 HD
ATOM     31  O   UNL     1       7.003  -9.950   3.075  1.00  0.00    -0.269 OA
BRANCH  29  32
ATOM     32  C   UNL     1       7.578  -7.732   3.598  1.00  0.00     0.039 A 
ATOM     33  C   UNL     1       8.963  -7.904   3.653  1.00  0.00     0.014 A 
ATOM     34  C   UNL     1       6.978  -6.627   4.209  1.00  0.00     0.014 A 
ATOM     35  C   UNL     1       9.749  -6.955   4.306  1.00  0.00     0.010 A 
ATOM     36  C   UNL     1       7.769  -5.643   4.791  1.00  0.00     0.010 A 
ATOM     37  C   UNL     1       9.159  -5.812   4.872  1.00  0.00    -0.014 A 
BRANCH  37  38
ATOM     38  C   UNL     1       9.972  -4.813   5.606  1.00  0.00     0.031 A 
ATOM     39  C   UNL     1       9.749  -4.609   7.081  1.00  0.00     0.074 A 
ATOM     40  C   UNL     1      10.868  -4.060   4.941  1.00  0.00     0.049 A 
ATOM     41  N   UNL     1      10.314  -3.753   7.892  1.00  0.00    -0.248 NA
ATOM     42  C   UNL     1       8.730  -5.457   7.722  1.00  0.00     0.031 C 
ATOM     43  C   UNL     1      11.134  -4.134   3.503  1.00  0.00     0.029 A 
ATOM     44  N   UNL     1      11.717  -3.080   5.387  1.00  0.00    -0.354 N 
ATOM     45  C   UNL     1       9.708  -3.946   9.129  1.00  0.00     0.074 A 
ATOM     46  C   UNL     1       8.690  -4.956   8.947  1.00  0.00     0.031 C 
ATOM     47  C   UNL     1      12.098  -3.253   3.189  1.00  0.00     0.029 A 
ATOM     48  C   UNL     1      12.496  -2.533   4.395  1.00  0.00     0.049 A 
ATOM     49  H   UNL     1      11.765  -2.795   6.328  1.00  0.00     0.167 HD
ATOM     50  C   UNL     1       9.992  -3.355  10.314  1.00  0.00     0.037 A 
ATOM     51  C   UNL     1      13.427  -1.561   4.455  1.00  0.00     0.037 A 
ATOM     52  C   UNL     1      11.032  -2.375  10.490  1.00  0.00     0.049 A 
ATOM     53  C   UNL     1      13.751  -0.942   5.787  1.00  0.00     0.074 A 
ATOM     54  C   UNL     1      11.441  -1.752  11.656  1.00  0.00     0.029 A 
ATOM     55  N   UNL     1      11.830  -1.878   9.469  1.00  0.00    -0.354 N 
ATOM     56  N   UNL     1      13.207  -1.175   6.958  1.00  0.00    -0.248 NA
ATOM     57  C   UNL     1      14.826   0.058   5.809  1.00  0.00     0.031 C 
ATOM     58  C   UNL     1      12.461  -0.850  11.333  1.00  0.00     0.029 A 
ATOM     59  C   UNL     1      12.723  -0.949   9.976  1.00  0.00     0.049 A 
ATOM     60  H   UNL     1      11.771  -2.147   8.524  1.00  0.00     0.167 HD
ATOM     61  C   UNL     1      13.898  -0.377   7.864  1.00  0.00     0.074 A 
ATOM     62  C   UNL     1      14.902   0.340   7.103  1.00  0.00     0.031 C 
ATOM     63  C   UNL     1      13.723  -0.254   9.203  1.00  0.00     0.037 A 
BRANCH  50  64
ATOM     64  C   UNL     1       9.165  -3.757  11.506  1.00  0.00     0.058 A 
ATOM     65  C   UNL     1       9.255  -5.040  12.071  1.00  0.00     0.135 A 
ATOM     66  C   UNL     1       8.273  -2.847  12.095  1.00  0.00     0.135 A 
ATOM     67  F   UNL     1      10.079  -5.957  11.540  1.00  0.00    -0.206 F 
ATOM     68  C   UNL     1       8.459  -5.420  13.147  1.00  0.00     0.059 A 
ATOM     69  C   UNL     1       7.490  -3.195  13.192  1.00  0.00     0.059 A 
ATOM     70  F   UNL     1       8.146  -1.606  11.598  1.00  0.00    -0.206 F 
ATOM     71  C   UNL     1       7.576  -4.491  13.697  1.00  0.00     0.060 A 
BRANCH  71  72
ATOM     72  S   UNL     1       6.537  -5.003  15.082  1.00  0.00     0.124 S 
ATOM     73  O   UNL     1       5.555  -5.850  14.410  1.00  0.00    -0.237 OA
ATOM     74  O   UNL     1       7.486  -5.698  15.946  1.00  0.00    -0.237 OA
ATOM     75  O   UNL     1       6.023  -3.742  15.606  1.00  0.00    -0.744 OA
ENDBRANCH  71  72
ENDBRANCH  50  64
BRANCH  51  76
ATOM     76  C   UNL     1      14.146  -1.153   3.219  1.00  0.00     0.058 A 
ATOM     77  C   UNL     1      15.492  -1.496   3.022  1.00  0.00     0.135 A 
ATOM     78  C   UNL     1      13.495  -0.444   2.198  1.00  0.00     0.135 A 
ATOM     79  F   UNL     1      16.158  -2.171   3.971  1.00  0.00    -0.206 F 
ATOM     80  C   UNL     1      16.172  -1.139   1.862  1.00  0.00     0.059 A 
ATOM     81  C   UNL     1      14.147  -0.098   1.019  1.00  0.00     0.059 A 
ATOM     82  F   UNL     1      12.202  -0.111   2.330  1.00  0.00    -0.206 F 
ATOM     83  C   UNL     1      15.489  -0.444   0.864  1.00  0.00     0.060 A 
BRANCH  83  84
ATOM     84  S   UNL     1      16.364  -0.039  -0.664  1.00  0.00     0.124 S 
ATOM     85  O   UNL     1      17.250   1.030  -0.221  1.00  0.00    -0.237 OA
ATOM     86  O   UNL     1      17.006  -1.308  -0.993  1.00  0.00    -0.237 OA
ATOM     87  O   UNL     1      15.290   0.363  -1.568  1.00  0.00    -0.744 OA
ENDBRANCH  83  84
ENDBRANCH  51  76
BRANCH  63  88
ATOM     88  C   UNL     1      14.670   0.651   9.942  1.00  0.00     0.058 A 
ATOM     89  C   UNL     1      14.607   2.048   9.826  1.00  0.00     0.135 A 
ATOM     90  C   UNL     1      15.631   0.107  10.810  1.00  0.00     0.135 A 
ATOM     91  F   UNL     1      13.709   2.619   9.007  1.00  0.00    -0.206 F 
ATOM     92  C   UNL     1      15.486   2.874  10.519  1.00  0.00     0.059 A 
ATOM     93  C   UNL     1      16.500   0.915  11.535  1.00  0.00     0.059 A 
ATOM     94  F   UNL     1      15.725  -1.223  10.968  1.00  0.00    -0.206 F 
ATOM     95  C   UNL     1      16.431   2.297  11.370  1.00  0.00     0.060 A 
BRANCH  95  96
ATOM     96  S   UNL     1      17.556   3.379  12.276  1.00  0.00     0.124 S 
ATOM     97  O   UNL     1      18.482   3.785  11.224  1.00  0.00    -0.237 OA
ATOM     98  O   UNL     1      16.661   4.421  12.769  1.00  0.00    -0.237 OA
ATOM     99  O   UNL     1      18.116   2.505  13.302  1.00  0.00    -0.744 OA
ENDBRANCH  95  96
ENDBRANCH  63  88
ENDBRANCH  37  38
ENDBRANCH  29  32
ENDBRANCH  27  28
ENDBRANCH  26  27
ENDBRANCH  25  26
ENDBRANCH   1  25
TORSDOF 20
