REMARK SMILES Cc1ccc(OCC(=O)NC(=S)Nc2ccc(C(=O)NCCCCCCNC(=O)c3ccc(-c4c5nc(c(-c6c(F)cc(S(=O)(=O)[O-])cc6F)c6ccc([nH]6)c(-c6c(F)cc(S(=O)(=O)[O-])cc6F)c6nc(c(-c7c(F)cc(S(=O)(=O)[O-])cc7F)c7ccc4[nH]7)C=C6)C=C5)cc3)cc2)cc1
REMARK SMILES IDX 22 1 21 2 20 3 18 4 19 5 17 7 14 8 15 9 97 10 16 11 96 12
REMARK SMILES IDX 13 13 11 15 12 16 10 17 8 18 9 19 7 21 6 22 5 23 1 24 2 25
REMARK SMILES IDX 3 26 99 27 4 28 98 29 23 30 24 31 25 32 26 33 27 34 28 35
REMARK SMILES IDX 29 37 30 38 31 39 95 40 32 41 94 42 33 43 34 44 35 45 88 46
REMARK SMILES IDX 36 47 93 48 87 49 89 50 37 51 92 52 86 53 85 54 38 56 72 57
REMARK SMILES IDX 51 58 71 59 52 60 55 61 70 62 90 63 53 64 54 65 69 67 91 68
REMARK SMILES IDX 56 69 39 70 40 71 49 72 41 73 42 74 48 75 50 76 43 77 44 78
REMARK SMILES IDX 45 79 46 80 47 81 73 82 74 83 83 84 75 85 76 86 82 87 84 88
REMARK SMILES IDX 77 89 78 90 79 91 80 92 81 93 57 94 58 95 67 96 59 97 60 98
REMARK SMILES IDX 66 99 68 100 61 101 62 102 63 103 64 104 65 105
REMARK H PARENT 20 6 13 14 10 20 27 36 89 55 55 66
REMARK Flexibility Score: inf
ROOT
ATOM      1  C   UNL     1      -0.525   2.102  -3.632  1.00  0.00     0.021 C 
ENDROOT
BRANCH   1   2
ATOM      2  C   UNL     1      -1.879   2.574  -3.103  1.00  0.00     0.116 C 
BRANCH   2   3
ATOM      3  N   UNL     1      -2.950   2.387  -4.074  1.00  0.00    -0.352 N 
ATOM      4  C   UNL     1      -4.158   1.747  -3.942  1.00  0.00     0.251 C 
ATOM      5  O   UNL     1      -5.029   1.863  -4.799  1.00  0.00    -0.269 OA
ATOM      6  H   UNL     1      -2.781   2.780  -4.962  1.00  0.00     0.163 HD
BRANCH   4   7
ATOM      7  C   UNL     1      -4.444   0.959  -2.728  1.00  0.00     0.039 A 
ATOM      8  C   UNL     1      -4.869  -0.310  -0.294  1.00  0.00     0.040 A 
ATOM      9  C   UNL     1      -3.866  -0.771  -1.151  1.00  0.00     0.027 A 
ATOM     10  C   UNL     1      -5.753   0.688  -0.715  1.00  0.00     0.027 A 
ATOM     11  C   UNL     1      -3.627  -0.112  -2.356  1.00  0.00     0.016 A 
ATOM     12  C   UNL     1      -5.553   1.308  -1.950  1.00  0.00     0.016 A 
BRANCH   8  13
ATOM     13  N   UNL     1      -4.928  -0.869   0.988  1.00  0.00    -0.332 N 
ATOM     14  H   UNL     1      -4.654  -1.812   1.053  1.00  0.00     0.169 HD
BRANCH  13  15
ATOM     15  C   UNL     1      -5.307  -0.291   2.147  1.00  0.00     0.177 C 
ATOM     16  S   UNL     1      -6.030  -1.232   3.329  1.00  0.00    -0.040 S 
BRANCH  15  17
ATOM     17  N   UNL     1      -5.080   1.033   2.430  1.00  0.00    -0.300 N 
ATOM     18  C   UNL     1      -4.263   2.079   2.025  1.00  0.00     0.264 C 
ATOM     19  O   UNL     1      -4.527   3.201   2.478  1.00  0.00    -0.271 OA
ATOM     20  H   UNL     1      -5.687   1.335   3.143  1.00  0.00     0.172 HD
BRANCH  18  21
ATOM     21  C   UNL     1      -3.068   1.895   1.091  1.00  0.00     0.329 C 
BRANCH  21  22
ATOM     22  O   UNL     1      -2.328   0.718   1.358  1.00  0.00    -0.484 OA
BRANCH  22  23
ATOM     23  C   UNL     1      -1.056   0.629   0.861  1.00  0.00     0.120 A 
ATOM     24  C   UNL     1       3.042  -0.117  -0.294  1.00  0.00     0.044 C 
ATOM     25  C   UNL     1       1.611   0.151   0.070  1.00  0.00    -0.051 A 
ATOM     26  C   UNL     1       0.761  -0.914   0.379  1.00  0.00     0.007 A 
ATOM     27  C   UNL     1       1.106   1.454   0.127  1.00  0.00     0.007 A 
ATOM     28  C   UNL     1      -0.556  -0.673   0.781  1.00  0.00     0.047 A 
ATOM     29  C   UNL     1      -0.221   1.692   0.515  1.00  0.00     0.047 A 
ENDBRANCH  22  23
ENDBRANCH  21  22
ENDBRANCH  18  21
ENDBRANCH  15  17
ENDBRANCH  13  15
ENDBRANCH   8  13
ENDBRANCH   4   7
ENDBRANCH   2   3
ENDBRANCH   1   2
BRANCH   1  30
ATOM     30  C   UNL     1       0.047   2.917  -4.801  1.00  0.00     0.002 C 
BRANCH  30  31
ATOM     31  C   UNL     1       0.256   4.422  -4.562  1.00  0.00     0.002 C 
BRANCH  31  32
ATOM     32  C   UNL     1       1.083   4.802  -3.333  1.00  0.00     0.021 C 
BRANCH  32  33
ATOM     33  C   UNL     1       2.545   4.364  -3.403  1.00  0.00     0.116 C 
BRANCH  33  34
ATOM     34  N   UNL     1       3.479   5.470  -3.552  1.00  0.00    -0.352 N 
ATOM     35  C   UNL     1       4.866   5.457  -3.469  1.00  0.00     0.251 C 
ATOM     36  H   UNL     1       3.073   6.348  -3.736  1.00  0.00     0.163 HD
ATOM     37  O   UNL     1       5.506   6.480  -3.375  1.00  0.00    -0.269 OA
BRANCH  35  38
ATOM     38  C   UNL     1       5.547   4.146  -3.604  1.00  0.00     0.039 A 
ATOM     39  C   UNL     1       6.406   3.970  -4.696  1.00  0.00     0.014 A 
ATOM     40  C   UNL     1       5.162   3.065  -2.821  1.00  0.00     0.014 A 
ATOM     41  C   UNL     1       6.725   2.679  -5.120  1.00  0.00     0.010 A 
ATOM     42  C   UNL     1       5.394   1.792  -3.298  1.00  0.00     0.010 A 
ATOM     43  C   UNL     1       6.139   1.595  -4.469  1.00  0.00    -0.014 A 
BRANCH  43  44
ATOM     44  C   UNL     1       6.144   0.225  -4.973  1.00  0.00     0.031 A 
ATOM     45  C   UNL     1       6.869  -0.847  -4.241  1.00  0.00     0.074 A 
ATOM     46  C   UNL     1       5.348  -0.107  -6.015  1.00  0.00     0.049 A 
ATOM     47  N   UNL     1       7.153  -2.006  -4.736  1.00  0.00    -0.248 NA
ATOM     48  C   UNL     1       7.355  -0.685  -2.873  1.00  0.00     0.031 C 
ATOM     49  C   UNL     1       4.888  -1.449  -6.366  1.00  0.00     0.029 A 
ATOM     50  N   UNL     1       4.846   0.665  -7.047  1.00  0.00    -0.354 N 
ATOM     51  C   UNL     1       7.572  -2.818  -3.705  1.00  0.00     0.074 A 
ATOM     52  C   UNL     1       7.727  -1.934  -2.574  1.00  0.00     0.031 C 
ATOM     53  C   UNL     1       4.418  -1.439  -7.624  1.00  0.00     0.029 A 
ATOM     54  C   UNL     1       4.718  -0.134  -8.184  1.00  0.00     0.049 A 
ATOM     55  H   UNL     1       4.617   1.621  -6.990  1.00  0.00     0.167 HD
ATOM     56  C   UNL     1       7.613  -4.171  -3.887  1.00  0.00     0.037 A 
ATOM     57  C   UNL     1       5.449   0.052  -9.326  1.00  0.00     0.037 A 
ATOM     58  C   UNL     1       7.249  -4.534  -5.254  1.00  0.00     0.049 A 
ATOM     59  C   UNL     1       6.343  -1.120  -9.682  1.00  0.00     0.074 A 
ATOM     60  C   UNL     1       6.056  -4.951  -5.822  1.00  0.00     0.029 A 
ATOM     61  N   UNL     1       8.089  -4.195  -6.309  1.00  0.00    -0.354 N 
ATOM     62  N   UNL     1       6.667  -2.069  -8.847  1.00  0.00    -0.248 NA
ATOM     63  C   UNL     1       6.957  -1.309 -10.995  1.00  0.00     0.031 C 
ATOM     64  C   UNL     1       6.163  -4.812  -7.226  1.00  0.00     0.029 A 
ATOM     65  C   UNL     1       7.424  -4.320  -7.514  1.00  0.00     0.049 A 
ATOM     66  H   UNL     1       9.026  -3.907  -6.211  1.00  0.00     0.167 HD
ATOM     67  C   UNL     1       7.533  -2.944  -9.450  1.00  0.00     0.074 A 
ATOM     68  C   UNL     1       7.659  -2.442 -10.805  1.00  0.00     0.031 C 
ATOM     69  C   UNL     1       8.079  -3.999  -8.774  1.00  0.00     0.037 A 
BRANCH  56  70
ATOM     70  C   UNL     1       7.694  -5.168  -2.747  1.00  0.00     0.058 A 
ATOM     71  C   UNL     1       7.013  -6.404  -2.814  1.00  0.00     0.135 A 
ATOM     72  C   UNL     1       8.384  -4.944  -1.540  1.00  0.00     0.135 A 
ATOM     73  F   UNL     1       6.386  -6.804  -3.928  1.00  0.00    -0.206 F 
ATOM     74  C   UNL     1       6.925  -7.287  -1.737  1.00  0.00     0.059 A 
ATOM     75  C   UNL     1       8.268  -5.786  -0.427  1.00  0.00     0.059 A 
ATOM     76  F   UNL     1       9.230  -3.912  -1.409  1.00  0.00    -0.206 F 
ATOM     77  C   UNL     1       7.523  -6.952  -0.531  1.00  0.00     0.060 A 
BRANCH  77  78
ATOM     78  S   UNL     1       7.303  -8.056   0.877  1.00  0.00     0.124 S 
ATOM     79  O   UNL     1       5.849  -8.176   0.948  1.00  0.00    -0.237 OA
ATOM     80  O   UNL     1       8.018  -9.250   0.442  1.00  0.00    -0.237 OA
ATOM     81  O   UNL     1       7.916  -7.323   1.981  1.00  0.00    -0.744 OA
ENDBRANCH  77  78
ENDBRANCH  56  70
BRANCH  57  82
ATOM     82  C   UNL     1       5.759   1.477  -9.611  1.00  0.00     0.058 A 
ATOM     83  C   UNL     1       4.687   2.305  -9.988  1.00  0.00     0.135 A 
ATOM     84  C   UNL     1       6.904   2.088  -9.079  1.00  0.00     0.135 A 
ATOM     85  F   UNL     1       3.583   1.768 -10.533  1.00  0.00    -0.206 F 
ATOM     86  C   UNL     1       4.666   3.656  -9.665  1.00  0.00     0.059 A 
ATOM     87  C   UNL     1       6.908   3.445  -8.754  1.00  0.00     0.059 A 
ATOM     88  F   UNL     1       7.962   1.348  -8.719  1.00  0.00    -0.206 F 
ATOM     89  C   UNL     1       5.752   4.195  -8.977  1.00  0.00     0.060 A 
BRANCH  89  90
ATOM     90  S   UNL     1       5.527   5.808  -8.191  1.00  0.00     0.124 S 
ATOM     91  O   UNL     1       5.165   6.652  -9.324  1.00  0.00    -0.237 OA
ATOM     92  O   UNL     1       4.451   5.515  -7.247  1.00  0.00    -0.237 OA
ATOM     93  O   UNL     1       6.831   6.073  -7.596  1.00  0.00    -0.744 OA
ENDBRANCH  89  90
ENDBRANCH  57  82
BRANCH  69  94
ATOM     94  C   UNL     1       9.197  -4.889  -9.268  1.00  0.00     0.058 A 
ATOM     95  C   UNL     1      10.198  -4.471 -10.161  1.00  0.00     0.135 A 
ATOM     96  C   UNL     1       9.366  -6.191  -8.734  1.00  0.00     0.135 A 
ATOM     97  F   UNL     1      10.225  -3.220 -10.643  1.00  0.00    -0.206 F 
ATOM     98  C   UNL     1      11.243  -5.306 -10.561  1.00  0.00     0.059 A 
ATOM     99  C   UNL     1      10.431  -7.020  -9.076  1.00  0.00     0.059 A 
ATOM    100  F   UNL     1       8.500  -6.700  -7.844  1.00  0.00    -0.206 F 
ATOM    101  C   UNL     1      11.350  -6.582 -10.017  1.00  0.00     0.060 A 
BRANCH 101 102
ATOM    102  S   UNL     1      12.719  -7.653 -10.491  1.00  0.00     0.124 S 
ATOM    103  O   UNL     1      12.133  -8.402 -11.598  1.00  0.00    -0.237 OA
ATOM    104  O   UNL     1      13.766  -6.703 -10.858  1.00  0.00    -0.237 OA
ATOM    105  O   UNL     1      12.978  -8.417  -9.275  1.00  0.00    -0.744 OA
ENDBRANCH 101 102
ENDBRANCH  69  94
ENDBRANCH  43  44
ENDBRANCH  35  38
ENDBRANCH  33  34
ENDBRANCH  32  33
ENDBRANCH  31  32
ENDBRANCH  30  31
ENDBRANCH   1  30
TORSDOF 22
