REMARK SMILES CC(C)[C@@H](NC(N)=O)C(=O)N[C@H](C(=O)NCCCCCCNC(=O)c1ccc(-c2c3nc(c(-c4c(F)cc(S(=O)(=O)[O-])cc4F)c4ccc([nH]4)c(-c4c(F)cc(S(=O)(=O)[O-])cc4F)c4nc(c(-c5c(F)cc(S(=O)(=O)[O-])cc5F)c5ccc2[nH]5)C=C4)C=C3)cc1)[C@@H](C)O
REMARK SMILES IDX 18 1 17 2 16 3 15 4 13 5 14 6 12 8 11 9 9 10 10 11 4 13 2 14
REMARK SMILES IDX 1 15 3 16 5 17 6 18 7 20 8 21 91 24 92 25 93 26 19 28 20 29
REMARK SMILES IDX 21 30 22 31 23 32 24 34 25 35 26 36 90 37 27 38 89 39 28 40
REMARK SMILES IDX 29 41 30 42 83 43 31 44 88 45 82 46 84 47 32 48 87 49 81 50
REMARK SMILES IDX 80 51 33 53 67 54 46 55 66 56 47 57 50 58 65 59 85 60 48 61
REMARK SMILES IDX 49 62 64 64 86 65 51 66 34 67 35 68 44 69 36 70 37 71 43 72
REMARK SMILES IDX 45 73 38 74 39 75 40 76 41 77 42 78 68 79 69 80 78 81 70 82
REMARK SMILES IDX 71 83 77 84 79 85 72 86 73 87 74 88 75 89 76 90 52 91 53 92
REMARK SMILES IDX 62 93 54 94 55 95 61 96 63 97 56 98 57 99 58 100 59 101
REMARK SMILES IDX 60 102
REMARK H PARENT 15 7 11 12 5 19 7 22 7 23 93 27 22 33 84 52 50 63
REMARK Flexibility Score: inf
ROOT
ATOM      1  C   UNL     1      -0.837   3.911  -1.304  1.00  0.00     0.002 C 
ENDROOT
BRANCH   1   2
ATOM      2  C   UNL     1      -0.487   2.516  -0.771  1.00  0.00     0.021 C 
BRANCH   2   3
ATOM      3  C   UNL     1      -1.138   1.935   0.516  1.00  0.00     0.116 C 
BRANCH   3   4
ATOM      4  N   UNL     1      -1.506   2.858   1.577  1.00  0.00    -0.354 N 
ATOM      5  C   UNL     1      -1.384   2.767   2.949  1.00  0.00     0.245 C 
ATOM      6  O   UNL     1      -1.998   3.624   3.596  1.00  0.00    -0.273 OA
ATOM      7  H   UNL     1      -1.913   3.697   1.261  1.00  0.00     0.163 HD
BRANCH   5   8
ATOM      8  C   UNL     1      -0.509   1.693   3.663  1.00  0.00     0.200 C 
BRANCH   8   9
ATOM      9  N   UNL     1       0.713   2.188   4.352  1.00  0.00    -0.340 N 
ATOM     10  C   UNL     1       2.014   2.357   3.975  1.00  0.00     0.243 C 
ATOM     11  O   UNL     1       2.863   2.300   4.869  1.00  0.00    -0.273 OA
ATOM     12  H   UNL     1       0.547   2.452   5.286  1.00  0.00     0.164 HD
BRANCH  10  13
ATOM     13  C   UNL     1       2.423   2.460   2.490  1.00  0.00     0.175 C 
BRANCH  13  14
ATOM     14  C   UNL     1       2.498   1.024   1.889  1.00  0.00     0.015 C 
ATOM     15  C   UNL     1       2.567   0.928   0.364  1.00  0.00     0.010 C 
ATOM     16  C   UNL     1       3.720   0.281   2.450  1.00  0.00     0.010 C 
ENDBRANCH  13  14
BRANCH  13  17
ATOM     17  N   UNL     1       1.461   3.391   1.914  1.00  0.00    -0.326 N 
ATOM     18  C   UNL     1       1.356   4.661   2.428  1.00  0.00     0.312 C 
ATOM     19  H   UNL     1       0.891   3.112   1.161  1.00  0.00     0.166 HD
ATOM     20  N   UNL     1       0.254   5.313   1.998  1.00  0.00    -0.352 N 
ATOM     21  O   UNL     1       2.097   5.160   3.257  1.00  0.00    -0.249 OA
ATOM     22  H   UNL     1      -0.335   4.896   1.328  1.00  0.00     0.161 HD
ATOM     23  H   UNL     1       0.039   6.205   2.356  1.00  0.00     0.161 HD
ENDBRANCH  13  17
ENDBRANCH  10  13
ENDBRANCH   8   9
BRANCH   8  24
ATOM     24  C   UNL     1      -1.355   1.046   4.808  1.00  0.00     0.143 C 
ATOM     25  C   UNL     1      -2.536   0.218   4.339  1.00  0.00     0.041 C 
BRANCH  24  26
ATOM     26  O   UNL     1      -0.542   0.169   5.615  1.00  0.00    -0.391 OA
ATOM     27  H   UNL     1      -0.232  -0.574   5.074  1.00  0.00     0.211 HD
ENDBRANCH  24  26
ENDBRANCH   8  24
ENDBRANCH   5   8
ENDBRANCH   3   4
ENDBRANCH   2   3
ENDBRANCH   1   2
BRANCH   1  28
ATOM     28  C   UNL     1       0.278   4.986  -1.337  1.00  0.00     0.002 C 
BRANCH  28  29
ATOM     29  C   UNL     1       1.736   4.603  -1.633  1.00  0.00     0.021 C 
BRANCH  29  30
ATOM     30  C   UNL     1       2.020   3.975  -2.993  1.00  0.00     0.116 C 
BRANCH  30  31
ATOM     31  N   UNL     1       1.710   4.872  -4.092  1.00  0.00    -0.352 N 
ATOM     32  C   UNL     1       2.499   5.373  -5.099  1.00  0.00     0.251 C 
ATOM     33  H   UNL     1       0.772   5.172  -4.121  1.00  0.00     0.163 HD
ATOM     34  O   UNL     1       2.042   6.265  -5.813  1.00  0.00    -0.269 OA
BRANCH  32  35
ATOM     35  C   UNL     1       3.878   4.880  -5.340  1.00  0.00     0.039 A 
ATOM     36  C   UNL     1       4.854   5.797  -5.750  1.00  0.00     0.014 A 
ATOM     37  C   UNL     1       4.211   3.526  -5.240  1.00  0.00     0.014 A 
ATOM     38  C   UNL     1       6.163   5.370  -6.006  1.00  0.00     0.010 A 
ATOM     39  C   UNL     1       5.532   3.112  -5.430  1.00  0.00     0.010 A 
ATOM     40  C   UNL     1       6.522   4.027  -5.820  1.00  0.00    -0.014 A 
BRANCH  40  41
ATOM     41  C   UNL     1       7.921   3.560  -6.029  1.00  0.00     0.031 A 
ATOM     42  C   UNL     1       8.237   2.559  -7.110  1.00  0.00     0.074 A 
ATOM     43  C   UNL     1       8.898   3.982  -5.200  1.00  0.00     0.049 A 
ATOM     44  N   UNL     1       9.371   1.962  -7.379  1.00  0.00    -0.248 NA
ATOM     45  C   UNL     1       7.127   2.157  -7.987  1.00  0.00     0.031 C 
ATOM     46  C   UNL     1       8.717   4.919  -4.089  1.00  0.00     0.029 A 
ATOM     47  N   UNL     1      10.233   3.666  -5.151  1.00  0.00    -0.354 N 
ATOM     48  C   UNL     1       9.107   1.101  -8.438  1.00  0.00     0.074 A 
ATOM     49  C   UNL     1       7.695   1.222  -8.736  1.00  0.00     0.031 C 
ATOM     50  C   UNL     1       9.896   5.109  -3.477  1.00  0.00     0.029 A 
ATOM     51  C   UNL     1      10.910   4.281  -4.123  1.00  0.00     0.049 A 
ATOM     52  H   UNL     1      10.666   3.056  -5.791  1.00  0.00     0.167 HD
ATOM     53  C   UNL     1       9.964   0.297  -9.113  1.00  0.00     0.037 A 
ATOM     54  C   UNL     1      12.196   4.181  -3.734  1.00  0.00     0.037 A 
ATOM     55  C   UNL     1      11.374   0.205  -8.835  1.00  0.00     0.049 A 
ATOM     56  C   UNL     1      13.131   3.287  -4.503  1.00  0.00     0.074 A 
ATOM     57  C   UNL     1      12.336  -0.531  -9.506  1.00  0.00     0.029 A 
ATOM     58  N   UNL     1      12.026   0.867  -7.805  1.00  0.00    -0.354 N 
ATOM     59  N   UNL     1      12.875   2.525  -5.539  1.00  0.00    -0.248 NA
ATOM     60  C   UNL     1      14.530   3.244  -4.056  1.00  0.00     0.031 C 
ATOM     61  C   UNL     1      13.561  -0.347  -8.855  1.00  0.00     0.029 A 
ATOM     62  C   UNL     1      13.372   0.541  -7.809  1.00  0.00     0.049 A 
ATOM     63  H   UNL     1      11.595   1.479  -7.166  1.00  0.00     0.167 HD
ATOM     64  C   UNL     1      14.085   1.931  -5.883  1.00  0.00     0.074 A 
ATOM     65  C   UNL     1      15.075   2.431  -4.951  1.00  0.00     0.031 C 
ATOM     66  C   UNL     1      14.350   1.053  -6.881  1.00  0.00     0.037 A 
BRANCH  53  67
ATOM     67  C   UNL     1       9.402  -0.551 -10.223  1.00  0.00     0.058 A 
ATOM     68  C   UNL     1       8.968   0.010 -11.435  1.00  0.00     0.135 A 
ATOM     69  C   UNL     1       9.336  -1.948 -10.090  1.00  0.00     0.135 A 
ATOM     70  F   UNL     1       8.997   1.341 -11.612  1.00  0.00    -0.206 F 
ATOM     71  C   UNL     1       8.459  -0.778 -12.462  1.00  0.00     0.059 A 
ATOM     72  C   UNL     1       8.857  -2.759 -11.116  1.00  0.00     0.059 A 
ATOM     73  F   UNL     1       9.739  -2.539  -8.955  1.00  0.00    -0.206 F 
ATOM     74  C   UNL     1       8.406  -2.162 -12.292  1.00  0.00     0.060 A 
BRANCH  74  75
ATOM     75  S   UNL     1       7.741  -3.171 -13.634  1.00  0.00     0.124 S 
ATOM     76  O   UNL     1       6.314  -2.882 -13.534  1.00  0.00    -0.237 OA
ATOM     77  O   UNL     1       8.419  -2.622 -14.804  1.00  0.00    -0.237 OA
ATOM     78  O   UNL     1       8.132  -4.528 -13.265  1.00  0.00    -0.744 OA
ENDBRANCH  74  75
ENDBRANCH  53  67
BRANCH  54  79
ATOM     79  C   UNL     1      12.679   4.965  -2.565  1.00  0.00     0.058 A 
ATOM     80  C   UNL     1      13.543   6.056  -2.736  1.00  0.00     0.135 A 
ATOM     81  C   UNL     1      12.273   4.651  -1.258  1.00  0.00     0.135 A 
ATOM     82  F   UNL     1      13.965   6.391  -3.965  1.00  0.00    -0.206 F 
ATOM     83  C   UNL     1      13.998   6.802  -1.654  1.00  0.00     0.059 A 
ATOM     84  C   UNL     1      12.695   5.397  -0.162  1.00  0.00     0.059 A 
ATOM     85  F   UNL     1      11.435   3.624  -1.043  1.00  0.00    -0.206 F 
ATOM     86  C   UNL     1      13.566   6.466  -0.370  1.00  0.00     0.060 A 
BRANCH  86  87
ATOM     87  S   UNL     1      14.123   7.474   1.022  1.00  0.00     0.124 S 
ATOM     88  O   UNL     1      15.512   7.050   1.152  1.00  0.00    -0.237 OA
ATOM     89  O   UNL     1      13.912   8.829   0.522  1.00  0.00    -0.237 OA
ATOM     90  O   UNL     1      13.234   7.068   2.106  1.00  0.00    -0.744 OA
ENDBRANCH  86  87
ENDBRANCH  54  79
BRANCH  66  91
ATOM     91  C   UNL     1      15.774   0.597  -7.045  1.00  0.00     0.058 A 
ATOM     92  C   UNL     1      16.366  -0.310  -6.152  1.00  0.00     0.135 A 
ATOM     93  C   UNL     1      16.534   1.026  -8.145  1.00  0.00     0.135 A 
ATOM     94  F   UNL     1      15.684  -0.747  -5.081  1.00  0.00    -0.206 F 
ATOM     95  C   UNL     1      17.669  -0.763  -6.335  1.00  0.00     0.059 A 
ATOM     96  C   UNL     1      17.830   0.567  -8.361  1.00  0.00     0.059 A 
ATOM     97  F   UNL     1      16.012   1.886  -9.033  1.00  0.00    -0.206 F 
ATOM     98  C   UNL     1      18.392  -0.321  -7.445  1.00  0.00     0.060 A 
BRANCH  98  99
ATOM     99  S   UNL     1      20.066  -0.950  -7.695  1.00  0.00     0.124 S 
ATOM    100  O   UNL     1      20.810  -0.218  -6.676  1.00  0.00    -0.237 OA
ATOM    101  O   UNL     1      19.901  -2.380  -7.454  1.00  0.00    -0.237 OA
ATOM    102  O   UNL     1      20.364  -0.584  -9.076  1.00  0.00    -0.744 OA
ENDBRANCH  98  99
ENDBRANCH  66  91
ENDBRANCH  40  41
ENDBRANCH  32  35
ENDBRANCH  30  31
ENDBRANCH  29  30
ENDBRANCH  28  29
ENDBRANCH   1  28
TORSDOF 22
