REMARK SMILES CCOc1ccc(-c2cnc(N)cc2C(=O)NCCCCCCNC(=O)c2ccc(-c3c4nc(c(-c5c(F)cc(S(=O)(=O)[O-])cc5F)c5ccc([nH]5)c(-c5c(F)cc(S(=O)(=O)[O-])cc5F)c5nc(c(-c6c(F)cc(S(=O)(=O)[O-])cc6F)c6ccc3[nH]6)C=C5)C=C4)cc2)c(Cl)c1
REMARK SMILES IDX 20 1 19 2 18 3 17 4 15 5 16 6 14 8 8 9 9 10 10 11 13 12
REMARK SMILES IDX 11 13 7 14 4 15 5 16 95 17 6 18 93 19 94 20 3 21 2 22 1 23
REMARK SMILES IDX 12 24 21 27 22 28 23 29 24 30 25 31 26 33 27 34 28 35 92 36
REMARK SMILES IDX 29 37 91 38 30 39 31 40 32 41 85 42 33 43 90 44 84 45 86 46
REMARK SMILES IDX 34 47 89 48 83 49 82 50 35 52 69 53 48 54 68 55 49 56 52 57
REMARK SMILES IDX 67 58 87 59 50 60 51 61 66 63 88 64 53 65 36 66 37 67 46 68
REMARK SMILES IDX 38 69 39 70 45 71 47 72 40 73 41 74 42 75 43 76 44 77 70 78
REMARK SMILES IDX 71 79 80 80 72 81 73 82 79 83 81 84 74 85 75 86 76 87 77 88
REMARK SMILES IDX 78 89 54 90 55 91 64 92 56 93 57 94 63 95 65 96 58 97 59 98
REMARK SMILES IDX 60 99 61 100 62 101
REMARK H PARENT 17 7 12 25 12 26 24 32 86 51 52 62
REMARK Flexibility Score: inf
ROOT
ATOM      1  C   UNL     1       8.713   5.983   5.098  1.00  0.00     0.002 C 
ENDROOT
BRANCH   1   2
ATOM      2  C   UNL     1       9.179   5.589   3.688  1.00  0.00     0.021 C 
BRANCH   2   3
ATOM      3  C   UNL     1       8.991   4.101   3.392  1.00  0.00     0.116 C 
BRANCH   3   4
ATOM      4  N   UNL     1       7.599   3.813   3.120  1.00  0.00    -0.352 N 
ATOM      5  C   UNL     1       6.822   3.652   2.005  1.00  0.00     0.252 C 
ATOM      6  O   UNL     1       5.649   3.373   2.261  1.00  0.00    -0.269 OA
ATOM      7  H   UNL     1       7.078   3.706   3.949  1.00  0.00     0.163 HD
BRANCH   5   8
ATOM      8  C   UNL     1       7.306   3.709   0.578  1.00  0.00     0.052 A 
ATOM      9  C   UNL     1       6.450   3.326  -0.480  1.00  0.00     0.014 A 
ATOM     10  C   UNL     1       7.038   3.195  -1.743  1.00  0.00     0.123 A 
ATOM     11  N   UNL     1       8.341   3.399  -2.026  1.00  0.00    -0.239 NA
ATOM     12  C   UNL     1       8.617   4.067   0.246  1.00  0.00     0.061 A 
ATOM     13  C   UNL     1       9.111   3.831  -1.027  1.00  0.00     0.124 A 
BRANCH   9  14
ATOM     14  C   UNL     1       5.003   3.053  -0.371  1.00  0.00     0.003 A 
ATOM     15  C   UNL     1       2.260   2.415  -0.215  1.00  0.00     0.120 A 
ATOM     16  C   UNL     1       3.182   1.447  -0.598  1.00  0.00     0.047 A 
ATOM     17  C   UNL     1       2.683   3.717   0.037  1.00  0.00     0.067 A 
ATOM     18  C   UNL     1       4.540   1.755  -0.649  1.00  0.00     0.014 A 
ATOM     19  C   UNL     1       4.042   4.040  -0.056  1.00  0.00     0.052 A 
ATOM     20  Cl  UNL     1       4.481   5.701   0.180  1.00  0.00    -0.084 Cl
BRANCH  15  21
ATOM     21  O   UNL     1       0.918   2.159  -0.203  1.00  0.00    -0.494 OA
BRANCH  21  22
ATOM     22  C   UNL     1       0.526   1.214   0.802  1.00  0.00     0.226 C 
ATOM     23  C   UNL     1       0.493  -0.207   0.261  1.00  0.00     0.049 C 
ENDBRANCH  21  22
ENDBRANCH  15  21
ENDBRANCH   9  14
BRANCH  13  24
ATOM     24  N   UNL     1      10.437   4.071  -1.325  1.00  0.00    -0.384 N 
ATOM     25  H   UNL     1      10.777   3.899  -2.233  1.00  0.00     0.158 HD
ATOM     26  H   UNL     1      11.044   4.413  -0.629  1.00  0.00     0.158 HD
ENDBRANCH  13  24
ENDBRANCH   5   8
ENDBRANCH   3   4
ENDBRANCH   2   3
ENDBRANCH   1   2
BRANCH   1  27
ATOM     27  C   UNL     1       9.391   5.212   6.240  1.00  0.00     0.002 C 
BRANCH  27  28
ATOM     28  C   UNL     1      10.921   5.210   6.190  1.00  0.00     0.021 C 
BRANCH  28  29
ATOM     29  C   UNL     1      11.545   6.596   6.302  1.00  0.00     0.116 C 
BRANCH  29  30
ATOM     30  N   UNL     1      11.277   7.192   7.601  1.00  0.00    -0.352 N 
ATOM     31  C   UNL     1      12.166   7.645   8.543  1.00  0.00     0.251 C 
ATOM     32  H   UNL     1      10.326   7.285   7.837  1.00  0.00     0.163 HD
ATOM     33  O   UNL     1      11.785   7.878   9.685  1.00  0.00    -0.269 OA
BRANCH  31  34
ATOM     34  C   UNL     1      13.584   7.839   8.174  1.00  0.00     0.039 A 
ATOM     35  C   UNL     1      14.580   7.401   9.049  1.00  0.00     0.014 A 
ATOM     36  C   UNL     1      13.926   8.462   6.969  1.00  0.00     0.014 A 
ATOM     37  C   UNL     1      15.922   7.545   8.692  1.00  0.00     0.010 A 
ATOM     38  C   UNL     1      15.260   8.537   6.583  1.00  0.00     0.010 A 
ATOM     39  C   UNL     1      16.272   8.088   7.444  1.00  0.00    -0.014 A 
BRANCH  39  40
ATOM     40  C   UNL     1      17.692   8.192   7.023  1.00  0.00     0.031 A 
ATOM     41  C   UNL     1      18.310   9.541   6.776  1.00  0.00     0.074 A 
ATOM     42  C   UNL     1      18.403   7.068   6.802  1.00  0.00     0.049 A 
ATOM     43  N   UNL     1      19.509   9.831   6.342  1.00  0.00    -0.248 NA
ATOM     44  C   UNL     1      17.462  10.719   7.025  1.00  0.00     0.031 C 
ATOM     45  C   UNL     1      17.895   5.703   6.957  1.00  0.00     0.029 A 
ATOM     46  N   UNL     1      19.700   6.894   6.389  1.00  0.00    -0.354 N 
ATOM     47  C   UNL     1      19.555  11.217   6.250  1.00  0.00     0.074 A 
ATOM     48  C   UNL     1      18.248  11.709   6.627  1.00  0.00     0.031 C 
ATOM     49  C   UNL     1      18.874   4.833   6.664  1.00  0.00     0.029 A 
ATOM     50  C   UNL     1      20.066   5.575   6.261  1.00  0.00     0.049 A 
ATOM     51  H   UNL     1      20.311   7.643   6.202  1.00  0.00     0.167 HD
ATOM     52  C   UNL     1      20.598  12.007   5.904  1.00  0.00     0.037 A 
ATOM     53  C   UNL     1      21.226   5.022   5.855  1.00  0.00     0.037 A 
ATOM     54  C   UNL     1      21.905  11.509   5.558  1.00  0.00     0.049 A 
ATOM     55  C   UNL     1      22.374   5.921   5.487  1.00  0.00     0.074 A 
ATOM     56  C   UNL     1      23.047  12.230   5.258  1.00  0.00     0.029 A 
ATOM     57  N   UNL     1      22.244  10.167   5.465  1.00  0.00    -0.354 N 
ATOM     58  N   UNL     1      22.419   7.232   5.466  1.00  0.00    -0.248 NA
ATOM     59  C   UNL     1      23.631   5.269   5.097  1.00  0.00     0.031 C 
ATOM     60  C   UNL     1      24.062  11.326   4.932  1.00  0.00     0.029 A 
ATOM     61  C   UNL     1      23.571  10.040   5.088  1.00  0.00     0.049 A 
ATOM     62  H   UNL     1      21.632   9.416   5.641  1.00  0.00     0.167 HD
ATOM     63  C   UNL     1      23.715   7.562   5.084  1.00  0.00     0.074 A 
ATOM     64  C   UNL     1      24.424   6.313   4.897  1.00  0.00     0.031 C 
ATOM     65  C   UNL     1      24.265   8.789   4.906  1.00  0.00     0.037 A 
BRANCH  52  66
ATOM     66  C   UNL     1      20.379  13.496   5.883  1.00  0.00     0.058 A 
ATOM     67  C   UNL     1      20.204  14.234   7.064  1.00  0.00     0.135 A 
ATOM     68  C   UNL     1      20.404  14.202   4.669  1.00  0.00     0.135 A 
ATOM     69  F   UNL     1      20.154  13.609   8.252  1.00  0.00    -0.206 F 
ATOM     70  C   UNL     1      20.044  15.615   7.043  1.00  0.00     0.059 A 
ATOM     71  C   UNL     1      20.275  15.587   4.626  1.00  0.00     0.059 A 
ATOM     72  F   UNL     1      20.564  13.547   3.509  1.00  0.00    -0.206 F 
ATOM     73  C   UNL     1      20.086  16.284   5.818  1.00  0.00     0.060 A 
BRANCH  73  74
ATOM     74  S   UNL     1      19.907  18.081   5.812  1.00  0.00     0.124 S 
ATOM     75  O   UNL     1      18.493  18.234   6.139  1.00  0.00    -0.237 OA
ATOM     76  O   UNL     1      20.846  18.490   6.851  1.00  0.00    -0.237 OA
ATOM     77  O   UNL     1      20.279  18.455   4.451  1.00  0.00    -0.744 OA
ENDBRANCH  73  74
ENDBRANCH  52  66
BRANCH  53  78
ATOM     78  C   UNL     1      21.356   3.542   5.797  1.00  0.00     0.058 A 
ATOM     79  C   UNL     1      22.156   2.849   6.718  1.00  0.00     0.135 A 
ATOM     80  C   UNL     1      20.655   2.788   4.843  1.00  0.00     0.135 A 
ATOM     81  F   UNL     1      22.851   3.526   7.644  1.00  0.00    -0.206 F 
ATOM     82  C   UNL     1      22.262   1.462   6.692  1.00  0.00     0.059 A 
ATOM     83  C   UNL     1      20.724   1.399   4.813  1.00  0.00     0.059 A 
ATOM     84  F   UNL     1      19.862   3.402   3.950  1.00  0.00    -0.206 F 
ATOM     85  C   UNL     1      21.535   0.745   5.739  1.00  0.00     0.060 A 
BRANCH  85  86
ATOM     86  S   UNL     1      21.625  -1.059   5.760  1.00  0.00     0.124 S 
ATOM     87  O   UNL     1      22.972  -1.292   5.254  1.00  0.00    -0.237 OA
ATOM     88  O   UNL     1      21.410  -1.359   7.172  1.00  0.00    -0.237 OA
ATOM     89  O   UNL     1      20.538  -1.458   4.870  1.00  0.00    -0.744 OA
ENDBRANCH  85  86
ENDBRANCH  53  78
BRANCH  65  90
ATOM     90  C   UNL     1      25.717   8.849   4.517  1.00  0.00     0.058 A 
ATOM     91  C   UNL     1      26.153   8.491   3.232  1.00  0.00     0.135 A 
ATOM     92  C   UNL     1      26.675   9.329   5.424  1.00  0.00     0.135 A 
ATOM     93  F   UNL     1      25.279   8.020   2.328  1.00  0.00    -0.206 F 
ATOM     94  C   UNL     1      27.492   8.585   2.867  1.00  0.00     0.059 A 
ATOM     95  C   UNL     1      28.015   9.460   5.072  1.00  0.00     0.059 A 
ATOM     96  F   UNL     1      26.310   9.696   6.663  1.00  0.00    -0.206 F 
ATOM     97  C   UNL     1      28.415   9.074   3.794  1.00  0.00     0.060 A 
BRANCH  97  98
ATOM     98  S   UNL     1      30.144   9.224   3.296  1.00  0.00     0.124 S 
ATOM     99  O   UNL     1      30.565   7.827   3.273  1.00  0.00    -0.237 OA
ATOM    100  O   UNL     1      30.038   9.876   1.994  1.00  0.00    -0.237 OA
ATOM    101  O   UNL     1      30.733  10.040   4.353  1.00  0.00    -0.744 OA
ENDBRANCH  97  98
ENDBRANCH  65  90
ENDBRANCH  39  40
ENDBRANCH  31  34
ENDBRANCH  29  30
ENDBRANCH  28  29
ENDBRANCH  27  28
ENDBRANCH   1  27
TORSDOF 20
