REMARK SMILES C[C@@H](C(=O)NCCCCCCNC(=O)c1ccc(-c2c3nc(c(-c4c(F)cc(S(=O)(=O)[O-])cc4F)c4ccc([nH]4)c(-c4c(F)cc(S(=O)(=O)[O-])cc4F)c4nc(c(-c5c(F)cc(S(=O)(=O)[O-])cc5F)c5ccc2[nH]5)C=C4)C=C3)cc1)c1ccccc1-c1ccn(C(F)F)c(=O)c1
REMARK SMILES IDX 8 1 7 2 6 3 5 4 3 5 4 6 2 8 1 9 81 10 82 11 86 12 83 13
REMARK SMILES IDX 85 14 84 15 87 16 88 17 96 18 89 19 94 20 90 21 95 22 91 23
REMARK SMILES IDX 92 24 93 25 9 26 10 27 11 28 12 29 13 30 14 32 15 33 16 34
REMARK SMILES IDX 80 35 17 36 79 37 18 38 19 39 20 40 73 41 21 42 78 43 72 44
REMARK SMILES IDX 74 45 22 46 77 47 71 48 70 49 23 51 57 52 36 53 56 54 37 55
REMARK SMILES IDX 40 56 55 57 75 58 38 59 39 60 54 62 76 63 41 64 24 65 25 66
REMARK SMILES IDX 34 67 26 68 27 69 33 70 35 71 28 72 29 73 30 74 31 75 32 76
REMARK SMILES IDX 58 77 59 78 68 79 60 80 61 81 67 82 69 83 62 84 63 85 64 86
REMARK SMILES IDX 65 87 66 88 42 89 43 90 52 91 44 92 45 93 51 94 53 95 46 96
REMARK SMILES IDX 47 97 48 98 49 99 50 100
REMARK H PARENT 5 7 12 31 74 50 40 61
REMARK Flexibility Score: inf
ROOT
ATOM      1  C   UNL     1       5.033  -0.518  -2.862  1.00  0.00     0.002 C 
ENDROOT
BRANCH   1   2
ATOM      2  C   UNL     1       4.280  -0.043  -1.611  1.00  0.00     0.021 C 
BRANCH   2   3
ATOM      3  C   UNL     1       3.463   1.230  -1.834  1.00  0.00     0.116 C 
BRANCH   3   4
ATOM      4  N   UNL     1       2.314   0.959  -2.670  1.00  0.00    -0.356 N 
ATOM      5  C   UNL     1       0.989   0.862  -2.373  1.00  0.00     0.227 C 
ATOM      6  O   UNL     1       0.241   0.629  -3.328  1.00  0.00    -0.274 OA
ATOM      7  H   UNL     1       2.528   0.822  -3.621  1.00  0.00     0.163 HD
BRANCH   5   8
ATOM      8  C   UNL     1       0.460   1.155  -0.954  1.00  0.00     0.106 C 
ATOM      9  C   UNL     1       1.156   0.428   0.200  1.00  0.00     0.023 C 
BRANCH   8  10
ATOM     10  C   UNL     1      -1.065   0.982  -0.868  1.00  0.00    -0.028 A 
ATOM     11  C   UNL     1      -1.836   2.159  -0.758  1.00  0.00     0.005 A 
ATOM     12  C   UNL     1      -1.737  -0.266  -0.926  1.00  0.00    -0.014 A 
ATOM     13  C   UNL     1      -3.227   2.109  -0.690  1.00  0.00     0.000 A 
ATOM     14  C   UNL     1      -3.141  -0.295  -0.839  1.00  0.00     0.009 A 
ATOM     15  C   UNL     1      -3.879   0.883  -0.723  1.00  0.00     0.001 A 
BRANCH  12  16
ATOM     16  C   UNL     1      -1.043  -1.560  -1.120  1.00  0.00    -0.011 A 
ATOM     17  C   UNL     1      -0.430  -2.308  -0.040  1.00  0.00     0.027 A 
ATOM     18  C   UNL     1      -0.967  -2.047  -2.371  1.00  0.00     0.080 A 
ATOM     19  C   UNL     1       0.367  -3.349  -0.306  1.00  0.00     0.095 A 
ATOM     20  C   UNL     1      -0.172  -3.270  -2.670  1.00  0.00     0.255 A 
ATOM     21  N   UNL     1       0.544  -3.794  -1.603  1.00  0.00    -0.258 N 
ATOM     22  O   UNL     1      -0.177  -3.718  -3.812  1.00  0.00    -0.269 OA
BRANCH  21  23
ATOM     23  C   UNL     1       1.442  -4.883  -1.889  1.00  0.00     0.451 C 
ATOM     24  F   UNL     1       0.758  -6.002  -2.225  1.00  0.00    -0.185 F 
ATOM     25  F   UNL     1       2.279  -4.577  -2.911  1.00  0.00    -0.185 F 
ENDBRANCH  21  23
ENDBRANCH  12  16
ENDBRANCH   8  10
ENDBRANCH   5   8
ENDBRANCH   3   4
ENDBRANCH   2   3
ENDBRANCH   1   2
BRANCH   1  26
ATOM     26  C   UNL     1       6.032   0.490  -3.440  1.00  0.00     0.002 C 
BRANCH  26  27
ATOM     27  C   UNL     1       7.079   1.007  -2.448  1.00  0.00     0.021 C 
BRANCH  27  28
ATOM     28  C   UNL     1       7.976  -0.075  -1.854  1.00  0.00     0.116 C 
BRANCH  28  29
ATOM     29  N   UNL     1       8.805  -0.706  -2.867  1.00  0.00    -0.352 N 
ATOM     30  C   UNL     1      10.165  -0.888  -2.886  1.00  0.00     0.251 C 
ATOM     31  H   UNL     1       8.322  -1.053  -3.651  1.00  0.00     0.163 HD
ATOM     32  O   UNL     1      10.719  -1.250  -3.919  1.00  0.00    -0.269 OA
BRANCH  30  33
ATOM     33  C   UNL     1      10.963  -0.634  -1.666  1.00  0.00     0.039 A 
ATOM     34  C   UNL     1      12.169   0.061  -1.780  1.00  0.00     0.014 A 
ATOM     35  C   UNL     1      10.536  -1.102  -0.419  1.00  0.00     0.014 A 
ATOM     36  C   UNL     1      12.925   0.328  -0.636  1.00  0.00     0.010 A 
ATOM     37  C   UNL     1      11.259  -0.780   0.727  1.00  0.00     0.010 A 
ATOM     38  C   UNL     1      12.465  -0.070   0.630  1.00  0.00    -0.014 A 
BRANCH  38  39
ATOM     39  C   UNL     1      13.238   0.239   1.859  1.00  0.00     0.031 A 
ATOM     40  C   UNL     1      13.832  -0.876   2.678  1.00  0.00     0.074 A 
ATOM     41  C   UNL     1      13.357   1.517   2.268  1.00  0.00     0.049 A 
ATOM     42  N   UNL     1      14.485  -0.812   3.809  1.00  0.00    -0.248 NA
ATOM     43  C   UNL     1      13.643  -2.244   2.171  1.00  0.00     0.031 C 
ATOM     44  C   UNL     1      12.786   2.680   1.586  1.00  0.00     0.029 A 
ATOM     45  N   UNL     1      13.989   2.053   3.362  1.00  0.00    -0.354 N 
ATOM     46  C   UNL     1      14.772  -2.127   4.157  1.00  0.00     0.074 A 
ATOM     47  C   UNL     1      14.178  -2.970   3.142  1.00  0.00     0.031 C 
ATOM     48  C   UNL     1      13.112   3.792   2.264  1.00  0.00     0.029 A 
ATOM     49  C   UNL     1      13.886   3.421   3.445  1.00  0.00     0.049 A 
ATOM     50  H   UNL     1      14.472   1.508   4.025  1.00  0.00     0.167 HD
ATOM     51  C   UNL     1      15.484  -2.588   5.213  1.00  0.00     0.037 A 
ATOM     52  C   UNL     1      14.360   4.279   4.369  1.00  0.00     0.037 A 
ATOM     53  C   UNL     1      16.098  -1.742   6.203  1.00  0.00     0.049 A 
ATOM     54  C   UNL     1      15.160   3.744   5.525  1.00  0.00     0.074 A 
ATOM     55  C   UNL     1      16.888  -2.109   7.279  1.00  0.00     0.029 A 
ATOM     56  N   UNL     1      15.995  -0.359   6.237  1.00  0.00    -0.354 N 
ATOM     57  N   UNL     1      15.469   2.501   5.807  1.00  0.00    -0.248 NA
ATOM     58  C   UNL     1      15.683   4.728   6.483  1.00  0.00     0.031 C 
ATOM     59  C   UNL     1      17.233  -0.950   7.984  1.00  0.00     0.029 A 
ATOM     60  C   UNL     1      16.693   0.142   7.323  1.00  0.00     0.049 A 
ATOM     61  H   UNL     1      15.498   0.186   5.585  1.00  0.00     0.167 HD
ATOM     62  C   UNL     1      16.245   2.555   6.960  1.00  0.00     0.074 A 
ATOM     63  C   UNL     1      16.366   3.954   7.316  1.00  0.00     0.031 C 
ATOM     64  C   UNL     1      16.808   1.539   7.659  1.00  0.00     0.037 A 
BRANCH  51  65
ATOM     65  C   UNL     1      15.641  -4.078   5.347  1.00  0.00     0.058 A 
ATOM     66  C   UNL     1      16.451  -4.815   4.468  1.00  0.00     0.135 A 
ATOM     67  C   UNL     1      14.996  -4.775   6.381  1.00  0.00     0.135 A 
ATOM     68  F   UNL     1      17.079  -4.201   3.452  1.00  0.00    -0.206 F 
ATOM     69  C   UNL     1      16.588  -6.194   4.587  1.00  0.00     0.059 A 
ATOM     70  C   UNL     1      15.141  -6.151   6.537  1.00  0.00     0.059 A 
ATOM     71  F   UNL     1      14.211  -4.121   7.251  1.00  0.00    -0.206 F 
ATOM     72  C   UNL     1      15.926  -6.854   5.624  1.00  0.00     0.060 A 
BRANCH  72  73
ATOM     73  S   UNL     1      16.110  -8.645   5.764  1.00  0.00     0.124 S 
ATOM     74  O   UNL     1      15.262  -9.108   4.669  1.00  0.00    -0.237 OA
ATOM     75  O   UNL     1      17.545  -8.829   5.576  1.00  0.00    -0.237 OA
ATOM     76  O   UNL     1      15.614  -8.932   7.106  1.00  0.00    -0.744 OA
ENDBRANCH  72  73
ENDBRANCH  51  65
BRANCH  52  77
ATOM     77  C   UNL     1      14.114   5.738   4.221  1.00  0.00     0.058 A 
ATOM     78  C   UNL     1      15.155   6.610   3.871  1.00  0.00     0.135 A 
ATOM     79  C   UNL     1      12.836   6.285   4.410  1.00  0.00     0.135 A 
ATOM     80  F   UNL     1      16.395   6.133   3.685  1.00  0.00    -0.206 F 
ATOM     81  C   UNL     1      14.942   7.977   3.728  1.00  0.00     0.059 A 
ATOM     82  C   UNL     1      12.594   7.646   4.250  1.00  0.00     0.059 A 
ATOM     83  F   UNL     1      11.803   5.489   4.728  1.00  0.00    -0.206 F 
ATOM     84  C   UNL     1      13.656   8.486   3.918  1.00  0.00     0.060 A 
BRANCH  84  85
ATOM     85  S   UNL     1      13.379  10.254   3.680  1.00  0.00     0.124 S 
ATOM     86  O   UNL     1      13.970  10.809   4.892  1.00  0.00    -0.237 OA
ATOM     87  O   UNL     1      14.101  10.515   2.439  1.00  0.00    -0.237 OA
ATOM     88  O   UNL     1      11.925  10.354   3.583  1.00  0.00    -0.744 OA
ENDBRANCH  84  85
ENDBRANCH  52  77
BRANCH  64  89
ATOM     89  C   UNL     1      17.634   1.904   8.860  1.00  0.00     0.058 A 
ATOM     90  C   UNL     1      17.044   2.339  10.056  1.00  0.00     0.135 A 
ATOM     91  C   UNL     1      19.032   1.773   8.827  1.00  0.00     0.135 A 
ATOM     92  F   UNL     1      15.712   2.487  10.137  1.00  0.00    -0.206 F 
ATOM     93  C   UNL     1      17.812   2.656  11.172  1.00  0.00     0.059 A 
ATOM     94  C   UNL     1      19.818   2.060   9.938  1.00  0.00     0.059 A 
ATOM     95  F   UNL     1      19.645   1.350   7.710  1.00  0.00    -0.206 F 
ATOM     96  C   UNL     1      19.199   2.513  11.103  1.00  0.00     0.060 A 
BRANCH  96  97
ATOM     97  S   UNL     1      20.184   2.899  12.566  1.00  0.00     0.124 S 
ATOM     98  O   UNL     1      20.172   4.358  12.551  1.00  0.00    -0.237 OA
ATOM     99  O   UNL     1      19.418   2.269  13.636  1.00  0.00    -0.237 OA
ATOM    100  O   UNL     1      21.474   2.279  12.279  1.00  0.00    -0.744 OA
ENDBRANCH  96  97
ENDBRANCH  64  89
ENDBRANCH  38  39
ENDBRANCH  30  33
ENDBRANCH  28  29
ENDBRANCH  27  28
ENDBRANCH  26  27
ENDBRANCH   1  26
TORSDOF 19
