REMARK SMILES Cc1cnc(N2CCO[C@H](CC(=O)NCCCCCCNC(=O)c3ccc(-c4c5nc(c(-c6c(F)cc(S(=O)(=O)[O-])cc6F)c6ccc([nH]6)c(-c6c(F)cc(S(=O)(=O)[O-])cc6F)c6nc(c(-c7c(F)cc(S(=O)(=O)[O-])cc7F)c7ccc4[nH]7)C=C6)C=C5)cc3)C2)c([N+](=O)[O-])c1
REMARK SMILES IDX 17 1 16 2 15 3 14 4 12 5 13 6 11 8 10 9 6 10 7 11 90 12 8 13
REMARK SMILES IDX 9 14 5 15 1 16 2 17 3 18 95 19 4 20 91 21 92 22 93 23 94 24
REMARK SMILES IDX 18 25 19 26 20 27 21 28 22 29 23 31 24 32 25 33 89 34 26 35
REMARK SMILES IDX 88 36 27 37 28 38 29 39 82 40 30 41 87 42 81 43 83 44 31 45
REMARK SMILES IDX 86 46 80 47 79 48 32 50 66 51 45 52 65 53 46 54 49 55 64 56
REMARK SMILES IDX 84 57 47 58 48 59 63 61 85 62 50 63 33 64 34 65 43 66 35 67
REMARK SMILES IDX 36 68 42 69 44 70 37 71 38 72 39 73 40 74 41 75 67 76 68 77
REMARK SMILES IDX 77 78 69 79 70 80 76 81 78 82 71 83 72 84 73 85 74 86 75 87
REMARK SMILES IDX 51 88 52 89 61 90 53 91 54 92 60 93 62 94 55 95 56 96 57 97
REMARK SMILES IDX 58 98 59 99
REMARK H PARENT 14 7 21 30 83 49 49 60
REMARK Flexibility Score: inf
ROOT
ATOM      1  C   UNL     1      -8.748   3.290   3.741  1.00  0.00     0.002 C 
ENDROOT
BRANCH   1   2
ATOM      2  C   UNL     1      -7.924   2.711   2.585  1.00  0.00     0.021 C 
BRANCH   2   3
ATOM      3  C   UNL     1      -6.555   3.372   2.443  1.00  0.00     0.116 C 
BRANCH   3   4
ATOM      4  N   UNL     1      -5.709   2.997   3.558  1.00  0.00    -0.356 N 
ATOM      5  C   UNL     1      -4.661   2.133   3.558  1.00  0.00     0.222 C 
ATOM      6  O   UNL     1      -4.201   1.740   4.630  1.00  0.00    -0.275 OA
ATOM      7  H   UNL     1      -5.920   3.421   4.422  1.00  0.00     0.163 HD
BRANCH   5   8
ATOM      8  C   UNL     1      -4.053   1.720   2.245  1.00  0.00     0.133 C 
BRANCH   8   9
ATOM      9  C   UNL     1      -4.752   0.506   1.609  1.00  0.00     0.147 C 
ATOM     10  N   UNL     1      -3.027   0.324  -0.052  1.00  0.00    -0.346 N 
ATOM     11  C   UNL     1      -3.920   0.646  -1.165  1.00  0.00     0.147 C 
ATOM     12  C   UNL     1      -3.687  -0.436   1.011  1.00  0.00     0.151 C 
ATOM     13  C   UNL     1      -5.121   1.438  -0.613  1.00  0.00     0.182 C 
ATOM     14  O   UNL     1      -5.709   0.861   0.577  1.00  0.00    -0.374 OA
BRANCH  10  15
ATOM     15  C   UNL     1      -1.668   0.248  -0.179  1.00  0.00     0.208 A 
ATOM     16  C   UNL     1       2.580  -0.330  -0.033  1.00  0.00     0.046 C 
ATOM     17  C   UNL     1       1.108  -0.090  -0.113  1.00  0.00    -0.026 A 
ATOM     18  C   UNL     1       0.208  -1.143  -0.060  1.00  0.00     0.117 A 
ATOM     19  C   UNL     1       0.576   1.190  -0.216  1.00  0.00     0.094 A 
ATOM     20  N   UNL     1      -1.138  -0.997  -0.086  1.00  0.00    -0.233 NA
ATOM     21  C   UNL     1      -0.818   1.356  -0.246  1.00  0.00     0.311 A 
BRANCH  21  22
ATOM     22  N   UNL     1      -1.319   2.717  -0.170  1.00  0.00     0.066 N 
ATOM     23  O   UNL     1      -2.235   3.061  -0.928  1.00  0.00    -0.258 OA
ATOM     24  O   UNL     1      -0.742   3.483   0.619  1.00  0.00    -0.258 OA
ENDBRANCH  21  22
ENDBRANCH  10  15
ENDBRANCH   8   9
ENDBRANCH   5   8
ENDBRANCH   3   4
ENDBRANCH   2   3
ENDBRANCH   1   2
BRANCH   1  25
ATOM     25  C   UNL     1      -9.013   4.796   3.636  1.00  0.00     0.002 C 
BRANCH  25  26
ATOM     26  C   UNL     1      -9.701   5.231   2.341  1.00  0.00     0.021 C 
BRANCH  26  27
ATOM     27  C   UNL     1     -11.066   4.588   2.117  1.00  0.00     0.116 C 
BRANCH  27  28
ATOM     28  N   UNL     1     -12.011   4.959   3.159  1.00  0.00    -0.352 N 
ATOM     29  C   UNL     1     -13.262   5.510   3.036  1.00  0.00     0.251 C 
ATOM     30  H   UNL     1     -11.710   4.792   4.082  1.00  0.00     0.163 HD
ATOM     31  O   UNL     1     -13.833   5.967   4.019  1.00  0.00    -0.269 OA
BRANCH  29  32
ATOM     32  C   UNL     1     -13.904   5.560   1.707  1.00  0.00     0.039 A 
ATOM     33  C   UNL     1     -14.532   6.739   1.300  1.00  0.00     0.014 A 
ATOM     34  C   UNL     1     -13.882   4.444   0.864  1.00  0.00     0.014 A 
ATOM     35  C   UNL     1     -15.090   6.817   0.023  1.00  0.00     0.010 A 
ATOM     36  C   UNL     1     -14.373   4.548  -0.433  1.00  0.00     0.010 A 
ATOM     37  C   UNL     1     -14.986   5.734  -0.865  1.00  0.00    -0.014 A 
BRANCH  37  38
ATOM     38  C   UNL     1     -15.511   5.819  -2.252  1.00  0.00     0.031 A 
ATOM     39  C   UNL     1     -16.627   4.910  -2.692  1.00  0.00     0.074 A 
ATOM     40  C   UNL     1     -14.937   6.664  -3.131  1.00  0.00     0.049 A 
ATOM     41  N   UNL     1     -17.164   4.776  -3.877  1.00  0.00    -0.248 NA
ATOM     42  C   UNL     1     -17.197   4.015  -1.671  1.00  0.00     0.031 C 
ATOM     43  C   UNL     1     -13.818   7.562  -2.833  1.00  0.00     0.029 A 
ATOM     44  N   UNL     1     -15.204   6.896  -4.456  1.00  0.00    -0.354 N 
ATOM     45  C   UNL     1     -18.121   3.776  -3.749  1.00  0.00     0.074 A 
ATOM     46  C   UNL     1     -18.055   3.301  -2.384  1.00  0.00     0.031 C 
ATOM     47  C   UNL     1     -13.509   8.260  -3.938  1.00  0.00     0.029 A 
ATOM     48  C   UNL     1     -14.375   7.831  -5.031  1.00  0.00     0.049 A 
ATOM     49  H   UNL     1     -15.922   6.438  -4.950  1.00  0.00     0.167 HD
ATOM     50  C   UNL     1     -18.990   3.313  -4.678  1.00  0.00     0.037 A 
ATOM     51  C   UNL     1     -14.311   8.283  -6.299  1.00  0.00     0.037 A 
ATOM     52  C   UNL     1     -19.063   3.808  -6.028  1.00  0.00     0.049 A 
ATOM     53  C   UNL     1     -15.282   7.746  -7.317  1.00  0.00     0.074 A 
ATOM     54  C   UNL     1     -19.945   3.445  -7.030  1.00  0.00     0.029 A 
ATOM     55  N   UNL     1     -18.220   4.770  -6.567  1.00  0.00    -0.354 N 
ATOM     56  N   UNL     1     -16.223   6.845  -7.163  1.00  0.00    -0.248 NA
ATOM     57  C   UNL     1     -15.188   8.291  -8.678  1.00  0.00     0.031 C 
ATOM     58  C   UNL     1     -19.605   4.151  -8.189  1.00  0.00     0.029 A 
ATOM     59  C   UNL     1     -18.547   4.996  -7.894  1.00  0.00     0.049 A 
ATOM     60  H   UNL     1     -17.497   5.225  -6.078  1.00  0.00     0.167 HD
ATOM     61  C   UNL     1     -16.853   6.737  -8.398  1.00  0.00     0.074 A 
ATOM     62  C   UNL     1     -16.192   7.672  -9.285  1.00  0.00     0.031 C 
ATOM     63  C   UNL     1     -17.887   5.939  -8.763  1.00  0.00     0.037 A 
BRANCH  50  64
ATOM     64  C   UNL     1     -19.934   2.215  -4.268  1.00  0.00     0.058 A 
ATOM     65  C   UNL     1     -20.983   2.443  -3.362  1.00  0.00     0.135 A 
ATOM     66  C   UNL     1     -19.813   0.927  -4.815  1.00  0.00     0.135 A 
ATOM     67  F   UNL     1     -21.138   3.651  -2.797  1.00  0.00    -0.206 F 
ATOM     68  C   UNL     1     -21.859   1.428  -2.992  1.00  0.00     0.059 A 
ATOM     69  C   UNL     1     -20.696  -0.096  -4.482  1.00  0.00     0.059 A 
ATOM     70  F   UNL     1     -18.828   0.652  -5.685  1.00  0.00    -0.206 F 
ATOM     71  C   UNL     1     -21.708   0.161  -3.558  1.00  0.00     0.060 A 
BRANCH  71  72
ATOM     72  S   UNL     1     -22.858  -1.142  -3.071  1.00  0.00     0.124 S 
ATOM     73  O   UNL     1     -22.416  -1.426  -1.709  1.00  0.00    -0.237 OA
ATOM     74  O   UNL     1     -24.151  -0.478  -3.192  1.00  0.00    -0.237 OA
ATOM     75  O   UNL     1     -22.606  -2.200  -4.045  1.00  0.00    -0.744 OA
ENDBRANCH  71  72
ENDBRANCH  50  64
BRANCH  51  76
ATOM     76  C   UNL     1     -13.302   9.310  -6.672  1.00  0.00     0.058 A 
ATOM     77  C   UNL     1     -13.689  10.621  -6.988  1.00  0.00     0.135 A 
ATOM     78  C   UNL     1     -11.932   9.008  -6.706  1.00  0.00     0.135 A 
ATOM     79  F   UNL     1     -14.988  10.958  -6.976  1.00  0.00    -0.206 F 
ATOM     80  C   UNL     1     -12.757  11.591  -7.343  1.00  0.00     0.059 A 
ATOM     81  C   UNL     1     -10.978   9.968  -7.030  1.00  0.00     0.059 A 
ATOM     82  F   UNL     1     -11.507   7.774  -6.395  1.00  0.00    -0.206 F 
ATOM     83  C   UNL     1     -11.403  11.255  -7.358  1.00  0.00     0.060 A 
BRANCH  83  84
ATOM     84  S   UNL     1     -10.198  12.535  -7.776  1.00  0.00     0.124 S 
ATOM     85  O   UNL     1     -10.417  12.687  -9.209  1.00  0.00    -0.237 OA
ATOM     86  O   UNL     1     -10.634  13.649  -6.940  1.00  0.00    -0.237 OA
ATOM     87  O   UNL     1      -8.924  11.934  -7.392  1.00  0.00    -0.744 OA
ENDBRANCH  83  84
ENDBRANCH  51  76
BRANCH  63  88
ATOM     88  C   UNL     1     -18.401   6.066 -10.171  1.00  0.00     0.058 A 
ATOM     89  C   UNL     1     -17.677   5.579 -11.270  1.00  0.00     0.135 A 
ATOM     90  C   UNL     1     -19.666   6.627 -10.414  1.00  0.00     0.135 A 
ATOM     91  F   UNL     1     -16.460   5.041 -11.094  1.00  0.00    -0.206 F 
ATOM     92  C   UNL     1     -18.182   5.661 -12.564  1.00  0.00     0.059 A 
ATOM     93  C   UNL     1     -20.202   6.691 -11.696  1.00  0.00     0.059 A 
ATOM     94  F   UNL     1     -20.403   7.099  -9.396  1.00  0.00    -0.206 F 
ATOM     95  C   UNL     1     -19.448   6.214 -12.766  1.00  0.00     0.060 A 
BRANCH  95  96
ATOM     96  S   UNL     1     -20.109   6.272 -14.445  1.00  0.00     0.124 S 
ATOM     97  O   UNL     1     -19.304   7.334 -15.041  1.00  0.00    -0.237 OA
ATOM     98  O   UNL     1     -19.840   4.923 -14.933  1.00  0.00    -0.237 OA
ATOM     99  O   UNL     1     -21.519   6.591 -14.245  1.00  0.00    -0.744 OA
ENDBRANCH  95  96
ENDBRANCH  63  88
ENDBRANCH  37  38
ENDBRANCH  29  32
ENDBRANCH  27  28
ENDBRANCH  26  27
ENDBRANCH  25  26
ENDBRANCH   1  25
TORSDOF 19
