REMARK SMILES CCCCCCNC(=O)Oc1cccc(-c2ccc([C@@H](C)C(=O)NCCCCCCNC(=O)c3ccc(-c4c5nc(c(-c6c(F)cc(S(=O)(=O)[O-])cc6F)c6ccc([nH]6)c(-c6c(F)cc(S(=O)(=O)[O-])cc6F)c6nc(c(-c7c(F)cc(S(=O)(=O)[O-])cc7F)c7ccc4[nH]7)C=C6)C=C5)cc3)cc2N)c1
REMARK SMILES IDX 22 1 23 2 24 3 20 5 21 6 19 7 16 8 17 9 101 10 18 11 100 12
REMARK SMILES IDX 15 13 11 14 12 15 103 16 13 17 14 18 10 19 8 20 7 21 9 23
REMARK SMILES IDX 6 24 5 25 4 26 3 27 2 28 1 29 102 30 25 33 26 34 27 35 28 36
REMARK SMILES IDX 29 37 30 38 31 39 32 40 33 42 34 43 35 44 99 45 36 46 98 47
REMARK SMILES IDX 37 48 38 49 39 50 92 51 40 52 97 53 91 54 93 55 41 56 96 57
REMARK SMILES IDX 90 58 89 59 42 61 76 62 55 63 75 64 56 65 59 66 74 67 94 68
REMARK SMILES IDX 57 69 58 70 73 72 95 73 60 74 43 75 44 76 53 77 45 78 46 79
REMARK SMILES IDX 52 80 54 81 47 82 48 83 49 84 50 85 51 86 77 87 78 88 87 89
REMARK SMILES IDX 79 90 80 91 86 92 88 93 81 94 82 95 83 96 84 97 85 98 61 99
REMARK SMILES IDX 62 100 71 101 63 102 64 103 70 104 72 105 65 106 66 107
REMARK SMILES IDX 67 108 68 109 69 110
REMARK H PARENT 24 4 7 22 102 31 102 32 31 41 93 60 59 71
REMARK Flexibility Score: inf
ROOT
ATOM      1  C   UNL     1      -3.728  13.018   5.734  1.00  0.00     0.227 C 
ATOM      2  O   UNL     1      -2.759  13.400   5.064  1.00  0.00    -0.274 OA
ATOM      3  N   UNL     1      -3.599  13.108   7.085  1.00  0.00    -0.356 N 
ATOM      4  H   UNL     1      -2.764  13.536   7.383  1.00  0.00     0.163 HD
ENDROOT
BRANCH   1   5
ATOM      5  C   UNL     1      -4.994  12.514   5.024  1.00  0.00     0.105 C 
ATOM      6  C   UNL     1      -6.245  13.341   5.321  1.00  0.00     0.023 C 
BRANCH   5   7
ATOM      7  C   UNL     1      -5.179  11.005   5.073  1.00  0.00    -0.034 A 
ATOM      8  C   UNL     1      -5.333   8.152   5.152  1.00  0.00     0.005 A 
ATOM      9  C   UNL     1      -5.836   8.957   6.192  1.00  0.00     0.011 A 
ATOM     10  C   UNL     1      -4.839   8.812   4.003  1.00  0.00     0.040 A 
ATOM     11  C   UNL     1      -5.811  10.351   6.127  1.00  0.00     0.005 A 
ATOM     12  C   UNL     1      -4.695  10.213   4.019  1.00  0.00     0.030 A 
BRANCH   8  13
ATOM     13  C   UNL     1      -5.368   6.677   5.315  1.00  0.00    -0.013 A 
ATOM     14  C   UNL     1      -4.337   4.483   5.128  1.00  0.00     0.133 A 
ATOM     15  C   UNL     1      -5.470   3.868   5.650  1.00  0.00     0.047 A 
ATOM     16  C   UNL     1      -4.269   5.869   4.975  1.00  0.00     0.056 A 
ATOM     17  C   UNL     1      -6.555   4.650   6.026  1.00  0.00     0.004 A 
ATOM     18  C   UNL     1      -6.508   6.036   5.845  1.00  0.00     0.009 A 
BRANCH  14  19
ATOM     19  O   UNL     1      -3.347   3.628   4.613  1.00  0.00    -0.410 OA
BRANCH  19  20
ATOM     20  C   UNL     1      -2.004   3.870   4.857  1.00  0.00     0.412 C 
ATOM     21  N   UNL     1      -1.183   3.038   4.145  1.00  0.00    -0.321 N 
ATOM     22  H   UNL     1      -0.216   3.131   4.300  1.00  0.00     0.167 HD
ATOM     23  O   UNL     1      -1.546   4.713   5.615  1.00  0.00    -0.224 OA
BRANCH  21  24
ATOM     24  C   UNL     1      -1.596   2.032   3.185  1.00  0.00     0.119 C 
BRANCH  24  25
ATOM     25  C   UNL     1      -1.008   2.295   1.798  1.00  0.00     0.021 C 
BRANCH  25  26
ATOM     26  C   UNL     1       0.520   2.204   1.721  1.00  0.00     0.002 C 
BRANCH  26  27
ATOM     27  C   UNL     1       1.122   0.861   2.151  1.00  0.00    -0.000 C 
BRANCH  27  28
ATOM     28  C   UNL     1       0.633  -0.357   1.363  1.00  0.00    -0.003 C 
ATOM     29  C   UNL     1       0.996  -0.304  -0.112  1.00  0.00     0.004 C 
ENDBRANCH  27  28
ENDBRANCH  26  27
ENDBRANCH  25  26
ENDBRANCH  24  25
ENDBRANCH  21  24
ENDBRANCH  19  20
ENDBRANCH  14  19
ENDBRANCH   8  13
BRANCH  10  30
ATOM     30  N   UNL     1      -4.381   8.121   2.878  1.00  0.00    -0.398 N 
ATOM     31  H   UNL     1      -4.465   7.141   2.833  1.00  0.00     0.156 HD
ATOM     32  H   UNL     1      -3.973   8.615   2.130  1.00  0.00     0.156 HD
ENDBRANCH  10  30
ENDBRANCH   5   7
ENDBRANCH   1   5
BRANCH   3  33
ATOM     33  C   UNL     1      -4.468  12.687   8.164  1.00  0.00     0.116 C 
BRANCH  33  34
ATOM     34  C   UNL     1      -3.994  11.372   8.788  1.00  0.00     0.021 C 
BRANCH  34  35
ATOM     35  C   UNL     1      -3.008  11.559   9.945  1.00  0.00     0.002 C 
BRANCH  35  36
ATOM     36  C   UNL     1      -3.572  12.307  11.160  1.00  0.00     0.002 C 
BRANCH  36  37
ATOM     37  C   UNL     1      -4.851  11.714  11.759  1.00  0.00     0.021 C 
BRANCH  37  38
ATOM     38  C   UNL     1      -4.712  10.280  12.263  1.00  0.00     0.116 C 
BRANCH  38  39
ATOM     39  N   UNL     1      -3.739  10.183  13.340  1.00  0.00    -0.352 N 
ATOM     40  C   UNL     1      -3.909   9.775  14.639  1.00  0.00     0.251 C 
ATOM     41  H   UNL     1      -2.821  10.450  13.101  1.00  0.00     0.163 HD
ATOM     42  O   UNL     1      -3.035  10.002  15.470  1.00  0.00    -0.269 OA
BRANCH  40  43
ATOM     43  C   UNL     1      -5.146   9.069  15.036  1.00  0.00     0.039 A 
ATOM     44  C   UNL     1      -5.760   9.402  16.246  1.00  0.00     0.014 A 
ATOM     45  C   UNL     1      -5.680   8.057  14.233  1.00  0.00     0.014 A 
ATOM     46  C   UNL     1      -6.938   8.753  16.627  1.00  0.00     0.010 A 
ATOM     47  C   UNL     1      -6.890   7.461  14.579  1.00  0.00     0.010 A 
ATOM     48  C   UNL     1      -7.526   7.796  15.784  1.00  0.00    -0.014 A 
BRANCH  48  49
ATOM     49  C   UNL     1      -8.801   7.128  16.149  1.00  0.00     0.031 A 
ATOM     50  C   UNL     1      -8.832   5.642  16.388  1.00  0.00     0.074 A 
ATOM     51  C   UNL     1      -9.940   7.847  16.202  1.00  0.00     0.049 A 
ATOM     52  N   UNL     1      -9.856   4.868  16.643  1.00  0.00    -0.248 NA
ATOM     53  C   UNL     1      -7.548   4.928  16.302  1.00  0.00     0.031 C 
ATOM     54  C   UNL     1     -10.044   9.285  15.943  1.00  0.00     0.029 A 
ATOM     55  N   UNL     1     -11.229   7.467  16.478  1.00  0.00    -0.354 N 
ATOM     56  C   UNL     1      -9.343   3.578  16.732  1.00  0.00     0.074 A 
ATOM     57  C   UNL     1      -7.927   3.667  16.453  1.00  0.00     0.031 C 
ATOM     58  C   UNL     1     -11.322   9.667  16.090  1.00  0.00     0.029 A 
ATOM     59  C   UNL     1     -12.135   8.499  16.416  1.00  0.00     0.049 A 
ATOM     60  H   UNL     1     -11.481   6.541  16.700  1.00  0.00     0.167 HD
ATOM     61  C   UNL     1      -9.991   2.429  17.041  1.00  0.00     0.037 A 
ATOM     62  C   UNL     1     -13.470   8.503  16.594  1.00  0.00     0.037 A 
ATOM     63  C   UNL     1     -11.397   2.354  17.343  1.00  0.00     0.049 A 
ATOM     64  C   UNL     1     -14.166   7.216  16.942  1.00  0.00     0.074 A 
ATOM     65  C   UNL     1     -12.137   1.249  17.726  1.00  0.00     0.029 A 
ATOM     66  N   UNL     1     -12.276   3.427  17.299  1.00  0.00    -0.354 N 
ATOM     67  N   UNL     1     -13.656   6.015  17.083  1.00  0.00    -0.248 NA
ATOM     68  C   UNL     1     -15.617   7.282  17.164  1.00  0.00     0.031 C 
ATOM     69  C   UNL     1     -13.471   1.644  17.869  1.00  0.00     0.029 A 
ATOM     70  C   UNL     1     -13.554   3.006  17.627  1.00  0.00     0.049 A 
ATOM     71  H   UNL     1     -12.027   4.351  17.067  1.00  0.00     0.167 HD
ATOM     72  C   UNL     1     -14.717   5.190  17.439  1.00  0.00     0.074 A 
ATOM     73  C   UNL     1     -15.896   6.030  17.500  1.00  0.00     0.031 C 
ATOM     74  C   UNL     1     -14.716   3.858  17.692  1.00  0.00     0.037 A 
BRANCH  61  75
ATOM     75  C   UNL     1      -9.185   1.159  17.069  1.00  0.00     0.058 A 
ATOM     76  C   UNL     1      -8.230   0.912  18.070  1.00  0.00     0.135 A 
ATOM     77  C   UNL     1      -9.393   0.158  16.106  1.00  0.00     0.135 A 
ATOM     78  F   UNL     1      -7.979   1.839  19.008  1.00  0.00    -0.206 F 
ATOM     79  C   UNL     1      -7.490  -0.266  18.096  1.00  0.00     0.059 A 
ATOM     80  C   UNL     1      -8.686  -1.041  16.130  1.00  0.00     0.059 A 
ATOM     81  F   UNL     1     -10.293   0.339  15.126  1.00  0.00    -0.206 F 
ATOM     82  C   UNL     1      -7.725  -1.237  17.122  1.00  0.00     0.060 A 
BRANCH  82  83
ATOM     83  S   UNL     1      -6.762  -2.763  17.175  1.00  0.00     0.124 S 
ATOM     84  O   UNL     1      -5.454  -2.296  16.724  1.00  0.00    -0.237 OA
ATOM     85  O   UNL     1      -6.849  -3.138  18.582  1.00  0.00    -0.237 OA
ATOM     86  O   UNL     1      -7.467  -3.643  16.249  1.00  0.00    -0.744 OA
ENDBRANCH  82  83
ENDBRANCH  61  75
BRANCH  62  87
ATOM     87  C   UNL     1     -14.232   9.775  16.466  1.00  0.00     0.058 A 
ATOM     88  C   UNL     1     -14.790  10.398  17.592  1.00  0.00     0.135 A 
ATOM     89  C   UNL     1     -14.401  10.401  15.222  1.00  0.00     0.135 A 
ATOM     90  F   UNL     1     -14.660   9.835  18.803  1.00  0.00    -0.206 F 
ATOM     91  C   UNL     1     -15.504  11.587  17.489  1.00  0.00     0.059 A 
ATOM     92  C   UNL     1     -15.089  11.604  15.096  1.00  0.00     0.059 A 
ATOM     93  F   UNL     1     -13.871   9.856  14.116  1.00  0.00    -0.206 F 
ATOM     94  C   UNL     1     -15.646  12.184  16.235  1.00  0.00     0.060 A 
BRANCH  94  95
ATOM     95  S   UNL     1     -16.532  13.754  16.118  1.00  0.00     0.124 S 
ATOM     96  O   UNL     1     -17.913  13.325  16.308  1.00  0.00    -0.237 OA
ATOM     97  O   UNL     1     -15.944  14.520  17.212  1.00  0.00    -0.237 OA
ATOM     98  O   UNL     1     -16.196  14.229  14.779  1.00  0.00    -0.744 OA
ENDBRANCH  94  95
ENDBRANCH  62  87
BRANCH  74  99
ATOM     99  C   UNL     1     -16.020   3.228  18.099  1.00  0.00     0.058 A 
ATOM    100  C   UNL     1     -17.059   3.020  17.179  1.00  0.00     0.135 A 
ATOM    101  C   UNL     1     -16.209   2.779  19.416  1.00  0.00     0.135 A 
ATOM    102  F   UNL     1     -16.931   3.437  15.909  1.00  0.00    -0.206 F 
ATOM    103  C   UNL     1     -18.250   2.409  17.556  1.00  0.00     0.059 A 
ATOM    104  C   UNL     1     -17.381   2.140  19.808  1.00  0.00     0.059 A 
ATOM    105  F   UNL     1     -15.242   2.944  20.333  1.00  0.00    -0.206 F 
ATOM    106  C   UNL     1     -18.401   1.970  18.873  1.00  0.00     0.060 A 
BRANCH 106 107
ATOM    107  S   UNL     1     -19.938   1.146  19.341  1.00  0.00     0.124 S 
ATOM    108  O   UNL     1     -20.867   2.269  19.396  1.00  0.00    -0.237 OA
ATOM    109  O   UNL     1     -20.139   0.210  18.239  1.00  0.00    -0.237 OA
ATOM    110  O   UNL     1     -19.617   0.532  20.626  1.00  0.00    -0.744 OA
ENDBRANCH 106 107
ENDBRANCH  74  99
ENDBRANCH  48  49
ENDBRANCH  40  43
ENDBRANCH  38  39
ENDBRANCH  37  38
ENDBRANCH  36  37
ENDBRANCH  35  36
ENDBRANCH  34  35
ENDBRANCH  33  34
ENDBRANCH   3  33
TORSDOF 26
