REMARK SMILES O=C(CN(CC(F)(F)F)C(=O)CC[C@H]1CCC[NH2+]C1)NCCCCCCNC(=O)c1ccc(-c2c3nc(c(-c4c(F)cc(S(=O)(=O)[O-])cc4F)c4ccc([nH]4)c(-c4c(F)cc(S(=O)(=O)[O-])cc4F)c4nc(c(-c5c(F)cc(S(=O)(=O)[O-])cc5F)c5ccc2[nH]5)C=C4)C=C3)cc1
REMARK SMILES IDX 22 1 21 2 20 3 1 4 2 5 3 7 4 8 5 9 6 10 7 11 8 12 9 13 10 14
REMARK SMILES IDX 11 15 12 16 13 17 14 18 15 19 19 20 16 21 18 22 17 23 23 26
REMARK SMILES IDX 24 27 25 28 26 29 27 30 28 31 29 33 30 34 31 35 95 36 32 37
REMARK SMILES IDX 94 38 33 39 34 40 35 41 88 42 36 43 93 44 87 45 89 46 37 47
REMARK SMILES IDX 92 48 86 49 85 50 38 52 72 53 51 54 71 55 52 56 55 57 70 58
REMARK SMILES IDX 90 59 53 60 54 61 69 63 91 64 56 65 39 66 40 67 49 68 41 69
REMARK SMILES IDX 42 70 48 71 50 72 43 73 44 74 45 75 46 76 47 77 73 78 74 79
REMARK SMILES IDX 83 80 75 81 76 82 82 83 84 84 77 85 78 86 79 87 80 88 81 89
REMARK SMILES IDX 57 90 58 91 67 92 59 93 60 94 66 95 68 96 61 97 62 98 63 99
REMARK SMILES IDX 64 100 65 101
REMARK H PARENT 20 6 18 24 18 25 27 32 89 51 55 62
REMARK Flexibility Score: inf
ROOT
ATOM      1  C   UNL     1       5.277   3.137   5.321  1.00  0.00     0.021 C 
ENDROOT
BRANCH   1   2
ATOM      2  C   UNL     1       4.921   4.193   4.275  1.00  0.00     0.116 C 
BRANCH   2   3
ATOM      3  N   UNL     1       4.262   3.635   3.108  1.00  0.00    -0.355 N 
ATOM      4  O   UNL     1       2.159   4.291   3.733  1.00  0.00    -0.273 OA
ATOM      5  C   UNL     1       2.918   3.835   2.877  1.00  0.00     0.239 C 
ATOM      6  H   UNL     1       4.786   3.102   2.468  1.00  0.00     0.163 HD
BRANCH   5   7
ATOM      7  C   UNL     1       2.356   3.247   1.569  1.00  0.00     0.219 C 
BRANCH   7   8
ATOM      8  N   UNL     1       3.231   3.110   0.382  1.00  0.00    -0.324 N 
BRANCH   8   9
ATOM      9  C   UNL     1       3.106   1.787  -0.315  1.00  0.00     0.235 C 
BRANCH   9  10
ATOM     10  C   UNL     1       2.784   1.682  -1.810  1.00  0.00     0.406 C 
ATOM     11  F   UNL     1       3.740   2.173  -2.616  1.00  0.00    -0.169 F 
ATOM     12  F   UNL     1       2.641   0.375  -2.151  1.00  0.00    -0.169 F 
ATOM     13  F   UNL     1       1.619   2.298  -2.108  1.00  0.00    -0.169 F 
ENDBRANCH   9  10
ENDBRANCH   8   9
BRANCH   8  14
ATOM     14  C   UNL     1       3.823   4.299  -0.047  1.00  0.00     0.223 C 
ATOM     15  O   UNL     1       3.535   5.355   0.533  1.00  0.00    -0.275 OA
BRANCH  14  16
ATOM     16  C   UNL     1       4.863   4.406  -1.170  1.00  0.00     0.101 C 
BRANCH  16  17
ATOM     17  C   UNL     1       6.306   3.987  -0.818  1.00  0.00     0.019 C 
BRANCH  17  18
ATOM     18  C   UNL     1       6.421   2.477  -0.654  1.00  0.00     0.045 C 
ATOM     19  C   UNL     1       7.006   1.699  -1.832  1.00  0.00     0.015 C 
ATOM     20  C   UNL     1       7.082   2.028   0.647  1.00  0.00     0.264 C 
ATOM     21  C   UNL     1       6.728   0.209  -1.589  1.00  0.00     0.062 C 
ATOM     22  N   UNL     1       6.706   0.630   0.885  1.00  0.00    -0.346 N 
ATOM     23  C   UNL     1       7.173  -0.247  -0.193  1.00  0.00     0.260 C 
ATOM     24  H   UNL     1       7.120   0.322   1.765  1.00  0.00     0.346 HD
ATOM     25  H   UNL     1       5.688   0.576   0.922  1.00  0.00     0.346 HD
ENDBRANCH  17  18
ENDBRANCH  16  17
ENDBRANCH  14  16
ENDBRANCH   8  14
ENDBRANCH   7   8
ENDBRANCH   5   7
ENDBRANCH   2   3
ENDBRANCH   1   2
BRANCH   1  26
ATOM     26  C   UNL     1       6.376   2.157   4.895  1.00  0.00     0.002 C 
BRANCH  26  27
ATOM     27  C   UNL     1       7.722   2.790   4.525  1.00  0.00     0.002 C 
BRANCH  27  28
ATOM     28  C   UNL     1       8.364   3.665   5.604  1.00  0.00     0.021 C 
BRANCH  28  29
ATOM     29  C   UNL     1       8.665   2.958   6.923  1.00  0.00     0.116 C 
BRANCH  29  30
ATOM     30  N   UNL     1       9.645   1.894   6.771  1.00  0.00    -0.352 N 
ATOM     31  C   UNL     1      10.825   1.683   7.445  1.00  0.00     0.251 C 
ATOM     32  H   UNL     1       9.431   1.224   6.082  1.00  0.00     0.163 HD
ATOM     33  O   UNL     1      11.605   0.825   7.049  1.00  0.00    -0.269 OA
BRANCH  31  34
ATOM     34  C   UNL     1      11.163   2.505   8.631  1.00  0.00     0.039 A 
ATOM     35  C   UNL     1      12.466   2.992   8.768  1.00  0.00     0.014 A 
ATOM     36  C   UNL     1      10.207   2.788   9.610  1.00  0.00     0.014 A 
ATOM     37  C   UNL     1      12.790   3.816   9.849  1.00  0.00     0.010 A 
ATOM     38  C   UNL     1      10.510   3.672  10.643  1.00  0.00     0.010 A 
ATOM     39  C   UNL     1      11.805   4.195  10.777  1.00  0.00    -0.014 A 
BRANCH  39  40
ATOM     40  C   UNL     1      12.108   5.142  11.883  1.00  0.00     0.031 A 
ATOM     41  C   UNL     1      11.993   4.699  13.318  1.00  0.00     0.074 A 
ATOM     42  C   UNL     1      12.428   6.420  11.597  1.00  0.00     0.049 A 
ATOM     43  N   UNL     1      12.168   5.393  14.414  1.00  0.00    -0.248 NA
ATOM     44  C   UNL     1      11.604   3.299  13.551  1.00  0.00     0.031 C 
ATOM     45  C   UNL     1      12.533   6.984  10.250  1.00  0.00     0.029 A 
ATOM     46  N   UNL     1      12.719   7.479  12.421  1.00  0.00    -0.354 N 
ATOM     47  C   UNL     1      11.899   4.521  15.463  1.00  0.00     0.074 A 
ATOM     48  C   UNL     1      11.494   3.264  14.871  1.00  0.00     0.031 C 
ATOM     49  C   UNL     1      12.896   8.274  10.339  1.00  0.00     0.029 A 
ATOM     50  C   UNL     1      13.006   8.643  11.746  1.00  0.00     0.049 A 
ATOM     51  H   UNL     1      12.721   7.412  13.403  1.00  0.00     0.167 HD
ATOM     52  C   UNL     1      12.000   4.739  16.797  1.00  0.00     0.037 A 
ATOM     53  C   UNL     1      13.318   9.870  12.208  1.00  0.00     0.037 A 
ATOM     54  C   UNL     1      12.417   5.990  17.378  1.00  0.00     0.049 A 
ATOM     55  C   UNL     1      13.398  10.096  13.694  1.00  0.00     0.074 A 
ATOM     56  C   UNL     1      12.610   6.295  18.715  1.00  0.00     0.029 A 
ATOM     57  N   UNL     1      12.694   7.146  16.662  1.00  0.00    -0.354 N 
ATOM     58  N   UNL     1      13.212   9.240  14.671  1.00  0.00    -0.248 NA
ATOM     59  C   UNL     1      13.734  11.455  14.141  1.00  0.00     0.031 C 
ATOM     60  C   UNL     1      12.946   7.650  18.810  1.00  0.00     0.029 A 
ATOM     61  C   UNL     1      13.025   8.174  17.530  1.00  0.00     0.049 A 
ATOM     62  H   UNL     1      12.661   7.224  15.681  1.00  0.00     0.167 HD
ATOM     63  C   UNL     1      13.442   9.948  15.846  1.00  0.00     0.074 A 
ATOM     64  C   UNL     1      13.790  11.299  15.457  1.00  0.00     0.031 C 
ATOM     65  C   UNL     1      13.376   9.516  17.130  1.00  0.00     0.037 A 
BRANCH  52  66
ATOM     66  C   UNL     1      11.642   3.603  17.719  1.00  0.00     0.058 A 
ATOM     67  C   UNL     1      12.421   2.437  17.797  1.00  0.00     0.135 A 
ATOM     68  C   UNL     1      10.511   3.686  18.549  1.00  0.00     0.135 A 
ATOM     69  F   UNL     1      13.507   2.295  17.020  1.00  0.00    -0.206 F 
ATOM     70  C   UNL     1      12.070   1.378  18.629  1.00  0.00     0.059 A 
ATOM     71  C   UNL     1      10.159   2.654  19.414  1.00  0.00     0.059 A 
ATOM     72  F   UNL     1       9.731   4.778  18.521  1.00  0.00    -0.206 F 
ATOM     73  C   UNL     1      10.934   1.495  19.431  1.00  0.00     0.060 A 
BRANCH  73  74
ATOM     74  S   UNL     1      10.480   0.105  20.490  1.00  0.00     0.124 S 
ATOM     75  O   UNL     1      10.001  -0.863  19.508  1.00  0.00    -0.237 OA
ATOM     76  O   UNL     1      11.748  -0.223  21.134  1.00  0.00    -0.237 OA
ATOM     77  O   UNL     1       9.459   0.664  21.369  1.00  0.00    -0.744 OA
ENDBRANCH  73  74
ENDBRANCH  52  66
BRANCH  53  78
ATOM     78  C   UNL     1      13.613  10.973  11.253  1.00  0.00     0.058 A 
ATOM     79  C   UNL     1      14.913  11.485  11.127  1.00  0.00     0.135 A 
ATOM     80  C   UNL     1      12.612  11.529  10.441  1.00  0.00     0.135 A 
ATOM     81  F   UNL     1      15.903  10.992  11.887  1.00  0.00    -0.206 F 
ATOM     82  C   UNL     1      15.210  12.518  10.244  1.00  0.00     0.059 A 
ATOM     83  C   UNL     1      12.889  12.544   9.529  1.00  0.00     0.059 A 
ATOM     84  F   UNL     1      11.354  11.066  10.510  1.00  0.00    -0.206 F 
ATOM     85  C   UNL     1      14.190  13.038   9.445  1.00  0.00     0.060 A 
BRANCH  85  86
ATOM     86  S   UNL     1      14.599  14.343   8.266  1.00  0.00     0.124 S 
ATOM     87  O   UNL     1      14.838  15.476   9.152  1.00  0.00    -0.237 OA
ATOM     88  O   UNL     1      15.776  13.794   7.599  1.00  0.00    -0.237 OA
ATOM     89  O   UNL     1      13.402  14.432   7.435  1.00  0.00    -0.744 OA
ENDBRANCH  85  86
ENDBRANCH  53  78
BRANCH  65  90
ATOM     90  C   UNL     1      13.727  10.501  18.213  1.00  0.00     0.058 A 
ATOM     91  C   UNL     1      12.889  11.580  18.537  1.00  0.00     0.135 A 
ATOM     92  C   UNL     1      14.898  10.334  18.971  1.00  0.00     0.135 A 
ATOM     93  F   UNL     1      11.761  11.792  17.841  1.00  0.00    -0.206 F 
ATOM     94  C   UNL     1      13.212  12.472  19.555  1.00  0.00     0.059 A 
ATOM     95  C   UNL     1      15.225  11.194  20.015  1.00  0.00     0.059 A 
ATOM     96  F   UNL     1      15.732   9.314  18.712  1.00  0.00    -0.206 F 
ATOM     97  C   UNL     1      14.381  12.268  20.291  1.00  0.00     0.060 A 
BRANCH  97  98
ATOM     98  S   UNL     1      14.770  13.413  21.632  1.00  0.00     0.124 S 
ATOM     99  O   UNL     1      15.162  14.609  20.893  1.00  0.00    -0.237 OA
ATOM    100  O   UNL     1      13.501  13.497  22.348  1.00  0.00    -0.237 OA
ATOM    101  O   UNL     1      15.846  12.740  22.353  1.00  0.00    -0.744 OA
ENDBRANCH  97  98
ENDBRANCH  65  90
ENDBRANCH  39  40
ENDBRANCH  31  34
ENDBRANCH  29  30
ENDBRANCH  28  29
ENDBRANCH  27  28
ENDBRANCH  26  27
ENDBRANCH   1  26
TORSDOF 23
