REMARK SMILES Cc1cc(SCC(=O)NCCCCCCNC(=O)c2ccc(-c3c4nc(c(-c5c(F)cc(S(=O)(=O)[O-])cc5F)c5ccc([nH]5)c(-c5c(F)cc(S(=O)(=O)[O-])cc5F)c5nc(c(-c6c(F)cc(S(=O)(=O)[O-])cc6F)c6ccc3[nH]6)C=C5)C=C4)cc2)c2cc(I)ccc2n1
REMARK SMILES IDX 13 1 12 2 11 3 10 4 9 5 7 6 8 7 6 9 5 10 4 11 1 12 2 13 3 14
REMARK SMILES IDX 92 15 91 16 85 17 90 18 86 19 89 20 87 21 88 22 14 23 15 24
REMARK SMILES IDX 16 25 17 26 18 28 19 29 20 30 84 31 21 32 83 33 22 34 23 35
REMARK SMILES IDX 24 36 77 37 25 38 82 39 76 40 78 41 26 42 81 43 75 44 74 45
REMARK SMILES IDX 27 47 61 48 40 49 60 50 41 51 44 52 59 53 79 54 42 55 43 56
REMARK SMILES IDX 58 58 80 59 45 60 28 61 29 62 38 63 30 64 31 65 37 66 39 67
REMARK SMILES IDX 32 68 33 69 34 70 35 71 36 72 62 73 63 74 72 75 64 76 65 77
REMARK SMILES IDX 71 78 73 79 66 80 67 81 68 82 69 83 70 84 46 85 47 86 56 87
REMARK SMILES IDX 48 88 49 89 55 90 57 91 50 92 51 93 52 94 53 95 54 96
REMARK H PARENT 9 8 16 27 78 46 44 57
REMARK Flexibility Score: inf
ROOT
ATOM      1  C   UNL     1       2.012   1.934  -7.878  1.00  0.00     0.002 C 
ENDROOT
BRANCH   1   2
ATOM      2  C   UNL     1       1.917   2.321  -6.398  1.00  0.00     0.002 C 
BRANCH   2   3
ATOM      3  C   UNL     1       0.553   2.857  -5.935  1.00  0.00     0.021 C 
BRANCH   3   4
ATOM      4  C   UNL     1      -0.619   1.901  -6.171  1.00  0.00     0.116 C 
BRANCH   4   5
ATOM      5  N   UNL     1      -0.450   0.680  -5.406  1.00  0.00    -0.355 N 
ATOM      6  C   UNL     1      -1.129   0.226  -4.320  1.00  0.00     0.230 C 
ATOM      7  O   UNL     1      -0.729  -0.815  -3.788  1.00  0.00    -0.274 OA
ATOM      8  H   UNL     1       0.269   0.087  -5.724  1.00  0.00     0.163 HD
BRANCH   6   9
ATOM      9  C   UNL     1      -2.391   0.906  -3.829  1.00  0.00     0.174 C 
BRANCH   9  10
ATOM     10  S   UNL     1      -2.178   2.575  -3.138  1.00  0.00    -0.115 SA
BRANCH  10  11
ATOM     11  C   UNL     1      -0.909   2.457  -1.863  1.00  0.00     0.019 A 
ATOM     12  C   UNL     1       0.910  -0.105   0.238  1.00  0.00     0.067 C 
ATOM     13  C   UNL     1       0.466   1.198  -0.355  1.00  0.00     0.039 A 
ATOM     14  C   UNL     1      -0.549   1.234  -1.298  1.00  0.00     0.039 A 
ATOM     15  N   UNL     1       1.075   2.311   0.103  1.00  0.00    -0.253 NA
ATOM     16  C   UNL     1       0.705   3.500  -0.391  1.00  0.00     0.072 A 
ATOM     17  C   UNL     1      -0.281   3.647  -1.391  1.00  0.00     0.015 A 
ATOM     18  C   UNL     1       1.332   4.629   0.121  1.00  0.00     0.030 A 
ATOM     19  C   UNL     1      -0.579   4.964  -1.842  1.00  0.00     0.026 A 
ATOM     20  C   UNL     1       1.024   5.917  -0.322  1.00  0.00     0.017 A 
ATOM     21  C   UNL     1       0.066   6.080  -1.310  1.00  0.00     0.014 A 
ATOM     22  I   UNL     1      -0.412   7.982  -1.989  1.00  0.00    -0.044 I 
ENDBRANCH  10  11
ENDBRANCH   9  10
ENDBRANCH   6   9
ENDBRANCH   4   5
ENDBRANCH   3   4
ENDBRANCH   2   3
ENDBRANCH   1   2
BRANCH   1  23
ATOM     23  C   UNL     1       1.594   3.023  -8.868  1.00  0.00     0.021 C 
BRANCH  23  24
ATOM     24  C   UNL     1       2.374   4.328  -8.755  1.00  0.00     0.116 C 
BRANCH  24  25
ATOM     25  N   UNL     1       3.765   4.189  -9.159  1.00  0.00    -0.352 N 
ATOM     26  C   UNL     1       4.479   4.939 -10.065  1.00  0.00     0.251 C 
ATOM     27  H   UNL     1       4.263   3.459  -8.724  1.00  0.00     0.163 HD
ATOM     28  O   UNL     1       5.611   4.599 -10.397  1.00  0.00    -0.269 OA
BRANCH  26  29
ATOM     29  C   UNL     1       3.855   6.139 -10.665  1.00  0.00     0.039 A 
ATOM     30  C   UNL     1       3.212   7.081  -9.858  1.00  0.00     0.014 A 
ATOM     31  C   UNL     1       3.875   6.296 -12.053  1.00  0.00     0.014 A 
ATOM     32  C   UNL     1       2.456   8.089 -10.447  1.00  0.00     0.010 A 
ATOM     33  C   UNL     1       3.174   7.354 -12.640  1.00  0.00     0.010 A 
ATOM     34  C   UNL     1       2.419   8.230 -11.845  1.00  0.00    -0.014 A 
BRANCH  34  35
ATOM     35  C   UNL     1       1.570   9.289 -12.451  1.00  0.00     0.031 A 
ATOM     36  C   UNL     1       0.356   8.927 -13.266  1.00  0.00     0.074 A 
ATOM     37  C   UNL     1       1.854  10.582 -12.204  1.00  0.00     0.049 A 
ATOM     38  N   UNL     1      -0.508   9.716 -13.853  1.00  0.00    -0.248 NA
ATOM     39  C   UNL     1       0.074   7.494 -13.443  1.00  0.00     0.031 C 
ATOM     40  C   UNL     1       2.982  11.057 -11.402  1.00  0.00     0.029 A 
ATOM     41  N   UNL     1       1.200  11.730 -12.571  1.00  0.00    -0.354 N 
ATOM     42  C   UNL     1      -1.429   8.880 -14.474  1.00  0.00     0.074 A 
ATOM     43  C   UNL     1      -1.001   7.521 -14.219  1.00  0.00     0.031 C 
ATOM     44  C   UNL     1       2.905  12.390 -11.282  1.00  0.00     0.029 A 
ATOM     45  C   UNL     1       1.759  12.871 -12.047  1.00  0.00     0.049 A 
ATOM     46  H   UNL     1       0.406  11.736 -13.154  1.00  0.00     0.167 HD
ATOM     47  C   UNL     1      -2.536   9.214 -15.182  1.00  0.00     0.037 A 
ATOM     48  C   UNL     1       1.392  14.161 -12.169  1.00  0.00     0.037 A 
ATOM     49  C   UNL     1      -2.962  10.567 -15.431  1.00  0.00     0.049 A 
ATOM     50  C   UNL     1       0.194  14.509 -13.002  1.00  0.00     0.074 A 
ATOM     51  C   UNL     1      -4.049  11.008 -16.166  1.00  0.00     0.029 A 
ATOM     52  N   UNL     1      -2.327  11.699 -14.941  1.00  0.00    -0.354 N 
ATOM     53  N   UNL     1      -0.634  13.707 -13.627  1.00  0.00    -0.248 NA
ATOM     54  C   UNL     1      -0.112  15.937 -13.159  1.00  0.00     0.031 C 
ATOM     55  C   UNL     1      -4.057  12.408 -16.141  1.00  0.00     0.029 A 
ATOM     56  C   UNL     1      -2.996  12.838 -15.360  1.00  0.00     0.049 A 
ATOM     57  H   UNL     1      -1.519  11.695 -14.378  1.00  0.00     0.167 HD
ATOM     58  C   UNL     1      -1.567  14.531 -14.244  1.00  0.00     0.074 A 
ATOM     59  C   UNL     1      -1.208  15.894 -13.906  1.00  0.00     0.031 C 
ATOM     60  C   UNL     1      -2.624  14.188 -15.020  1.00  0.00     0.037 A 
BRANCH  47  61
ATOM     61  C   UNL     1      -3.359   8.090 -15.748  1.00  0.00     0.058 A 
ATOM     62  C   UNL     1      -4.176   7.295 -14.929  1.00  0.00     0.135 A 
ATOM     63  C   UNL     1      -3.347   7.816 -17.125  1.00  0.00     0.135 A 
ATOM     64  F   UNL     1      -4.211   7.503 -13.604  1.00  0.00    -0.206 F 
ATOM     65  C   UNL     1      -4.932   6.250 -15.451  1.00  0.00     0.059 A 
ATOM     66  C   UNL     1      -4.111   6.789 -17.673  1.00  0.00     0.059 A 
ATOM     67  F   UNL     1      -2.583   8.545 -17.953  1.00  0.00    -0.206 F 
ATOM     68  C   UNL     1      -4.888   6.001 -16.824  1.00  0.00     0.060 A 
BRANCH  68  69
ATOM     69  S   UNL     1      -5.860   4.629 -17.483  1.00  0.00     0.124 S 
ATOM     70  O   UNL     1      -5.076   3.480 -17.040  1.00  0.00    -0.237 OA
ATOM     71  O   UNL     1      -7.147   4.809 -16.821  1.00  0.00    -0.237 OA
ATOM     72  O   UNL     1      -5.859   4.872 -18.922  1.00  0.00    -0.744 OA
ENDBRANCH  68  69
ENDBRANCH  47  61
BRANCH  48  73
ATOM     73  C   UNL     1       2.166  15.208 -11.456  1.00  0.00     0.058 A 
ATOM     74  C   UNL     1       1.639  15.837 -10.320  1.00  0.00     0.135 A 
ATOM     75  C   UNL     1       3.467  15.552 -11.854  1.00  0.00     0.135 A 
ATOM     76  F   UNL     1       0.396  15.545  -9.907  1.00  0.00    -0.206 F 
ATOM     77  C   UNL     1       2.379  16.764  -9.594  1.00  0.00     0.059 A 
ATOM     78  C   UNL     1       4.234  16.460 -11.133  1.00  0.00     0.059 A 
ATOM     79  F   UNL     1       4.018  14.966 -12.929  1.00  0.00    -0.206 F 
ATOM     80  C   UNL     1       3.680  17.061 -10.003  1.00  0.00     0.060 A 
BRANCH  80  81
ATOM     81  S   UNL     1       4.666  18.194  -8.999  1.00  0.00     0.124 S 
ATOM     82  O   UNL     1       4.069  19.481  -9.336  1.00  0.00    -0.237 OA
ATOM     83  O   UNL     1       4.412  17.706  -7.647  1.00  0.00    -0.237 OA
ATOM     84  O   UNL     1       6.024  17.979  -9.489  1.00  0.00    -0.744 OA
ENDBRANCH  80  81
ENDBRANCH  48  73
BRANCH  60  85
ATOM     85  C   UNL     1      -3.479  15.304 -15.546  1.00  0.00     0.058 A 
ATOM     86  C   UNL     1      -3.060  16.104 -16.620  1.00  0.00     0.135 A 
ATOM     87  C   UNL     1      -4.749  15.546 -14.999  1.00  0.00     0.135 A 
ATOM     88  F   UNL     1      -1.851  15.916 -17.171  1.00  0.00    -0.206 F 
ATOM     89  C   UNL     1      -3.866  17.119 -17.124  1.00  0.00     0.059 A 
ATOM     90  C   UNL     1      -5.579  16.544 -15.500  1.00  0.00     0.059 A 
ATOM     91  F   UNL     1      -5.197  14.803 -13.975  1.00  0.00    -0.206 F 
ATOM     92  C   UNL     1      -5.125  17.332 -16.557  1.00  0.00     0.060 A 
BRANCH  92  93
ATOM     93  S   UNL     1      -6.174  18.632 -17.241  1.00  0.00     0.124 S 
ATOM     94  O   UNL     1      -5.538  19.833 -16.708  1.00  0.00    -0.237 OA
ATOM     95  O   UNL     1      -6.033  18.426 -18.679  1.00  0.00    -0.237 OA
ATOM     96  O   UNL     1      -7.493  18.325 -16.696  1.00  0.00    -0.744 OA
ENDBRANCH  92  93
ENDBRANCH  60  85
ENDBRANCH  34  35
ENDBRANCH  26  29
ENDBRANCH  24  25
ENDBRANCH  23  24
ENDBRANCH   1  23
TORSDOF 18
