REMARK SMILES COc1ccc(CCN2/C(=[NH+]/C(=O)CCC(=O)NCCCCCCNC(=O)c3ccc(-c4c5nc(c(-c6c(F)cc(S(=O)(=O)[O-])cc6F)c6ccc([nH]6)c(-c6c(F)cc(S(=O)(=O)[O-])cc6F)c6nc(c(-c7c(F)cc(S(=O)(=O)[O-])cc7F)c7ccc4[nH]7)C=C6)C=C5)cc3)S[C@@H]3CS(=O)(=O)C[C@@H]32)cc1
REMARK SMILES IDX 20 1 19 2 18 3 16 4 17 5 15 7 14 8 12 9 9 10 10 11 101 12
REMARK SMILES IDX 11 13 94 14 95 15 100 16 96 18 97 19 13 20 98 21 99 22 8 23
REMARK SMILES IDX 7 24 6 25 3 26 4 27 103 28 5 29 102 30 2 31 1 32 21 33 22 34
REMARK SMILES IDX 23 35 24 36 25 37 26 38 27 40 28 41 29 42 93 43 30 44 92 45
REMARK SMILES IDX 31 46 32 47 33 48 86 49 34 50 91 51 85 52 87 53 35 54 90 55
REMARK SMILES IDX 84 56 83 57 36 59 70 60 49 61 69 62 50 63 53 64 68 65 88 66
REMARK SMILES IDX 51 67 52 68 67 70 89 71 54 72 37 73 38 74 47 75 39 76 40 77
REMARK SMILES IDX 46 78 48 79 41 80 42 81 43 82 44 83 45 84 71 85 72 86 81 87
REMARK SMILES IDX 73 88 74 89 80 90 82 91 75 92 76 93 77 94 78 95 79 96 55 97
REMARK SMILES IDX 56 98 65 99 57 100 58 101 64 102 66 103 59 104 60 105 61 106
REMARK SMILES IDX 62 107 63 108
REMARK H PARENT 18 6 11 17 25 39 87 58 53 69
REMARK Flexibility Score: inf
ROOT
ATOM      1  C   UNL     1       1.130  -1.900   9.645  1.00  0.00     0.021 C 
ENDROOT
BRANCH   1   2
ATOM      2  C   UNL     1       1.601  -1.376  10.981  1.00  0.00     0.116 C 
BRANCH   2   3
ATOM      3  N   UNL     1       2.785  -0.566  10.770  1.00  0.00    -0.356 N 
ATOM      4  C   UNL     1       2.871   0.593  10.044  1.00  0.00     0.220 C 
ATOM      5  O   UNL     1       3.985   0.999   9.713  1.00  0.00    -0.275 OA
ATOM      6  H   UNL     1       3.616  -0.882  11.194  1.00  0.00     0.163 HD
BRANCH   4   7
ATOM      7  C   UNL     1       1.604   1.363   9.685  1.00  0.00     0.112 C 
BRANCH   7   8
ATOM      8  C   UNL     1       1.386   1.519   8.171  1.00  0.00     0.138 C 
BRANCH   8   9
ATOM      9  C   UNL     1       0.283   0.617   7.615  1.00  0.00     0.308 C 
ATOM     10  N   UNL     1       0.506  -2.744   6.083  1.00  0.00    -0.251 N 
ATOM     11  C   UNL     1      -0.008  -1.517   6.607  1.00  0.00     0.314 C 
ATOM     12  C   UNL     1      -0.334  -3.967   6.146  1.00  0.00     0.206 C 
ATOM     13  N   UNL     1       0.723  -0.460   6.843  1.00  0.00    -0.205 N 
ATOM     14  S   UNL     1      -1.759  -1.596   7.115  1.00  0.00    -0.030 SA
ATOM     15  C   UNL     1      -1.992  -3.386   7.007  1.00  0.00     0.120 C 
ATOM     16  C   UNL     1       0.482  -5.587   7.041  1.00  0.00     0.187 C 
ATOM     17  H   UNL     1       1.628  -0.421   6.457  1.00  0.00     0.316 HD
ATOM     18  C   UNL     1      -2.602  -4.634   8.422  1.00  0.00     0.156 C 
ATOM     19  S   UNL     1      -1.001  -6.314   8.709  1.00  0.00     0.155 S 
ATOM     20  O   UNL     1      -0.868   0.878   7.963  1.00  0.00    -0.247 OA
ATOM     21  O   UNL     1      -0.462  -6.258  10.056  1.00  0.00    -0.229 OA
ATOM     22  O   UNL     1      -1.537  -7.617   8.345  1.00  0.00    -0.229 OA
BRANCH  10  23
ATOM     23  C   UNL     1       1.872  -2.953   5.576  1.00  0.00     0.242 C 
BRANCH  23  24
ATOM     24  C   UNL     1       1.927  -3.720   4.236  1.00  0.00     0.081 C 
BRANCH  24  25
ATOM     25  C   UNL     1       1.604  -2.770   3.122  1.00  0.00    -0.044 A 
ATOM     26  C   UNL     1       1.093  -0.574   1.520  1.00  0.00     0.118 A 
ATOM     27  C   UNL     1       0.033  -1.229   2.133  1.00  0.00     0.046 A 
ATOM     28  C   UNL     1       2.402  -1.035   1.655  1.00  0.00     0.046 A 
ATOM     29  C   UNL     1       0.285  -2.350   2.909  1.00  0.00     0.007 A 
ATOM     30  C   UNL     1       2.658  -2.144   2.449  1.00  0.00     0.007 A 
BRANCH  26  31
ATOM     31  O   UNL     1       0.810   0.579   0.845  1.00  0.00    -0.497 OA
ATOM     32  C   UNL     1       1.086   0.416  -0.541  1.00  0.00     0.278 C 
ENDBRANCH  26  31
ENDBRANCH  24  25
ENDBRANCH  23  24
ENDBRANCH  10  23
ENDBRANCH   8   9
ENDBRANCH   7   8
ENDBRANCH   4   7
ENDBRANCH   2   3
ENDBRANCH   1   2
BRANCH   1  33
ATOM     33  C   UNL     1       1.887  -3.113   9.119  1.00  0.00     0.002 C 
BRANCH  33  34
ATOM     34  C   UNL     1       1.013  -4.373   9.148  1.00  0.00     0.002 C 
BRANCH  34  35
ATOM     35  C   UNL     1      -0.491  -4.282   8.200  1.00  0.00     0.021 C 
BRANCH  35  36
ATOM     36  C   UNL     1      -1.562  -5.466   6.754  1.00  0.00     0.116 C 
BRANCH  36  37
ATOM     37  N   UNL     1      -1.088  -6.243   5.460  1.00  0.00    -0.352 N 
ATOM     38  C   UNL     1      -1.774  -7.089   4.627  1.00  0.00     0.251 C 
ATOM     39  H   UNL     1      -0.147  -6.094   5.212  1.00  0.00     0.163 HD
ATOM     40  O   UNL     1      -1.175  -7.753   3.791  1.00  0.00    -0.269 OA
BRANCH  38  41
ATOM     41  C   UNL     1      -3.225  -7.054   4.667  1.00  0.00     0.039 A 
ATOM     42  C   UNL     1      -3.942  -8.193   5.010  1.00  0.00     0.014 A 
ATOM     43  C   UNL     1      -3.842  -5.832   4.378  1.00  0.00     0.014 A 
ATOM     44  C   UNL     1      -5.320  -8.090   5.099  1.00  0.00     0.010 A 
ATOM     45  C   UNL     1      -5.200  -5.708   4.571  1.00  0.00     0.010 A 
ATOM     46  C   UNL     1      -5.946  -6.844   4.908  1.00  0.00    -0.014 A 
BRANCH  46  47
ATOM     47  C   UNL     1      -7.406  -6.722   5.028  1.00  0.00     0.031 A 
ATOM     48  C   UNL     1      -8.209  -6.351   3.819  1.00  0.00     0.074 A 
ATOM     49  C   UNL     1      -7.967  -6.919   6.234  1.00  0.00     0.049 A 
ATOM     50  N   UNL     1      -9.497  -6.175   3.715  1.00  0.00    -0.248 NA
ATOM     51  C   UNL     1      -7.467  -6.114   2.566  1.00  0.00     0.031 C 
ATOM     52  C   UNL     1      -7.235  -7.229   7.467  1.00  0.00     0.029 A 
ATOM     53  N   UNL     1      -9.277  -6.898   6.621  1.00  0.00    -0.354 N 
ATOM     54  C   UNL     1      -9.717  -5.810   2.394  1.00  0.00     0.074 A 
ATOM     55  C   UNL     1      -8.428  -5.707   1.753  1.00  0.00     0.031 C 
ATOM     56  C   UNL     1      -8.114  -7.412   8.464  1.00  0.00     0.029 A 
ATOM     57  C   UNL     1      -9.459  -7.184   7.952  1.00  0.00     0.049 A 
ATOM     58  H   UNL     1     -10.018  -6.696   6.005  1.00  0.00     0.167 HD
ATOM     59  C   UNL     1     -10.899  -5.618   1.769  1.00  0.00     0.037 A 
ATOM     60  C   UNL     1     -10.594  -7.249   8.670  1.00  0.00     0.037 A 
ATOM     61  C   UNL     1     -12.166  -5.749   2.435  1.00  0.00     0.049 A 
ATOM     62  C   UNL     1     -11.895  -7.015   7.952  1.00  0.00     0.074 A 
ATOM     63  C   UNL     1     -13.435  -5.616   1.905  1.00  0.00     0.029 A 
ATOM     64  N   UNL     1     -12.320  -6.044   3.784  1.00  0.00    -0.354 N 
ATOM     65  N   UNL     1     -12.097  -6.732   6.685  1.00  0.00    -0.248 NA
ATOM     66  C   UNL     1     -13.120  -7.117   8.751  1.00  0.00     0.031 C 
ATOM     67  C   UNL     1     -14.354  -5.770   2.947  1.00  0.00     0.029 A 
ATOM     68  C   UNL     1     -13.663  -6.072   4.111  1.00  0.00     0.049 A 
ATOM     69  H   UNL     1     -11.581  -6.209   4.414  1.00  0.00     0.167 HD
ATOM     70  C   UNL     1     -13.474  -6.651   6.528  1.00  0.00     0.074 A 
ATOM     71  C   UNL     1     -14.053  -6.934   7.827  1.00  0.00     0.031 C 
ATOM     72  C   UNL     1     -14.200  -6.367   5.418  1.00  0.00     0.037 A 
BRANCH  59  73
ATOM     73  C   UNL     1     -10.872  -5.256   0.310  1.00  0.00     0.058 A 
ATOM     74  C   UNL     1     -10.437  -6.165  -0.670  1.00  0.00     0.135 A 
ATOM     75  C   UNL     1     -11.315  -3.996  -0.120  1.00  0.00     0.135 A 
ATOM     76  F   UNL     1      -9.976  -7.375  -0.315  1.00  0.00    -0.206 F 
ATOM     77  C   UNL     1     -10.425  -5.831  -2.019  1.00  0.00     0.059 A 
ATOM     78  C   UNL     1     -11.343  -3.652  -1.468  1.00  0.00     0.059 A 
ATOM     79  F   UNL     1     -11.727  -3.083   0.773  1.00  0.00    -0.206 F 
ATOM     80  C   UNL     1     -10.888  -4.574  -2.410  1.00  0.00     0.060 A 
BRANCH  80  81
ATOM     81  S   UNL     1     -10.898  -4.172  -4.169  1.00  0.00     0.124 S 
ATOM     82  O   UNL     1      -9.470  -4.071  -4.454  1.00  0.00    -0.237 OA
ATOM     83  O   UNL     1     -11.579  -5.327  -4.745  1.00  0.00    -0.237 OA
ATOM     84  O   UNL     1     -11.639  -2.916  -4.227  1.00  0.00    -0.744 OA
ENDBRANCH  80  81
ENDBRANCH  59  73
BRANCH  60  85
ATOM     85  C   UNL     1     -10.542  -7.552  10.124  1.00  0.00     0.058 A 
ATOM     86  C   UNL     1     -11.074  -8.742  10.641  1.00  0.00     0.135 A 
ATOM     87  C   UNL     1      -9.947  -6.657  11.028  1.00  0.00     0.135 A 
ATOM     88  F   UNL     1     -11.647  -9.634   9.818  1.00  0.00    -0.206 F 
ATOM     89  C   UNL     1     -11.049  -9.020  12.004  1.00  0.00     0.059 A 
ATOM     90  C   UNL     1      -9.880  -6.927  12.390  1.00  0.00     0.059 A 
ATOM     91  F   UNL     1      -9.398  -5.516  10.583  1.00  0.00    -0.206 F 
ATOM     92  C   UNL     1     -10.450  -8.104  12.871  1.00  0.00     0.060 A 
BRANCH  92  93
ATOM     93  S   UNL     1     -10.411  -8.481  14.636  1.00  0.00     0.124 S 
ATOM     94  O   UNL     1     -11.817  -8.339  14.996  1.00  0.00    -0.237 OA
ATOM     95  O   UNL     1      -9.882  -9.841  14.645  1.00  0.00    -0.237 OA
ATOM     96  O   UNL     1      -9.516  -7.462  15.176  1.00  0.00    -0.744 OA
ENDBRANCH  92  93
ENDBRANCH  60  85
BRANCH  72  97
ATOM     97  C   UNL     1     -15.696  -6.389   5.553  1.00  0.00     0.058 A 
ATOM     98  C   UNL     1     -16.388  -5.403   6.273  1.00  0.00     0.135 A 
ATOM     99  C   UNL     1     -16.448  -7.379   4.901  1.00  0.00     0.135 A 
ATOM    100  F   UNL     1     -15.714  -4.438   6.919  1.00  0.00    -0.206 F 
ATOM    101  C   UNL     1     -17.774  -5.416   6.366  1.00  0.00     0.059 A 
ATOM    102  C   UNL     1     -17.836  -7.389   4.948  1.00  0.00     0.059 A 
ATOM    103  F   UNL     1     -15.833  -8.337   4.188  1.00  0.00    -0.206 F 
ATOM    104  C   UNL     1     -18.489  -6.410   5.695  1.00  0.00     0.060 A 
BRANCH 104 105
ATOM    105  S   UNL     1     -20.290  -6.390   5.795  1.00  0.00     0.124 S 
ATOM    106  O   UNL     1     -20.511  -6.786   7.181  1.00  0.00    -0.237 OA
ATOM    107  O   UNL     1     -20.602  -5.001   5.473  1.00  0.00    -0.237 OA
ATOM    108  O   UNL     1     -20.698  -7.367   4.790  1.00  0.00    -0.744 OA
ENDBRANCH 104 105
ENDBRANCH  72  97
ENDBRANCH  46  47
ENDBRANCH  38  41
ENDBRANCH  36  37
ENDBRANCH  35  36
ENDBRANCH  34  35
ENDBRANCH  33  34
ENDBRANCH   1  33
TORSDOF 22
