REMARK SMILES Cc1c(CC(=O)NCCCCCCNC(=O)c2ccc(-c3c4nc(c(-c5c(F)cc(S(=O)(=O)[O-])cc5F)c5ccc([nH]5)c(-c5c(F)cc(S(=O)(=O)[O-])cc5F)c5nc(c(-c6c(F)cc(S(=O)(=O)[O-])cc6F)c6ccc3[nH]6)C=C5)C=C4)cc2)c2cc(O)ccc2n1C(=O)c1ccc(Cl)cc1
REMARK SMILES IDX 10 1 9 2 8 3 7 4 5 5 6 6 4 8 3 9 1 10 2 11 90 12 83 13 89 14
REMARK SMILES IDX 84 15 88 16 85 17 87 18 91 19 92 20 93 21 94 22 99 23 95 24
REMARK SMILES IDX 98 25 96 26 97 27 86 28 11 30 12 31 13 32 14 33 15 34 16 36
REMARK SMILES IDX 17 37 18 38 82 39 19 40 81 41 20 42 21 43 22 44 75 45 23 46
REMARK SMILES IDX 80 47 74 48 76 49 24 50 79 51 73 52 72 53 25 55 59 56 38 57
REMARK SMILES IDX 58 58 39 59 42 60 57 61 77 62 40 63 41 64 56 66 78 67 43 68
REMARK SMILES IDX 26 69 27 70 36 71 28 72 29 73 35 74 37 75 30 76 31 77 32 78
REMARK SMILES IDX 33 79 34 80 60 81 61 82 70 83 62 84 63 85 69 86 71 87 64 88
REMARK SMILES IDX 65 89 66 90 67 91 68 92 44 93 45 94 54 95 46 96 47 97 53 98
REMARK SMILES IDX 55 99 48 100 49 101 50 102 51 103 52 104
REMARK H PARENT 7 7 86 29 14 35 76 54 42 65
REMARK Flexibility Score: inf
ROOT
ATOM      1  C   UNL     1      -3.990  -2.503  -0.139  1.00  0.00     0.002 C 
ENDROOT
BRANCH   1   2
ATOM      2  C   UNL     1      -2.631  -1.811  -0.302  1.00  0.00     0.021 C 
BRANCH   2   3
ATOM      3  C   UNL     1      -1.511  -2.469   0.503  1.00  0.00     0.116 C 
BRANCH   3   4
ATOM      4  N   UNL     1      -1.101  -3.722  -0.100  1.00  0.00    -0.356 N 
ATOM      5  C   UNL     1       0.024  -3.995  -0.821  1.00  0.00     0.224 C 
ATOM      6  O   UNL     1       0.151  -5.121  -1.310  1.00  0.00    -0.275 OA
ATOM      7  H   UNL     1      -1.719  -4.478   0.028  1.00  0.00     0.163 HD
BRANCH   5   8
ATOM      8  C   UNL     1       1.119  -2.949  -0.955  1.00  0.00     0.138 C 
BRANCH   8   9
ATOM      9  C   UNL     1       0.727  -1.750  -1.775  1.00  0.00    -0.009 A 
ATOM     10  C   UNL     1       1.278   0.164  -0.103  1.00  0.00     0.065 C 
ATOM     11  C   UNL     1       0.792  -0.413  -1.398  1.00  0.00     0.028 A 
ATOM     12  N   UNL     1       0.296   0.379  -2.444  1.00  0.00    -0.280 N 
ATOM     13  C   UNL     1       0.270  -1.784  -3.124  1.00  0.00     0.008 A 
ATOM     14  C   UNL     1       0.078  -0.464  -3.547  1.00  0.00     0.057 A 
ATOM     15  C   UNL     1       0.036  -2.843  -4.031  1.00  0.00     0.056 A 
ATOM     16  C   UNL     1      -0.264  -0.203  -4.893  1.00  0.00     0.031 A 
ATOM     17  C   UNL     1      -0.371  -2.566  -5.332  1.00  0.00     0.116 A 
ATOM     18  C   UNL     1      -0.509  -1.264  -5.769  1.00  0.00     0.048 A 
BRANCH  12  19
ATOM     19  C   UNL     1       0.079   1.790  -2.387  1.00  0.00     0.262 C 
ATOM     20  O   UNL     1       0.436   2.413  -1.397  1.00  0.00    -0.268 OA
BRANCH  19  21
ATOM     21  C   UNL     1      -0.521   2.595  -3.467  1.00  0.00     0.040 A 
ATOM     22  C   UNL     1      -1.851   2.410  -3.861  1.00  0.00     0.015 A 
ATOM     23  C   UNL     1       0.301   3.518  -4.122  1.00  0.00     0.015 A 
ATOM     24  C   UNL     1      -2.328   3.092  -4.984  1.00  0.00     0.021 A 
ATOM     25  C   UNL     1      -0.183   4.198  -5.238  1.00  0.00     0.021 A 
ATOM     26  C   UNL     1      -1.487   3.966  -5.677  1.00  0.00     0.041 A 
ATOM     27  Cl  UNL     1      -2.051   4.741  -7.106  1.00  0.00    -0.084 Cl
ENDBRANCH  19  21
ENDBRANCH  12  19
BRANCH  17  28
ATOM     28  O   UNL     1      -0.606  -3.620  -6.165  1.00  0.00    -0.508 OA
ATOM     29  H   UNL     1      -0.507  -4.497  -5.851  1.00  0.00     0.293 HD
ENDBRANCH  17  28
ENDBRANCH   8   9
ENDBRANCH   5   8
ENDBRANCH   3   4
ENDBRANCH   2   3
ENDBRANCH   1   2
BRANCH   1  30
ATOM     30  C   UNL     1      -4.561  -2.474   1.283  1.00  0.00     0.002 C 
BRANCH  30  31
ATOM     31  C   UNL     1      -4.705  -1.077   1.899  1.00  0.00     0.021 C 
BRANCH  31  32
ATOM     32  C   UNL     1      -5.545  -0.108   1.066  1.00  0.00     0.116 C 
BRANCH  32  33
ATOM     33  N   UNL     1      -6.895  -0.571   0.820  1.00  0.00    -0.352 N 
ATOM     34  C   UNL     1      -8.055  -0.578   1.546  1.00  0.00     0.251 C 
ATOM     35  H   UNL     1      -7.003  -0.973  -0.072  1.00  0.00     0.163 HD
ATOM     36  O   UNL     1      -9.053  -1.011   0.963  1.00  0.00    -0.269 OA
BRANCH  34  37
ATOM     37  C   UNL     1      -8.178  -0.153   2.969  1.00  0.00     0.039 A 
ATOM     38  C   UNL     1      -7.179   0.464   3.720  1.00  0.00     0.014 A 
ATOM     39  C   UNL     1      -9.406  -0.435   3.597  1.00  0.00     0.014 A 
ATOM     40  C   UNL     1      -7.360   0.708   5.077  1.00  0.00     0.010 A 
ATOM     41  C   UNL     1      -9.605  -0.163   4.949  1.00  0.00     0.010 A 
ATOM     42  C   UNL     1      -8.562   0.371   5.699  1.00  0.00    -0.014 A 
BRANCH  42  43
ATOM     43  C   UNL     1      -8.686   0.676   7.123  1.00  0.00     0.031 A 
ATOM     44  C   UNL     1      -8.555   2.117   7.491  1.00  0.00     0.074 A 
ATOM     45  C   UNL     1      -9.007  -0.241   8.056  1.00  0.00     0.049 A 
ATOM     46  N   UNL     1      -7.692   2.680   8.277  1.00  0.00    -0.248 NA
ATOM     47  C   UNL     1      -9.465   3.063   6.826  1.00  0.00     0.031 C 
ATOM     48  C   UNL     1      -9.452  -1.620   7.847  1.00  0.00     0.029 A 
ATOM     49  N   UNL     1      -9.100  -0.086   9.408  1.00  0.00    -0.354 N 
ATOM     50  C   UNL     1      -8.069   4.020   8.361  1.00  0.00     0.074 A 
ATOM     51  C   UNL     1      -9.081   4.225   7.354  1.00  0.00     0.031 C 
ATOM     52  C   UNL     1      -9.976  -2.095   8.999  1.00  0.00     0.029 A 
ATOM     53  C   UNL     1      -9.781  -1.111  10.049  1.00  0.00     0.049 A 
ATOM     54  H   UNL     1      -8.718   0.685   9.887  1.00  0.00     0.167 HD
ATOM     55  C   UNL     1      -7.675   4.835   9.377  1.00  0.00     0.037 A 
ATOM     56  C   UNL     1     -10.222  -1.112  11.331  1.00  0.00     0.037 A 
ATOM     57  C   UNL     1      -6.522   4.332  10.070  1.00  0.00     0.049 A 
ATOM     58  C   UNL     1      -9.435  -0.099  12.078  1.00  0.00     0.074 A 
ATOM     59  C   UNL     1      -5.224   4.029   9.707  1.00  0.00     0.029 A 
ATOM     60  N   UNL     1      -6.704   3.759  11.303  1.00  0.00    -0.354 N 
ATOM     61  N   UNL     1      -8.161  -0.197  12.339  1.00  0.00    -0.248 NA
ATOM     62  C   UNL     1      -9.998   1.235  12.225  1.00  0.00     0.031 C 
ATOM     63  C   UNL     1      -4.868   2.902  10.504  1.00  0.00     0.029 A 
ATOM     64  C   UNL     1      -5.960   2.606  11.321  1.00  0.00     0.049 A 
ATOM     65  H   UNL     1      -7.261   4.109  12.036  1.00  0.00     0.167 HD
ATOM     66  C   UNL     1      -7.683   1.104  12.285  1.00  0.00     0.074 A 
ATOM     67  C   UNL     1      -8.874   1.946  12.325  1.00  0.00     0.031 C 
ATOM     68  C   UNL     1      -6.389   1.373  11.944  1.00  0.00     0.037 A 
BRANCH  55  69
ATOM     69  C   UNL     1      -8.541   5.938   9.932  1.00  0.00     0.058 A 
ATOM     70  C   UNL     1      -7.987   6.939  10.755  1.00  0.00     0.135 A 
ATOM     71  C   UNL     1      -9.953   5.889   9.893  1.00  0.00     0.135 A 
ATOM     72  F   UNL     1      -6.657   7.051  10.892  1.00  0.00    -0.206 F 
ATOM     73  C   UNL     1      -8.782   7.806  11.509  1.00  0.00     0.059 A 
ATOM     74  C   UNL     1     -10.762   6.776  10.592  1.00  0.00     0.059 A 
ATOM     75  F   UNL     1     -10.606   4.914   9.246  1.00  0.00    -0.206 F 
ATOM     76  C   UNL     1     -10.169   7.708  11.428  1.00  0.00     0.060 A 
BRANCH  76  77
ATOM     77  S   UNL     1     -11.197   8.757  12.472  1.00  0.00     0.124 S 
ATOM     78  O   UNL     1     -10.952   8.184  13.790  1.00  0.00    -0.237 OA
ATOM     79  O   UNL     1     -10.627  10.079  12.232  1.00  0.00    -0.237 OA
ATOM     80  O   UNL     1     -12.539   8.554  11.933  1.00  0.00    -0.744 OA
ENDBRANCH  76  77
ENDBRANCH  55  69
BRANCH  56  81
ATOM     81  C   UNL     1     -11.493  -1.680  11.853  1.00  0.00     0.058 A 
ATOM     82  C   UNL     1     -11.717  -1.799  13.236  1.00  0.00     0.135 A 
ATOM     83  C   UNL     1     -12.620  -1.851  11.024  1.00  0.00     0.135 A 
ATOM     84  F   UNL     1     -10.706  -1.631  14.102  1.00  0.00    -0.206 F 
ATOM     85  C   UNL     1     -12.992  -2.017  13.768  1.00  0.00     0.059 A 
ATOM     86  C   UNL     1     -13.897  -2.086  11.530  1.00  0.00     0.059 A 
ATOM     87  F   UNL     1     -12.536  -1.699   9.694  1.00  0.00    -0.206 F 
ATOM     88  C   UNL     1     -14.081  -2.136  12.905  1.00  0.00     0.060 A 
BRANCH  88  89
ATOM     89  S   UNL     1     -15.751  -2.229  13.590  1.00  0.00     0.124 S 
ATOM     90  O   UNL     1     -15.736  -3.532  14.246  1.00  0.00    -0.237 OA
ATOM     91  O   UNL     1     -15.783  -1.069  14.475  1.00  0.00    -0.237 OA
ATOM     92  O   UNL     1     -16.608  -2.135  12.411  1.00  0.00    -0.744 OA
ENDBRANCH  88  89
ENDBRANCH  56  81
BRANCH  68  93
ATOM     93  C   UNL     1      -5.396   0.239  11.956  1.00  0.00     0.058 A 
ATOM     94  C   UNL     1      -5.457  -0.872  11.097  1.00  0.00     0.135 A 
ATOM     95  C   UNL     1      -4.252   0.365  12.760  1.00  0.00     0.135 A 
ATOM     96  F   UNL     1      -6.464  -1.014  10.224  1.00  0.00    -0.206 F 
ATOM     97  C   UNL     1      -4.442  -1.830  11.063  1.00  0.00     0.059 A 
ATOM     98  C   UNL     1      -3.213  -0.561  12.720  1.00  0.00     0.059 A 
ATOM     99  F   UNL     1      -4.106   1.436  13.559  1.00  0.00    -0.206 F 
ATOM    100  C   UNL     1      -3.319  -1.663  11.873  1.00  0.00     0.060 A 
BRANCH 100 101
ATOM    101  S   UNL     1      -1.961  -2.847  11.744  1.00  0.00     0.124 S 
ATOM    102  O   UNL     1      -2.532  -4.040  12.361  1.00  0.00    -0.237 OA
ATOM    103  O   UNL     1      -1.742  -2.922  10.302  1.00  0.00    -0.237 OA
ATOM    104  O   UNL     1      -0.881  -2.212  12.495  1.00  0.00    -0.744 OA
ENDBRANCH 100 101
ENDBRANCH  68  93
ENDBRANCH  42  43
ENDBRANCH  34  37
ENDBRANCH  32  33
ENDBRANCH  31  32
ENDBRANCH  30  31
ENDBRANCH   1  30
TORSDOF 20
