REMARK SMILES Nc1cc(=O)[nH]c(SCC(=O)Nc2ccccc2C(=O)NCCCCCCNC(=O)c2ccc(-c3c4nc(c(-c5c(F)cc(S(=O)(=O)[O-])cc5F)c5ccc([nH]5)c(-c5c(F)cc(S(=O)(=O)[O-])cc5F)c5nc(c(-c6c(F)cc(S(=O)(=O)[O-])cc6F)c6ccc3[nH]6)C=C5)C=C4)cc2)n1
REMARK SMILES IDX 23 1 22 2 21 3 19 4 20 5 18 7 13 8 14 9 15 10 17 11 16 12
REMARK SMILES IDX 12 13 10 14 11 15 9 17 8 18 7 19 2 20 3 21 97 22 4 23 5 24
REMARK SMILES IDX 6 25 1 27 24 30 25 31 26 32 27 33 28 34 29 35 30 37 31 38
REMARK SMILES IDX 32 39 96 40 33 41 95 42 34 43 35 44 36 45 89 46 37 47 94 48
REMARK SMILES IDX 88 49 90 50 38 51 93 52 87 53 86 54 39 56 73 57 52 58 72 59
REMARK SMILES IDX 53 60 56 61 71 62 91 63 54 64 55 65 70 67 92 68 57 69 40 70
REMARK SMILES IDX 41 71 50 72 42 73 43 74 49 75 51 76 44 77 45 78 46 79 47 80
REMARK SMILES IDX 48 81 74 82 75 83 84 84 76 85 77 86 83 87 85 88 78 89 79 90
REMARK SMILES IDX 80 91 81 92 82 93 58 94 59 95 68 96 60 97 61 98 67 99 69 100
REMARK SMILES IDX 62 101 63 102 64 103 65 104 66 105
REMARK H PARENT 21 6 12 16 6 26 1 28 1 29 28 36 90 55 56 66
REMARK Flexibility Score: inf
ROOT
ATOM      1  C   UNL     1       2.697   0.852   3.051  1.00  0.00     0.021 C 
ENDROOT
BRANCH   1   2
ATOM      2  C   UNL     1       2.018   2.203   2.828  1.00  0.00     0.116 C 
BRANCH   2   3
ATOM      3  N   UNL     1       0.722   2.104   2.177  1.00  0.00    -0.352 N 
ATOM      4  C   UNL     1      -0.249   3.050   1.953  1.00  0.00     0.253 C 
ATOM      5  O   UNL     1      -1.356   2.662   1.568  1.00  0.00    -0.269 OA
ATOM      6  H   UNL     1       0.503   1.206   1.840  1.00  0.00     0.163 HD
BRANCH   4   7
ATOM      7  C   UNL     1      -0.081   4.501   2.215  1.00  0.00     0.063 A 
ATOM      8  C   UNL     1       1.083   5.267   2.107  1.00  0.00     0.054 A 
ATOM      9  C   UNL     1       1.136   6.470   2.845  1.00  0.00     0.027 A 
ATOM     10  C   UNL     1       0.011   7.000   3.485  1.00  0.00     0.002 A 
ATOM     11  C   UNL     1      -1.239   5.091   2.779  1.00  0.00     0.016 A 
ATOM     12  C   UNL     1      -1.200   6.339   3.393  1.00  0.00     0.001 A 
BRANCH   8  13
ATOM     13  N   UNL     1       2.275   4.973   1.426  1.00  0.00    -0.325 N 
ATOM     14  C   UNL     1       2.676   4.332   0.297  1.00  0.00     0.234 C 
ATOM     15  O   UNL     1       3.899   4.097   0.285  1.00  0.00    -0.274 OA
ATOM     16  H   UNL     1       3.050   5.340   1.909  1.00  0.00     0.169 HD
BRANCH  14  17
ATOM     17  C   UNL     1       1.934   4.165  -1.015  1.00  0.00     0.178 C 
BRANCH  17  18
ATOM     18  S   UNL     1       0.233   3.670  -1.098  1.00  0.00    -0.078 SA
BRANCH  18  19
ATOM     19  C   UNL     1       0.247   1.926  -1.089  1.00  0.00     0.170 A 
ATOM     20  C   UNL     1       1.062  -0.195  -1.309  1.00  0.00     0.131 A 
ATOM     21  C   UNL     1      -0.102  -0.743  -0.923  1.00  0.00     0.118 A 
ATOM     22  N   UNL     1       1.249   1.172  -1.395  1.00  0.00    -0.207 NA
ATOM     23  C   UNL     1      -1.230   0.128  -0.597  1.00  0.00     0.253 A 
ATOM     24  O   UNL     1      -2.301  -0.331  -0.220  1.00  0.00    -0.269 OA
ATOM     25  N   UNL     1      -0.972   1.450  -0.726  1.00  0.00    -0.301 N 
ATOM     26  H   UNL     1      -1.697   2.093  -0.550  1.00  0.00     0.172 HD
BRANCH  20  27
ATOM     27  N   UNL     1       2.101  -1.034  -1.588  1.00  0.00    -0.383 N 
ATOM     28  H   UNL     1       1.976  -2.009  -1.529  1.00  0.00     0.158 HD
ATOM     29  H   UNL     1       2.975  -0.664  -1.849  1.00  0.00     0.158 HD
ENDBRANCH  20  27
ENDBRANCH  18  19
ENDBRANCH  17  18
ENDBRANCH  14  17
ENDBRANCH   8  13
ENDBRANCH   4   7
ENDBRANCH   2   3
ENDBRANCH   1   2
BRANCH   1  30
ATOM     30  C   UNL     1       3.039   0.064   1.779  1.00  0.00     0.002 C 
BRANCH  30  31
ATOM     31  C   UNL     1       3.917   0.764   0.736  1.00  0.00     0.002 C 
BRANCH  31  32
ATOM     32  C   UNL     1       5.294   1.237   1.192  1.00  0.00     0.021 C 
BRANCH  32  33
ATOM     33  C   UNL     1       6.156   0.166   1.843  1.00  0.00     0.116 C 
BRANCH  33  34
ATOM     34  N   UNL     1       6.388  -1.000   1.004  1.00  0.00    -0.352 N 
ATOM     35  C   UNL     1       7.472  -1.853   0.998  1.00  0.00     0.251 C 
ATOM     36  H   UNL     1       5.677  -1.208   0.355  1.00  0.00     0.163 HD
ATOM     37  O   UNL     1       7.547  -2.751   0.177  1.00  0.00    -0.269 OA
BRANCH  35  38
ATOM     38  C   UNL     1       8.565  -1.632   1.975  1.00  0.00     0.039 A 
ATOM     39  C   UNL     1       9.886  -1.637   1.521  1.00  0.00     0.014 A 
ATOM     40  C   UNL     1       8.284  -1.380   3.320  1.00  0.00     0.014 A 
ATOM     41  C   UNL     1      10.920  -1.317   2.404  1.00  0.00     0.010 A 
ATOM     42  C   UNL     1       9.304  -0.977   4.175  1.00  0.00     0.010 A 
ATOM     43  C   UNL     1      10.633  -0.948   3.728  1.00  0.00    -0.014 A 
BRANCH  43  44
ATOM     44  C   UNL     1      11.707  -0.534   4.667  1.00  0.00     0.031 A 
ATOM     45  C   UNL     1      11.969  -1.335   5.912  1.00  0.00     0.074 A 
ATOM     46  C   UNL     1      12.387   0.608   4.441  1.00  0.00     0.049 A 
ATOM     47  N   UNL     1      12.812  -1.101   6.884  1.00  0.00    -0.248 NA
ATOM     48  C   UNL     1      11.146  -2.539   6.108  1.00  0.00     0.031 C 
ATOM     49  C   UNL     1      12.168   1.513   3.311  1.00  0.00     0.029 A 
ATOM     50  N   UNL     1      13.386   1.211   5.162  1.00  0.00    -0.354 N 
ATOM     51  C   UNL     1      12.609  -2.115   7.813  1.00  0.00     0.074 A 
ATOM     52  C   UNL     1      11.518  -2.927   7.318  1.00  0.00     0.031 C 
ATOM     53  C   UNL     1      13.017   2.548   3.407  1.00  0.00     0.029 A 
ATOM     54  C   UNL     1      13.819   2.397   4.618  1.00  0.00     0.049 A 
ATOM     55  H   UNL     1      13.758   0.831   5.990  1.00  0.00     0.167 HD
ATOM     56  C   UNL     1      13.286  -2.365   8.960  1.00  0.00     0.037 A 
ATOM     57  C   UNL     1      14.753   3.268   5.048  1.00  0.00     0.037 A 
ATOM     58  C   UNL     1      14.384  -1.564   9.433  1.00  0.00     0.049 A 
ATOM     59  C   UNL     1      15.524   2.955   6.300  1.00  0.00     0.074 A 
ATOM     60  C   UNL     1      15.184  -1.767  10.543  1.00  0.00     0.029 A 
ATOM     61  N   UNL     1      14.834  -0.401   8.823  1.00  0.00    -0.354 N 
ATOM     62  N   UNL     1      15.378   1.944   7.124  1.00  0.00    -0.248 NA
ATOM     63  C   UNL     1      16.596   3.886   6.671  1.00  0.00     0.031 C 
ATOM     64  C   UNL     1      16.092  -0.704  10.626  1.00  0.00     0.029 A 
ATOM     65  C   UNL     1      15.889   0.136   9.542  1.00  0.00     0.049 A 
ATOM     66  H   UNL     1      14.459  -0.013   7.999  1.00  0.00     0.167 HD
ATOM     67  C   UNL     1      16.350   2.109   8.104  1.00  0.00     0.074 A 
ATOM     68  C   UNL     1      17.088   3.308   7.760  1.00  0.00     0.031 C 
ATOM     69  C   UNL     1      16.609   1.335   9.189  1.00  0.00     0.037 A 
BRANCH  56  70
ATOM     70  C   UNL     1      12.845  -3.553   9.771  1.00  0.00     0.058 A 
ATOM     71  C   UNL     1      13.014  -4.869   9.306  1.00  0.00     0.135 A 
ATOM     72  C   UNL     1      12.223  -3.378  11.018  1.00  0.00     0.135 A 
ATOM     73  F   UNL     1      13.591  -5.096   8.115  1.00  0.00    -0.206 F 
ATOM     74  C   UNL     1      12.529  -5.962  10.017  1.00  0.00     0.059 A 
ATOM     75  C   UNL     1      11.759  -4.459  11.762  1.00  0.00     0.059 A 
ATOM     76  F   UNL     1      12.040  -2.145  11.515  1.00  0.00    -0.206 F 
ATOM     77  C   UNL     1      11.892  -5.745  11.240  1.00  0.00     0.060 A 
BRANCH  77  78
ATOM     78  S   UNL     1      11.225  -7.167  12.130  1.00  0.00     0.124 S 
ATOM     79  O   UNL     1      10.025  -7.457  11.351  1.00  0.00    -0.237 OA
ATOM     80  O   UNL     1      12.304  -8.143  12.018  1.00  0.00    -0.237 OA
ATOM     81  O   UNL     1      10.992  -6.647  13.473  1.00  0.00    -0.744 OA
ENDBRANCH  77  78
ENDBRANCH  56  70
BRANCH  57  82
ATOM     82  C   UNL     1      15.020   4.498   4.257  1.00  0.00     0.058 A 
ATOM     83  C   UNL     1      16.177   4.618   3.474  1.00  0.00     0.135 A 
ATOM     84  C   UNL     1      14.088   5.547   4.214  1.00  0.00     0.135 A 
ATOM     85  F   UNL     1      17.099   3.644   3.487  1.00  0.00    -0.206 F 
ATOM     86  C   UNL     1      16.401   5.733   2.672  1.00  0.00     0.059 A 
ATOM     87  C   UNL     1      14.280   6.662   3.404  1.00  0.00     0.059 A 
ATOM     88  F   UNL     1      12.957   5.471   4.932  1.00  0.00    -0.206 F 
ATOM     89  C   UNL     1      15.441   6.746   2.636  1.00  0.00     0.060 A 
BRANCH  89  90
ATOM     90  S   UNL     1      15.696   8.143   1.520  1.00  0.00     0.124 S 
ATOM     91  O   UNL     1      16.745   8.884   2.211  1.00  0.00    -0.237 OA
ATOM     92  O   UNL     1      16.092   7.478   0.282  1.00  0.00    -0.237 OA
ATOM     93  O   UNL     1      14.386   8.787   1.484  1.00  0.00    -0.744 OA
ENDBRANCH  89  90
ENDBRANCH  57  82
BRANCH  69  94
ATOM     94  C   UNL     1      17.750   1.751  10.076  1.00  0.00     0.058 A 
ATOM     95  C   UNL     1      17.654   2.860  10.930  1.00  0.00     0.135 A 
ATOM     96  C   UNL     1      18.936   0.998  10.108  1.00  0.00     0.135 A 
ATOM     97  F   UNL     1      16.545   3.616  10.934  1.00  0.00    -0.206 F 
ATOM     98  C   UNL     1      18.702   3.222  11.770  1.00  0.00     0.059 A 
ATOM     99  C   UNL     1      19.986   1.327  10.959  1.00  0.00     0.059 A 
ATOM    100  F   UNL     1      19.075  -0.078   9.318  1.00  0.00    -0.206 F 
ATOM    101  C   UNL     1      19.865   2.449  11.777  1.00  0.00     0.060 A 
BRANCH 101 102
ATOM    102  S   UNL     1      21.206   2.911  12.894  1.00  0.00     0.124 S 
ATOM    103  O   UNL     1      21.764   4.076  12.215  1.00  0.00    -0.237 OA
ATOM    104  O   UNL     1      20.497   3.182  14.140  1.00  0.00    -0.237 OA
ATOM    105  O   UNL     1      22.058   1.725  12.910  1.00  0.00    -0.744 OA
ENDBRANCH 101 102
ENDBRANCH  69  94
ENDBRANCH  43  44
ENDBRANCH  35  38
ENDBRANCH  33  34
ENDBRANCH  32  33
ENDBRANCH  31  32
ENDBRANCH  30  31
ENDBRANCH   1  30
TORSDOF 21
