REMARK SMILES COc1cc(-c2nnc(S)n2-c2ccc(C(=O)NCCCCCCNC(=O)c3ccc(-c4c5nc(c(-c6c(F)cc(S(=O)(=O)[O-])cc6F)c6ccc([nH]6)c(-c6c(F)cc(S(=O)(=O)[O-])cc6F)c6nc(c(-c7c(F)cc(S(=O)(=O)[O-])cc7F)c7ccc4[nH]7)C=C6)C=C5)cc3)cc2)cc(OC)c1OC
REMARK SMILES IDX 21 1 20 2 19 3 18 4 16 5 17 6 15 8 12 9 13 10 95 11 14 12
REMARK SMILES IDX 94 13 11 14 6 15 7 16 8 17 9 18 5 19 3 20 4 21 100 22 97 23
REMARK SMILES IDX 96 24 2 25 1 26 101 27 102 28 98 29 99 30 10 31 22 33 23 34
REMARK SMILES IDX 24 35 25 36 26 37 27 39 28 40 29 41 93 42 30 43 92 44 31 45
REMARK SMILES IDX 32 46 33 47 86 48 34 49 91 50 85 51 87 52 35 53 90 54 84 55
REMARK SMILES IDX 83 56 36 58 70 59 49 60 69 61 50 62 53 63 68 64 88 65 51 66
REMARK SMILES IDX 52 67 67 69 89 70 54 71 37 72 38 73 47 74 39 75 40 76 46 77
REMARK SMILES IDX 48 78 41 79 42 80 43 81 44 82 45 83 71 84 72 85 81 86 73 87
REMARK SMILES IDX 74 88 80 89 82 90 75 91 76 92 77 93 78 94 79 95 55 96 56 97
REMARK SMILES IDX 65 98 57 99 58 100 64 101 66 102 59 103 60 104 61 105 62 106
REMARK SMILES IDX 63 107
REMARK H PARENT 18 7 10 32 25 38 87 57 53 68
REMARK Flexibility Score: inf
ROOT
ATOM      1  C   UNL     1       4.975   4.378  -7.415  1.00  0.00     0.002 C 
ENDROOT
BRANCH   1   2
ATOM      2  C   UNL     1       3.851   4.595  -6.393  1.00  0.00     0.021 C 
BRANCH   2   3
ATOM      3  C   UNL     1       4.376   4.805  -4.971  1.00  0.00     0.116 C 
BRANCH   3   4
ATOM      4  N   UNL     1       4.865   6.163  -4.821  1.00  0.00    -0.352 N 
ATOM      5  C   UNL     1       4.352   7.269  -4.196  1.00  0.00     0.251 C 
ATOM      6  O   UNL     1       5.009   8.309  -4.240  1.00  0.00    -0.269 OA
ATOM      7  H   UNL     1       5.736   6.320  -5.253  1.00  0.00     0.163 HD
BRANCH   5   8
ATOM      8  C   UNL     1       3.094   7.236  -3.398  1.00  0.00     0.039 A 
ATOM      9  C   UNL     1       0.924   7.121  -1.650  1.00  0.00     0.050 A 
ATOM     10  C   UNL     1       1.887   8.117  -1.473  1.00  0.00     0.027 A 
ATOM     11  C   UNL     1       0.988   6.240  -2.728  1.00  0.00     0.027 A 
ATOM     12  C   UNL     1       2.984   8.152  -2.338  1.00  0.00     0.016 A 
ATOM     13  C   UNL     1       2.040   6.350  -3.634  1.00  0.00     0.016 A 
BRANCH   9  14
ATOM     14  N   UNL     1      -0.156   6.999  -0.754  1.00  0.00    -0.270 N 
ATOM     15  C   UNL     1      -0.463   5.889   0.030  1.00  0.00     0.169 A 
ATOM     16  N   UNL     1      -1.602   6.120   0.658  1.00  0.00    -0.129 NA
ATOM     17  N   UNL     1      -2.039   7.383   0.315  1.00  0.00    -0.123 NA
ATOM     18  C   UNL     1      -1.176   7.894  -0.533  1.00  0.00     0.193 A 
BRANCH  15  19
ATOM     19  C   UNL     1       0.409   4.723   0.204  1.00  0.00     0.027 A 
ATOM     20  C   UNL     1       0.964   2.389  -0.215  1.00  0.00     0.165 A 
ATOM     21  C   UNL     1       0.036   3.450  -0.235  1.00  0.00     0.062 A 
ATOM     22  C   UNL     1       2.277   2.578   0.263  1.00  0.00     0.203 A 
ATOM     23  C   UNL     1       2.625   3.851   0.762  1.00  0.00     0.165 A 
ATOM     24  C   UNL     1       1.688   4.895   0.740  1.00  0.00     0.062 A 
BRANCH  20  25
ATOM     25  O   UNL     1       0.602   1.248  -0.889  1.00  0.00    -0.493 OA
ATOM     26  C   UNL     1      -0.125   0.323  -0.080  1.00  0.00     0.278 C 
ENDBRANCH  20  25
BRANCH  22  27
ATOM     27  O   UNL     1       3.288   1.659   0.228  1.00  0.00    -0.490 OA
ATOM     28  C   UNL     1       3.030   0.280   0.062  1.00  0.00     0.278 C 
ENDBRANCH  22  27
BRANCH  23  29
ATOM     29  O   UNL     1       3.826   4.270   1.281  1.00  0.00    -0.493 OA
ATOM     30  C   UNL     1       4.968   3.438   1.147  1.00  0.00     0.278 C 
ENDBRANCH  23  29
ENDBRANCH  15  19
BRANCH  18  31
ATOM     31  S   UNL     1      -1.368   9.402  -1.366  1.00  0.00    -0.103 SA
ATOM     32  H   UNL     1      -2.479  10.037  -0.905  1.00  0.00     0.111 HD
ENDBRANCH  18  31
ENDBRANCH   9  14
ENDBRANCH   5   8
ENDBRANCH   3   4
ENDBRANCH   2   3
ENDBRANCH   1   2
BRANCH   1  33
ATOM     33  C   UNL     1       5.937   3.221  -7.092  1.00  0.00     0.002 C 
BRANCH  33  34
ATOM     34  C   UNL     1       5.279   1.869  -6.773  1.00  0.00     0.021 C 
BRANCH  34  35
ATOM     35  C   UNL     1       4.615   1.238  -7.983  1.00  0.00     0.116 C 
BRANCH  35  36
ATOM     36  N   UNL     1       5.596   0.828  -8.998  1.00  0.00    -0.352 N 
ATOM     37  C   UNL     1       5.364   0.246 -10.229  1.00  0.00     0.251 C 
ATOM     38  H   UNL     1       6.540   0.989  -8.771  1.00  0.00     0.163 HD
ATOM     39  O   UNL     1       6.254  -0.379 -10.811  1.00  0.00    -0.269 OA
BRANCH  37  40
ATOM     40  C   UNL     1       4.038   0.412 -10.837  1.00  0.00     0.039 A 
ATOM     41  C   UNL     1       3.387  -0.590 -11.560  1.00  0.00     0.014 A 
ATOM     42  C   UNL     1       3.420   1.633 -10.602  1.00  0.00     0.014 A 
ATOM     43  C   UNL     1       2.087  -0.344 -12.001  1.00  0.00     0.010 A 
ATOM     44  C   UNL     1       2.075   1.740 -10.758  1.00  0.00     0.010 A 
ATOM     45  C   UNL     1       1.444   0.833 -11.588  1.00  0.00    -0.014 A 
BRANCH  45  46
ATOM     46  C   UNL     1       0.072   1.160 -11.938  1.00  0.00     0.031 A 
ATOM     47  C   UNL     1      -0.904   0.162 -11.444  1.00  0.00     0.074 A 
ATOM     48  C   UNL     1      -0.268   2.385 -12.408  1.00  0.00     0.049 A 
ATOM     49  N   UNL     1      -1.516  -0.746 -12.126  1.00  0.00    -0.248 NA
ATOM     50  C   UNL     1      -1.056   0.005  -9.986  1.00  0.00     0.031 C 
ATOM     51  C   UNL     1       0.595   3.571 -12.572  1.00  0.00     0.029 A 
ATOM     52  N   UNL     1      -1.492   2.873 -12.748  1.00  0.00    -0.354 N 
ATOM     53  C   UNL     1      -2.360  -1.381 -11.218  1.00  0.00     0.074 A 
ATOM     54  C   UNL     1      -1.841  -1.073  -9.914  1.00  0.00     0.031 C 
ATOM     55  C   UNL     1      -0.164   4.676 -12.744  1.00  0.00     0.029 A 
ATOM     56  C   UNL     1      -1.541   4.259 -12.906  1.00  0.00     0.049 A 
ATOM     57  H   UNL     1      -2.280   2.295 -12.871  1.00  0.00     0.167 HD
ATOM     58  C   UNL     1      -3.593  -1.811 -11.606  1.00  0.00     0.037 A 
ATOM     59  C   UNL     1      -2.646   5.004 -13.163  1.00  0.00     0.037 A 
ATOM     60  C   UNL     1      -3.716  -1.729 -13.041  1.00  0.00     0.049 A 
ATOM     61  C   UNL     1      -3.651   4.077 -13.737  1.00  0.00     0.074 A 
ATOM     62  C   UNL     1      -3.227  -2.426 -14.124  1.00  0.00     0.029 A 
ATOM     63  N   UNL     1      -4.103  -0.490 -13.487  1.00  0.00    -0.354 N 
ATOM     64  N   UNL     1      -3.480   3.449 -14.872  1.00  0.00    -0.248 NA
ATOM     65  C   UNL     1      -4.668   3.509 -12.862  1.00  0.00     0.031 C 
ATOM     66  C   UNL     1      -3.140  -1.480 -15.190  1.00  0.00     0.029 A 
ATOM     67  C   UNL     1      -3.638  -0.253 -14.754  1.00  0.00     0.049 A 
ATOM     68  H   UNL     1      -4.644   0.145 -12.965  1.00  0.00     0.167 HD
ATOM     69  C   UNL     1      -4.049   2.204 -14.675  1.00  0.00     0.074 A 
ATOM     70  C   UNL     1      -4.895   2.354 -13.495  1.00  0.00     0.031 C 
ATOM     71  C   UNL     1      -3.537   1.094 -15.285  1.00  0.00     0.037 A 
BRANCH  58  72
ATOM     72  C   UNL     1      -4.830  -1.838 -10.729  1.00  0.00     0.058 A 
ATOM     73  C   UNL     1      -6.005  -2.448 -11.220  1.00  0.00     0.135 A 
ATOM     74  C   UNL     1      -4.999  -1.058  -9.564  1.00  0.00     0.135 A 
ATOM     75  F   UNL     1      -5.970  -3.202 -12.331  1.00  0.00    -0.206 F 
ATOM     76  C   UNL     1      -7.256  -2.254 -10.628  1.00  0.00     0.059 A 
ATOM     77  C   UNL     1      -6.226  -0.894  -8.929  1.00  0.00     0.059 A 
ATOM     78  F   UNL     1      -4.007  -0.335  -9.033  1.00  0.00    -0.206 F 
ATOM     79  C   UNL     1      -7.356  -1.468  -9.485  1.00  0.00     0.060 A 
BRANCH  79  80
ATOM     80  S   UNL     1      -8.973  -1.161  -8.752  1.00  0.00     0.124 S 
ATOM     81  O   UNL     1      -9.607  -0.337  -9.774  1.00  0.00    -0.237 OA
ATOM     82  O   UNL     1      -9.496  -2.515  -8.602  1.00  0.00    -0.237 OA
ATOM     83  O   UNL     1      -8.649  -0.479  -7.502  1.00  0.00    -0.744 OA
ENDBRANCH  79  80
ENDBRANCH  58  72
BRANCH  59  84
ATOM     84  C   UNL     1      -2.990   6.352 -12.640  1.00  0.00     0.058 A 
ATOM     85  C   UNL     1      -3.951   7.173 -13.256  1.00  0.00     0.135 A 
ATOM     86  C   UNL     1      -2.579   6.740 -11.349  1.00  0.00     0.135 A 
ATOM     87  F   UNL     1      -4.418   6.863 -14.475  1.00  0.00    -0.206 F 
ATOM     88  C   UNL     1      -4.498   8.295 -12.616  1.00  0.00     0.059 A 
ATOM     89  C   UNL     1      -3.110   7.850 -10.691  1.00  0.00     0.059 A 
ATOM     90  F   UNL     1      -1.709   5.990 -10.655  1.00  0.00    -0.206 F 
ATOM     91  C   UNL     1      -4.083   8.615 -11.323  1.00  0.00     0.060 A 
BRANCH  91  92
ATOM     92  S   UNL     1      -4.884   9.976 -10.436  1.00  0.00     0.124 S 
ATOM     93  O   UNL     1      -4.438  11.137 -11.197  1.00  0.00    -0.237 OA
ATOM     94  O   UNL     1      -6.297   9.637 -10.560  1.00  0.00    -0.237 OA
ATOM     95  O   UNL     1      -4.336   9.868  -9.086  1.00  0.00    -0.744 OA
ENDBRANCH  91  92
ENDBRANCH  59  84
BRANCH  71  96
ATOM     96  C   UNL     1      -2.712   1.291 -16.527  1.00  0.00     0.058 A 
ATOM     97  C   UNL     1      -1.433   1.872 -16.576  1.00  0.00     0.135 A 
ATOM     98  C   UNL     1      -3.220   0.761 -17.723  1.00  0.00     0.135 A 
ATOM     99  F   UNL     1      -0.842   2.332 -15.465  1.00  0.00    -0.206 F 
ATOM    100  C   UNL     1      -0.707   1.949 -17.768  1.00  0.00     0.059 A 
ATOM    101  C   UNL     1      -2.504   0.799 -18.913  1.00  0.00     0.059 A 
ATOM    102  F   UNL     1      -4.416   0.150 -17.730  1.00  0.00    -0.206 F 
ATOM    103  C   UNL     1      -1.252   1.407 -18.933  1.00  0.00     0.060 A 
BRANCH 103 104
ATOM    104  S   UNL     1      -0.300   1.456 -20.467  1.00  0.00     0.124 S 
ATOM    105  O   UNL     1      -0.309   2.878 -20.789  1.00  0.00    -0.237 OA
ATOM    106  O   UNL     1       0.988   0.905 -20.057  1.00  0.00    -0.237 OA
ATOM    107  O   UNL     1      -1.071   0.607 -21.374  1.00  0.00    -0.744 OA
ENDBRANCH 103 104
ENDBRANCH  71  96
ENDBRANCH  45  46
ENDBRANCH  37  40
ENDBRANCH  35  36
ENDBRANCH  34  35
ENDBRANCH  33  34
ENDBRANCH   1  33
TORSDOF 22
