REMARK SMILES O=C(NCCCCCCNC(=O)c1ccccc1Nc1cccc(S(F)(F)(F)(F)F)c1)c1ccc(-c2c3nc(c(-c4c(F)cc(S(=O)(=O)[O-])cc4F)c4ccc([nH]4)c(-c4c(F)cc(S(=O)(=O)[O-])cc4F)c4nc(c(-c5c(F)cc(S(=O)(=O)[O-])cc5F)c5ccc2[nH]5)C=C4)C=C3)cc1
REMARK SMILES IDX 6 1 5 2 4 3 3 4 1 5 2 6 32 8 33 9 97 10 34 11 96 12 35 13
REMARK SMILES IDX 36 14 37 15 90 16 38 17 95 18 89 19 91 20 39 21 94 22 88 23
REMARK SMILES IDX 87 24 40 26 74 27 53 28 73 29 54 30 57 31 72 32 92 33 55 34
REMARK SMILES IDX 56 35 71 37 93 38 58 39 41 40 42 41 51 42 43 43 44 44 50 45
REMARK SMILES IDX 52 46 45 47 46 48 47 49 48 50 49 51 75 52 76 53 85 54 77 55
REMARK SMILES IDX 78 56 84 57 86 58 79 59 80 60 81 61 82 62 83 63 59 64 60 65
REMARK SMILES IDX 69 66 61 67 62 68 68 69 70 70 63 71 64 72 65 73 66 74 67 75
REMARK SMILES IDX 7 76 8 77 9 78 10 79 11 80 12 82 13 83 14 84 18 85 15 86
REMARK SMILES IDX 17 87 16 88 19 89 20 91 21 92 31 93 22 94 24 95 23 96 25 97
REMARK SMILES IDX 26 98 27 99 28 100 29 101 30 102
REMARK H PARENT 3 7 91 25 57 36 10 81 19 90
REMARK Flexibility Score: inf
ROOT
ATOM      1  C   UNL     1       4.498  -0.062   3.658  1.00  0.00     0.002 C 
ENDROOT
BRANCH   1   2
ATOM      2  C   UNL     1       5.004   0.414   2.306  1.00  0.00     0.021 C 
BRANCH   2   3
ATOM      3  C   UNL     1       4.498  -0.519   1.218  1.00  0.00     0.116 C 
BRANCH   3   4
ATOM      4  N   UNL     1       3.028  -0.519   1.218  1.00  0.00    -0.352 N 
ATOM      5  O   UNL     1       1.022  -0.096   0.017  1.00  0.00    -0.269 OA
ATOM      6  C   UNL     1       2.293  -0.096   0.017  1.00  0.00     0.251 C 
ATOM      7  H   UNL     1       2.535  -0.802   2.022  1.00  0.00     0.163 HD
BRANCH   6   8
ATOM      8  C   UNL     1       3.053   0.341  -1.225  1.00  0.00     0.039 A 
ATOM      9  C   UNL     1       4.092  -0.431  -1.716  1.00  0.00     0.014 A 
ATOM     10  C   UNL     1       2.652   1.439  -1.855  1.00  0.00     0.014 A 
ATOM     11  C   UNL     1       4.843   0.200  -2.736  1.00  0.00     0.010 A 
ATOM     12  C   UNL     1       3.358   1.925  -2.929  1.00  0.00     0.010 A 
ATOM     13  C   UNL     1       4.431   1.244  -3.432  1.00  0.00    -0.014 A 
BRANCH  13  14
ATOM     14  C   UNL     1       5.115   1.666  -4.723  1.00  0.00     0.031 A 
ATOM     15  C   UNL     1       5.663   2.949  -4.760  1.00  0.00     0.074 A 
ATOM     16  C   UNL     1       5.098   0.799  -5.802  1.00  0.00     0.049 A 
ATOM     17  N   UNL     1       6.278   3.541  -5.785  1.00  0.00    -0.248 NA
ATOM     18  C   UNL     1       5.651   3.883  -3.624  1.00  0.00     0.031 C 
ATOM     19  C   UNL     1       4.554  -0.500  -5.770  1.00  0.00     0.029 A 
ATOM     20  N   UNL     1       5.587   1.020  -7.071  1.00  0.00    -0.354 N 
ATOM     21  C   UNL     1       6.685   4.763  -5.434  1.00  0.00     0.074 A 
ATOM     22  C   UNL     1       6.282   5.003  -4.042  1.00  0.00     0.031 C 
ATOM     23  C   UNL     1       4.703  -1.049  -7.004  1.00  0.00     0.029 A 
ATOM     24  C   UNL     1       5.343  -0.104  -7.828  1.00  0.00     0.049 A 
ATOM     25  H   UNL     1       6.035   1.840  -7.382  1.00  0.00     0.167 HD
ATOM     26  C   UNL     1       7.378   5.685  -6.220  1.00  0.00     0.037 A 
ATOM     27  C   UNL     1       5.650  -0.311  -9.163  1.00  0.00     0.037 A 
ATOM     28  C   UNL     1       7.724   5.461  -7.543  1.00  0.00     0.049 A 
ATOM     29  C   UNL     1       6.292   0.634  -9.967  1.00  0.00     0.074 A 
ATOM     30  C   UNL     1       8.428   6.377  -8.347  1.00  0.00     0.029 A 
ATOM     31  N   UNL     1       7.457   4.347  -8.307  1.00  0.00    -0.354 N 
ATOM     32  N   UNL     1       6.733   1.840  -9.605  1.00  0.00    -0.248 NA
ATOM     33  C   UNL     1       6.593   0.439 -11.391  1.00  0.00     0.031 C 
ATOM     34  C   UNL     1       8.577   5.827  -9.582  1.00  0.00     0.029 A 
ATOM     35  C   UNL     1       7.966   4.559  -9.569  1.00  0.00     0.049 A 
ATOM     36  H   UNL     1       6.984   3.538  -8.004  1.00  0.00     0.167 HD
ATOM     37  C   UNL     1       7.311   2.449 -10.642  1.00  0.00     0.074 A 
ATOM     38  C   UNL     1       7.223   1.559 -11.808  1.00  0.00     0.031 C 
ATOM     39  C   UNL     1       7.911   3.709 -10.663  1.00  0.00     0.037 A 
BRANCH  26  40
ATOM     40  C   UNL     1       7.774   7.010  -5.589  1.00  0.00     0.058 A 
ATOM     41  C   UNL     1       8.493   7.037  -4.405  1.00  0.00     0.135 A 
ATOM     42  C   UNL     1       7.304   8.126  -6.135  1.00  0.00     0.135 A 
ATOM     43  F   UNL     1       9.192   5.998  -3.958  1.00  0.00    -0.206 F 
ATOM     44  C   UNL     1       8.415   8.271  -3.716  1.00  0.00     0.059 A 
ATOM     45  C   UNL     1       7.384   9.321  -5.463  1.00  0.00     0.059 A 
ATOM     46  F   UNL     1       6.751   8.085  -7.344  1.00  0.00    -0.206 F 
ATOM     47  C   UNL     1       8.028   9.410  -4.260  1.00  0.00     0.060 A 
BRANCH  47  48
ATOM     48  S   UNL     1       8.333  11.003  -3.456  1.00  0.00     0.124 S 
ATOM     49  O   UNL     1       7.647  11.023  -2.088  1.00  0.00    -0.237 OA
ATOM     50  O   UNL     1       9.839  11.203  -3.275  1.00  0.00    -0.237 OA
ATOM     51  O   UNL     1       7.703  12.261  -4.428  1.00  0.00    -0.744 OA
ENDBRANCH  47  48
ENDBRANCH  26  40
BRANCH  27  52
ATOM     52  C   UNL     1       5.268  -1.643  -9.789  1.00  0.00     0.058 A 
ATOM     53  C   UNL     1       6.190  -2.558 -10.269  1.00  0.00     0.135 A 
ATOM     54  C   UNL     1       3.969  -1.919  -9.769  1.00  0.00     0.135 A 
ATOM     55  F   UNL     1       7.501  -2.435 -10.080  1.00  0.00    -0.206 F 
ATOM     56  C   UNL     1       5.611  -3.635 -10.981  1.00  0.00     0.059 A 
ATOM     57  C   UNL     1       3.488  -3.059 -10.366  1.00  0.00     0.059 A 
ATOM     58  F   UNL     1       3.127  -1.085  -9.165  1.00  0.00    -0.206 F 
ATOM     59  C   UNL     1       4.338  -3.979 -10.913  1.00  0.00     0.060 A 
BRANCH  59  60
ATOM     60  S   UNL     1       3.750  -5.583 -11.513  1.00  0.00     0.124 S 
ATOM     61  O   UNL     1       4.064  -5.715 -13.005  1.00  0.00    -0.237 OA
ATOM     62  O   UNL     1       4.451  -6.704 -10.743  1.00  0.00    -0.237 OA
ATOM     63  O   UNL     1       2.061  -5.696 -11.274  1.00  0.00    -0.744 OA
ENDBRANCH  59  60
ENDBRANCH  27  52
BRANCH  39  64
ATOM     64  C   UNL     1       8.543   4.177 -11.964  1.00  0.00     0.058 A 
ATOM     65  C   UNL     1       7.765   4.389 -13.090  1.00  0.00     0.135 A 
ATOM     66  C   UNL     1       9.842   4.456 -11.961  1.00  0.00     0.135 A 
ATOM     67  F   UNL     1       6.435   4.367 -13.067  1.00  0.00    -0.206 F 
ATOM     68  C   UNL     1       8.513   4.630 -14.266  1.00  0.00     0.059 A 
ATOM     69  C   UNL     1      10.481   4.818 -13.122  1.00  0.00     0.059 A 
ATOM     70  F   UNL     1      10.529   4.385 -10.825  1.00  0.00    -0.206 F 
ATOM     71  C   UNL     1       9.784   4.988 -14.286  1.00  0.00     0.060 A 
BRANCH  71  72
ATOM     72  S   UNL     1      10.561   5.668 -15.773  1.00  0.00     0.124 S 
ATOM     73  O   UNL     1      10.474   4.644 -16.907  1.00  0.00    -0.237 OA
ATOM     74  O   UNL     1       9.835   6.950 -16.187  1.00  0.00    -0.237 OA
ATOM     75  O   UNL     1      12.202   6.021 -15.448  1.00  0.00    -0.744 OA
ENDBRANCH  71  72
ENDBRANCH  39  64
ENDBRANCH  13  14
ENDBRANCH   6   8
ENDBRANCH   3   4
ENDBRANCH   2   3
ENDBRANCH   1   2
BRANCH   1  76
ATOM     76  C   UNL     1       5.004  -1.470   3.921  1.00  0.00     0.002 C 
BRANCH  76  77
ATOM     77  C   UNL     1       6.524  -1.470   3.921  1.00  0.00     0.021 C 
BRANCH  77  78
ATOM     78  C   UNL     1       7.031  -0.538   5.009  1.00  0.00     0.116 C 
BRANCH  78  79
ATOM     79  N   UNL     1       6.541  -0.998   6.317  1.00  0.00    -0.352 N 
ATOM     80  C   UNL     1       7.496  -1.369   7.371  1.00  0.00     0.253 C 
ATOM     81  H   UNL     1       5.573  -1.057   6.486  1.00  0.00     0.163 HD
ATOM     82  O   UNL     1       7.073  -1.766   8.501  1.00  0.00    -0.269 OA
BRANCH  80  83
ATOM     83  C   UNL     1       8.991  -1.276   7.109  1.00  0.00     0.063 A 
ATOM     84  C   UNL     1       9.815  -2.319   7.500  1.00  0.00     0.016 A 
ATOM     85  C   UNL     1       9.482  -0.198   6.509  1.00  0.00     0.051 A 
ATOM     86  C   UNL     1      11.193  -2.001   7.473  1.00  0.00     0.001 A 
ATOM     87  C   UNL     1      10.839  -0.017   6.398  1.00  0.00     0.027 A 
ATOM     88  C   UNL     1      11.714  -0.980   6.817  1.00  0.00     0.002 A 
BRANCH  85  89
ATOM     89  N   UNL     1       8.564   0.811   5.960  1.00  0.00    -0.355 N 
ATOM     90  H   UNL     1       7.591   0.685   6.037  1.00  0.00     0.167 HD
BRANCH  89  91
ATOM     91  C   UNL     1       9.101   2.007   5.295  1.00  0.00     0.040 A 
ATOM     92  C   UNL     1       8.930   3.296   5.772  1.00  0.00     0.026 A 
ATOM     93  C   UNL     1       9.857   1.761   4.232  1.00  0.00     0.050 A 
ATOM     94  C   UNL     1       9.370   4.301   4.879  1.00  0.00     0.004 A 
ATOM     95  C   UNL     1      10.368   2.793   3.482  1.00  0.00     0.109 A 
ATOM     96  C   UNL     1      10.187   4.094   3.862  1.00  0.00     0.024 A 
BRANCH  95  97
ATOM     97  S   UNL     1      11.292   2.425   1.971  1.00  0.00     0.310 S 
ATOM     98  F   UNL     1      12.678   2.268   2.726  1.00  0.00    -0.094 F 
ATOM     99  F   UNL     1      11.626   3.958   1.821  1.00  0.00    -0.094 F 
ATOM    100  F   UNL     1      12.046   2.104   0.649  1.00  0.00    -0.094 F 
ATOM    101  F   UNL     1      11.070   0.880   2.210  1.00  0.00    -0.094 F 
ATOM    102  F   UNL     1      10.622   2.724   3.371  1.00  0.00    -0.094 F 
ENDBRANCH  95  97
ENDBRANCH  89  91
ENDBRANCH  85  89
ENDBRANCH  80  83
ENDBRANCH  78  79
ENDBRANCH  77  78
ENDBRANCH  76  77
ENDBRANCH   1  76
TORSDOF 19
