REMARK SMILES Cc1cc(C)n(-c2nc(C)c(C)c(Oc3cccc(C(=O)NCCCCCCNC(=O)c4ccc(-c5c6nc(c(-c7c(F)cc(S(=O)(=O)[O-])cc7F)c7ccc([nH]7)c(-c7c(F)cc(S(=O)(=O)[O-])cc7F)c7nc(c(-c8c(F)cc(S(=O)(=O)[O-])cc8F)c8ccc5[nH]8)C=C7)C=C6)cc4)c3)n2)n1
REMARK SMILES IDX 25 1 24 2 23 3 22 4 20 5 21 6 19 8 15 9 16 10 98 11 17 12
REMARK SMILES IDX 18 13 14 14 13 15 7 16 8 17 99 18 9 19 10 20 11 21 12 22
REMARK SMILES IDX 6 23 1 24 2 25 3 26 100 27 4 28 5 29 26 30 27 31 28 32 29 33
REMARK SMILES IDX 30 34 31 36 32 37 33 38 97 39 34 40 96 41 35 42 36 43 37 44
REMARK SMILES IDX 90 45 38 46 95 47 89 48 91 49 39 50 94 51 88 52 87 53 40 55
REMARK SMILES IDX 74 56 53 57 73 58 54 59 57 60 72 61 92 62 55 63 56 64 71 66
REMARK SMILES IDX 93 67 58 68 41 69 42 70 51 71 43 72 44 73 50 74 52 75 45 76
REMARK SMILES IDX 46 77 47 78 48 79 49 80 75 81 76 82 85 83 77 84 78 85 84 86
REMARK SMILES IDX 86 87 79 88 80 89 81 90 82 91 83 92 59 93 60 94 69 95 61 96
REMARK SMILES IDX 62 97 68 98 70 99 63 100 64 101 65 102 66 103 67 104
REMARK H PARENT 22 7 29 35 91 54 57 65
REMARK Flexibility Score: inf
ROOT
ATOM      1  C   UNL     1      -5.167   5.666  -2.742  1.00  0.00     0.002 C 
ENDROOT
BRANCH   1   2
ATOM      2  C   UNL     1      -3.711   6.156  -2.717  1.00  0.00     0.021 C 
BRANCH   2   3
ATOM      3  C   UNL     1      -2.703   5.025  -2.925  1.00  0.00     0.116 C 
BRANCH   3   4
ATOM      4  N   UNL     1      -2.567   4.745  -4.339  1.00  0.00    -0.352 N 
ATOM      5  C   UNL     1      -1.616   5.029  -5.280  1.00  0.00     0.251 C 
ATOM      6  O   UNL     1      -1.869   4.667  -6.433  1.00  0.00    -0.269 OA
ATOM      7  H   UNL     1      -3.327   4.237  -4.704  1.00  0.00     0.163 HD
BRANCH   5   8
ATOM      8  C   UNL     1      -0.294   5.665  -4.997  1.00  0.00     0.043 A 
ATOM      9  C   UNL     1       1.378   6.738  -3.605  1.00  0.00     0.130 A 
ATOM     10  C   UNL     1       2.331   6.604  -4.612  1.00  0.00     0.047 A 
ATOM     11  C   UNL     1       0.051   6.361  -3.837  1.00  0.00     0.061 A 
ATOM     12  C   UNL     1       1.979   6.018  -5.822  1.00  0.00     0.005 A 
ATOM     13  C   UNL     1       0.684   5.527  -6.000  1.00  0.00     0.014 A 
BRANCH   9  14
ATOM     14  O   UNL     1       1.790   7.348  -2.445  1.00  0.00    -0.439 OA
BRANCH  14  15
ATOM     15  C   UNL     1       1.420   6.796  -1.215  1.00  0.00     0.227 A 
ATOM     16  C   UNL     1       0.709   5.049   0.079  1.00  0.00     0.254 A 
ATOM     17  N   UNL     1       0.714   5.816   1.192  1.00  0.00    -0.216 NA
ATOM     18  N   UNL     1       1.093   5.486  -1.136  1.00  0.00    -0.175 NA
ATOM     19  C   UNL     1       1.165   7.083   1.095  1.00  0.00     0.050 A 
ATOM     20  C   UNL     1       1.383   7.770   2.413  1.00  0.00     0.067 C 
ATOM     21  C   UNL     1       1.486   7.655  -0.124  1.00  0.00     0.033 A 
ATOM     22  C   UNL     1       1.904   9.088  -0.251  1.00  0.00     0.052 C 
BRANCH  16  23
ATOM     23  N   UNL     1       0.275   3.683   0.251  1.00  0.00    -0.203 N 
ATOM     24  C   UNL     1       0.898   0.204  -0.206  1.00  0.00     0.069 C 
ATOM     25  C   UNL     1       0.384   1.544   0.167  1.00  0.00     0.060 A 
ATOM     26  C   UNL     1      -0.572   1.841   1.156  1.00  0.00     0.049 A 
ATOM     27  N   UNL     1       0.810   2.646  -0.463  1.00  0.00    -0.170 NA
ATOM     28  C   UNL     1      -0.656   3.215   1.179  1.00  0.00     0.045 A 
ATOM     29  C   UNL     1      -1.557   4.097   1.963  1.00  0.00     0.067 C 
ENDBRANCH  16  23
ENDBRANCH  14  15
ENDBRANCH   9  14
ENDBRANCH   5   8
ENDBRANCH   3   4
ENDBRANCH   2   3
ENDBRANCH   1   2
BRANCH   1  30
ATOM     30  C   UNL     1      -5.499   4.564  -1.721  1.00  0.00     0.002 C 
BRANCH  30  31
ATOM     31  C   UNL     1      -5.067   4.852  -0.276  1.00  0.00     0.021 C 
BRANCH  31  32
ATOM     32  C   UNL     1      -5.877   5.969   0.359  1.00  0.00     0.116 C 
BRANCH  32  33
ATOM     33  N   UNL     1      -7.260   5.558   0.589  1.00  0.00    -0.352 N 
ATOM     34  C   UNL     1      -8.258   6.263   1.219  1.00  0.00     0.251 C 
ATOM     35  H   UNL     1      -7.508   4.667   0.250  1.00  0.00     0.163 HD
ATOM     36  O   UNL     1      -9.257   5.690   1.651  1.00  0.00    -0.269 OA
BRANCH  34  37
ATOM     37  C   UNL     1      -8.105   7.717   1.360  1.00  0.00     0.039 A 
ATOM     38  C   UNL     1      -8.430   8.366   2.553  1.00  0.00     0.014 A 
ATOM     39  C   UNL     1      -7.596   8.425   0.271  1.00  0.00     0.014 A 
ATOM     40  C   UNL     1      -8.174   9.729   2.663  1.00  0.00     0.010 A 
ATOM     41  C   UNL     1      -7.215   9.732   0.429  1.00  0.00     0.010 A 
ATOM     42  C   UNL     1      -7.552  10.402   1.600  1.00  0.00    -0.014 A 
BRANCH  42  43
ATOM     43  C   UNL     1      -7.152  11.796   1.734  1.00  0.00     0.031 A 
ATOM     44  C   UNL     1      -6.250  12.078   2.886  1.00  0.00     0.074 A 
ATOM     45  C   UNL     1      -7.397  12.713   0.773  1.00  0.00     0.049 A 
ATOM     46  N   UNL     1      -6.509  12.780   3.938  1.00  0.00    -0.248 NA
ATOM     47  C   UNL     1      -4.955  11.379   2.949  1.00  0.00     0.031 C 
ATOM     48  C   UNL     1      -8.009  12.522  -0.548  1.00  0.00     0.029 A 
ATOM     49  N   UNL     1      -7.047  14.025   0.744  1.00  0.00    -0.354 N 
ATOM     50  C   UNL     1      -5.339  12.798   4.694  1.00  0.00     0.074 A 
ATOM     51  C   UNL     1      -4.487  11.782   4.133  1.00  0.00     0.031 C 
ATOM     52  C   UNL     1      -7.767  13.602  -1.323  1.00  0.00     0.029 A 
ATOM     53  C   UNL     1      -7.143  14.626  -0.506  1.00  0.00     0.049 A 
ATOM     54  H   UNL     1      -6.749  14.512   1.546  1.00  0.00     0.167 HD
ATOM     55  C   UNL     1      -5.083  13.800   5.582  1.00  0.00     0.037 A 
ATOM     56  C   UNL     1      -6.712  15.869  -0.840  1.00  0.00     0.037 A 
ATOM     57  C   UNL     1      -6.276  14.559   5.864  1.00  0.00     0.049 A 
ATOM     58  C   UNL     1      -6.612  16.636   0.432  1.00  0.00     0.074 A 
ATOM     59  C   UNL     1      -7.512  14.252   6.400  1.00  0.00     0.029 A 
ATOM     60  N   UNL     1      -6.441  15.758   5.211  1.00  0.00    -0.354 N 
ATOM     61  N   UNL     1      -7.645  16.942   1.171  1.00  0.00    -0.248 NA
ATOM     62  C   UNL     1      -5.332  16.626   1.125  1.00  0.00     0.031 C 
ATOM     63  C   UNL     1      -8.444  15.000   5.622  1.00  0.00     0.029 A 
ATOM     64  C   UNL     1      -7.721  15.777   4.715  1.00  0.00     0.049 A 
ATOM     65  H   UNL     1      -5.768  16.470   5.117  1.00  0.00     0.167 HD
ATOM     66  C   UNL     1      -7.221  16.747   2.478  1.00  0.00     0.074 A 
ATOM     67  C   UNL     1      -5.766  16.622   2.389  1.00  0.00     0.031 C 
ATOM     68  C   UNL     1      -8.099  16.416   3.472  1.00  0.00     0.037 A 
BRANCH  55  69
ATOM     69  C   UNL     1      -3.708  14.319   5.930  1.00  0.00     0.058 A 
ATOM     70  C   UNL     1      -3.563  15.243   6.987  1.00  0.00     0.135 A 
ATOM     71  C   UNL     1      -2.578  14.168   5.096  1.00  0.00     0.135 A 
ATOM     72  F   UNL     1      -4.573  15.467   7.843  1.00  0.00    -0.206 F 
ATOM     73  C   UNL     1      -2.414  16.016   7.153  1.00  0.00     0.059 A 
ATOM     74  C   UNL     1      -1.404  14.891   5.275  1.00  0.00     0.059 A 
ATOM     75  F   UNL     1      -2.591  13.387   4.009  1.00  0.00    -0.206 F 
ATOM     76  C   UNL     1      -1.345  15.844   6.279  1.00  0.00     0.060 A 
BRANCH  76  77
ATOM     77  S   UNL     1       0.093  16.918   6.418  1.00  0.00     0.124 S 
ATOM     78  O   UNL     1      -0.472  18.211   6.048  1.00  0.00    -0.237 OA
ATOM     79  O   UNL     1       0.456  16.754   7.822  1.00  0.00    -0.237 OA
ATOM     80  O   UNL     1       1.035  16.343   5.461  1.00  0.00    -0.744 OA
ENDBRANCH  76  77
ENDBRANCH  55  69
BRANCH  56  81
ATOM     81  C   UNL     1      -6.037  16.294  -2.099  1.00  0.00     0.058 A 
ATOM     82  C   UNL     1      -5.806  17.654  -2.377  1.00  0.00     0.135 A 
ATOM     83  C   UNL     1      -5.349  15.372  -2.914  1.00  0.00     0.135 A 
ATOM     84  F   UNL     1      -6.407  18.603  -1.642  1.00  0.00    -0.206 F 
ATOM     85  C   UNL     1      -4.901  18.074  -3.360  1.00  0.00     0.059 A 
ATOM     86  C   UNL     1      -4.449  15.767  -3.905  1.00  0.00     0.059 A 
ATOM     87  F   UNL     1      -5.456  14.051  -2.709  1.00  0.00    -0.206 F 
ATOM     88  C   UNL     1      -4.206  17.120  -4.102  1.00  0.00     0.060 A 
BRANCH  88  89
ATOM     89  S   UNL     1      -2.898  17.651  -5.234  1.00  0.00     0.124 S 
ATOM     90  O   UNL     1      -3.654  18.351  -6.266  1.00  0.00    -0.237 OA
ATOM     91  O   UNL     1      -2.068  18.486  -4.373  1.00  0.00    -0.237 OA
ATOM     92  O   UNL     1      -2.283  16.394  -5.655  1.00  0.00    -0.744 OA
ENDBRANCH  88  89
ENDBRANCH  56  81
BRANCH  68  93
ATOM     93  C   UNL     1      -9.579  16.505   3.188  1.00  0.00     0.058 A 
ATOM     94  C   UNL     1     -10.263  15.699   2.259  1.00  0.00     0.135 A 
ATOM     95  C   UNL     1     -10.364  17.314   4.024  1.00  0.00     0.135 A 
ATOM     96  F   UNL     1      -9.604  14.822   1.491  1.00  0.00    -0.206 F 
ATOM     97  C   UNL     1     -11.655  15.719   2.145  1.00  0.00     0.059 A 
ATOM     98  C   UNL     1     -11.754  17.329   3.949  1.00  0.00     0.059 A 
ATOM     99  F   UNL     1      -9.779  18.061   4.975  1.00  0.00    -0.206 F 
ATOM    100  C   UNL     1     -12.394  16.536   3.000  1.00  0.00     0.060 A 
BRANCH 100 101
ATOM    101  S   UNL     1     -14.198  16.505   2.906  1.00  0.00     0.124 S 
ATOM    102  O   UNL     1     -14.449  17.130   1.611  1.00  0.00    -0.237 OA
ATOM    103  O   UNL     1     -14.495  15.078   2.989  1.00  0.00    -0.237 OA
ATOM    104  O   UNL     1     -14.614  17.288   4.067  1.00  0.00    -0.744 OA
ENDBRANCH 100 101
ENDBRANCH  68  93
ENDBRANCH  42  43
ENDBRANCH  34  37
ENDBRANCH  32  33
ENDBRANCH  31  32
ENDBRANCH  30  31
ENDBRANCH   1  30
TORSDOF 19
