REMARK SMILES C[C@@H](Sc1ccccc1[N+](=O)[O-])[C@@H](C)C(=O)NCCCCCCNC(=O)c1ccc(-c2c3nc(c(-c4c(F)cc(S(=O)(=O)[O-])cc4F)c4ccc([nH]4)c(-c4c(F)cc(S(=O)(=O)[O-])cc4F)c4nc(c(-c5c(F)cc(S(=O)(=O)[O-])cc5F)c5ccc2[nH]5)C=C4)C=C3)cc1
REMARK SMILES IDX 20 1 19 2 18 3 17 4 15 5 16 6 13 8 14 9 2 10 1 11 3 12 4 13
REMARK SMILES IDX 5 14 9 15 6 16 8 17 7 18 10 19 11 20 12 21 21 22 22 23 23 24
REMARK SMILES IDX 24 25 25 26 26 28 27 29 28 30 92 31 29 32 91 33 30 34 31 35
REMARK SMILES IDX 32 36 85 37 33 38 90 39 84 40 86 41 34 42 89 43 83 44 82 45
REMARK SMILES IDX 35 47 69 48 48 49 68 50 49 51 52 52 67 53 87 54 50 55 51 56
REMARK SMILES IDX 66 58 88 59 53 60 36 61 37 62 46 63 38 64 39 65 45 66 47 67
REMARK SMILES IDX 40 68 41 69 42 70 43 71 44 72 70 73 71 74 80 75 72 76 73 77
REMARK SMILES IDX 79 78 81 79 74 80 75 81 76 82 77 83 78 84 54 85 55 86 64 87
REMARK SMILES IDX 56 88 57 89 63 90 65 91 58 92 59 93 60 94 61 95 62 96
REMARK H PARENT 17 7 24 27 86 46 52 57
REMARK Flexibility Score: inf
ROOT
ATOM      1  C   UNL     1       0.366  -3.195  -5.413  1.00  0.00     0.002 C 
ENDROOT
BRANCH   1   2
ATOM      2  C   UNL     1       0.763  -2.161  -4.351  1.00  0.00     0.021 C 
BRANCH   2   3
ATOM      3  C   UNL     1      -0.416  -1.363  -3.798  1.00  0.00     0.116 C 
BRANCH   3   4
ATOM      4  N   UNL     1      -1.300  -2.217  -3.031  1.00  0.00    -0.356 N 
ATOM      5  C   UNL     1      -1.647  -2.209  -1.722  1.00  0.00     0.223 C 
ATOM      6  O   UNL     1      -2.393  -3.113  -1.331  1.00  0.00    -0.275 OA
ATOM      7  H   UNL     1      -1.724  -2.933  -3.557  1.00  0.00     0.163 HD
BRANCH   5   8
ATOM      8  C   UNL     1      -1.221  -1.100  -0.763  1.00  0.00     0.088 C 
ATOM      9  C   UNL     1      -1.911   0.206  -1.180  1.00  0.00     0.019 C 
BRANCH   8  10
ATOM     10  C   UNL     1       0.303  -0.943  -0.502  1.00  0.00     0.061 C 
ATOM     11  C   UNL     1       0.528   0.025   0.664  1.00  0.00     0.020 C 
BRANCH  10  12
ATOM     12  S   UNL     1       1.058  -2.580  -0.120  1.00  0.00    -0.115 SA
BRANCH  12  13
ATOM     13  C   UNL     1       2.852  -2.487  -0.212  1.00  0.00     0.085 A 
ATOM     14  C   UNL     1       3.436  -3.743   0.078  1.00  0.00     0.022 A 
ATOM     15  C   UNL     1       3.761  -1.448  -0.460  1.00  0.00     0.282 A 
ATOM     16  C   UNL     1       4.822  -3.932   0.168  1.00  0.00     0.002 A 
ATOM     17  C   UNL     1       5.158  -1.616  -0.335  1.00  0.00     0.087 A 
ATOM     18  C   UNL     1       5.684  -2.861  -0.013  1.00  0.00     0.007 A 
BRANCH  15  19
ATOM     19  N   UNL     1       3.364  -0.150  -0.944  1.00  0.00     0.063 N 
ATOM     20  O   UNL     1       3.528   0.812  -0.182  1.00  0.00    -0.258 OA
ATOM     21  O   UNL     1       2.958  -0.085  -2.112  1.00  0.00    -0.258 OA
ENDBRANCH  15  19
ENDBRANCH  12  13
ENDBRANCH  10  12
ENDBRANCH   8  10
ENDBRANCH   5   8
ENDBRANCH   3   4
ENDBRANCH   2   3
ENDBRANCH   1   2
BRANCH   1  22
ATOM     22  C   UNL     1      -0.398  -2.626  -6.614  1.00  0.00     0.002 C 
BRANCH  22  23
ATOM     23  C   UNL     1       0.298  -1.464  -7.326  1.00  0.00     0.021 C 
BRANCH  23  24
ATOM     24  C   UNL     1       1.687  -1.797  -7.857  1.00  0.00     0.116 C 
BRANCH  24  25
ATOM     25  N   UNL     1       1.644  -2.834  -8.875  1.00  0.00    -0.352 N 
ATOM     26  C   UNL     1       2.162  -2.819 -10.148  1.00  0.00     0.251 C 
ATOM     27  H   UNL     1       1.180  -3.663  -8.617  1.00  0.00     0.163 HD
ATOM     28  O   UNL     1       1.857  -3.695 -10.948  1.00  0.00    -0.269 OA
BRANCH  26  29
ATOM     29  C   UNL     1       3.075  -1.726 -10.545  1.00  0.00     0.039 A 
ATOM     30  C   UNL     1       2.889  -1.102 -11.780  1.00  0.00     0.014 A 
ATOM     31  C   UNL     1       4.106  -1.317  -9.696  1.00  0.00     0.014 A 
ATOM     32  C   UNL     1       3.707  -0.028 -12.140  1.00  0.00     0.010 A 
ATOM     33  C   UNL     1       4.867  -0.199 -10.020  1.00  0.00     0.010 A 
ATOM     34  C   UNL     1       4.682   0.452 -11.250  1.00  0.00    -0.014 A 
BRANCH  34  35
ATOM     35  C   UNL     1       5.529   1.625 -11.587  1.00  0.00     0.031 A 
ATOM     36  C   UNL     1       7.020   1.464 -11.708  1.00  0.00     0.074 A 
ATOM     37  C   UNL     1       4.965   2.842 -11.718  1.00  0.00     0.049 A 
ATOM     38  N   UNL     1       7.937   2.375 -11.909  1.00  0.00    -0.248 NA
ATOM     39  C   UNL     1       7.556   0.101 -11.553  1.00  0.00     0.031 C 
ATOM     40  C   UNL     1       3.536   3.133 -11.582  1.00  0.00     0.029 A 
ATOM     41  N   UNL     1       5.527   4.067 -11.982  1.00  0.00    -0.354 N 
ATOM     42  C   UNL     1       9.152   1.701 -11.890  1.00  0.00     0.074 A 
ATOM     43  C   UNL     1       8.862   0.315 -11.601  1.00  0.00     0.031 C 
ATOM     44  C   UNL     1       3.332   4.445 -11.782  1.00  0.00     0.029 A 
ATOM     45  C   UNL     1       4.617   5.097 -12.017  1.00  0.00     0.049 A 
ATOM     46  H   UNL     1       6.492   4.195 -12.133  1.00  0.00     0.167 HD
ATOM     47  C   UNL     1      10.395   2.190 -12.116  1.00  0.00     0.037 A 
ATOM     48  C   UNL     1       4.798   6.420 -12.202  1.00  0.00     0.037 A 
ATOM     49  C   UNL     1      10.672   3.569 -12.425  1.00  0.00     0.049 A 
ATOM     50  C   UNL     1       6.190   6.942 -12.440  1.00  0.00     0.074 A 
ATOM     51  C   UNL     1      11.889   4.155 -12.725  1.00  0.00     0.029 A 
ATOM     52  N   UNL     1       9.720   4.578 -12.471  1.00  0.00    -0.354 N 
ATOM     53  N   UNL     1       7.322   6.280 -12.479  1.00  0.00    -0.248 NA
ATOM     54  C   UNL     1       6.329   8.387 -12.665  1.00  0.00     0.031 C 
ATOM     55  C   UNL     1      11.682   5.527 -12.899  1.00  0.00     0.029 A 
ATOM     56  C   UNL     1      10.327   5.787 -12.771  1.00  0.00     0.049 A 
ATOM     57  H   UNL     1       8.757   4.454 -12.314  1.00  0.00     0.167 HD
ATOM     58  C   UNL     1       8.304   7.223 -12.768  1.00  0.00     0.074 A 
ATOM     59  C   UNL     1       7.630   8.498 -12.901  1.00  0.00     0.031 C 
ATOM     60  C   UNL     1       9.641   7.048 -12.913  1.00  0.00     0.037 A 
BRANCH  47  61
ATOM     61  C   UNL     1      11.551   1.229 -12.036  1.00  0.00     0.058 A 
ATOM     62  C   UNL     1      11.738   0.215 -12.990  1.00  0.00     0.135 A 
ATOM     63  C   UNL     1      12.507   1.347 -11.014  1.00  0.00     0.135 A 
ATOM     64  F   UNL     1      10.848   0.046 -13.981  1.00  0.00    -0.206 F 
ATOM     65  C   UNL     1      12.812  -0.666 -12.916  1.00  0.00     0.059 A 
ATOM     66  C   UNL     1      13.607   0.497 -10.939  1.00  0.00     0.059 A 
ATOM     67  F   UNL     1      12.379   2.297 -10.074  1.00  0.00    -0.206 F 
ATOM     68  C   UNL     1      13.742  -0.516 -11.886  1.00  0.00     0.060 A 
BRANCH  68  69
ATOM     69  S   UNL     1      15.132  -1.665 -11.809  1.00  0.00     0.124 S 
ATOM     70  O   UNL     1      14.470  -2.896 -11.387  1.00  0.00    -0.237 OA
ATOM     71  O   UNL     1      15.626  -1.649 -13.182  1.00  0.00    -0.237 OA
ATOM     72  O   UNL     1      16.019  -1.061 -10.819  1.00  0.00    -0.744 OA
ENDBRANCH  68  69
ENDBRANCH  47  61
BRANCH  48  73
ATOM     73  C   UNL     1       3.628   7.340 -12.188  1.00  0.00     0.058 A 
ATOM     74  C   UNL     1       3.196   7.980 -13.359  1.00  0.00     0.135 A 
ATOM     75  C   UNL     1       2.913   7.591 -11.006  1.00  0.00     0.135 A 
ATOM     76  F   UNL     1       3.850   7.778 -14.513  1.00  0.00    -0.206 F 
ATOM     77  C   UNL     1       2.111   8.850 -13.358  1.00  0.00     0.059 A 
ATOM     78  C   UNL     1       1.806   8.435 -10.985  1.00  0.00     0.059 A 
ATOM     79  F   UNL     1       3.273   6.992  -9.861  1.00  0.00    -0.206 F 
ATOM     80  C   UNL     1       1.419   9.069 -12.165  1.00  0.00     0.060 A 
BRANCH  80  81
ATOM     81  S   UNL     1      -0.015  10.166 -12.185  1.00  0.00     0.124 S 
ATOM     82  O   UNL     1       0.615  11.470 -12.352  1.00  0.00    -0.237 OA
ATOM     83  O   UNL     1      -0.765   9.666 -13.333  1.00  0.00    -0.237 OA
ATOM     84  O   UNL     1      -0.638   9.927 -10.886  1.00  0.00    -0.744 OA
ENDBRANCH  80  81
ENDBRANCH  48  73
BRANCH  60  85
ATOM     85  C   UNL     1      10.466   8.251 -13.281  1.00  0.00     0.058 A 
ATOM     86  C   UNL     1      10.721   9.286 -12.368  1.00  0.00     0.135 A 
ATOM     87  C   UNL     1      11.063   8.337 -14.550  1.00  0.00     0.135 A 
ATOM     88  F   UNL     1      10.170   9.257 -11.143  1.00  0.00    -0.206 F 
ATOM     89  C   UNL     1      11.520  10.373 -12.706  1.00  0.00     0.059 A 
ATOM     90  C   UNL     1      11.891   9.399 -14.899  1.00  0.00     0.059 A 
ATOM     91  F   UNL     1      10.861   7.369 -15.459  1.00  0.00    -0.206 F 
ATOM     92  C   UNL     1      12.105  10.418 -13.973  1.00  0.00     0.060 A 
BRANCH  92  93
ATOM     93  S   UNL     1      13.174  11.813 -14.384  1.00  0.00     0.124 S 
ATOM     94  O   UNL     1      12.204  12.894 -14.531  1.00  0.00    -0.237 OA
ATOM     95  O   UNL     1      14.041  11.896 -13.213  1.00  0.00    -0.237 OA
ATOM     96  O   UNL     1      13.832  11.388 -15.616  1.00  0.00    -0.744 OA
ENDBRANCH  92  93
ENDBRANCH  60  85
ENDBRANCH  34  35
ENDBRANCH  26  29
ENDBRANCH  24  25
ENDBRANCH  23  24
ENDBRANCH  22  23
ENDBRANCH   1  22
TORSDOF 20
