REMARK SMILES O=C(NCCCCCCNC(=O)[C@@H]1CCCC[C@H]1C(=O)Nc1cccc(-c2nnc(-c3ccccc3)o2)c1)c1ccc(-c2c3nc(c(-c4c(F)cc(S(=O)(=O)[O-])cc4F)c4ccc([nH]4)c(-c4c(F)cc(S(=O)(=O)[O-])cc4F)c4nc(c(-c5c(F)cc(S(=O)(=O)[O-])cc5F)c5ccc2[nH]5)C=C4)C=C3)cc1
REMARK SMILES IDX 7 1 6 2 5 3 4 4 3 5 1 6 2 7 39 9 40 10 104 11 41 12 103 13
REMARK SMILES IDX 42 14 43 15 44 16 97 17 45 18 102 19 96 20 98 21 46 22
REMARK SMILES IDX 101 23 95 24 94 25 47 27 81 28 60 29 80 30 61 31 64 32 79 33
REMARK SMILES IDX 99 34 62 35 63 36 78 38 100 39 65 40 48 41 49 42 58 43 50 44
REMARK SMILES IDX 51 45 57 46 59 47 52 48 53 49 54 50 55 51 56 52 82 53 83 54
REMARK SMILES IDX 92 55 84 56 85 57 91 58 93 59 86 60 87 61 88 62 89 63 90 64
REMARK SMILES IDX 66 65 67 66 76 67 68 68 69 69 75 70 77 71 70 72 71 73 72 74
REMARK SMILES IDX 73 75 74 76 8 77 9 78 10 79 11 80 12 82 13 83 14 84 18 85
REMARK SMILES IDX 15 86 17 87 16 88 19 89 20 90 21 91 22 93 23 94 38 95 24 96
REMARK SMILES IDX 26 97 25 98 27 99 28 100 37 101 29 102 30 103 31 104 32 105
REMARK SMILES IDX 36 106 33 107 35 108 34 109
REMARK H PARENT 3 8 98 26 64 37 10 81 21 92
REMARK Flexibility Score: inf
ROOT
ATOM      1  C   UNL     1       4.527   2.845   3.455  1.00  0.00     0.002 C 
ENDROOT
BRANCH   1   2
ATOM      2  C   UNL     1       4.074   3.373   2.090  1.00  0.00     0.002 C 
BRANCH   2   3
ATOM      3  C   UNL     1       4.579   2.592   0.872  1.00  0.00     0.021 C 
BRANCH   3   4
ATOM      4  C   UNL     1       4.194   1.116   0.841  1.00  0.00     0.116 C 
BRANCH   4   5
ATOM      5  N   UNL     1       2.759   0.918   0.708  1.00  0.00    -0.352 N 
ATOM      6  O   UNL     1       0.852   0.252  -0.297  1.00  0.00    -0.269 OA
ATOM      7  C   UNL     1       2.072   0.171  -0.222  1.00  0.00     0.251 C 
ATOM      8  H   UNL     1       2.203   1.382   1.375  1.00  0.00     0.163 HD
BRANCH   7   9
ATOM      9  C   UNL     1       2.815  -0.734  -1.127  1.00  0.00     0.039 A 
ATOM     10  C   UNL     1       3.761  -1.612  -0.605  1.00  0.00     0.014 A 
ATOM     11  C   UNL     1       2.547  -0.739  -2.498  1.00  0.00     0.014 A 
ATOM     12  C   UNL     1       4.517  -2.409  -1.462  1.00  0.00     0.010 A 
ATOM     13  C   UNL     1       3.258  -1.600  -3.349  1.00  0.00     0.010 A 
ATOM     14  C   UNL     1       4.263  -2.438  -2.842  1.00  0.00    -0.014 A 
BRANCH  14  15
ATOM     15  C   UNL     1       4.990  -3.418  -3.703  1.00  0.00     0.031 A 
ATOM     16  C   UNL     1       5.816  -2.979  -4.886  1.00  0.00     0.074 A 
ATOM     17  C   UNL     1       4.900  -4.734  -3.407  1.00  0.00     0.049 A 
ATOM     18  N   UNL     1       6.421  -3.717  -5.783  1.00  0.00    -0.248 NA
ATOM     19  C   UNL     1       5.987  -1.533  -5.096  1.00  0.00     0.031 C 
ATOM     20  C   UNL     1       4.140  -5.296  -2.285  1.00  0.00     0.029 A 
ATOM     21  N   UNL     1       5.443  -5.839  -4.015  1.00  0.00    -0.354 N 
ATOM     22  C   UNL     1       7.004  -2.834  -6.686  1.00  0.00     0.074 A 
ATOM     23  C   UNL     1       6.689  -1.499  -6.223  1.00  0.00     0.031 C 
ATOM     24  C   UNL     1       4.290  -6.626  -2.266  1.00  0.00     0.029 A 
ATOM     25  C   UNL     1       5.063  -7.028  -3.433  1.00  0.00     0.049 A 
ATOM     26  H   UNL     1       6.046  -5.787  -4.791  1.00  0.00     0.167 HD
ATOM     27  C   UNL     1       7.726  -3.116  -7.798  1.00  0.00     0.037 A 
ATOM     28  C   UNL     1       5.248  -8.305  -3.821  1.00  0.00     0.037 A 
ATOM     29  C   UNL     1       8.068  -4.450  -8.229  1.00  0.00     0.049 A 
ATOM     30  C   UNL     1       6.005  -8.582  -5.087  1.00  0.00     0.074 A 
ATOM     31  C   UNL     1       8.860  -4.825  -9.303  1.00  0.00     0.029 A 
ATOM     32  N   UNL     1       7.633  -5.621  -7.630  1.00  0.00    -0.354 N 
ATOM     33  N   UNL     1       6.586  -7.732  -5.899  1.00  0.00    -0.248 NA
ATOM     34  C   UNL     1       6.118  -9.986  -5.502  1.00  0.00     0.031 C 
ATOM     35  C   UNL     1       8.845  -6.220  -9.394  1.00  0.00     0.029 A 
ATOM     36  C   UNL     1       8.096  -6.717  -8.341  1.00  0.00     0.049 A 
ATOM     37  H   UNL     1       7.077  -5.668  -6.819  1.00  0.00     0.167 HD
ATOM     38  C   UNL     1       7.135  -8.500  -6.918  1.00  0.00     0.074 A 
ATOM     39  C   UNL     1       6.848  -9.883  -6.604  1.00  0.00     0.031 C 
ATOM     40  C   UNL     1       7.806  -8.092  -8.022  1.00  0.00     0.037 A 
BRANCH  27  41
ATOM     41  C   UNL     1       8.185  -1.979  -8.674  1.00  0.00     0.058 A 
ATOM     42  C   UNL     1       9.256  -1.146  -8.318  1.00  0.00     0.135 A 
ATOM     43  C   UNL     1       7.626  -1.815  -9.954  1.00  0.00     0.135 A 
ATOM     44  F   UNL     1       9.821  -1.251  -7.105  1.00  0.00    -0.206 F 
ATOM     45  C   UNL     1       9.758  -0.193  -9.200  1.00  0.00     0.059 A 
ATOM     46  C   UNL     1       8.127  -0.885 -10.861  1.00  0.00     0.059 A 
ATOM     47  F   UNL     1       6.601  -2.587 -10.346  1.00  0.00    -0.206 F 
ATOM     48  C   UNL     1       9.194  -0.077 -10.473  1.00  0.00     0.060 A 
BRANCH  48  49
ATOM     49  S   UNL     1       9.895   1.128 -11.622  1.00  0.00     0.124 S 
ATOM     50  O   UNL     1       9.486   2.388 -11.009  1.00  0.00    -0.237 OA
ATOM     51  O   UNL     1      11.322   0.826 -11.556  1.00  0.00    -0.237 OA
ATOM     52  O   UNL     1       9.248   0.809 -12.891  1.00  0.00    -0.744 OA
ENDBRANCH  48  49
ENDBRANCH  27  41
BRANCH  28  53
ATOM     53  C   UNL     1       4.623  -9.414  -3.050  1.00  0.00     0.058 A 
ATOM     54  C   UNL     1       5.401 -10.373  -2.386  1.00  0.00     0.135 A 
ATOM     55  C   UNL     1       3.225  -9.544  -2.978  1.00  0.00     0.135 A 
ATOM     56  F   UNL     1       6.740 -10.298  -2.431  1.00  0.00    -0.206 F 
ATOM     57  C   UNL     1       4.818 -11.436  -1.703  1.00  0.00     0.059 A 
ATOM     58  C   UNL     1       2.619 -10.574  -2.269  1.00  0.00     0.059 A 
ATOM     59  F   UNL     1       2.432  -8.645  -3.582  1.00  0.00    -0.206 F 
ATOM     60  C   UNL     1       3.426 -11.527  -1.652  1.00  0.00     0.060 A 
BRANCH  60  61
ATOM     61  S   UNL     1       2.677 -12.902  -0.753  1.00  0.00     0.124 S 
ATOM     62  O   UNL     1       2.928 -14.014  -1.663  1.00  0.00    -0.237 OA
ATOM     63  O   UNL     1       3.441 -12.908   0.490  1.00  0.00    -0.237 OA
ATOM     64  O   UNL     1       1.282 -12.495  -0.621  1.00  0.00    -0.744 OA
ENDBRANCH  60  61
ENDBRANCH  28  53
BRANCH  40  65
ATOM     65  C   UNL     1       8.287  -9.154  -8.971  1.00  0.00     0.058 A 
ATOM     66  C   UNL     1       7.396  -9.857  -9.797  1.00  0.00     0.135 A 
ATOM     67  C   UNL     1       9.658  -9.431  -9.100  1.00  0.00     0.135 A 
ATOM     68  F   UNL     1       6.074  -9.640  -9.703  1.00  0.00    -0.206 F 
ATOM     69  C   UNL     1       7.845 -10.806 -10.709  1.00  0.00     0.059 A 
ATOM     70  C   UNL     1      10.132 -10.355 -10.026  1.00  0.00     0.059 A 
ATOM     71  F   UNL     1      10.553  -8.785  -8.336  1.00  0.00    -0.206 F 
ATOM     72  C   UNL     1       9.216 -11.042 -10.822  1.00  0.00     0.060 A 
BRANCH  72  73
ATOM     73  S   UNL     1       9.787 -12.235 -12.050  1.00  0.00     0.124 S 
ATOM     74  O   UNL     1       9.354 -13.497 -11.460  1.00  0.00    -0.237 OA
ATOM     75  O   UNL     1       9.066 -11.815 -13.248  1.00  0.00    -0.237 OA
ATOM     76  O   UNL     1      11.230 -12.022 -12.088  1.00  0.00    -0.744 OA
ENDBRANCH  72  73
ENDBRANCH  40  65
ENDBRANCH  14  15
ENDBRANCH   7   9
ENDBRANCH   4   5
ENDBRANCH   3   4
ENDBRANCH   2   3
ENDBRANCH   1   2
BRANCH   1  77
ATOM     77  C   UNL     1       6.038   2.702   3.630  1.00  0.00     0.021 C 
BRANCH  77  78
ATOM     78  C   UNL     1       6.837   3.989   3.477  1.00  0.00     0.116 C 
BRANCH  78  79
ATOM     79  N   UNL     1       6.600   4.924   4.561  1.00  0.00    -0.356 N 
ATOM     80  C   UNL     1       7.492   5.590   5.352  1.00  0.00     0.223 C 
ATOM     81  H   UNL     1       5.652   5.106   4.756  1.00  0.00     0.163 HD
ATOM     82  O   UNL     1       7.058   6.314   6.246  1.00  0.00    -0.275 OA
BRANCH  80  83
ATOM     83  C   UNL     1       8.983   5.369   5.138  1.00  0.00     0.091 C 
ATOM     84  C   UNL     1       9.463   4.205   6.009  1.00  0.00     0.014 C 
ATOM     85  C   UNL     1       9.788   6.663   5.321  1.00  0.00     0.091 C 
ATOM     86  C   UNL     1      10.963   3.993   5.845  1.00  0.00     0.001 C 
ATOM     87  C   UNL     1      11.311   6.445   5.385  1.00  0.00     0.014 C 
ATOM     88  C   UNL     1      11.721   5.250   6.244  1.00  0.00     0.001 C 
BRANCH  85  89
ATOM     89  C   UNL     1       9.418   7.793   4.330  1.00  0.00     0.228 C 
ATOM     90  O   UNL     1       8.844   8.802   4.764  1.00  0.00    -0.274 OA
ATOM     91  N   UNL     1       9.784   7.847   3.009  1.00  0.00    -0.326 N 
ATOM     92  H   UNL     1       9.542   8.690   2.562  1.00  0.00     0.169 HD
BRANCH  91  93
ATOM     93  C   UNL     1      10.437   6.931   2.173  1.00  0.00     0.041 A 
ATOM     94  C   UNL     1      11.581   7.348   1.494  1.00  0.00     0.026 A 
ATOM     95  C   UNL     1       9.994   5.625   2.002  1.00  0.00     0.040 A 
ATOM     96  C   UNL     1      12.362   6.415   0.807  1.00  0.00     0.003 A 
ATOM     97  C   UNL     1      10.826   4.653   1.438  1.00  0.00     0.041 A 
ATOM     98  C   UNL     1      12.014   5.063   0.828  1.00  0.00     0.014 A 
BRANCH  97  99
ATOM     99  C   UNL     1      10.611   3.246   1.734  1.00  0.00     0.248 A 
ATOM    100  N   UNL     1      11.393   2.465   2.450  1.00  0.00    -0.107 NA
ATOM    101  O   UNL     1       9.419   2.653   1.400  1.00  0.00    -0.416 OA
ATOM    102  N   UNL     1      10.705   1.295   2.646  1.00  0.00    -0.107 NA
ATOM    103  C   UNL     1       9.576   1.414   1.982  1.00  0.00     0.248 A 
BRANCH 103 104
ATOM    104  C   UNL     1       8.531   0.426   1.803  1.00  0.00     0.039 A 
ATOM    105  C   UNL     1       8.076  -0.323   2.901  1.00  0.00     0.014 A 
ATOM    106  C   UNL     1       8.049   0.127   0.527  1.00  0.00     0.014 A 
ATOM    107  C   UNL     1       7.162  -1.362   2.724  1.00  0.00     0.001 A 
ATOM    108  C   UNL     1       7.171  -0.940   0.347  1.00  0.00     0.001 A 
ATOM    109  C   UNL     1       6.730  -1.684   1.442  1.00  0.00     0.000 A 
ENDBRANCH 103 104
ENDBRANCH  97  99
ENDBRANCH  91  93
ENDBRANCH  85  89
ENDBRANCH  80  83
ENDBRANCH  78  79
ENDBRANCH  77  78
ENDBRANCH   1  77
TORSDOF 20
