REMARK SMILES C[C@@H](Sc1nc2ccccc2c(=O)n1N)C(=O)NCCCCCCNC(=O)c1ccc(-c2c3nc(c(-c4c(F)cc(S(=O)(=O)[O-])cc4F)c4ccc([nH]4)c(-c4c(F)cc(S(=O)(=O)[O-])cc4F)c4nc(c(-c5c(F)cc(S(=O)(=O)[O-])cc5F)c5ccc2[nH]5)C=C4)C=C3)cc1
REMARK SMILES IDX 21 1 20 2 19 3 18 4 16 5 17 6 2 8 1 9 3 10 4 11 5 12 14 13
REMARK SMILES IDX 6 14 12 15 7 16 11 17 13 18 8 19 10 20 9 21 15 22 22 25
REMARK SMILES IDX 23 26 24 27 25 28 26 29 27 31 28 32 29 33 93 34 30 35 92 36
REMARK SMILES IDX 31 37 32 38 33 39 86 40 34 41 91 42 85 43 87 44 35 45 90 46
REMARK SMILES IDX 84 47 83 48 36 50 70 51 49 52 69 53 50 54 53 55 68 56 88 57
REMARK SMILES IDX 51 58 52 59 67 61 89 62 54 63 37 64 38 65 47 66 39 67 40 68
REMARK SMILES IDX 46 69 48 70 41 71 42 72 43 73 44 74 45 75 71 76 72 77 81 78
REMARK SMILES IDX 73 79 74 80 80 81 82 82 75 83 76 84 77 85 78 86 79 87 55 88
REMARK SMILES IDX 56 89 65 90 57 91 58 92 64 93 66 94 59 95 60 96 61 97 62 98
REMARK SMILES IDX 63 99
REMARK H PARENT 18 7 15 23 15 24 25 30 87 49 53 60
REMARK Flexibility Score: inf
ROOT
ATOM      1  C   UNL     1      -3.023  -2.793   0.700  1.00  0.00     0.002 C 
ENDROOT
BRANCH   1   2
ATOM      2  C   UNL     1      -1.515  -2.521   0.645  1.00  0.00     0.021 C 
BRANCH   2   3
ATOM      3  C   UNL     1      -1.015  -2.143  -0.746  1.00  0.00     0.116 C 
BRANCH   3   4
ATOM      4  N   UNL     1      -1.493  -0.823  -1.116  1.00  0.00    -0.355 N 
ATOM      5  C   UNL     1      -0.807   0.313  -1.425  1.00  0.00     0.233 C 
ATOM      6  O   UNL     1      -1.470   1.323  -1.684  1.00  0.00    -0.274 OA
ATOM      7  H   UNL     1      -2.473  -0.734  -1.149  1.00  0.00     0.163 HD
BRANCH   5   8
ATOM      8  C   UNL     1       0.723   0.352  -1.468  1.00  0.00     0.141 C 
ATOM      9  C   UNL     1       1.361   0.117  -0.103  1.00  0.00     0.030 C 
BRANCH   8  10
ATOM     10  S   UNL     1       1.270  -0.731  -2.838  1.00  0.00    -0.073 SA
BRANCH  10  11
ATOM     11  C   UNL     1       3.003  -0.716  -2.649  1.00  0.00     0.191 A 
ATOM     12  N   UNL     1       3.563  -1.826  -2.296  1.00  0.00    -0.222 NA
ATOM     13  N   UNL     1       3.701   0.443  -2.969  1.00  0.00    -0.202 N 
ATOM     14  C   UNL     1       4.963  -1.877  -2.260  1.00  0.00     0.079 A 
ATOM     15  C   UNL     1       5.096   0.474  -2.970  1.00  0.00     0.280 A 
ATOM     16  C   UNL     1       5.582  -3.085  -1.929  1.00  0.00     0.029 A 
ATOM     17  C   UNL     1       5.766  -0.783  -2.589  1.00  0.00     0.068 A 
ATOM     18  O   UNL     1       5.751   1.464  -3.296  1.00  0.00    -0.267 OA
ATOM     19  C   UNL     1       6.976  -3.195  -1.930  1.00  0.00     0.002 A 
ATOM     20  C   UNL     1       7.162  -0.880  -2.588  1.00  0.00     0.016 A 
ATOM     21  C   UNL     1       7.765  -2.093  -2.259  1.00  0.00     0.001 A 
BRANCH  13  22
ATOM     22  N   UNL     1       3.030   1.654  -3.341  1.00  0.00    -0.334 N 
ATOM     23  H   UNL     1       2.046   1.686  -3.357  1.00  0.00     0.178 HD
ATOM     24  H   UNL     1       3.552   2.453  -3.581  1.00  0.00     0.178 HD
ENDBRANCH  13  22
ENDBRANCH  10  11
ENDBRANCH   8  10
ENDBRANCH   5   8
ENDBRANCH   3   4
ENDBRANCH   2   3
ENDBRANCH   1   2
BRANCH   1  25
ATOM     25  C   UNL     1      -3.510  -3.904  -0.238  1.00  0.00     0.002 C 
BRANCH  25  26
ATOM     26  C   UNL     1      -2.785  -5.243  -0.081  1.00  0.00     0.021 C 
BRANCH  26  27
ATOM     27  C   UNL     1      -2.852  -5.834   1.323  1.00  0.00     0.116 C 
BRANCH  27  28
ATOM     28  N   UNL     1      -4.220  -6.120   1.726  1.00  0.00    -0.352 N 
ATOM     29  C   UNL     1      -4.760  -7.294   2.184  1.00  0.00     0.251 C 
ATOM     30  H   UNL     1      -4.846  -5.364   1.661  1.00  0.00     0.163 HD
ATOM     31  O   UNL     1      -5.981  -7.413   2.273  1.00  0.00    -0.269 OA
BRANCH  29  32
ATOM     32  C   UNL     1      -3.874  -8.419   2.550  1.00  0.00     0.039 A 
ATOM     33  C   UNL     1      -4.208  -9.708   2.128  1.00  0.00     0.014 A 
ATOM     34  C   UNL     1      -2.719  -8.203   3.307  1.00  0.00     0.014 A 
ATOM     35  C   UNL     1      -3.351 -10.771   2.418  1.00  0.00     0.010 A 
ATOM     36  C   UNL     1      -1.829  -9.251   3.529  1.00  0.00     0.010 A 
ATOM     37  C   UNL     1      -2.138 -10.546   3.090  1.00  0.00    -0.014 A 
BRANCH  37  38
ATOM     38  C   UNL     1      -1.177 -11.655   3.326  1.00  0.00     0.031 A 
ATOM     39  C   UNL     1      -0.833 -12.078   4.728  1.00  0.00     0.074 A 
ATOM     40  C   UNL     1      -0.572 -12.242   2.274  1.00  0.00     0.049 A 
ATOM     41  N   UNL     1       0.010 -12.995   5.130  1.00  0.00    -0.248 NA
ATOM     42  C   UNL     1      -1.504 -11.361   5.824  1.00  0.00     0.031 C 
ATOM     43  C   UNL     1      -0.785 -11.884   0.870  1.00  0.00     0.029 A 
ATOM     44  N   UNL     1       0.347 -13.259   2.220  1.00  0.00    -0.354 N 
ATOM     45  C   UNL     1      -0.023 -12.960   6.519  1.00  0.00     0.074 A 
ATOM     46  C   UNL     1      -0.925 -11.891   6.891  1.00  0.00     0.031 C 
ATOM     47  C   UNL     1      -0.041 -12.687   0.093  1.00  0.00     0.029 A 
ATOM     48  C   UNL     1       0.733 -13.587   0.941  1.00  0.00     0.049 A 
ATOM     49  H   UNL     1       0.698 -13.711   3.021  1.00  0.00     0.167 HD
ATOM     50  C   UNL     1       0.621 -13.760   7.403  1.00  0.00     0.037 A 
ATOM     51  C   UNL     1       1.616 -14.505   0.501  1.00  0.00     0.037 A 
ATOM     52  C   UNL     1       1.506 -14.831   7.022  1.00  0.00     0.049 A 
ATOM     53  C   UNL     1       2.328 -15.374   1.501  1.00  0.00     0.074 A 
ATOM     54  C   UNL     1       2.163 -15.735   7.838  1.00  0.00     0.029 A 
ATOM     55  N   UNL     1       1.867 -15.137   5.717  1.00  0.00    -0.354 N 
ATOM     56  N   UNL     1       2.231 -15.374   2.810  1.00  0.00    -0.248 NA
ATOM     57  C   UNL     1       3.264 -16.372   0.967  1.00  0.00     0.031 C 
ATOM     58  C   UNL     1       2.962 -16.552   7.032  1.00  0.00     0.029 A 
ATOM     59  C   UNL     1       2.759 -16.198   5.707  1.00  0.00     0.049 A 
ATOM     60  H   UNL     1       1.538 -14.669   4.915  1.00  0.00     0.167 HD
ATOM     61  C   UNL     1       3.074 -16.388   3.253  1.00  0.00     0.074 A 
ATOM     62  C   UNL     1       3.659 -16.988   2.072  1.00  0.00     0.031 C 
ATOM     63  C   UNL     1       3.336 -16.786   4.523  1.00  0.00     0.037 A 
BRANCH  50  64
ATOM     64  C   UNL     1       0.394 -13.505   8.869  1.00  0.00     0.058 A 
ATOM     65  C   UNL     1      -0.845 -13.758   9.481  1.00  0.00     0.135 A 
ATOM     66  C   UNL     1       1.437 -13.031   9.682  1.00  0.00     0.135 A 
ATOM     67  F   UNL     1      -1.883 -14.200   8.752  1.00  0.00    -0.206 F 
ATOM     68  C   UNL     1      -1.053 -13.516  10.836  1.00  0.00     0.059 A 
ATOM     69  C   UNL     1       1.261 -12.813  11.046  1.00  0.00     0.059 A 
ATOM     70  F   UNL     1       2.643 -12.773   9.153  1.00  0.00    -0.206 F 
ATOM     71  C   UNL     1       0.007 -13.042  11.610  1.00  0.00     0.060 A 
BRANCH  71  72
ATOM     72  S   UNL     1      -0.280 -12.731  13.365  1.00  0.00     0.124 S 
ATOM     73  O   UNL     1      -1.116 -11.536  13.315  1.00  0.00    -0.237 OA
ATOM     74  O   UNL     1      -0.950 -13.955  13.793  1.00  0.00    -0.237 OA
ATOM     75  O   UNL     1       1.063 -12.534  13.900  1.00  0.00    -0.744 OA
ENDBRANCH  71  72
ENDBRANCH  50  64
BRANCH  51  76
ATOM     76  C   UNL     1       1.854 -14.661  -0.959  1.00  0.00     0.058 A 
ATOM     77  C   UNL     1       1.416 -15.804  -1.645  1.00  0.00     0.135 A 
ATOM     78  C   UNL     1       2.502 -13.662  -1.703  1.00  0.00     0.135 A 
ATOM     79  F   UNL     1       0.797 -16.790  -0.977  1.00  0.00    -0.206 F 
ATOM     80  C   UNL     1       1.621 -15.958  -3.012  1.00  0.00     0.059 A 
ATOM     81  C   UNL     1       2.695 -13.781  -3.076  1.00  0.00     0.059 A 
ATOM     82  F   UNL     1       2.927 -12.542  -1.098  1.00  0.00    -0.206 F 
ATOM     83  C   UNL     1       2.258 -14.937  -3.720  1.00  0.00     0.060 A 
BRANCH  83  84
ATOM     84  S   UNL     1       2.468 -15.123  -5.504  1.00  0.00     0.124 S 
ATOM     85  O   UNL     1       3.499 -16.152  -5.573  1.00  0.00    -0.237 OA
ATOM     86  O   UNL     1       1.131 -15.527  -5.929  1.00  0.00    -0.237 OA
ATOM     87  O   UNL     1       2.878 -13.789  -5.934  1.00  0.00    -0.744 OA
ENDBRANCH  83  84
ENDBRANCH  51  76
BRANCH  63  88
ATOM     88  C   UNL     1       4.278 -17.946   4.705  1.00  0.00     0.058 A 
ATOM     89  C   UNL     1       5.655 -17.826   4.461  1.00  0.00     0.135 A 
ATOM     90  C   UNL     1       3.801 -19.181   5.174  1.00  0.00     0.135 A 
ATOM     91  F   UNL     1       6.163 -16.670   4.005  1.00  0.00    -0.206 F 
ATOM     92  C   UNL     1       6.522 -18.897   4.651  1.00  0.00     0.059 A 
ATOM     93  C   UNL     1       4.655 -20.256   5.401  1.00  0.00     0.059 A 
ATOM     94  F   UNL     1       2.494 -19.348   5.433  1.00  0.00    -0.206 F 
ATOM     95  C   UNL     1       6.013 -20.108   5.124  1.00  0.00     0.060 A 
BRANCH  95  96
ATOM     96  S   UNL     1       7.154 -21.480   5.395  1.00  0.00     0.124 S 
ATOM     97  O   UNL     1       7.466 -21.877   4.026  1.00  0.00    -0.237 OA
ATOM     98  O   UNL     1       8.240 -20.841   6.132  1.00  0.00    -0.237 OA
ATOM     99  O   UNL     1       6.362 -22.437   6.161  1.00  0.00    -0.744 OA
ENDBRANCH  95  96
ENDBRANCH  63  88
ENDBRANCH  37  38
ENDBRANCH  29  32
ENDBRANCH  27  28
ENDBRANCH  26  27
ENDBRANCH  25  26
ENDBRANCH   1  25
TORSDOF 19
