REMARK SMILES O=C(C[C@H]([NH2+]Cc1ccco1)C(=O)NCCCCCCNC(=O)c1ccc(-c2c3nc(c(-c4c(F)cc(S(=O)(=O)[O-])cc4F)c4ccc([nH]4)c(-c4c(F)cc(S(=O)(=O)[O-])cc4F)c4nc(c(-c5c(F)cc(S(=O)(=O)[O-])cc5F)c5ccc2[nH]5)C=C4)C=C3)cc1)Nc1ccc(O)cc1
REMARK SMILES IDX 17 1 16 2 15 3 14 4 12 5 13 6 4 8 3 9 2 10 1 11 90 12 91 14
REMARK SMILES IDX 92 15 97 16 93 17 96 18 94 19 95 20 5 22 6 25 7 26 8 27
REMARK SMILES IDX 11 28 9 29 10 30 18 31 19 32 20 33 21 34 22 35 23 37 24 38
REMARK SMILES IDX 25 39 89 40 26 41 88 42 27 43 28 44 29 45 82 46 30 47 87 48
REMARK SMILES IDX 81 49 83 50 31 51 86 52 80 53 79 54 32 56 66 57 45 58 65 59
REMARK SMILES IDX 46 60 49 61 64 62 84 63 47 64 48 65 63 67 85 68 50 69 33 70
REMARK SMILES IDX 34 71 43 72 35 73 36 74 42 75 44 76 37 77 38 78 39 79 40 80
REMARK SMILES IDX 41 81 67 82 68 83 77 84 69 85 70 86 76 87 78 88 71 89 72 90
REMARK SMILES IDX 73 91 74 92 75 93 51 94 52 95 61 96 53 97 54 98 60 99 62 100
REMARK SMILES IDX 55 101 56 102 57 103 58 104 59 105
REMARK H PARENT 14 7 90 13 95 21 5 23 5 24 21 36 83 55 49 66
REMARK Flexibility Score: inf
ROOT
ATOM      1  C   UNL     1       6.305   5.431   1.205  1.00  0.00     0.002 C 
ENDROOT
BRANCH   1   2
ATOM      2  C   UNL     1       5.350   4.392   0.612  1.00  0.00     0.021 C 
BRANCH   2   3
ATOM      3  C   UNL     1       5.668   2.930   0.903  1.00  0.00     0.116 C 
BRANCH   3   4
ATOM      4  N   UNL     1       5.300   2.478   2.224  1.00  0.00    -0.351 N 
ATOM      5  C   UNL     1       4.727   1.308   2.630  1.00  0.00     0.278 C 
ATOM      6  O   UNL     1       4.742   1.076   3.847  1.00  0.00    -0.268 OA
ATOM      7  H   UNL     1       5.495   3.115   2.949  1.00  0.00     0.163 HD
BRANCH   5   8
ATOM      8  C   UNL     1       4.066   0.279   1.670  1.00  0.00     0.282 C 
BRANCH   8   9
ATOM      9  C   UNL     1       5.030  -0.718   1.008  1.00  0.00     0.175 C 
BRANCH   9  10
ATOM     10  C   UNL     1       6.230  -0.138   0.297  1.00  0.00     0.230 C 
ATOM     11  O   UNL     1       7.314  -0.077   0.868  1.00  0.00    -0.274 OA
ATOM     12  N   UNL     1       5.948   0.334  -0.977  1.00  0.00    -0.326 N 
ATOM     13  H   UNL     1       5.040   0.180  -1.325  1.00  0.00     0.169 HD
BRANCH  12  14
ATOM     14  C   UNL     1       6.858   1.016  -1.816  1.00  0.00     0.041 A 
ATOM     15  C   UNL     1       6.328   1.878  -2.786  1.00  0.00     0.030 A 
ATOM     16  C   UNL     1       8.245   0.910  -1.687  1.00  0.00     0.030 A 
ATOM     17  C   UNL     1       7.177   2.672  -3.562  1.00  0.00     0.048 A 
ATOM     18  C   UNL     1       9.097   1.684  -2.482  1.00  0.00     0.048 A 
ATOM     19  C   UNL     1       8.553   2.577  -3.395  1.00  0.00     0.115 A 
BRANCH  19  20
ATOM     20  O   UNL     1       9.341   3.409  -4.130  1.00  0.00    -0.508 OA
ATOM     21  H   UNL     1       8.953   4.004  -4.741  1.00  0.00     0.293 HD
ENDBRANCH  19  20
ENDBRANCH  12  14
ENDBRANCH   9  10
ENDBRANCH   8   9
BRANCH   8  22
ATOM     22  N   UNL     1       3.075   0.923   0.782  1.00  0.00    -0.329 N 
ATOM     23  H   UNL     1       3.552   1.235  -0.064  1.00  0.00     0.347 HD
ATOM     24  H   UNL     1       2.664   1.700   1.300  1.00  0.00     0.347 HD
BRANCH  22  25
ATOM     25  C   UNL     1       1.980   0.032   0.396  1.00  0.00     0.337 C 
BRANCH  25  26
ATOM     26  C   UNL     1       1.249   0.584  -0.777  1.00  0.00     0.157 A 
ATOM     27  C   UNL     1       1.268   0.286  -2.124  1.00  0.00     0.052 A 
ATOM     28  O   UNL     1       0.371   1.599  -0.537  1.00  0.00    -0.463 OA
ATOM     29  C   UNL     1       0.355   1.174  -2.741  1.00  0.00     0.042 A 
ATOM     30  C   UNL     1      -0.164   1.952  -1.733  1.00  0.00     0.195 A 
ENDBRANCH  25  26
ENDBRANCH  22  25
ENDBRANCH   8  22
ENDBRANCH   5   8
ENDBRANCH   3   4
ENDBRANCH   2   3
ENDBRANCH   1   2
BRANCH   1  31
ATOM     31  C   UNL     1       7.803   5.250   0.927  1.00  0.00     0.002 C 
BRANCH  31  32
ATOM     32  C   UNL     1       8.214   4.912  -0.510  1.00  0.00     0.021 C 
BRANCH  32  33
ATOM     33  C   UNL     1       7.816   5.910  -1.595  1.00  0.00     0.116 C 
BRANCH  33  34
ATOM     34  N   UNL     1       8.584   7.139  -1.533  1.00  0.00    -0.352 N 
ATOM     35  C   UNL     1       9.292   7.794  -2.512  1.00  0.00     0.251 C 
ATOM     36  H   UNL     1       8.600   7.573  -0.649  1.00  0.00     0.163 HD
ATOM     37  O   UNL     1      10.003   8.743  -2.184  1.00  0.00    -0.269 OA
BRANCH  35  38
ATOM     38  C   UNL     1       9.242   7.386  -3.943  1.00  0.00     0.039 A 
ATOM     39  C   UNL     1      10.417   7.493  -4.699  1.00  0.00     0.014 A 
ATOM     40  C   UNL     1       8.061   6.988  -4.580  1.00  0.00     0.014 A 
ATOM     41  C   UNL     1      10.419   7.173  -6.063  1.00  0.00     0.010 A 
ATOM     42  C   UNL     1       8.075   6.620  -5.933  1.00  0.00     0.010 A 
ATOM     43  C   UNL     1       9.251   6.715  -6.693  1.00  0.00    -0.014 A 
BRANCH  43  44
ATOM     44  C   UNL     1       9.262   6.346  -8.139  1.00  0.00     0.031 A 
ATOM     45  C   UNL     1       8.506   7.166  -9.153  1.00  0.00     0.074 A 
ATOM     46  C   UNL     1       9.947   5.260  -8.550  1.00  0.00     0.049 A 
ATOM     47  N   UNL     1       8.398   6.986 -10.446  1.00  0.00    -0.248 NA
ATOM     48  C   UNL     1       7.765   8.331  -8.647  1.00  0.00     0.031 C 
ATOM     49  C   UNL     1      10.702   4.359  -7.677  1.00  0.00     0.029 A 
ATOM     50  N   UNL     1      10.119   4.726  -9.805  1.00  0.00    -0.354 N 
ATOM     51  C   UNL     1       7.578   8.009 -10.909  1.00  0.00     0.074 A 
ATOM     52  C   UNL     1       7.181   8.781  -9.749  1.00  0.00     0.031 C 
ATOM     53  C   UNL     1      11.273   3.400  -8.423  1.00  0.00     0.029 A 
ATOM     54  C   UNL     1      10.898   3.592  -9.822  1.00  0.00     0.049 A 
ATOM     55  H   UNL     1       9.722   5.118 -10.615  1.00  0.00     0.167 HD
ATOM     56  C   UNL     1       7.203   8.293 -12.181  1.00  0.00     0.037 A 
ATOM     57  C   UNL     1      11.264   2.791 -10.843  1.00  0.00     0.037 A 
ATOM     58  C   UNL     1       7.607   7.539 -13.341  1.00  0.00     0.049 A 
ATOM     59  C   UNL     1      10.815   3.112 -12.244  1.00  0.00     0.074 A 
ATOM     60  C   UNL     1       7.309   7.784 -14.672  1.00  0.00     0.029 A 
ATOM     61  N   UNL     1       8.389   6.394 -13.315  1.00  0.00    -0.354 N 
ATOM     62  N   UNL     1      10.080   4.114 -12.665  1.00  0.00    -0.248 NA
ATOM     63  C   UNL     1      11.247   2.195 -13.309  1.00  0.00     0.031 C 
ATOM     64  C   UNL     1       7.875   6.764 -15.445  1.00  0.00     0.029 A 
ATOM     65  C   UNL     1       8.564   5.909 -14.602  1.00  0.00     0.049 A 
ATOM     66  H   UNL     1       8.764   5.986 -12.502  1.00  0.00     0.167 HD
ATOM     67  C   UNL     1       9.984   3.960 -14.044  1.00  0.00     0.074 A 
ATOM     68  C   UNL     1      10.744   2.777 -14.389  1.00  0.00     0.031 C 
ATOM     69  C   UNL     1       9.325   4.733 -14.943  1.00  0.00     0.037 A 
BRANCH  56  70
ATOM     70  C   UNL     1       6.304   9.481 -12.393  1.00  0.00     0.058 A 
ATOM     71  C   UNL     1       6.779  10.796 -12.258  1.00  0.00     0.135 A 
ATOM     72  C   UNL     1       4.967   9.306 -12.785  1.00  0.00     0.135 A 
ATOM     73  F   UNL     1       8.046  11.021 -11.877  1.00  0.00    -0.206 F 
ATOM     74  C   UNL     1       5.952  11.894 -12.474  1.00  0.00     0.059 A 
ATOM     75  C   UNL     1       4.129  10.390 -13.031  1.00  0.00     0.059 A 
ATOM     76  F   UNL     1       4.463   8.071 -12.934  1.00  0.00    -0.206 F 
ATOM     77  C   UNL     1       4.627  11.680 -12.858  1.00  0.00     0.060 A 
BRANCH  77  78
ATOM     78  S   UNL     1       3.566  13.115 -13.134  1.00  0.00     0.124 S 
ATOM     79  O   UNL     1       3.316  13.557 -11.765  1.00  0.00    -0.237 OA
ATOM     80  O   UNL     1       4.419  13.986 -13.935  1.00  0.00    -0.237 OA
ATOM     81  O   UNL     1       2.413  12.556 -13.833  1.00  0.00    -0.744 OA
ENDBRANCH  77  78
ENDBRANCH  56  70
BRANCH  57  82
ATOM     82  C   UNL     1      12.117   1.602 -10.582  1.00  0.00     0.058 A 
ATOM     83  C   UNL     1      13.454   1.565 -11.006  1.00  0.00     0.135 A 
ATOM     84  C   UNL     1      11.614   0.480  -9.905  1.00  0.00     0.135 A 
ATOM     85  F   UNL     1      13.976   2.608 -11.668  1.00  0.00    -0.206 F 
ATOM     86  C   UNL     1      14.258   0.453 -10.783  1.00  0.00     0.059 A 
ATOM     87  C   UNL     1      12.406  -0.633  -9.647  1.00  0.00     0.059 A 
ATOM     88  F   UNL     1      10.345   0.471  -9.468  1.00  0.00    -0.206 F 
ATOM     89  C   UNL     1      13.725  -0.642 -10.100  1.00  0.00     0.060 A 
BRANCH  89  90
ATOM     90  S   UNL     1      14.790  -2.062  -9.769  1.00  0.00     0.124 S 
ATOM     91  O   UNL     1      14.854  -2.693 -11.082  1.00  0.00    -0.237 OA
ATOM     92  O   UNL     1      16.018  -1.425  -9.305  1.00  0.00    -0.237 OA
ATOM     93  O   UNL     1      14.053  -2.801  -8.747  1.00  0.00    -0.744 OA
ENDBRANCH  89  90
ENDBRANCH  57  82
BRANCH  69  94
ATOM     94  C   UNL     1       9.416   4.346 -16.394  1.00  0.00     0.058 A 
ATOM     95  C   UNL     1       8.727   3.235 -16.906  1.00  0.00     0.135 A 
ATOM     96  C   UNL     1      10.165   5.122 -17.293  1.00  0.00     0.135 A 
ATOM     97  F   UNL     1       8.002   2.455 -16.089  1.00  0.00    -0.206 F 
ATOM     98  C   UNL     1       8.794   2.895 -18.254  1.00  0.00     0.059 A 
ATOM     99  C   UNL     1      10.227   4.815 -18.650  1.00  0.00     0.059 A 
ATOM    100  F   UNL     1      10.837   6.200 -16.859  1.00  0.00    -0.206 F 
ATOM    101  C   UNL     1       9.547   3.692 -19.119  1.00  0.00     0.060 A 
BRANCH 101 102
ATOM    102  S   UNL     1       9.599   3.260 -20.872  1.00  0.00     0.124 S 
ATOM    103  O   UNL     1      10.497   2.111 -20.865  1.00  0.00    -0.237 OA
ATOM    104  O   UNL     1       8.199   2.969 -21.166  1.00  0.00    -0.237 OA
ATOM    105  O   UNL     1      10.127   4.466 -21.503  1.00  0.00    -0.744 OA
ENDBRANCH 101 102
ENDBRANCH  69  94
ENDBRANCH  43  44
ENDBRANCH  35  38
ENDBRANCH  33  34
ENDBRANCH  32  33
ENDBRANCH  31  32
ENDBRANCH   1  31
TORSDOF 23
