REMARK SMILES Cc1cc(C)cc(CSCc2cc(C(=O)NCCCCCCNC(=O)c3ccc(-c4c5nc(c(-c6c(F)cc(S(=O)(=O)[O-])cc6F)c6ccc([nH]6)c(-c6c(F)cc(S(=O)(=O)[O-])cc6F)c6nc(c(-c7c(F)cc(S(=O)(=O)[O-])cc7F)c7ccc4[nH]7)C=C6)C=C5)cc3)c(C)o2)c1
REMARK SMILES IDX 19 1 18 2 17 3 16 4 14 5 15 6 13 8 11 9 12 10 94 11 92 12
REMARK SMILES IDX 93 13 10 14 9 15 8 16 7 17 1 18 2 19 3 20 95 21 4 22 5 23
REMARK SMILES IDX 6 24 20 25 21 26 22 27 23 28 24 29 25 31 26 32 27 33 91 34
REMARK SMILES IDX 28 35 90 36 29 37 30 38 31 39 84 40 32 41 89 42 83 43 85 44
REMARK SMILES IDX 33 45 88 46 82 47 81 48 34 50 68 51 47 52 67 53 48 54 51 55
REMARK SMILES IDX 66 56 86 57 49 58 50 59 65 61 87 62 52 63 35 64 36 65 45 66
REMARK SMILES IDX 37 67 38 68 44 69 46 70 39 71 40 72 41 73 42 74 43 75 69 76
REMARK SMILES IDX 70 77 79 78 71 79 72 80 78 81 80 82 73 83 74 84 75 85 76 86
REMARK SMILES IDX 77 87 53 88 54 89 63 90 55 91 56 92 62 93 64 94 57 95 58 96
REMARK SMILES IDX 59 97 60 98 61 99
REMARK H PARENT 16 7 23 30 85 49 51 60
REMARK Flexibility Score: inf
ROOT
ATOM      1  C   UNL     1      -4.919   2.148  -0.286  1.00  0.00     0.002 C 
ENDROOT
BRANCH   1   2
ATOM      2  C   UNL     1      -4.752   0.891   0.574  1.00  0.00     0.021 C 
BRANCH   2   3
ATOM      3  C   UNL     1      -3.391   0.571   1.195  1.00  0.00     0.116 C 
BRANCH   3   4
ATOM      4  N   UNL     1      -2.766   1.632   1.960  1.00  0.00    -0.352 N 
ATOM      5  C   UNL     1      -1.703   1.593   2.846  1.00  0.00     0.254 C 
ATOM      6  O   UNL     1      -1.368   2.667   3.346  1.00  0.00    -0.269 OA
ATOM      7  H   UNL     1      -3.162   2.524   1.828  1.00  0.00     0.163 HD
BRANCH   5   8
ATOM      8  C   UNL     1      -1.004   0.345   3.162  1.00  0.00     0.081 A 
ATOM      9  C   UNL     1      -0.133  -1.752   3.116  1.00  0.00     0.114 A 
ATOM     10  C   UNL     1      -1.093  -0.938   2.562  1.00  0.00     0.060 A 
ATOM     11  O   UNL     1       0.492  -1.081   4.119  1.00  0.00    -0.465 OA
ATOM     12  C   UNL     1      -0.033   0.182   4.150  1.00  0.00     0.113 A 
ATOM     13  C   UNL     1       0.543   1.052   5.201  1.00  0.00     0.088 C 
BRANCH   9  14
ATOM     14  C   UNL     1       0.327  -3.134   2.822  1.00  0.00     0.145 C 
BRANCH  14  15
ATOM     15  S   UNL     1      -0.501  -3.848   1.354  1.00  0.00    -0.149 SA
BRANCH  15  16
ATOM     16  C   UNL     1       0.593  -3.293   0.008  1.00  0.00     0.105 C 
BRANCH  16  17
ATOM     17  C   UNL     1       0.818  -1.806  -0.126  1.00  0.00    -0.038 A 
ATOM     18  C   UNL     1       3.608   0.750   0.451  1.00  0.00     0.044 C 
ATOM     19  C   UNL     1       2.292   0.133   0.097  1.00  0.00    -0.051 A 
ATOM     20  C   UNL     1       1.284   0.954  -0.397  1.00  0.00     0.006 A 
ATOM     21  C   UNL     1       2.048  -1.239   0.249  1.00  0.00     0.008 A 
ATOM     22  C   UNL     1       0.074   0.408  -0.816  1.00  0.00    -0.051 A 
ATOM     23  C   UNL     1      -0.944   1.333  -1.387  1.00  0.00     0.044 C 
ATOM     24  C   UNL     1      -0.164  -0.967  -0.674  1.00  0.00     0.008 A 
ENDBRANCH  16  17
ENDBRANCH  15  16
ENDBRANCH  14  15
ENDBRANCH   9  14
ENDBRANCH   5   8
ENDBRANCH   3   4
ENDBRANCH   2   3
ENDBRANCH   1   2
BRANCH   1  25
ATOM     25  C   UNL     1      -4.231   2.234  -1.650  1.00  0.00     0.002 C 
BRANCH  25  26
ATOM     26  C   UNL     1      -4.235   0.982  -2.524  1.00  0.00     0.021 C 
BRANCH  26  27
ATOM     27  C   UNL     1      -5.603   0.513  -2.990  1.00  0.00     0.116 C 
BRANCH  27  28
ATOM     28  N   UNL     1      -6.276   1.492  -3.828  1.00  0.00    -0.352 N 
ATOM     29  C   UNL     1      -6.825   1.343  -5.080  1.00  0.00     0.251 C 
ATOM     30  H   UNL     1      -6.350   2.395  -3.442  1.00  0.00     0.163 HD
ATOM     31  O   UNL     1      -7.194   2.332  -5.705  1.00  0.00    -0.269 OA
BRANCH  29  32
ATOM     32  C   UNL     1      -6.951  -0.006  -5.676  1.00  0.00     0.039 A 
ATOM     33  C   UNL     1      -6.672  -0.183  -7.034  1.00  0.00     0.014 A 
ATOM     34  C   UNL     1      -7.347  -1.095  -4.896  1.00  0.00     0.014 A 
ATOM     35  C   UNL     1      -6.732  -1.462  -7.593  1.00  0.00     0.010 A 
ATOM     36  C   UNL     1      -7.306  -2.377  -5.427  1.00  0.00     0.010 A 
ATOM     37  C   UNL     1      -7.017  -2.575  -6.785  1.00  0.00    -0.014 A 
BRANCH  37  38
ATOM     38  C   UNL     1      -7.059  -3.954  -7.331  1.00  0.00     0.031 A 
ATOM     39  C   UNL     1      -8.340  -4.744  -7.250  1.00  0.00     0.074 A 
ATOM     40  C   UNL     1      -5.936  -4.522  -7.812  1.00  0.00     0.049 A 
ATOM     41  N   UNL     1      -8.558  -5.999  -7.542  1.00  0.00    -0.248 NA
ATOM     42  C   UNL     1      -9.524  -4.035  -6.734  1.00  0.00     0.031 C 
ATOM     43  C   UNL     1      -4.627  -3.870  -7.899  1.00  0.00     0.029 A 
ATOM     44  N   UNL     1      -5.709  -5.783  -8.304  1.00  0.00    -0.354 N 
ATOM     45  C   UNL     1      -9.891  -6.235  -7.223  1.00  0.00     0.074 A 
ATOM     46  C   UNL     1     -10.415  -5.012  -6.658  1.00  0.00     0.031 C 
ATOM     47  C   UNL     1      -3.741  -4.728  -8.430  1.00  0.00     0.029 A 
ATOM     48  C   UNL     1      -4.404  -6.004  -8.678  1.00  0.00     0.049 A 
ATOM     49  H   UNL     1      -6.415  -6.465  -8.382  1.00  0.00     0.167 HD
ATOM     50  C   UNL     1     -10.619  -7.361  -7.410  1.00  0.00     0.037 A 
ATOM     51  C   UNL     1      -3.807  -7.115  -9.152  1.00  0.00     0.037 A 
ATOM     52  C   UNL     1     -10.092  -8.561  -8.005  1.00  0.00     0.049 A 
ATOM     53  C   UNL     1      -4.636  -8.356  -9.351  1.00  0.00     0.074 A 
ATOM     54  C   UNL     1     -10.755  -9.740  -8.294  1.00  0.00     0.029 A 
ATOM     55  N   UNL     1      -8.774  -8.733  -8.402  1.00  0.00    -0.354 N 
ATOM     56  N   UNL     1      -5.910  -8.546  -9.096  1.00  0.00    -0.248 NA
ATOM     57  C   UNL     1      -3.953  -9.531  -9.908  1.00  0.00     0.031 C 
ATOM     58  C   UNL     1      -9.826 -10.643  -8.819  1.00  0.00     0.029 A 
ATOM     59  C   UNL     1      -8.599 -10.006  -8.917  1.00  0.00     0.049 A 
ATOM     60  H   UNL     1      -8.068  -8.051  -8.329  1.00  0.00     0.167 HD
ATOM     61  C   UNL     1      -6.188  -9.848  -9.496  1.00  0.00     0.074 A 
ATOM     62  C   UNL     1      -4.952 -10.398 -10.014  1.00  0.00     0.031 C 
ATOM     63  C   UNL     1      -7.361 -10.527  -9.445  1.00  0.00     0.037 A 
BRANCH  50  64
ATOM     64  C   UNL     1     -12.060  -7.346  -6.972  1.00  0.00     0.058 A 
ATOM     65  C   UNL     1     -13.024  -6.558  -7.623  1.00  0.00     0.135 A 
ATOM     66  C   UNL     1     -12.490  -8.154  -5.907  1.00  0.00     0.135 A 
ATOM     67  F   UNL     1     -12.668  -5.753  -8.637  1.00  0.00    -0.206 F 
ATOM     68  C   UNL     1     -14.353  -6.547  -7.214  1.00  0.00     0.059 A 
ATOM     69  C   UNL     1     -13.822  -8.184  -5.502  1.00  0.00     0.059 A 
ATOM     70  F   UNL     1     -11.613  -8.926  -5.246  1.00  0.00    -0.206 F 
ATOM     71  C   UNL     1     -14.743  -7.365  -6.153  1.00  0.00     0.060 A 
BRANCH  71  72
ATOM     72  S   UNL     1     -16.474  -7.344  -5.642  1.00  0.00     0.124 S 
ATOM     73  O   UNL     1     -16.576  -6.032  -5.011  1.00  0.00    -0.237 OA
ATOM     74  O   UNL     1     -17.175  -7.492  -6.913  1.00  0.00    -0.237 OA
ATOM     75  O   UNL     1     -16.576  -8.484  -4.737  1.00  0.00    -0.744 OA
ENDBRANCH  71  72
ENDBRANCH  50  64
BRANCH  51  76
ATOM     76  C   UNL     1      -2.358  -7.096  -9.491  1.00  0.00     0.058 A 
ATOM     77  C   UNL     1      -1.928  -7.175 -10.824  1.00  0.00     0.135 A 
ATOM     78  C   UNL     1      -1.375  -6.982  -8.495  1.00  0.00     0.135 A 
ATOM     79  F   UNL     1      -2.828  -7.289 -11.813  1.00  0.00    -0.206 F 
ATOM     80  C   UNL     1      -0.577  -7.162 -11.158  1.00  0.00     0.059 A 
ATOM     81  C   UNL     1      -0.019  -6.938  -8.806  1.00  0.00     0.059 A 
ATOM     82  F   UNL     1      -1.733  -6.884  -7.205  1.00  0.00    -0.206 F 
ATOM     83  C   UNL     1       0.370  -7.039 -10.140  1.00  0.00     0.060 A 
BRANCH  83  84
ATOM     84  S   UNL     1       2.119  -6.979 -10.589  1.00  0.00     0.124 S 
ATOM     85  O   UNL     1       2.364  -8.356 -11.002  1.00  0.00    -0.237 OA
ATOM     86  O   UNL     1       2.126  -5.981 -11.654  1.00  0.00    -0.237 OA
ATOM     87  O   UNL     1       2.769  -6.566  -9.349  1.00  0.00    -0.744 OA
ENDBRANCH  83  84
ENDBRANCH  51  76
BRANCH  63  88
ATOM     88  C   UNL     1      -7.386 -11.919 -10.013  1.00  0.00     0.058 A 
ATOM     89  C   UNL     1      -6.770 -12.998  -9.363  1.00  0.00     0.135 A 
ATOM     90  C   UNL     1      -8.103 -12.185 -11.192  1.00  0.00     0.135 A 
ATOM     91  F   UNL     1      -6.068 -12.798  -8.236  1.00  0.00    -0.206 F 
ATOM     92  C   UNL     1      -6.848 -14.291  -9.871  1.00  0.00     0.059 A 
ATOM     93  C   UNL     1      -8.220 -13.473 -11.701  1.00  0.00     0.059 A 
ATOM     94  F   UNL     1      -8.720 -11.188 -11.848  1.00  0.00    -0.206 F 
ATOM     95  C   UNL     1      -7.580 -14.519 -11.038  1.00  0.00     0.060 A 
BRANCH  95  96
ATOM     96  S   UNL     1      -7.713 -16.208 -11.659  1.00  0.00     0.124 S 
ATOM     97  O   UNL     1      -6.368 -16.439 -12.175  1.00  0.00    -0.237 OA
ATOM     98  O   UNL     1      -8.068 -16.955 -10.456  1.00  0.00    -0.237 OA
ATOM     99  O   UNL     1      -8.765 -16.119 -12.668  1.00  0.00    -0.744 OA
ENDBRANCH  95  96
ENDBRANCH  63  88
ENDBRANCH  37  38
ENDBRANCH  29  32
ENDBRANCH  27  28
ENDBRANCH  26  27
ENDBRANCH  25  26
ENDBRANCH   1  25
TORSDOF 20
