REMARK SMILES Cc1ccccc1NC(=O)NC[C@@H]1CC[C@@H](C(=O)NCCCCCCNC(=O)c2ccc(-c3c4nc(c(-c5c(F)cc(S(=O)(=O)[O-])cc5F)c5ccc([nH]5)c(-c5c(F)cc(S(=O)(=O)[O-])cc5F)c5nc(c(-c6c(F)cc(S(=O)(=O)[O-])cc6F)c6ccc3[nH]6)C=C5)C=C4)cc2)O1
REMARK SMILES IDX 22 1 21 2 20 3 19 4 17 5 18 6 16 8 13 9 14 10 95 11 15 12
REMARK SMILES IDX 12 13 11 14 8 15 9 16 10 18 7 20 1 21 2 22 3 23 4 24 6 25
REMARK SMILES IDX 5 26 23 27 24 28 25 29 26 30 27 31 28 33 29 34 30 35 94 36
REMARK SMILES IDX 31 37 93 38 32 39 33 40 34 41 87 42 35 43 92 44 86 45 88 46
REMARK SMILES IDX 36 47 91 48 85 49 84 50 37 52 71 53 50 54 70 55 51 56 54 57
REMARK SMILES IDX 69 58 89 59 52 60 53 61 68 63 90 64 55 65 38 66 39 67 48 68
REMARK SMILES IDX 40 69 41 70 47 71 49 72 42 73 43 74 44 75 45 76 46 77 72 78
REMARK SMILES IDX 73 79 82 80 74 81 75 82 81 83 83 84 76 85 77 86 78 87 79 88
REMARK SMILES IDX 80 89 56 90 57 91 66 92 58 93 59 94 65 95 67 96 60 97 61 98
REMARK SMILES IDX 62 99 63 100 64 101
REMARK H PARENT 19 7 8 17 11 19 26 32 88 51 54 62
REMARK Flexibility Score: inf
ROOT
ATOM      1  C   UNL     1      -7.531   1.889   6.106  1.00  0.00     0.002 C 
ENDROOT
BRANCH   1   2
ATOM      2  C   UNL     1      -7.021   1.432   4.731  1.00  0.00     0.021 C 
BRANCH   2   3
ATOM      3  C   UNL     1      -7.431   2.330   3.562  1.00  0.00     0.116 C 
BRANCH   3   4
ATOM      4  N   UNL     1      -6.737   3.602   3.595  1.00  0.00    -0.354 N 
ATOM      5  C   UNL     1      -5.735   4.087   2.801  1.00  0.00     0.249 C 
ATOM      6  O   UNL     1      -5.310   5.217   3.054  1.00  0.00    -0.272 OA
ATOM      7  H   UNL     1      -7.035   4.217   4.304  1.00  0.00     0.163 HD
BRANCH   5   8
ATOM      8  C   UNL     1      -5.230   3.266   1.593  1.00  0.00     0.207 C 
ATOM      9  C   UNL     1      -2.997   3.116   0.854  1.00  0.00     0.138 C 
ATOM     10  C   UNL     1      -3.551   1.713   0.957  1.00  0.00     0.037 C 
ATOM     11  O   UNL     1      -4.176   3.953   0.883  1.00  0.00    -0.363 OA
ATOM     12  C   UNL     1      -4.676   1.894   1.944  1.00  0.00     0.045 C 
BRANCH   9  13
ATOM     13  C   UNL     1      -2.200   3.416  -0.425  1.00  0.00     0.149 C 
BRANCH  13  14
ATOM     14  N   UNL     1      -0.821   3.807  -0.183  1.00  0.00    -0.335 N 
ATOM     15  N   UNL     1       0.847   2.060  -0.144  1.00  0.00    -0.308 N 
ATOM     16  C   UNL     1       0.401   3.311  -0.120  1.00  0.00     0.319 C 
ATOM     17  H   UNL     1       1.829   2.086  -0.087  1.00  0.00     0.171 HD
ATOM     18  O   UNL     1       1.291   4.169   0.012  1.00  0.00    -0.249 OA
ATOM     19  H   UNL     1      -0.786   4.774  -0.004  1.00  0.00     0.165 HD
BRANCH  15  20
ATOM     20  C   UNL     1       0.451   0.714  -0.219  1.00  0.00     0.045 A 
ATOM     21  C   UNL     1       2.894  -0.074   0.230  1.00  0.00     0.046 C 
ATOM     22  C   UNL     1       1.419  -0.301   0.004  1.00  0.00    -0.027 A 
ATOM     23  C   UNL     1       1.025  -1.659   0.013  1.00  0.00     0.005 A 
ATOM     24  C   UNL     1      -0.293  -2.030  -0.213  1.00  0.00     0.000 A 
ATOM     25  C   UNL     1      -0.844   0.301  -0.499  1.00  0.00     0.026 A 
ATOM     26  C   UNL     1      -1.226  -1.046  -0.486  1.00  0.00     0.002 A 
ENDBRANCH  15  20
ENDBRANCH  13  14
ENDBRANCH   9  13
ENDBRANCH   5   8
ENDBRANCH   3   4
ENDBRANCH   2   3
ENDBRANCH   1   2
BRANCH   1  27
ATOM     27  C   UNL     1      -9.041   2.140   6.222  1.00  0.00     0.002 C 
BRANCH  27  28
ATOM     28  C   UNL     1      -9.955   0.997   5.769  1.00  0.00     0.021 C 
BRANCH  28  29
ATOM     29  C   UNL     1      -9.854  -0.238   6.660  1.00  0.00     0.116 C 
BRANCH  29  30
ATOM     30  N   UNL     1     -11.156  -0.743   7.091  1.00  0.00    -0.352 N 
ATOM     31  C   UNL     1     -11.395  -1.858   7.871  1.00  0.00     0.251 C 
ATOM     32  H   UNL     1     -11.946  -0.235   6.794  1.00  0.00     0.163 HD
ATOM     33  O   UNL     1     -12.528  -2.207   8.186  1.00  0.00    -0.269 OA
BRANCH  31  34
ATOM     34  C   UNL     1     -10.215  -2.610   8.334  1.00  0.00     0.039 A 
ATOM     35  C   UNL     1      -9.828  -2.500   9.672  1.00  0.00     0.014 A 
ATOM     36  C   UNL     1      -9.370  -3.169   7.377  1.00  0.00     0.014 A 
ATOM     37  C   UNL     1      -8.514  -2.805  10.025  1.00  0.00     0.010 A 
ATOM     38  C   UNL     1      -8.047  -3.388   7.715  1.00  0.00     0.010 A 
ATOM     39  C   UNL     1      -7.601  -3.158   9.027  1.00  0.00    -0.014 A 
BRANCH  39  40
ATOM     40  C   UNL     1      -6.150  -3.174   9.231  1.00  0.00     0.031 A 
ATOM     41  C   UNL     1      -5.387  -4.451   9.200  1.00  0.00     0.074 A 
ATOM     42  C   UNL     1      -5.469  -2.012   9.376  1.00  0.00     0.049 A 
ATOM     43  N   UNL     1      -4.219  -4.624   9.729  1.00  0.00    -0.248 NA
ATOM     44  C   UNL     1      -5.920  -5.667   8.599  1.00  0.00     0.031 C 
ATOM     45  C   UNL     1      -4.024  -1.834   9.259  1.00  0.00     0.029 A 
ATOM     46  N   UNL     1      -5.916  -0.786   9.877  1.00  0.00    -0.354 N 
ATOM     47  C   UNL     1      -3.732  -5.843   9.305  1.00  0.00     0.074 A 
ATOM     48  C   UNL     1      -4.857  -6.476   8.655  1.00  0.00     0.031 C 
ATOM     49  C   UNL     1      -3.669  -0.742   9.951  1.00  0.00     0.029 A 
ATOM     50  C   UNL     1      -4.857  -0.262  10.637  1.00  0.00     0.049 A 
ATOM     51  H   UNL     1      -6.796  -0.372   9.728  1.00  0.00     0.167 HD
ATOM     52  C   UNL     1      -2.401  -6.128   9.434  1.00  0.00     0.037 A 
ATOM     53  C   UNL     1      -4.918   0.064  11.960  1.00  0.00     0.037 A 
ATOM     54  C   UNL     1      -1.696  -5.069  10.155  1.00  0.00     0.049 A 
ATOM     55  C   UNL     1      -3.865  -0.617  12.803  1.00  0.00     0.074 A 
ATOM     56  C   UNL     1      -0.926  -3.997   9.731  1.00  0.00     0.029 A 
ATOM     57  N   UNL     1      -1.947  -4.861  11.506  1.00  0.00    -0.354 N 
ATOM     58  N   UNL     1      -3.145  -1.623  12.392  1.00  0.00    -0.248 NA
ATOM     59  C   UNL     1      -3.581  -0.264  14.192  1.00  0.00     0.031 C 
ATOM     60  C   UNL     1      -0.749  -3.119  10.826  1.00  0.00     0.029 A 
ATOM     61  C   UNL     1      -1.408  -3.656  11.917  1.00  0.00     0.049 A 
ATOM     62  H   UNL     1      -2.438  -5.484  12.088  1.00  0.00     0.167 HD
ATOM     63  C   UNL     1      -2.366  -2.083  13.421  1.00  0.00     0.074 A 
ATOM     64  C   UNL     1      -2.648  -1.177  14.518  1.00  0.00     0.031 C 
ATOM     65  C   UNL     1      -1.575  -3.188  13.285  1.00  0.00     0.037 A 
BRANCH  52  66
ATOM     66  C   UNL     1      -1.682  -7.214   8.644  1.00  0.00     0.058 A 
ATOM     67  C   UNL     1      -0.329  -7.058   8.259  1.00  0.00     0.135 A 
ATOM     68  C   UNL     1      -2.281  -8.397   8.170  1.00  0.00     0.135 A 
ATOM     69  F   UNL     1       0.427  -6.058   8.731  1.00  0.00    -0.206 F 
ATOM     70  C   UNL     1       0.318  -7.913   7.363  1.00  0.00     0.059 A 
ATOM     71  C   UNL     1      -1.676  -9.241   7.229  1.00  0.00     0.059 A 
ATOM     72  F   UNL     1      -3.462  -8.815   8.643  1.00  0.00    -0.206 F 
ATOM     73  C   UNL     1      -0.380  -8.977   6.813  1.00  0.00     0.060 A 
BRANCH  73  74
ATOM     74  S   UNL     1       0.426  -9.993   5.560  1.00  0.00     0.124 S 
ATOM     75  O   UNL     1       0.856  -8.996   4.584  1.00  0.00    -0.237 OA
ATOM     76  O   UNL     1       1.490 -10.634   6.324  1.00  0.00    -0.237 OA
ATOM     77  O   UNL     1      -0.642 -10.880   5.105  1.00  0.00    -0.744 OA
ENDBRANCH  73  74
ENDBRANCH  52  66
BRANCH  53  78
ATOM     78  C   UNL     1      -6.263   0.454  12.447  1.00  0.00     0.058 A 
ATOM     79  C   UNL     1      -6.776   1.696  12.037  1.00  0.00     0.135 A 
ATOM     80  C   UNL     1      -7.167  -0.509  12.918  1.00  0.00     0.135 A 
ATOM     81  F   UNL     1      -5.944   2.659  11.610  1.00  0.00    -0.206 F 
ATOM     82  C   UNL     1      -8.144   1.912  11.927  1.00  0.00     0.059 A 
ATOM     83  C   UNL     1      -8.543  -0.312  12.820  1.00  0.00     0.059 A 
ATOM     84  F   UNL     1      -6.727  -1.715  13.307  1.00  0.00    -0.206 F 
ATOM     85  C   UNL     1      -9.014   0.873  12.252  1.00  0.00     0.060 A 
BRANCH  85  86
ATOM     86  S   UNL     1     -10.732   1.013  11.705  1.00  0.00     0.124 S 
ATOM     87  O   UNL     1     -11.172   2.224  12.387  1.00  0.00    -0.237 OA
ATOM     88  O   UNL     1     -10.560   1.121  10.259  1.00  0.00    -0.237 OA
ATOM     89  O   UNL     1     -11.330  -0.233  12.172  1.00  0.00    -0.744 OA
ENDBRANCH  85  86
ENDBRANCH  53  78
BRANCH  65  90
ATOM     90  C   UNL     1      -0.824  -3.875  14.399  1.00  0.00     0.058 A 
ATOM     91  C   UNL     1      -1.282  -3.944  15.726  1.00  0.00     0.135 A 
ATOM     92  C   UNL     1       0.349  -4.615  14.118  1.00  0.00     0.135 A 
ATOM     93  F   UNL     1      -2.442  -3.379  16.090  1.00  0.00    -0.206 F 
ATOM     94  C   UNL     1      -0.590  -4.635  16.722  1.00  0.00     0.059 A 
ATOM     95  C   UNL     1       1.028  -5.353  15.085  1.00  0.00     0.059 A 
ATOM     96  F   UNL     1       0.871  -4.651  12.882  1.00  0.00    -0.206 F 
ATOM     97  C   UNL     1       0.566  -5.336  16.394  1.00  0.00     0.060 A 
BRANCH  97  98
ATOM     98  S   UNL     1       1.444  -6.282  17.654  1.00  0.00     0.124 S 
ATOM     99  O   UNL     1       2.498  -5.349  18.038  1.00  0.00    -0.237 OA
ATOM    100  O   UNL     1       0.417  -6.519  18.664  1.00  0.00    -0.237 OA
ATOM    101  O   UNL     1       1.880  -7.469  16.926  1.00  0.00    -0.744 OA
ENDBRANCH  97  98
ENDBRANCH  65  90
ENDBRANCH  39  40
ENDBRANCH  31  34
ENDBRANCH  29  30
ENDBRANCH  28  29
ENDBRANCH  27  28
ENDBRANCH   1  27
TORSDOF 19
