REMARK SMILES Cc1ccc(NC(=O)C[C@H]2C(=O)NCCN2C(=O)CCC(=O)NCCCCCCNC(=O)c2ccc(-c3c4nc(c(-c5c(F)cc(S(=O)(=O)[O-])cc5F)c5ccc([nH]5)c(-c5c(F)cc(S(=O)(=O)[O-])cc5F)c5nc(c(-c6c(F)cc(S(=O)(=O)[O-])cc6F)c6ccc3[nH]6)C=C5)C=C4)cc2)c(C)c1
REMARK SMILES IDX 25 1 24 2 23 3 21 4 22 5 20 7 19 8 17 9 18 10 16 11 10 12
REMARK SMILES IDX 11 13 12 14 13 15 15 16 14 17 9 19 7 20 6 21 8 23 5 24 1 25
REMARK SMILES IDX 2 26 3 27 101 28 4 29 99 30 100 31 26 32 27 33 28 34 29 35
REMARK SMILES IDX 30 36 31 37 32 39 33 40 34 41 98 42 35 43 97 44 36 45 37 46
REMARK SMILES IDX 38 47 91 48 39 49 96 50 90 51 92 52 40 53 95 54 89 55 88 56
REMARK SMILES IDX 41 58 75 59 54 60 74 61 55 62 58 63 73 64 93 65 56 66 57 67
REMARK SMILES IDX 72 69 94 70 59 71 42 72 43 73 52 74 44 75 45 76 51 77 53 78
REMARK SMILES IDX 46 79 47 80 48 81 49 82 50 83 76 84 77 85 86 86 78 87 79 88
REMARK SMILES IDX 85 89 87 90 80 91 81 92 82 93 83 94 84 95 60 96 61 97 70 98
REMARK SMILES IDX 62 99 63 100 69 101 71 102 64 103 65 104 66 105 67 106
REMARK SMILES IDX 68 107
REMARK H PARENT 23 6 13 18 6 22 30 38 92 57 58 68
REMARK Flexibility Score: inf
ROOT
ATOM      1  C   UNL     1      -2.998   3.589   2.200  1.00  0.00     0.021 C 
ENDROOT
BRANCH   1   2
ATOM      2  C   UNL     1      -3.430   3.216   0.713  1.00  0.00     0.116 C 
BRANCH   2   3
ATOM      3  N   UNL     1      -2.745   2.181  -0.070  1.00  0.00    -0.356 N 
ATOM      4  C   UNL     1      -2.980   1.448  -1.197  1.00  0.00     0.220 C 
ATOM      5  O   UNL     1      -2.075   0.761  -1.680  1.00  0.00    -0.275 OA
ATOM      6  H   UNL     1      -1.875   1.951   0.329  1.00  0.00     0.163 HD
BRANCH   4   7
ATOM      7  C   UNL     1      -4.338   1.312  -1.764  1.00  0.00     0.110 C 
BRANCH   7   8
ATOM      8  C   UNL     1      -5.042   0.261  -0.931  1.00  0.00     0.110 C 
BRANCH   8   9
ATOM      9  C   UNL     1      -5.436   0.908   0.353  1.00  0.00     0.223 C 
ATOM     10  O   UNL     1      -6.433   1.647   0.303  1.00  0.00    -0.275 OA
BRANCH   9  11
ATOM     11  N   UNL     1      -4.676   0.777   1.529  1.00  0.00    -0.328 N 
ATOM     12  C   UNL     1      -3.391  -0.060   1.797  1.00  0.00     0.183 C 
ATOM     13  C   UNL     1      -3.494  -0.798   3.169  1.00  0.00     0.243 C 
ATOM     14  O   UNL     1      -2.772  -1.752   3.459  1.00  0.00    -0.273 OA
ATOM     15  N   UNL     1      -4.419  -0.405   4.094  1.00  0.00    -0.353 N 
ATOM     16  C   UNL     1      -5.471   1.315   2.654  1.00  0.00     0.141 C 
ATOM     17  C   UNL     1      -5.249   0.762   4.040  1.00  0.00     0.137 C 
ATOM     18  H   UNL     1      -4.528  -0.985   4.882  1.00  0.00     0.163 HD
BRANCH  12  19
ATOM     19  C   UNL     1      -1.746   0.171   1.329  1.00  0.00     0.135 C 
BRANCH  19  20
ATOM     20  C   UNL     1      -0.457   1.190   1.637  1.00  0.00     0.227 C 
ATOM     21  N   UNL     1       0.017   2.416   1.169  1.00  0.00    -0.326 N 
ATOM     22  H   UNL     1       0.844   2.617   1.664  1.00  0.00     0.169 HD
ATOM     23  O   UNL     1       0.309   0.770   2.537  1.00  0.00    -0.275 OA
BRANCH  21  24
ATOM     24  C   UNL     1      -0.210   3.510   0.256  1.00  0.00     0.044 A 
ATOM     25  C   UNL     1      -2.770   6.317  -1.715  1.00  0.00     0.044 C 
ATOM     26  C   UNL     1      -1.605   5.541  -1.153  1.00  0.00    -0.051 A 
ATOM     27  C   UNL     1      -1.137   5.780   0.138  1.00  0.00     0.005 A 
ATOM     28  C   UNL     1      -1.101   4.421  -1.820  1.00  0.00     0.009 A 
ATOM     29  C   UNL     1      -0.394   4.788   0.817  1.00  0.00     0.026 A 
ATOM     30  C   UNL     1      -0.365   3.421  -1.131  1.00  0.00    -0.027 A 
ATOM     31  C   UNL     1       0.301   2.350  -1.938  1.00  0.00     0.046 C 
ENDBRANCH  21  24
ENDBRANCH  19  20
ENDBRANCH  12  19
ENDBRANCH   9  11
ENDBRANCH   8   9
ENDBRANCH   7   8
ENDBRANCH   4   7
ENDBRANCH   2   3
ENDBRANCH   1   2
BRANCH   1  32
ATOM     32  C   UNL     1      -2.492   2.653   3.322  1.00  0.00     0.002 C 
BRANCH  32  33
ATOM     33  C   UNL     1      -1.269   3.090   4.161  1.00  0.00     0.002 C 
BRANCH  33  34
ATOM     34  C   UNL     1      -1.438   4.381   4.941  1.00  0.00     0.021 C 
BRANCH  34  35
ATOM     35  C   UNL     1      -2.675   4.414   5.818  1.00  0.00     0.116 C 
BRANCH  35  36
ATOM     36  N   UNL     1      -2.645   3.437   6.898  1.00  0.00    -0.352 N 
ATOM     37  C   UNL     1      -2.767   3.657   8.258  1.00  0.00     0.251 C 
ATOM     38  H   UNL     1      -2.521   2.499   6.625  1.00  0.00     0.163 HD
ATOM     39  O   UNL     1      -2.620   2.762   9.059  1.00  0.00    -0.269 OA
BRANCH  37  40
ATOM     40  C   UNL     1      -3.044   5.043   8.702  1.00  0.00     0.039 A 
ATOM     41  C   UNL     1      -2.169   5.652   9.601  1.00  0.00     0.014 A 
ATOM     42  C   UNL     1      -4.086   5.762   8.114  1.00  0.00     0.014 A 
ATOM     43  C   UNL     1      -2.287   7.022   9.841  1.00  0.00     0.010 A 
ATOM     44  C   UNL     1      -4.130   7.140   8.270  1.00  0.00     0.010 A 
ATOM     45  C   UNL     1      -3.234   7.785   9.136  1.00  0.00    -0.014 A 
BRANCH  45  46
ATOM     46  C   UNL     1      -3.318   9.259   9.293  1.00  0.00     0.031 A 
ATOM     47  C   UNL     1      -4.591   9.878   9.804  1.00  0.00     0.074 A 
ATOM     48  C   UNL     1      -2.291  10.039   8.900  1.00  0.00     0.049 A 
ATOM     49  N   UNL     1      -4.903  11.141   9.928  1.00  0.00    -0.248 NA
ATOM     50  C   UNL     1      -5.672   8.953  10.185  1.00  0.00     0.031 C 
ATOM     51  C   UNL     1      -1.034   9.561   8.317  1.00  0.00     0.029 A 
ATOM     52  N   UNL     1      -2.145  11.403   8.921  1.00  0.00    -0.354 N 
ATOM     53  C   UNL     1      -6.220  11.161  10.374  1.00  0.00     0.074 A 
ATOM     54  C   UNL     1      -6.668   9.788  10.437  1.00  0.00     0.031 C 
ATOM     55  C   UNL     1      -0.235  10.611   8.068  1.00  0.00     0.029 A 
ATOM     56  C   UNL     1      -0.931  11.838   8.442  1.00  0.00     0.049 A 
ATOM     57  H   UNL     1      -2.844  12.013   9.249  1.00  0.00     0.167 HD
ATOM     58  C   UNL     1      -6.977  12.224  10.730  1.00  0.00     0.037 A 
ATOM     59  C   UNL     1      -0.436  13.085   8.324  1.00  0.00     0.037 A 
ATOM     60  C   UNL     1      -6.506  13.582  10.717  1.00  0.00     0.049 A 
ATOM     61  C   UNL     1      -1.274  14.248   8.780  1.00  0.00     0.074 A 
ATOM     62  C   UNL     1      -7.165  14.727  11.128  1.00  0.00     0.029 A 
ATOM     63  N   UNL     1      -5.249  13.977  10.281  1.00  0.00    -0.354 N 
ATOM     64  N   UNL     1      -2.495  14.244   9.261  1.00  0.00    -0.248 NA
ATOM     65  C   UNL     1      -0.667  15.583   8.690  1.00  0.00     0.031 C 
ATOM     66  C   UNL     1      -6.315  15.818  10.916  1.00  0.00     0.029 A 
ATOM     67  C   UNL     1      -5.115  15.348  10.406  1.00  0.00     0.049 A 
ATOM     68  H   UNL     1      -4.556  13.371   9.934  1.00  0.00     0.167 HD
ATOM     69  C   UNL     1      -2.793  15.570   9.553  1.00  0.00     0.074 A 
ATOM     70  C   UNL     1      -1.620  16.347   9.206  1.00  0.00     0.031 C 
ATOM     71  C   UNL     1      -3.933  16.098  10.064  1.00  0.00     0.037 A 
BRANCH  58  72
ATOM     72  C   UNL     1      -8.384  11.950  11.182  1.00  0.00     0.058 A 
ATOM     73  C   UNL     1      -8.652  11.319  12.408  1.00  0.00     0.135 A 
ATOM     74  C   UNL     1      -9.477  12.328  10.387  1.00  0.00     0.135 A 
ATOM     75  F   UNL     1      -7.642  10.919  13.197  1.00  0.00    -0.206 F 
ATOM     76  C   UNL     1      -9.952  11.039  12.813  1.00  0.00     0.059 A 
ATOM     77  C   UNL     1     -10.788  12.083  10.786  1.00  0.00     0.059 A 
ATOM     78  F   UNL     1      -9.278  12.931   9.205  1.00  0.00    -0.206 F 
ATOM     79  C   UNL     1     -11.014  11.421  11.993  1.00  0.00     0.060 A 
BRANCH  79  80
ATOM     80  S   UNL     1     -12.696  11.046  12.528  1.00  0.00     0.124 S 
ATOM     81  O   UNL     1     -12.776   9.616  12.250  1.00  0.00    -0.237 OA
ATOM     82  O   UNL     1     -12.667  11.416  13.940  1.00  0.00    -0.237 OA
ATOM     83  O   UNL     1     -13.520  11.899  11.677  1.00  0.00    -0.744 OA
ENDBRANCH  79  80
ENDBRANCH  58  72
BRANCH  59  84
ATOM     84  C   UNL     1       0.938  13.294   7.795  1.00  0.00     0.058 A 
ATOM     85  C   UNL     1       1.986  13.671   8.648  1.00  0.00     0.135 A 
ATOM     86  C   UNL     1       1.235  13.105   6.437  1.00  0.00     0.135 A 
ATOM     87  F   UNL     1       1.749  13.868   9.954  1.00  0.00    -0.206 F 
ATOM     88  C   UNL     1       3.279  13.868   8.173  1.00  0.00     0.059 A 
ATOM     89  C   UNL     1       2.525  13.275   5.941  1.00  0.00     0.059 A 
ATOM     90  F   UNL     1       0.271  12.726   5.584  1.00  0.00    -0.206 F 
ATOM     91  C   UNL     1       3.538  13.666   6.816  1.00  0.00     0.060 A 
BRANCH  91  92
ATOM     92  S   UNL     1       5.230  13.871   6.217  1.00  0.00     0.124 S 
ATOM     93  O   UNL     1       5.358  15.323   6.191  1.00  0.00    -0.237 OA
ATOM     94  O   UNL     1       6.006  13.179   7.242  1.00  0.00    -0.237 OA
ATOM     95  O   UNL     1       5.204  13.214   4.914  1.00  0.00    -0.744 OA
ENDBRANCH  91  92
ENDBRANCH  59  84
BRANCH  71  96
ATOM     96  C   UNL     1      -3.956  17.579  10.306  1.00  0.00     0.058 A 
ATOM     97  C   UNL     1      -4.081  18.495   9.251  1.00  0.00     0.135 A 
ATOM     98  C   UNL     1      -3.908  18.084  11.616  1.00  0.00     0.135 A 
ATOM     99  F   UNL     1      -4.126  18.060   7.981  1.00  0.00    -0.206 F 
ATOM    100  C   UNL     1      -4.135  19.864   9.483  1.00  0.00     0.059 A 
ATOM    101  C   UNL     1      -3.984  19.448  11.873  1.00  0.00     0.059 A 
ATOM    102  F   UNL     1      -3.801  17.247  12.660  1.00  0.00    -0.206 F 
ATOM    103  C   UNL     1      -4.086  20.332  10.798  1.00  0.00     0.060 A 
BRANCH 103 104
ATOM    104  S   UNL     1      -4.192  22.110  11.091  1.00  0.00     0.124 S 
ATOM    105  O   UNL     1      -2.845  22.545  10.737  1.00  0.00    -0.237 OA
ATOM    106  O   UNL     1      -5.252  22.517  10.175  1.00  0.00    -0.237 OA
ATOM    107  O   UNL     1      -4.530  22.199  12.509  1.00  0.00    -0.744 OA
ENDBRANCH 103 104
ENDBRANCH  71  96
ENDBRANCH  45  46
ENDBRANCH  37  40
ENDBRANCH  35  36
ENDBRANCH  34  35
ENDBRANCH  33  34
ENDBRANCH  32  33
ENDBRANCH   1  32
TORSDOF 22
