REMARK SMILES C[C@@H](C(=O)NCCCCCCNC(=O)c1ccc(-c2c3nc(c(-c4c(F)cc(S(=O)(=O)[O-])cc4F)c4ccc([nH]4)c(-c4c(F)cc(S(=O)(=O)[O-])cc4F)c4nc(c(-c5c(F)cc(S(=O)(=O)[O-])cc5F)c5ccc2[nH]5)C=C4)C=C3)cc1)c1ccc(C[C@@H]2CCC[C@@H]2O)cc1
REMARK SMILES IDX 8 1 7 2 6 3 5 4 3 5 4 6 2 8 1 9 81 10 82 11 93 12 83 13
REMARK SMILES IDX 92 14 84 15 85 16 86 17 87 18 90 19 88 20 89 21 91 22 9 24
REMARK SMILES IDX 10 25 11 26 12 27 13 28 14 30 15 31 16 32 80 33 17 34 79 35
REMARK SMILES IDX 18 36 19 37 20 38 73 39 21 40 78 41 72 42 74 43 22 44 77 45
REMARK SMILES IDX 71 46 70 47 23 49 57 50 36 51 56 52 37 53 40 54 55 55 75 56
REMARK SMILES IDX 38 57 39 58 54 60 76 61 41 62 24 63 25 64 34 65 26 66 27 67
REMARK SMILES IDX 33 68 35 69 28 70 29 71 30 72 31 73 32 74 58 75 59 76 68 77
REMARK SMILES IDX 60 78 61 79 67 80 69 81 62 82 63 83 64 84 65 85 66 86 42 87
REMARK SMILES IDX 43 88 52 89 44 90 45 91 51 92 53 93 46 94 47 95 48 96 49 97
REMARK SMILES IDX 50 98
REMARK H PARENT 5 7 91 23 12 29 74 48 40 59
REMARK Flexibility Score: inf
ROOT
ATOM      1  C   UNL     1     -10.852   3.211  12.494  1.00  0.00     0.002 C 
ENDROOT
BRANCH   1   2
ATOM      2  C   UNL     1     -11.432   3.594  11.125  1.00  0.00     0.021 C 
BRANCH   2   3
ATOM      3  C   UNL     1     -10.456   4.346  10.217  1.00  0.00     0.116 C 
BRANCH   3   4
ATOM      4  N   UNL     1      -9.309   3.520   9.912  1.00  0.00    -0.356 N 
ATOM      5  C   UNL     1      -8.980   2.834   8.782  1.00  0.00     0.227 C 
ATOM      6  O   UNL     1      -7.968   2.135   8.864  1.00  0.00    -0.274 OA
ATOM      7  H   UNL     1      -8.656   3.439  10.644  1.00  0.00     0.163 HD
BRANCH   5   8
ATOM      8  C   UNL     1      -9.816   3.006   7.495  1.00  0.00     0.105 C 
ATOM      9  C   UNL     1     -11.237   2.451   7.597  1.00  0.00     0.023 C 
BRANCH   8  10
ATOM     10  C   UNL     1      -9.177   2.396   6.250  1.00  0.00    -0.036 A 
ATOM     11  C   UNL     1      -8.620   1.109   6.260  1.00  0.00     0.005 A 
ATOM     12  C   UNL     1      -9.201   3.099   5.038  1.00  0.00     0.005 A 
ATOM     13  C   UNL     1      -8.021   0.578   5.119  1.00  0.00     0.004 A 
ATOM     14  C   UNL     1      -8.609   2.562   3.893  1.00  0.00     0.004 A 
ATOM     15  C   UNL     1      -7.973   1.315   3.934  1.00  0.00    -0.048 A 
BRANCH  15  16
ATOM     16  C   UNL     1      -7.217   0.799   2.738  1.00  0.00     0.041 C 
BRANCH  16  17
ATOM     17  C   UNL     1      -5.684   1.008   2.719  1.00  0.00     0.022 C 
ATOM     18  C   UNL     1      -4.917   0.328   3.860  1.00  0.00     0.007 C 
ATOM     19  C   UNL     1      -5.168   2.450   2.791  1.00  0.00     0.117 C 
ATOM     20  C   UNL     1      -4.625   1.412   4.903  1.00  0.00     0.003 C 
ATOM     21  C   UNL     1      -5.029   2.743   4.278  1.00  0.00     0.032 C 
BRANCH  19  22
ATOM     22  O   UNL     1      -5.989   3.391   2.132  1.00  0.00    -0.393 OA
ATOM     23  H   UNL     1      -6.871   3.389   2.535  1.00  0.00     0.210 HD
ENDBRANCH  19  22
ENDBRANCH  16  17
ENDBRANCH  15  16
ENDBRANCH   8  10
ENDBRANCH   5   8
ENDBRANCH   3   4
ENDBRANCH   2   3
ENDBRANCH   1   2
BRANCH   1  24
ATOM     24  C   UNL     1     -10.297   4.380  13.313  1.00  0.00     0.002 C 
BRANCH  24  25
ATOM     25  C   UNL     1     -11.279   5.532  13.533  1.00  0.00     0.021 C 
BRANCH  25  26
ATOM     26  C   UNL     1     -12.571   5.134  14.238  1.00  0.00     0.116 C 
BRANCH  26  27
ATOM     27  N   UNL     1     -12.328   4.664  15.593  1.00  0.00    -0.352 N 
ATOM     28  C   UNL     1     -12.867   5.112  16.773  1.00  0.00     0.251 C 
ATOM     29  H   UNL     1     -11.688   3.921  15.676  1.00  0.00     0.163 HD
ATOM     30  O   UNL     1     -12.391   4.743  17.845  1.00  0.00    -0.269 OA
BRANCH  28  31
ATOM     31  C   UNL     1     -14.006   6.054  16.750  1.00  0.00     0.039 A 
ATOM     32  C   UNL     1     -13.984   7.164  17.597  1.00  0.00     0.014 A 
ATOM     33  C   UNL     1     -15.090   5.847  15.890  1.00  0.00     0.014 A 
ATOM     34  C   UNL     1     -15.019   8.100  17.535  1.00  0.00     0.010 A 
ATOM     35  C   UNL     1     -16.081   6.818  15.778  1.00  0.00     0.010 A 
ATOM     36  C   UNL     1     -16.056   7.955  16.599  1.00  0.00    -0.014 A 
BRANCH  36  37
ATOM     37  C   UNL     1     -17.108   8.996  16.453  1.00  0.00     0.031 A 
ATOM     38  C   UNL     1     -18.549   8.666  16.738  1.00  0.00     0.074 A 
ATOM     39  C   UNL     1     -16.769  10.222  16.005  1.00  0.00     0.049 A 
ATOM     40  N   UNL     1     -19.608   9.424  16.611  1.00  0.00    -0.248 NA
ATOM     41  C   UNL     1     -18.843   7.301  17.205  1.00  0.00     0.031 C 
ATOM     42  C   UNL     1     -15.413  10.647  15.647  1.00  0.00     0.029 A 
ATOM     43  N   UNL     1     -17.535  11.335  15.764  1.00  0.00    -0.354 N 
ATOM     44  C   UNL     1     -20.690   8.629  16.970  1.00  0.00     0.074 A 
ATOM     45  C   UNL     1     -20.167   7.316  17.274  1.00  0.00     0.031 C 
ATOM     46  C   UNL     1     -15.441  11.930  15.254  1.00  0.00     0.029 A 
ATOM     47  C   UNL     1     -16.819  12.409  15.287  1.00  0.00     0.049 A 
ATOM     48  H   UNL     1     -18.508  11.363  15.918  1.00  0.00     0.167 HD
ATOM     49  C   UNL     1     -21.998   8.971  17.058  1.00  0.00     0.037 A 
ATOM     50  C   UNL     1     -17.226  13.636  14.906  1.00  0.00     0.037 A 
ATOM     51  C   UNL     1     -22.507  10.290  16.779  1.00  0.00     0.049 A 
ATOM     52  C   UNL     1     -18.688  13.984  15.006  1.00  0.00     0.074 A 
ATOM     53  C   UNL     1     -23.806  10.751  16.904  1.00  0.00     0.029 A 
ATOM     54  N   UNL     1     -21.748  11.354  16.316  1.00  0.00    -0.354 N 
ATOM     55  N   UNL     1     -19.686  13.241  15.422  1.00  0.00    -0.248 NA
ATOM     56  C   UNL     1     -19.080  15.338  14.591  1.00  0.00     0.031 C 
ATOM     57  C   UNL     1     -23.843  12.077  16.463  1.00  0.00     0.029 A 
ATOM     58  C   UNL     1     -22.557  12.462  16.123  1.00  0.00     0.049 A 
ATOM     59  H   UNL     1     -20.778  11.327  16.150  1.00  0.00     0.167 HD
ATOM     60  C   UNL     1     -20.817  14.048  15.348  1.00  0.00     0.074 A 
ATOM     61  C   UNL     1     -20.377  15.340  14.864  1.00  0.00     0.031 C 
ATOM     62  C   UNL     1     -22.103  13.747  15.652  1.00  0.00     0.037 A 
BRANCH  49  63
ATOM     63  C   UNL     1     -22.982   7.913  17.478  1.00  0.00     0.058 A 
ATOM     64  C   UNL     1     -23.029   7.431  18.796  1.00  0.00     0.135 A 
ATOM     65  C   UNL     1     -23.945   7.438  16.573  1.00  0.00     0.135 A 
ATOM     66  F   UNL     1     -22.122   7.838  19.698  1.00  0.00    -0.206 F 
ATOM     67  C   UNL     1     -23.990   6.510  19.200  1.00  0.00     0.059 A 
ATOM     68  C   UNL     1     -24.934   6.538  16.962  1.00  0.00     0.059 A 
ATOM     69  F   UNL     1     -23.944   7.863  15.300  1.00  0.00    -0.206 F 
ATOM     70  C   UNL     1     -24.944   6.076  18.277  1.00  0.00     0.060 A 
BRANCH  70  71
ATOM     71  S   UNL     1     -26.212   4.917  18.832  1.00  0.00     0.124 S 
ATOM     72  O   UNL     1     -25.431   3.697  19.017  1.00  0.00    -0.237 OA
ATOM     73  O   UNL     1     -26.698   5.550  20.054  1.00  0.00    -0.237 OA
ATOM     74  O   UNL     1     -27.160   4.891  17.723  1.00  0.00    -0.744 OA
ENDBRANCH  70  71
ENDBRANCH  49  63
BRANCH  50  75
ATOM     75  C   UNL     1     -16.243  14.630  14.393  1.00  0.00     0.058 A 
ATOM     76  C   UNL     1     -15.954  15.801  15.109  1.00  0.00     0.135 A 
ATOM     77  C   UNL     1     -15.591  14.440  13.164  1.00  0.00     0.135 A 
ATOM     78  F   UNL     1     -16.553  16.032  16.287  1.00  0.00    -0.206 F 
ATOM     79  C   UNL     1     -15.083  16.765  14.611  1.00  0.00     0.059 A 
ATOM     80  C   UNL     1     -14.692  15.374  12.660  1.00  0.00     0.059 A 
ATOM     81  F   UNL     1     -15.816  13.328  12.447  1.00  0.00    -0.206 F 
ATOM     82  C   UNL     1     -14.459  16.544  13.382  1.00  0.00     0.060 A 
BRANCH  82  83
ATOM     83  S   UNL     1     -13.323  17.795  12.748  1.00  0.00     0.124 S 
ATOM     84  O   UNL     1     -14.244  18.854  12.353  1.00  0.00    -0.237 OA
ATOM     85  O   UNL     1     -12.491  18.073  13.915  1.00  0.00    -0.237 OA
ATOM     86  O   UNL     1     -12.644  17.107  11.653  1.00  0.00    -0.744 OA
ENDBRANCH  82  83
ENDBRANCH  50  75
BRANCH  62  87
ATOM     87  C   UNL     1     -23.125  14.842  15.512  1.00  0.00     0.058 A 
ATOM     88  C   UNL     1     -23.538  15.314  14.256  1.00  0.00     0.135 A 
ATOM     89  C   UNL     1     -23.737  15.391  16.651  1.00  0.00     0.135 A 
ATOM     90  F   UNL     1     -22.981  14.829  13.135  1.00  0.00    -0.206 F 
ATOM     91  C   UNL     1     -24.501  16.311  14.135  1.00  0.00     0.059 A 
ATOM     92  C   UNL     1     -24.726  16.365  16.553  1.00  0.00     0.059 A 
ATOM     93  F   UNL     1     -23.388  14.968  17.877  1.00  0.00    -0.206 F 
ATOM     94  C   UNL     1     -25.092  16.828  15.290  1.00  0.00     0.060 A 
BRANCH  94  95
ATOM     95  S   UNL     1     -26.363  18.097  15.116  1.00  0.00     0.124 S 
ATOM     96  O   UNL     1     -25.570  19.255  14.718  1.00  0.00    -0.237 OA
ATOM     97  O   UNL     1     -27.226  17.534  14.083  1.00  0.00    -0.237 OA
ATOM     98  O   UNL     1     -26.956  18.170  16.448  1.00  0.00    -0.744 OA
ENDBRANCH  94  95
ENDBRANCH  62  87
ENDBRANCH  36  37
ENDBRANCH  28  31
ENDBRANCH  26  27
ENDBRANCH  25  26
ENDBRANCH  24  25
ENDBRANCH   1  24
TORSDOF 20
