REMARK SMILES Cc1ccc(NC(=O)c2cccn2CC(=O)NCCCCCCNC(=O)c2ccc(-c3c4nc(c(-c5c(F)cc(S(=O)(=O)[O-])cc5F)c5ccc([nH]5)c(-c5c(F)cc(S(=O)(=O)[O-])cc5F)c5nc(c(-c6c(F)cc(S(=O)(=O)[O-])cc6F)c6ccc3[nH]6)C=C5)C=C4)cc2)cc1
REMARK SMILES IDX 20 1 19 2 18 3 17 4 15 5 16 6 14 8 13 9 9 10 10 11 11 12
REMARK SMILES IDX 12 13 7 14 6 15 8 17 5 18 1 19 2 20 3 21 94 22 4 23 93 24
REMARK SMILES IDX 21 25 22 26 23 27 24 28 25 29 26 31 27 32 28 33 92 34 29 35
REMARK SMILES IDX 91 36 30 37 31 38 32 39 85 40 33 41 90 42 84 43 86 44 34 45
REMARK SMILES IDX 89 46 83 47 82 48 35 50 69 51 48 52 68 53 49 54 52 55 67 56
REMARK SMILES IDX 87 57 50 58 51 59 66 61 88 62 53 63 36 64 37 65 46 66 38 67
REMARK SMILES IDX 39 68 45 69 47 70 40 71 41 72 42 73 43 74 44 75 70 76 71 77
REMARK SMILES IDX 80 78 72 79 73 80 79 81 81 82 74 83 75 84 76 85 77 86 78 87
REMARK SMILES IDX 54 88 55 89 64 90 56 91 57 92 63 93 65 94 58 95 59 96 60 97
REMARK SMILES IDX 61 98 62 99
REMARK H PARENT 17 7 6 16 24 30 86 49 52 60
REMARK Flexibility Score: inf
ROOT
ATOM      1  C   UNL     1       0.048  -1.662  -4.250  1.00  0.00     0.002 C 
ENDROOT
BRANCH   1   2
ATOM      2  C   UNL     1      -0.966  -1.696  -3.096  1.00  0.00     0.021 C 
BRANCH   2   3
ATOM      3  C   UNL     1      -2.458  -1.727  -3.450  1.00  0.00     0.116 C 
BRANCH   3   4
ATOM      4  N   UNL     1      -2.926  -3.054  -3.828  1.00  0.00    -0.355 N 
ATOM      5  C   UNL     1      -3.795  -3.898  -3.192  1.00  0.00     0.239 C 
ATOM      6  O   UNL     1      -4.058  -4.975  -3.739  1.00  0.00    -0.273 OA
ATOM      7  H   UNL     1      -2.559  -3.397  -4.675  1.00  0.00     0.163 HD
BRANCH   5   8
ATOM      8  C   UNL     1      -4.475  -3.506  -1.895  1.00  0.00     0.222 C 
BRANCH   8   9
ATOM      9  N   UNL     1      -3.637  -3.638  -0.708  1.00  0.00    -0.334 N 
ATOM     10  C   UNL     1      -3.442  -2.670   0.263  1.00  0.00     0.107 A 
ATOM     11  C   UNL     1      -2.785  -3.293   1.318  1.00  0.00     0.033 A 
ATOM     12  C   UNL     1      -2.439  -4.601   0.908  1.00  0.00     0.020 A 
ATOM     13  C   UNL     1      -2.982  -4.790  -0.342  1.00  0.00     0.087 A 
BRANCH  10  14
ATOM     14  C   UNL     1      -3.885  -1.304   0.179  1.00  0.00     0.272 C 
ATOM     15  N   UNL     1      -3.003  -0.253   0.238  1.00  0.00    -0.321 N 
ATOM     16  H   UNL     1      -3.451   0.622   0.294  1.00  0.00     0.170 HD
ATOM     17  O   UNL     1      -5.087  -1.023   0.008  1.00  0.00    -0.267 OA
BRANCH  15  18
ATOM     18  C   UNL     1      -1.593  -0.153   0.236  1.00  0.00     0.041 A 
ATOM     19  C   UNL     1       2.703   0.439   0.198  1.00  0.00     0.044 C 
ATOM     20  C   UNL     1       1.213   0.263   0.185  1.00  0.00    -0.051 A 
ATOM     21  C   UNL     1       0.680  -1.021   0.114  1.00  0.00     0.005 A 
ATOM     22  C   UNL     1       0.336   1.346   0.269  1.00  0.00     0.005 A 
ATOM     23  C   UNL     1      -0.705  -1.219   0.127  1.00  0.00     0.026 A 
ATOM     24  C   UNL     1      -1.052   1.138   0.295  1.00  0.00     0.026 A 
ENDBRANCH  15  18
ENDBRANCH  10  14
ENDBRANCH   8   9
ENDBRANCH   5   8
ENDBRANCH   3   4
ENDBRANCH   2   3
ENDBRANCH   1   2
BRANCH   1  25
ATOM     25  C   UNL     1       0.325  -0.288  -4.895  1.00  0.00     0.002 C 
BRANCH  25  26
ATOM     26  C   UNL     1       0.947   0.847  -4.035  1.00  0.00     0.021 C 
BRANCH  26  27
ATOM     27  C   UNL     1       2.377   0.692  -3.417  1.00  0.00     0.116 C 
BRANCH  27  28
ATOM     28  N   UNL     1       3.514   0.855  -4.348  1.00  0.00    -0.352 N 
ATOM     29  C   UNL     1       4.513   1.835  -4.266  1.00  0.00     0.251 C 
ATOM     30  H   UNL     1       3.574   0.217  -5.095  1.00  0.00     0.163 HD
ATOM     31  O   UNL     1       4.405   2.815  -5.008  1.00  0.00    -0.269 OA
BRANCH  29  32
ATOM     32  C   UNL     1       5.800   1.674  -3.446  1.00  0.00     0.039 A 
ATOM     33  C   UNL     1       6.829   2.652  -3.537  1.00  0.00     0.014 A 
ATOM     34  C   UNL     1       6.085   0.598  -2.624  1.00  0.00     0.014 A 
ATOM     35  C   UNL     1       8.046   2.623  -2.754  1.00  0.00     0.010 A 
ATOM     36  C   UNL     1       7.325   0.540  -1.902  1.00  0.00     0.010 A 
ATOM     37  C   UNL     1       8.318   1.575  -1.869  1.00  0.00    -0.014 A 
BRANCH  37  38
ATOM     38  C   UNL     1       9.180   1.720  -0.572  1.00  0.00     0.031 A 
ATOM     39  C   UNL     1       8.290   1.825   0.577  1.00  0.00     0.074 A 
ATOM     40  C   UNL     1      10.391   1.266  -0.076  1.00  0.00     0.049 A 
ATOM     41  N   UNL     1       7.644   0.753   0.853  1.00  0.00    -0.248 NA
ATOM     42  C   UNL     1       8.108   2.918   1.506  1.00  0.00     0.031 C 
ATOM     43  C   UNL     1      11.566   0.864  -0.833  1.00  0.00     0.029 A 
ATOM     44  N   UNL     1      10.766   0.920   1.295  1.00  0.00    -0.354 N 
ATOM     45  C   UNL     1       7.193   0.873   2.109  1.00  0.00     0.074 A 
ATOM     46  C   UNL     1       7.398   2.276   2.452  1.00  0.00     0.031 C 
ATOM     47  C   UNL     1      12.456   0.263  -0.011  1.00  0.00     0.029 A 
ATOM     48  C   UNL     1      11.920   0.107   1.375  1.00  0.00     0.049 A 
ATOM     49  H   UNL     1      10.263   1.224   2.085  1.00  0.00     0.167 HD
ATOM     50  C   UNL     1       6.843  -0.278   2.731  1.00  0.00     0.037 A 
ATOM     51  C   UNL     1      12.247  -1.010   2.148  1.00  0.00     0.037 A 
ATOM     52  C   UNL     1       6.996  -1.516   1.928  1.00  0.00     0.049 A 
ATOM     53  C   UNL     1      11.832  -2.053   1.177  1.00  0.00     0.074 A 
ATOM     54  C   UNL     1       6.229  -2.637   1.676  1.00  0.00     0.029 A 
ATOM     55  N   UNL     1       8.132  -1.708   1.134  1.00  0.00    -0.354 N 
ATOM     56  N   UNL     1      10.572  -2.138   0.908  1.00  0.00    -0.248 NA
ATOM     57  C   UNL     1      12.684  -3.011   0.505  1.00  0.00     0.031 C 
ATOM     58  C   UNL     1       6.881  -3.425   0.662  1.00  0.00     0.029 A 
ATOM     59  C   UNL     1       8.063  -2.808   0.279  1.00  0.00     0.049 A 
ATOM     60  H   UNL     1       8.916  -1.115   1.175  1.00  0.00     0.167 HD
ATOM     61  C   UNL     1      10.420  -3.076  -0.054  1.00  0.00     0.074 A 
ATOM     62  C   UNL     1      11.757  -3.618  -0.254  1.00  0.00     0.031 C 
ATOM     63  C   UNL     1       9.197  -3.158  -0.640  1.00  0.00     0.037 A 
BRANCH  50  64
ATOM     64  C   UNL     1       6.535  -0.185   4.179  1.00  0.00     0.058 A 
ATOM     65  C   UNL     1       7.196  -1.014   5.094  1.00  0.00     0.135 A 
ATOM     66  C   UNL     1       5.705   0.824   4.704  1.00  0.00     0.135 A 
ATOM     67  F   UNL     1       8.009  -1.988   4.659  1.00  0.00    -0.206 F 
ATOM     68  C   UNL     1       7.083  -0.820   6.468  1.00  0.00     0.059 A 
ATOM     69  C   UNL     1       5.613   1.067   6.068  1.00  0.00     0.059 A 
ATOM     70  F   UNL     1       5.014   1.639   3.887  1.00  0.00    -0.206 F 
ATOM     71  C   UNL     1       6.303   0.236   6.944  1.00  0.00     0.060 A 
BRANCH  71  72
ATOM     72  S   UNL     1       6.224   0.559   8.717  1.00  0.00     0.124 S 
ATOM     73  O   UNL     1       5.290  -0.469   9.160  1.00  0.00    -0.237 OA
ATOM     74  O   UNL     1       7.612   0.399   9.133  1.00  0.00    -0.237 OA
ATOM     75  O   UNL     1       5.720   1.929   8.783  1.00  0.00    -0.744 OA
ENDBRANCH  71  72
ENDBRANCH  50  64
BRANCH  51  76
ATOM     76  C   UNL     1      12.086  -1.614   3.574  1.00  0.00     0.058 A 
ATOM     77  C   UNL     1      13.001  -1.299   4.598  1.00  0.00     0.135 A 
ATOM     78  C   UNL     1      11.299  -2.775   3.866  1.00  0.00     0.135 A 
ATOM     79  F   UNL     1      13.867  -0.288   4.424  1.00  0.00    -0.206 F 
ATOM     80  C   UNL     1      13.134  -2.071   5.785  1.00  0.00     0.059 A 
ATOM     81  C   UNL     1      11.425  -3.561   5.021  1.00  0.00     0.059 A 
ATOM     82  F   UNL     1      10.417  -3.276   2.995  1.00  0.00    -0.206 F 
ATOM     83  C   UNL     1      12.356  -3.216   5.978  1.00  0.00     0.060 A 
BRANCH  83  84
ATOM     84  S   UNL     1      12.610  -4.291   7.421  1.00  0.00     0.124 S 
ATOM     85  O   UNL     1      13.992  -4.728   7.235  1.00  0.00    -0.237 OA
ATOM     86  O   UNL     1      12.385  -3.380   8.536  1.00  0.00    -0.237 OA
ATOM     87  O   UNL     1      11.611  -5.345   7.256  1.00  0.00    -0.744 OA
ENDBRANCH  83  84
ENDBRANCH  51  76
BRANCH  63  88
ATOM     88  C   UNL     1       9.062  -3.573  -2.096  1.00  0.00     0.058 A 
ATOM     89  C   UNL     1      10.146  -3.780  -2.991  1.00  0.00     0.135 A 
ATOM     90  C   UNL     1       7.799  -3.628  -2.715  1.00  0.00     0.135 A 
ATOM     91  F   UNL     1      11.413  -3.487  -2.674  1.00  0.00    -0.206 F 
ATOM     92  C   UNL     1       9.991  -4.208  -4.308  1.00  0.00     0.059 A 
ATOM     93  C   UNL     1       7.617  -4.008  -4.050  1.00  0.00     0.059 A 
ATOM     94  F   UNL     1       6.689  -3.249  -2.066  1.00  0.00    -0.206 F 
ATOM     95  C   UNL     1       8.717  -4.346  -4.825  1.00  0.00     0.060 A 
BRANCH  95  96
ATOM     96  S   UNL     1       8.536  -4.896  -6.528  1.00  0.00     0.124 S 
ATOM     97  O   UNL     1       9.460  -4.013  -7.241  1.00  0.00    -0.237 OA
ATOM     98  O   UNL     1       8.954  -6.293  -6.431  1.00  0.00    -0.237 OA
ATOM     99  O   UNL     1       7.126  -4.679  -6.809  1.00  0.00    -0.744 OA
ENDBRANCH  95  96
ENDBRANCH  63  88
ENDBRANCH  37  38
ENDBRANCH  29  32
ENDBRANCH  27  28
ENDBRANCH  26  27
ENDBRANCH  25  26
ENDBRANCH   1  25
TORSDOF 19
