REMARK SMILES COc1ccccc1[C@@H]1CN(C(=O)CCc2cc(Cl)no2)C[C@H]1C(=O)NCCCCCCNC(=O)c1ccc(-c2c3nc(c(-c4c(F)cc(S(=O)(=O)[O-])cc4F)c4ccc([nH]4)c(-c4c(F)cc(S(=O)(=O)[O-])cc4F)c4nc(c(-c5c(F)cc(S(=O)(=O)[O-])cc5F)c5ccc2[nH]5)C=C4)C=C3)cc1
REMARK SMILES IDX 29 1 28 2 27 3 26 4 24 5 25 6 23 8 9 9 10 10 11 11 22 12
REMARK SMILES IDX 8 13 3 14 4 15 5 16 7 17 6 18 2 19 1 20 12 21 13 22 14 23
REMARK SMILES IDX 15 24 16 25 17 26 21 27 18 28 20 29 19 30 30 31 31 32 32 33
REMARK SMILES IDX 33 34 34 35 35 37 36 38 37 39 101 40 38 41 100 42 39 43
REMARK SMILES IDX 40 44 41 45 94 46 42 47 99 48 93 49 95 50 43 51 98 52 92 53
REMARK SMILES IDX 91 54 44 56 78 57 57 58 77 59 58 60 61 61 76 62 96 63 59 64
REMARK SMILES IDX 60 65 75 67 97 68 62 69 45 70 46 71 55 72 47 73 48 74 54 75
REMARK SMILES IDX 56 76 49 77 50 78 51 79 52 80 53 81 79 82 80 83 89 84 81 85
REMARK SMILES IDX 82 86 88 87 90 88 83 89 84 90 85 91 86 92 87 93 63 94 64 95
REMARK SMILES IDX 73 96 65 97 66 98 72 99 74 100 67 101 68 102 69 103 70 104
REMARK SMILES IDX 71 105
REMARK H PARENT 26 7 33 36 95 55 61 66
REMARK Flexibility Score: inf
ROOT
ATOM      1  C   UNL     1       7.061   0.794  -4.373  1.00  0.00     0.002 C 
ENDROOT
BRANCH   1   2
ATOM      2  C   UNL     1       6.482  -0.099  -3.275  1.00  0.00     0.021 C 
BRANCH   2   3
ATOM      3  C   UNL     1       5.920   0.675  -2.089  1.00  0.00     0.116 C 
BRANCH   3   4
ATOM      4  N   UNL     1       4.811   1.514  -2.492  1.00  0.00    -0.356 N 
ATOM      5  C   UNL     1       3.521   1.534  -2.081  1.00  0.00     0.225 C 
ATOM      6  O   UNL     1       2.774   2.370  -2.598  1.00  0.00    -0.275 OA
ATOM      7  H   UNL     1       5.032   2.182  -3.181  1.00  0.00     0.163 HD
BRANCH   5   8
ATOM      8  C   UNL     1       3.001   0.600  -1.010  1.00  0.00     0.107 C 
ATOM      9  C   UNL     1       3.075  -0.893  -1.369  1.00  0.00     0.057 C 
ATOM     10  C   UNL     1       3.485  -1.589  -0.082  1.00  0.00     0.128 C 
ATOM     11  N   UNL     1       4.163  -0.588   0.715  1.00  0.00    -0.341 N 
ATOM     12  C   UNL     1       3.758   0.753   0.316  1.00  0.00     0.133 C 
BRANCH   9  13
ATOM     13  C   UNL     1       1.906  -1.578  -2.050  1.00  0.00    -0.000 A 
ATOM     14  C   UNL     1       0.602  -1.769  -1.556  1.00  0.00     0.122 A 
ATOM     15  C   UNL     1      -0.317  -2.538  -2.295  1.00  0.00     0.047 A 
ATOM     16  C   UNL     1       0.044  -3.175  -3.480  1.00  0.00     0.004 A 
ATOM     17  C   UNL     1       2.243  -2.246  -3.259  1.00  0.00     0.008 A 
ATOM     18  C   UNL     1       1.337  -3.048  -3.951  1.00  0.00     0.001 A 
BRANCH  14  19
ATOM     19  O   UNL     1       0.147  -1.543  -0.286  1.00  0.00    -0.496 OA
ATOM     20  C   UNL     1       0.174  -0.241   0.256  1.00  0.00     0.278 C 
ENDBRANCH  14  19
ENDBRANCH   9  13
BRANCH  11  21
ATOM     21  C   UNL     1       4.974  -0.802   1.806  1.00  0.00     0.223 C 
ATOM     22  O   UNL     1       5.383   0.137   2.494  1.00  0.00    -0.275 OA
BRANCH  21  23
ATOM     23  C   UNL     1       5.406  -2.226   2.130  1.00  0.00     0.108 C 
BRANCH  23  24
ATOM     24  C   UNL     1       4.484  -2.941   3.114  1.00  0.00     0.088 C 
BRANCH  24  25
ATOM     25  C   UNL     1       3.268  -3.513   2.485  1.00  0.00     0.138 A 
ATOM     26  C   UNL     1       3.023  -4.543   1.604  1.00  0.00     0.089 A 
ATOM     27  O   UNL     1       2.089  -2.901   2.794  1.00  0.00    -0.360 OA
ATOM     28  C   UNL     1       1.639  -4.459   1.361  1.00  0.00     0.172 A 
ATOM     29  N   UNL     1       1.059  -3.501   2.089  1.00  0.00    -0.068 NA
ATOM     30  Cl  UNL     1       0.755  -5.394   0.266  1.00  0.00    -0.058 Cl
ENDBRANCH  24  25
ENDBRANCH  23  24
ENDBRANCH  21  23
ENDBRANCH  11  21
ENDBRANCH   5   8
ENDBRANCH   3   4
ENDBRANCH   2   3
ENDBRANCH   1   2
BRANCH   1  31
ATOM     31  C   UNL     1       8.013   1.899  -3.889  1.00  0.00     0.002 C 
BRANCH  31  32
ATOM     32  C   UNL     1       9.160   1.459  -2.967  1.00  0.00     0.021 C 
BRANCH  32  33
ATOM     33  C   UNL     1      10.112   0.472  -3.613  1.00  0.00     0.116 C 
BRANCH  33  34
ATOM     34  N   UNL     1      10.813   1.052  -4.757  1.00  0.00    -0.352 N 
ATOM     35  C   UNL     1      11.709   0.443  -5.619  1.00  0.00     0.251 C 
ATOM     36  H   UNL     1      10.624   2.001  -4.939  1.00  0.00     0.163 HD
ATOM     37  O   UNL     1      12.493   1.101  -6.278  1.00  0.00    -0.269 OA
BRANCH  35  38
ATOM     38  C   UNL     1      11.674  -1.027  -5.725  1.00  0.00     0.039 A 
ATOM     39  C   UNL     1      12.831  -1.798  -5.868  1.00  0.00     0.014 A 
ATOM     40  C   UNL     1      10.425  -1.629  -5.646  1.00  0.00     0.014 A 
ATOM     41  C   UNL     1      12.707  -3.186  -5.878  1.00  0.00     0.010 A 
ATOM     42  C   UNL     1      10.336  -2.966  -5.404  1.00  0.00     0.010 A 
ATOM     43  C   UNL     1      11.449  -3.757  -5.642  1.00  0.00    -0.014 A 
BRANCH  43  44
ATOM     44  C   UNL     1      11.240  -5.195  -5.550  1.00  0.00     0.031 A 
ATOM     45  C   UNL     1      12.028  -5.846  -4.471  1.00  0.00     0.074 A 
ATOM     46  C   UNL     1      10.209  -5.790  -6.195  1.00  0.00     0.049 A 
ATOM     47  N   UNL     1      13.002  -6.684  -4.595  1.00  0.00    -0.248 NA
ATOM     48  C   UNL     1      11.839  -5.362  -3.091  1.00  0.00     0.031 C 
ATOM     49  C   UNL     1       9.171  -5.162  -7.029  1.00  0.00     0.029 A 
ATOM     50  N   UNL     1       9.785  -7.080  -6.139  1.00  0.00    -0.354 N 
ATOM     51  C   UNL     1      13.359  -7.038  -3.296  1.00  0.00     0.074 A 
ATOM     52  C   UNL     1      12.802  -6.024  -2.445  1.00  0.00     0.031 C 
ATOM     53  C   UNL     1       8.129  -6.008  -7.184  1.00  0.00     0.029 A 
ATOM     54  C   UNL     1       8.492  -7.292  -6.620  1.00  0.00     0.049 A 
ATOM     55  H   UNL     1      10.347  -7.808  -5.787  1.00  0.00     0.167 HD
ATOM     56  C   UNL     1      13.823  -8.289  -3.015  1.00  0.00     0.037 A 
ATOM     57  C   UNL     1       7.772  -8.440  -6.522  1.00  0.00     0.037 A 
ATOM     58  C   UNL     1      14.223  -8.963  -4.230  1.00  0.00     0.049 A 
ATOM     59  C   UNL     1       8.751  -9.528  -6.258  1.00  0.00     0.074 A 
ATOM     60  C   UNL     1      15.136  -8.700  -5.233  1.00  0.00     0.029 A 
ATOM     61  N   UNL     1      13.353  -9.892  -4.753  1.00  0.00    -0.354 N 
ATOM     62  N   UNL     1       9.671  -9.892  -7.113  1.00  0.00    -0.248 NA
ATOM     63  C   UNL     1       9.031  -9.853  -4.868  1.00  0.00     0.031 C 
ATOM     64  C   UNL     1      14.486  -9.099  -6.438  1.00  0.00     0.029 A 
ATOM     65  C   UNL     1      13.254  -9.664  -6.101  1.00  0.00     0.049 A 
ATOM     66  H   UNL     1      12.884 -10.595  -4.248  1.00  0.00     0.167 HD
ATOM     67  C   UNL     1      10.812 -10.094  -6.347  1.00  0.00     0.074 A 
ATOM     68  C   UNL     1      10.337 -10.119  -4.964  1.00  0.00     0.031 C 
ATOM     69  C   UNL     1      12.060  -9.923  -6.878  1.00  0.00     0.037 A 
BRANCH  56  70
ATOM     70  C   UNL     1      13.525  -9.055  -1.739  1.00  0.00     0.058 A 
ATOM     71  C   UNL     1      14.094 -10.338  -1.575  1.00  0.00     0.135 A 
ATOM     72  C   UNL     1      12.496  -8.736  -0.824  1.00  0.00     0.135 A 
ATOM     73  F   UNL     1      15.101 -10.747  -2.365  1.00  0.00    -0.206 F 
ATOM     74  C   UNL     1      13.595 -11.270  -0.665  1.00  0.00     0.059 A 
ATOM     75  C   UNL     1      12.019  -9.632   0.125  1.00  0.00     0.059 A 
ATOM     76  F   UNL     1      11.830  -7.577  -0.851  1.00  0.00    -0.206 F 
ATOM     77  C   UNL     1      12.537 -10.913   0.163  1.00  0.00     0.060 A 
BRANCH  77  78
ATOM     78  S   UNL     1      11.799 -12.149   1.243  1.00  0.00     0.124 S 
ATOM     79  O   UNL     1      11.185 -13.048   0.274  1.00  0.00    -0.237 OA
ATOM     80  O   UNL     1      12.967 -12.665   1.949  1.00  0.00    -0.237 OA
ATOM     81  O   UNL     1      10.873 -11.368   2.058  1.00  0.00    -0.744 OA
ENDBRANCH  77  78
ENDBRANCH  56  70
BRANCH  57  82
ATOM     82  C   UNL     1       6.312  -8.585  -6.257  1.00  0.00     0.058 A 
ATOM     83  C   UNL     1       5.657  -9.822  -6.404  1.00  0.00     0.135 A 
ATOM     84  C   UNL     1       5.588  -7.582  -5.578  1.00  0.00     0.135 A 
ATOM     85  F   UNL     1       6.276 -10.841  -7.019  1.00  0.00    -0.206 F 
ATOM     86  C   UNL     1       4.385 -10.067  -5.867  1.00  0.00     0.059 A 
ATOM     87  C   UNL     1       4.319  -7.800  -5.042  1.00  0.00     0.059 A 
ATOM     88  F   UNL     1       6.134  -6.382  -5.330  1.00  0.00    -0.206 F 
ATOM     89  C   UNL     1       3.733  -9.053  -5.167  1.00  0.00     0.060 A 
BRANCH  89  90
ATOM     90  S   UNL     1       2.176  -9.407  -4.312  1.00  0.00     0.124 S 
ATOM     91  O   UNL     1       1.250  -9.568  -5.426  1.00  0.00    -0.237 OA
ATOM     92  O   UNL     1       2.500 -10.619  -3.568  1.00  0.00    -0.237 OA
ATOM     93  O   UNL     1       1.967  -8.215  -3.493  1.00  0.00    -0.744 OA
ENDBRANCH  89  90
ENDBRANCH  57  82
BRANCH  69  94
ATOM     94  C   UNL     1      12.192  -9.787  -8.376  1.00  0.00     0.058 A 
ATOM     95  C   UNL     1      11.688  -8.713  -9.134  1.00  0.00     0.135 A 
ATOM     96  C   UNL     1      13.016 -10.704  -9.044  1.00  0.00     0.135 A 
ATOM     97  F   UNL     1      10.974  -7.737  -8.557  1.00  0.00    -0.206 F 
ATOM     98  C   UNL     1      11.962  -8.579 -10.498  1.00  0.00     0.059 A 
ATOM     99  C   UNL     1      13.329 -10.573 -10.394  1.00  0.00     0.059 A 
ATOM    100  F   UNL     1      13.580 -11.716  -8.365  1.00  0.00    -0.206 F 
ATOM    101  C   UNL     1      12.788  -9.514 -11.119  1.00  0.00     0.060 A 
BRANCH 101 102
ATOM    102  S   UNL     1      13.204  -9.307 -12.864  1.00  0.00     0.124 S 
ATOM    103  O   UNL     1      11.933  -9.600 -13.519  1.00  0.00    -0.237 OA
ATOM    104  O   UNL     1      13.642  -7.915 -12.923  1.00  0.00    -0.237 OA
ATOM    105  O   UNL     1      14.260 -10.292 -13.083  1.00  0.00    -0.744 OA
ENDBRANCH 101 102
ENDBRANCH  69  94
ENDBRANCH  43  44
ENDBRANCH  35  38
ENDBRANCH  33  34
ENDBRANCH  32  33
ENDBRANCH  31  32
ENDBRANCH   1  31
TORSDOF 22
