REMARK SMILES O=C(NCCCCCCNC(=O)c1cc(N2C(=O)[C@H]3[C@@H]4C=C[C@@H]([C@@H]5C[C@H]45)[C@@H]3C2=O)ccc1Cl)c1ccc(-c2c3nc(c(-c4c(F)cc(S(=O)(=O)[O-])cc4F)c4ccc([nH]4)c(-c4c(F)cc(S(=O)(=O)[O-])cc4F)c4nc(c(-c5c(F)cc(S(=O)(=O)[O-])cc5F)c5ccc2[nH]5)C=C4)C=C3)cc1
REMARK SMILES IDX 5 1 4 2 3 3 1 4 2 5 34 7 35 8 99 9 36 10 98 11 37 12 38 13
REMARK SMILES IDX 39 14 92 15 40 16 97 17 91 18 93 19 41 20 96 21 90 22 89 23
REMARK SMILES IDX 42 25 76 26 55 27 75 28 56 29 59 30 74 31 94 32 57 33 58 34
REMARK SMILES IDX 73 36 95 37 60 38 43 39 44 40 53 41 45 42 46 43 52 44 54 45
REMARK SMILES IDX 47 46 48 47 49 48 50 49 51 50 77 51 78 52 87 53 79 54 80 55
REMARK SMILES IDX 86 56 88 57 81 58 82 59 83 60 84 61 85 62 61 63 62 64 71 65
REMARK SMILES IDX 63 66 64 67 70 68 72 69 65 70 66 71 67 72 68 73 69 74 6 75
REMARK SMILES IDX 7 76 8 77 9 78 10 79 11 80 12 82 13 83 14 84 32 85 15 86
REMARK SMILES IDX 31 87 33 88 30 89 16 90 17 91 28 92 18 93 19 94 27 95 29 96
REMARK SMILES IDX 20 97 23 98 21 99 26 100 22 101 24 102 25 103
REMARK H PARENT 3 6 93 24 59 35 10 81
REMARK Flexibility Score: inf
ROOT
ATOM      1  C   UNL     1       4.780   2.352   0.977  1.00  0.00     0.021 C 
ENDROOT
BRANCH   1   2
ATOM      2  C   UNL     1       4.487   0.865   0.844  1.00  0.00     0.116 C 
BRANCH   2   3
ATOM      3  N   UNL     1       3.061   0.589   0.811  1.00  0.00    -0.352 N 
ATOM      4  O   UNL     1       1.119  -0.067  -0.130  1.00  0.00    -0.269 OA
ATOM      5  C   UNL     1       2.345  -0.088  -0.145  1.00  0.00     0.251 C 
ATOM      6  H   UNL     1       2.541   0.931   1.573  1.00  0.00     0.163 HD
BRANCH   5   7
ATOM      7  C   UNL     1       3.072  -0.831  -1.195  1.00  0.00     0.039 A 
ATOM      8  C   UNL     1       4.155  -1.648  -0.856  1.00  0.00     0.014 A 
ATOM      9  C   UNL     1       2.661  -0.717  -2.525  1.00  0.00     0.014 A 
ATOM     10  C   UNL     1       4.894  -2.266  -1.856  1.00  0.00     0.010 A 
ATOM     11  C   UNL     1       3.351  -1.413  -3.521  1.00  0.00     0.010 A 
ATOM     12  C   UNL     1       4.474  -2.190  -3.193  1.00  0.00    -0.014 A 
BRANCH  12  13
ATOM     13  C   UNL     1       5.131  -3.049  -4.208  1.00  0.00     0.031 A 
ATOM     14  C   UNL     1       5.884  -2.461  -5.366  1.00  0.00     0.074 A 
ATOM     15  C   UNL     1       5.007  -4.385  -4.074  1.00  0.00     0.049 A 
ATOM     16  N   UNL     1       6.465  -3.080  -6.361  1.00  0.00    -0.248 NA
ATOM     17  C   UNL     1       6.000  -0.995  -5.422  1.00  0.00     0.031 C 
ATOM     18  C   UNL     1       4.277  -5.057  -2.993  1.00  0.00     0.029 A 
ATOM     19  N   UNL     1       5.477  -5.418  -4.843  1.00  0.00    -0.354 N 
ATOM     20  C   UNL     1       6.990  -2.086  -7.177  1.00  0.00     0.074 A 
ATOM     21  C   UNL     1       6.657  -0.818  -6.563  1.00  0.00     0.031 C 
ATOM     22  C   UNL     1       4.360  -6.384  -3.160  1.00  0.00     0.029 A 
ATOM     23  C   UNL     1       5.081  -6.657  -4.396  1.00  0.00     0.049 A 
ATOM     24  H   UNL     1       6.043  -5.286  -5.638  1.00  0.00     0.167 HD
ATOM     25  C   UNL     1       7.683  -2.230  -8.332  1.00  0.00     0.037 A 
ATOM     26  C   UNL     1       5.233  -7.877  -4.943  1.00  0.00     0.037 A 
ATOM     27  C   UNL     1       8.020  -3.506  -8.914  1.00  0.00     0.049 A 
ATOM     28  C   UNL     1       5.973  -7.996  -6.244  1.00  0.00     0.074 A 
ATOM     29  C   UNL     1       8.790  -3.757 -10.037  1.00  0.00     0.029 A 
ATOM     30  N   UNL     1       7.592  -4.737  -8.441  1.00  0.00    -0.354 N 
ATOM     31  N   UNL     1       6.542  -7.051  -6.954  1.00  0.00    -0.248 NA
ATOM     32  C   UNL     1       6.088  -9.340  -6.825  1.00  0.00     0.031 C 
ATOM     33  C   UNL     1       8.767  -5.132 -10.283  1.00  0.00     0.029 A 
ATOM     34  C   UNL     1       8.038  -5.747  -9.278  1.00  0.00     0.049 A 
ATOM     35  H   UNL     1       7.051  -4.874  -7.629  1.00  0.00     0.167 HD
ATOM     36  C   UNL     1       7.089  -7.688  -8.061  1.00  0.00     0.074 A 
ATOM     37  C   UNL     1       6.810  -9.102  -7.910  1.00  0.00     0.031 C 
ATOM     38  C   UNL     1       7.753  -7.150  -9.112  1.00  0.00     0.037 A 
BRANCH  25  39
ATOM     39  C   UNL     1       8.113  -0.995  -9.075  1.00  0.00     0.058 A 
ATOM     40  C   UNL     1       9.165  -0.183  -8.626  1.00  0.00     0.135 A 
ATOM     41  C   UNL     1       7.536  -0.688 -10.320  1.00  0.00     0.135 A 
ATOM     42  F   UNL     1       9.744  -0.422  -7.438  1.00  0.00    -0.206 F 
ATOM     43  C   UNL     1       9.632   0.887  -9.384  1.00  0.00     0.059 A 
ATOM     44  C   UNL     1       8.003   0.361 -11.106  1.00  0.00     0.059 A 
ATOM     45  F   UNL     1       6.525  -1.431 -10.796  1.00  0.00    -0.206 F 
ATOM     46  C   UNL     1       9.051   1.145 -10.628  1.00  0.00     0.060 A 
BRANCH  46  47
ATOM     47  S   UNL     1       9.708   2.502 -11.621  1.00  0.00     0.124 S 
ATOM     48  O   UNL     1       9.275   3.664 -10.851  1.00  0.00    -0.237 OA
ATOM     49  O   UNL     1      11.142   2.232 -11.605  1.00  0.00    -0.237 OA
ATOM     50  O   UNL     1       9.054   2.329 -12.914  1.00  0.00    -0.744 OA
ENDBRANCH  46  47
ENDBRANCH  25  39
BRANCH  26  51
ATOM     51  C   UNL     1       4.622  -9.067  -4.293  1.00  0.00     0.058 A 
ATOM     52  C   UNL     1       5.415 -10.095  -3.763  1.00  0.00     0.135 A 
ATOM     53  C   UNL     1       3.227  -9.204  -4.200  1.00  0.00     0.135 A 
ATOM     54  F   UNL     1       6.752 -10.012  -3.827  1.00  0.00    -0.206 F 
ATOM     55  C   UNL     1       4.847 -11.231  -3.196  1.00  0.00     0.059 A 
ATOM     56  C   UNL     1       2.637 -10.312  -3.605  1.00  0.00     0.059 A 
ATOM     57  F   UNL     1       2.422  -8.239  -4.673  1.00  0.00    -0.206 F 
ATOM     58  C   UNL     1       3.456 -11.332  -3.125  1.00  0.00     0.060 A 
BRANCH  58  59
ATOM     59  S   UNL     1       2.731 -12.809  -2.385  1.00  0.00     0.124 S 
ATOM     60  O   UNL     1       2.988 -13.807  -3.416  1.00  0.00    -0.237 OA
ATOM     61  O   UNL     1       3.504 -12.946  -1.154  1.00  0.00    -0.237 OA
ATOM     62  O   UNL     1       1.331 -12.439  -2.199  1.00  0.00    -0.744 OA
ENDBRANCH  58  59
ENDBRANCH  26  51
BRANCH  38  63
ATOM     63  C   UNL     1       8.237  -8.092 -10.179  1.00  0.00     0.058 A 
ATOM     64  C   UNL     1       7.347  -8.700 -11.077  1.00  0.00     0.135 A 
ATOM     65  C   UNL     1       9.610  -8.334 -10.348  1.00  0.00     0.135 A 
ATOM     66  F   UNL     1       6.024  -8.514 -10.949  1.00  0.00    -0.206 F 
ATOM     67  C   UNL     1       7.801  -9.522 -12.103  1.00  0.00     0.059 A 
ATOM     68  C   UNL     1      10.088  -9.127 -11.385  1.00  0.00     0.059 A 
ATOM     69  F   UNL     1      10.503  -7.773  -9.517  1.00  0.00    -0.206 F 
ATOM     70  C   UNL     1       9.175  -9.721 -12.255  1.00  0.00     0.060 A 
BRANCH  70  71
ATOM     71  S   UNL     1       9.751 -10.736 -13.632  1.00  0.00     0.124 S 
ATOM     72  O   UNL     1       9.336 -12.069 -13.208  1.00  0.00    -0.237 OA
ATOM     73  O   UNL     1       9.017 -10.172 -14.761  1.00  0.00    -0.237 OA
ATOM     74  O   UNL     1      11.192 -10.503 -13.647  1.00  0.00    -0.744 OA
ENDBRANCH  70  71
ENDBRANCH  38  63
ENDBRANCH  12  13
ENDBRANCH   5   7
ENDBRANCH   2   3
ENDBRANCH   1   2
BRANCH   1  75
ATOM     75  C   UNL     1       4.296   2.975   2.285  1.00  0.00     0.002 C 
BRANCH  75  76
ATOM     76  C   UNL     1       4.808   2.292   3.558  1.00  0.00     0.002 C 
BRANCH  76  77
ATOM     77  C   UNL     1       6.330   2.142   3.657  1.00  0.00     0.021 C 
BRANCH  77  78
ATOM     78  C   UNL     1       7.111   3.439   3.479  1.00  0.00     0.116 C 
BRANCH  78  79
ATOM     79  N   UNL     1       6.748   4.429   4.477  1.00  0.00    -0.352 N 
ATOM     80  C   UNL     1       7.560   5.208   5.253  1.00  0.00     0.252 C 
ATOM     81  H   UNL     1       5.781   4.556   4.614  1.00  0.00     0.163 HD
ATOM     82  O   UNL     1       7.088   5.936   6.121  1.00  0.00    -0.269 OA
BRANCH  80  83
ATOM     83  C   UNL     1       9.020   5.142   5.096  1.00  0.00     0.060 A 
ATOM     84  C   UNL     1       9.751   4.731   6.221  1.00  0.00     0.042 A 
ATOM     85  C   UNL     1       9.677   5.547   3.927  1.00  0.00     0.053 A 
ATOM     86  C   UNL     1      11.143   4.764   6.188  1.00  0.00     0.053 A 
ATOM     87  C   UNL     1      11.069   5.495   3.872  1.00  0.00     0.023 A 
ATOM     88  Cl  UNL     1       8.855   6.168   2.543  1.00  0.00    -0.083 Cl
ATOM     89  C   UNL     1      11.798   5.132   5.004  1.00  0.00     0.028 A 
BRANCH  86  90
ATOM     90  N   UNL     1      11.906   4.365   7.300  1.00  0.00    -0.250 N 
ATOM     91  C   UNL     1      11.750   3.110   7.911  1.00  0.00     0.238 C 
ATOM     92  C   UNL     1      13.107   5.001   7.674  1.00  0.00     0.238 C 
ATOM     93  O   UNL     1      10.936   2.230   7.697  1.00  0.00    -0.274 OA
ATOM     94  C   UNL     1      12.841   3.076   8.932  1.00  0.00     0.100 C 
ATOM     95  C   UNL     1      13.913   3.854   8.164  1.00  0.00     0.100 C 
ATOM     96  O   UNL     1      13.489   6.137   7.481  1.00  0.00    -0.274 OA
ATOM     97  C   UNL     1      13.491   1.868   9.626  1.00  0.00     0.028 C 
ATOM     98  C   UNL     1      15.265   3.633   8.822  1.00  0.00     0.028 C 
ATOM     99  C   UNL     1      14.239   2.592  10.772  1.00  0.00    -0.026 C 
ATOM    100  C   UNL     1      14.607   1.167   8.828  1.00  0.00     0.001 C 
ATOM    101  C   UNL     1      15.108   3.541  10.350  1.00  0.00    -0.026 C 
ATOM    102  C   UNL     1      15.663   2.181   8.360  1.00  0.00     0.001 C 
ATOM    103  C   UNL     1      14.914   1.289   7.365  1.00  0.00     0.009 C 
ENDBRANCH  86  90
ENDBRANCH  80  83
ENDBRANCH  78  79
ENDBRANCH  77  78
ENDBRANCH  76  77
ENDBRANCH  75  76
ENDBRANCH   1  75
TORSDOF 17
