REMARK SMILES Cc1nc(-c2ccc(S(=O)(=O)N3CC[NH2+][C@H](C(=O)NCCCCCCNC(=O)c4ccc(-c5c6nc(c(-c7c(F)cc(S(=O)(=O)[O-])cc7F)c7ccc([nH]7)c(-c7c(F)cc(S(=O)(=O)[O-])cc7F)c7nc(c(-c8c(F)cc(S(=O)(=O)[O-])cc8F)c8ccc5[nH]8)C=C7)C=C6)cc4)C3)s2)cs1
REMARK SMILES IDX 22 1 21 2 20 3 19 4 17 5 18 6 16 8 12 9 13 10 95 11 14 12
REMARK SMILES IDX 15 13 9 16 10 17 11 18 8 19 5 20 6 21 96 22 7 23 4 24 1 25
REMARK SMILES IDX 2 26 3 27 98 28 97 29 23 30 24 31 25 32 26 33 27 34 28 36
REMARK SMILES IDX 29 37 30 38 94 39 31 40 93 41 32 42 33 43 34 44 87 45 35 46
REMARK SMILES IDX 92 47 86 48 88 49 36 50 91 51 85 52 84 53 37 55 71 56 50 57
REMARK SMILES IDX 70 58 51 59 54 60 69 61 89 62 52 63 53 64 68 66 90 67 55 68
REMARK SMILES IDX 38 69 39 70 48 71 40 72 41 73 47 74 49 75 42 76 43 77 44 78
REMARK SMILES IDX 45 79 46 80 72 81 73 82 82 83 74 84 75 85 81 86 83 87 76 88
REMARK SMILES IDX 77 89 78 90 79 91 80 92 56 93 57 94 66 95 58 96 59 97 65 98
REMARK SMILES IDX 67 99 60 100 61 101 62 102 63 103 64 104
REMARK H PARENT 19 7 15 14 15 15 26 35 88 54 54 65
REMARK Flexibility Score: inf
ROOT
ATOM      1  C   UNL     1       8.821  -5.825  -5.063  1.00  0.00     0.002 C 
ENDROOT
BRANCH   1   2
ATOM      2  C   UNL     1       8.214  -5.977  -3.659  1.00  0.00     0.021 C 
BRANCH   2   3
ATOM      3  C   UNL     1       7.367  -4.765  -3.263  1.00  0.00     0.116 C 
BRANCH   3   4
ATOM      4  N   UNL     1       6.101  -4.828  -3.964  1.00  0.00    -0.351 N 
ATOM      5  C   UNL     1       5.035  -5.644  -3.742  1.00  0.00     0.279 C 
ATOM      6  O   UNL     1       4.415  -6.003  -4.752  1.00  0.00    -0.268 OA
ATOM      7  H   UNL     1       5.997  -4.189  -4.706  1.00  0.00     0.163 HD
BRANCH   5   8
ATOM      8  C   UNL     1       4.498  -5.952  -2.316  1.00  0.00     0.287 C 
ATOM      9  N   UNL     1       4.728  -6.558   0.052  1.00  0.00    -0.185 NA
ATOM     10  C   UNL     1       3.696  -7.605   0.017  1.00  0.00     0.164 C 
ATOM     11  C   UNL     1       5.452  -6.463  -1.242  1.00  0.00     0.178 C 
ATOM     12  C   UNL     1       2.787  -7.476  -1.219  1.00  0.00     0.278 C 
ATOM     13  N   UNL     1       3.312  -6.864  -2.452  1.00  0.00    -0.334 N 
ATOM     14  H   UNL     1       2.556  -6.324  -2.873  1.00  0.00     0.347 HD
ATOM     15  H   UNL     1       3.647  -7.649  -3.011  1.00  0.00     0.347 HD
BRANCH   9  16
ATOM     16  S   UNL     1       4.525  -5.168   1.004  1.00  0.00     0.253 S 
ATOM     17  O   UNL     1       5.756  -4.406   0.893  1.00  0.00    -0.206 OA
ATOM     18  O   UNL     1       4.009  -5.596   2.284  1.00  0.00    -0.206 OA
BRANCH  16  19
ATOM     19  C   UNL     1       3.259  -4.051   0.391  1.00  0.00     0.135 A 
ATOM     20  C   UNL     1       1.816  -2.034   0.272  1.00  0.00     0.055 A 
ATOM     21  C   UNL     1       1.419  -3.009  -0.609  1.00  0.00     0.023 A 
ATOM     22  S   UNL     1       3.226  -2.478   1.119  1.00  0.00    -0.121 S 
ATOM     23  C   UNL     1       2.251  -4.149  -0.547  1.00  0.00     0.034 A 
BRANCH  20  24
ATOM     24  C   UNL     1       1.004  -0.790   0.421  1.00  0.00     0.091 A 
ATOM     25  C   UNL     1      -2.346   0.577   0.028  1.00  0.00     0.079 C 
ATOM     26  C   UNL     1      -0.899   0.330   0.267  1.00  0.00     0.090 A 
ATOM     27  N   UNL     1      -0.305  -0.798  -0.036  1.00  0.00    -0.241 NA
ATOM     28  S   UNL     1       0.113   1.520   0.977  1.00  0.00    -0.127 S 
ATOM     29  C   UNL     1       1.417   0.395   0.989  1.00  0.00     0.096 A 
ENDBRANCH  20  24
ENDBRANCH  16  19
ENDBRANCH   9  16
ENDBRANCH   5   8
ENDBRANCH   3   4
ENDBRANCH   2   3
ENDBRANCH   1   2
BRANCH   1  30
ATOM     30  C   UNL     1       9.854  -4.698  -5.180  1.00  0.00     0.002 C 
BRANCH  30  31
ATOM     31  C   UNL     1      11.017  -4.798  -4.190  1.00  0.00     0.021 C 
BRANCH  31  32
ATOM     32  C   UNL     1      11.822  -6.087  -4.307  1.00  0.00     0.116 C 
BRANCH  32  33
ATOM     33  N   UNL     1      12.483  -6.180  -5.599  1.00  0.00    -0.352 N 
ATOM     34  C   UNL     1      13.811  -6.385  -5.868  1.00  0.00     0.251 C 
ATOM     35  H   UNL     1      11.898  -6.083  -6.385  1.00  0.00     0.163 HD
ATOM     36  O   UNL     1      14.248  -6.184  -6.997  1.00  0.00    -0.269 OA
BRANCH  34  37
ATOM     37  C   UNL     1      14.710  -6.843  -4.789  1.00  0.00     0.039 A 
ATOM     38  C   UNL     1      15.962  -6.241  -4.647  1.00  0.00     0.014 A 
ATOM     39  C   UNL     1      14.322  -7.881  -3.935  1.00  0.00     0.014 A 
ATOM     40  C   UNL     1      16.815  -6.661  -3.626  1.00  0.00     0.010 A 
ATOM     41  C   UNL     1      15.146  -8.252  -2.879  1.00  0.00     0.010 A 
ATOM     42  C   UNL     1      16.408  -7.659  -2.725  1.00  0.00    -0.014 A 
BRANCH  42  43
ATOM     43  C   UNL     1      17.305  -8.119  -1.637  1.00  0.00     0.031 A 
ATOM     44  C   UNL     1      17.836  -9.527  -1.649  1.00  0.00     0.074 A 
ATOM     45  C   UNL     1      17.599  -7.289  -0.619  1.00  0.00     0.049 A 
ATOM     46  N   UNL     1      18.588 -10.134  -0.768  1.00  0.00    -0.248 NA
ATOM     47  C   UNL     1      17.446 -10.374  -2.789  1.00  0.00     0.031 C 
ATOM     48  C   UNL     1      17.102  -5.919  -0.473  1.00  0.00     0.029 A 
ATOM     49  N   UNL     1      18.381  -7.478   0.492  1.00  0.00    -0.354 N 
ATOM     50  C   UNL     1      18.747 -11.433  -1.236  1.00  0.00     0.074 A 
ATOM     51  C   UNL     1      17.971 -11.543  -2.452  1.00  0.00     0.031 C 
ATOM     52  C   UNL     1      17.608  -5.385   0.651  1.00  0.00     0.029 A 
ATOM     53  C   UNL     1      18.440  -6.382   1.318  1.00  0.00     0.049 A 
ATOM     54  H   UNL     1      18.855  -8.320   0.680  1.00  0.00     0.167 HD
ATOM     55  C   UNL     1      19.492 -12.437  -0.714  1.00  0.00     0.037 A 
ATOM     56  C   UNL     1      19.092  -6.202   2.483  1.00  0.00     0.037 A 
ATOM     57  C   UNL     1      20.288 -12.310   0.479  1.00  0.00     0.049 A 
ATOM     58  C   UNL     1      19.933  -7.322   3.031  1.00  0.00     0.074 A 
ATOM     59  C   UNL     1      21.125 -13.246   1.060  1.00  0.00     0.029 A 
ATOM     60  N   UNL     1      20.349 -11.172   1.271  1.00  0.00    -0.354 N 
ATOM     61  N   UNL     1      20.121  -8.526   2.543  1.00  0.00    -0.248 NA
ATOM     62  C   UNL     1      20.660  -7.058   4.279  1.00  0.00     0.031 C 
ATOM     63  C   UNL     1      21.666 -12.685   2.223  1.00  0.00     0.029 A 
ATOM     64  C   UNL     1      21.199 -11.386   2.343  1.00  0.00     0.049 A 
ATOM     65  H   UNL     1      19.860 -10.336   1.097  1.00  0.00     0.167 HD
ATOM     66  C   UNL     1      21.006  -9.154   3.413  1.00  0.00     0.074 A 
ATOM     67  C   UNL     1      21.326  -8.192   4.448  1.00  0.00     0.031 C 
ATOM     68  C   UNL     1      21.508 -10.413   3.360  1.00  0.00     0.037 A 
BRANCH  55  69
ATOM     69  C   UNL     1      19.486 -13.755  -1.437  1.00  0.00     0.058 A 
ATOM     70  C   UNL     1      20.119 -13.916  -2.680  1.00  0.00     0.135 A 
ATOM     71  C   UNL     1      18.858 -14.878  -0.874  1.00  0.00     0.135 A 
ATOM     72  F   UNL     1      20.721 -12.871  -3.272  1.00  0.00    -0.206 F 
ATOM     73  C   UNL     1      20.102 -15.132  -3.355  1.00  0.00     0.059 A 
ATOM     74  C   UNL     1      18.852 -16.112  -1.518  1.00  0.00     0.059 A 
ATOM     75  F   UNL     1      18.236 -14.781   0.312  1.00  0.00    -0.206 F 
ATOM     76  C   UNL     1      19.462 -16.224  -2.767  1.00  0.00     0.060 A 
BRANCH  76  77
ATOM     77  S   UNL     1      19.445 -17.796  -3.655  1.00  0.00     0.124 S 
ATOM     78  O   UNL     1      18.453 -17.531  -4.694  1.00  0.00    -0.237 OA
ATOM     79  O   UNL     1      20.826 -17.912  -4.114  1.00  0.00    -0.237 OA
ATOM     80  O   UNL     1      19.043 -18.758  -2.635  1.00  0.00    -0.744 OA
ENDBRANCH  76  77
ENDBRANCH  55  69
BRANCH  56  81
ATOM     81  C   UNL     1      19.002  -4.897   3.190  1.00  0.00     0.058 A 
ATOM     82  C   UNL     1      20.097  -4.022   3.226  1.00  0.00     0.135 A 
ATOM     83  C   UNL     1      17.819  -4.494   3.828  1.00  0.00     0.135 A 
ATOM     84  F   UNL     1      21.251  -4.366   2.634  1.00  0.00    -0.206 F 
ATOM     85  C   UNL     1      20.030  -2.798   3.883  1.00  0.00     0.059 A 
ATOM     86  C   UNL     1      17.720  -3.264   4.472  1.00  0.00     0.059 A 
ATOM     87  F   UNL     1      16.738  -5.288   3.805  1.00  0.00    -0.206 F 
ATOM     88  C   UNL     1      18.835  -2.428   4.503  1.00  0.00     0.060 A 
BRANCH  88  89
ATOM     89  S   UNL     1      18.742  -0.815   5.312  1.00  0.00     0.124 S 
ATOM     90  O   UNL     1      19.508  -1.054   6.530  1.00  0.00    -0.237 OA
ATOM     91  O   UNL     1      19.367   0.060   4.325  1.00  0.00    -0.237 OA
ATOM     92  O   UNL     1      17.308  -0.615   5.495  1.00  0.00    -0.744 OA
ENDBRANCH  88  89
ENDBRANCH  56  81
BRANCH  68  93
ATOM     93  C   UNL     1      22.480 -10.809   4.436  1.00  0.00     0.058 A 
ATOM     94  C   UNL     1      22.059 -11.072   5.748  1.00  0.00     0.135 A 
ATOM     95  C   UNL     1      23.844 -10.963   4.139  1.00  0.00     0.135 A 
ATOM     96  F   UNL     1      20.767 -10.934   6.084  1.00  0.00    -0.206 F 
ATOM     97  C   UNL     1      22.962 -11.446   6.738  1.00  0.00     0.059 A 
ATOM     98  C   UNL     1      24.760 -11.361   5.107  1.00  0.00     0.059 A 
ATOM     99  F   UNL     1      24.296 -10.735   2.895  1.00  0.00    -0.206 F 
ATOM    100  C   UNL     1      24.311 -11.586   6.408  1.00  0.00     0.060 A 
BRANCH 100 101
ATOM    101  S   UNL     1      25.472 -12.091   7.695  1.00  0.00     0.124 S 
ATOM    102  O   UNL     1      25.629 -10.854   8.451  1.00  0.00    -0.237 OA
ATOM    103  O   UNL     1      24.744 -13.160   8.372  1.00  0.00    -0.237 OA
ATOM    104  O   UNL     1      26.646 -12.522   6.942  1.00  0.00    -0.744 OA
ENDBRANCH 100 101
ENDBRANCH  68  93
ENDBRANCH  42  43
ENDBRANCH  34  37
ENDBRANCH  32  33
ENDBRANCH  31  32
ENDBRANCH  30  31
ENDBRANCH   1  30
TORSDOF 19
