REMARK SMILES O=C(NCCCCCCNC(=O)[C@H]1CC[C@@H](CNc2ccccc2C(F)(F)F)O1)c1ccc(-c2c3nc(c(-c4c(F)cc(S(=O)(=O)[O-])cc4F)c4ccc([nH]4)c(-c4c(F)cc(S(=O)(=O)[O-])cc4F)c4nc(c(-c5c(F)cc(S(=O)(=O)[O-])cc5F)c5ccc2[nH]5)C=C4)C=C3)cc1
REMARK SMILES IDX 7 1 6 2 5 3 4 4 3 5 1 6 2 7 30 9 31 10 95 11 32 12 94 13
REMARK SMILES IDX 33 14 34 15 35 16 88 17 36 18 93 19 87 20 89 21 37 22 92 23
REMARK SMILES IDX 86 24 85 25 38 27 72 28 51 29 71 30 52 31 55 32 70 33 90 34
REMARK SMILES IDX 53 35 54 36 69 38 91 39 56 40 39 41 40 42 49 43 41 44 42 45
REMARK SMILES IDX 48 46 50 47 43 48 44 49 45 50 46 51 47 52 73 53 74 54 83 55
REMARK SMILES IDX 75 56 76 57 82 58 84 59 77 60 78 61 79 62 80 63 81 64 57 65
REMARK SMILES IDX 58 66 67 67 59 68 60 69 66 70 68 71 61 72 62 73 63 74 64 75
REMARK SMILES IDX 65 76 8 77 9 78 10 79 11 80 12 82 13 83 14 84 29 85 15 86
REMARK SMILES IDX 16 87 17 88 18 89 19 91 20 92 24 93 21 94 23 95 22 96 25 97
REMARK SMILES IDX 26 98 27 99 28 100
REMARK H PARENT 3 8 89 26 55 37 10 81 18 90
REMARK Flexibility Score: inf
ROOT
ATOM      1  C   UNL     1      13.455  -4.455   8.655  1.00  0.00     0.002 C 
ENDROOT
BRANCH   1   2
ATOM      2  C   UNL     1      13.782  -5.929   8.933  1.00  0.00     0.002 C 
BRANCH   2   3
ATOM      3  C   UNL     1      14.295  -6.734   7.732  1.00  0.00     0.021 C 
BRANCH   3   4
ATOM      4  C   UNL     1      15.561  -6.180   7.082  1.00  0.00     0.116 C 
BRANCH   4   5
ATOM      5  N   UNL     1      16.689  -6.217   7.997  1.00  0.00    -0.352 N 
ATOM      6  O   UNL     1      18.541  -7.059   8.949  1.00  0.00    -0.269 OA
ATOM      7  C   UNL     1      17.829  -6.979   7.952  1.00  0.00     0.251 C 
ATOM      8  H   UNL     1      16.626  -5.603   8.763  1.00  0.00     0.163 HD
BRANCH   7   9
ATOM      9  C   UNL     1      18.203  -7.704   6.717  1.00  0.00     0.039 A 
ATOM     10  C   UNL     1      18.142  -7.083   5.465  1.00  0.00     0.014 A 
ATOM     11  C   UNL     1      18.700  -9.006   6.829  1.00  0.00     0.014 A 
ATOM     12  C   UNL     1      18.500  -7.790   4.318  1.00  0.00     0.010 A 
ATOM     13  C   UNL     1      19.109  -9.694   5.685  1.00  0.00     0.010 A 
ATOM     14  C   UNL     1      19.001  -9.096   4.419  1.00  0.00    -0.014 A 
BRANCH  14  15
ATOM     15  C   UNL     1      19.479  -9.818   3.213  1.00  0.00     0.031 A 
ATOM     16  C   UNL     1      18.766 -11.043   2.720  1.00  0.00     0.074 A 
ATOM     17  C   UNL     1      20.598  -9.393   2.596  1.00  0.00     0.049 A 
ATOM     18  N   UNL     1      19.092 -11.852   1.745  1.00  0.00    -0.248 NA
ATOM     19  C   UNL     1      17.530 -11.416   3.424  1.00  0.00     0.031 C 
ATOM     20  C   UNL     1      21.386  -8.226   2.997  1.00  0.00     0.029 A 
ATOM     21  N   UNL     1      21.280  -9.903   1.521  1.00  0.00    -0.354 N 
ATOM     22  C   UNL     1      18.118 -12.843   1.730  1.00  0.00     0.074 A 
ATOM     23  C   UNL     1      17.198 -12.543   2.809  1.00  0.00     0.031 C 
ATOM     24  C   UNL     1      22.447  -8.113   2.185  1.00  0.00     0.029 A 
ATOM     25  C   UNL     1      22.442  -9.225   1.239  1.00  0.00     0.049 A 
ATOM     26  H   UNL     1      20.968 -10.679   1.002  1.00  0.00     0.167 HD
ATOM     27  C   UNL     1      18.003 -13.902   0.893  1.00  0.00     0.037 A 
ATOM     28  C   UNL     1      23.415  -9.486   0.345  1.00  0.00     0.037 A 
ATOM     29  C   UNL     1      18.922 -14.187  -0.179  1.00  0.00     0.049 A 
ATOM     30  C   UNL     1      23.280 -10.672  -0.564  1.00  0.00     0.074 A 
ATOM     31  C   UNL     1      18.865 -15.205  -1.115  1.00  0.00     0.029 A 
ATOM     32  N   UNL     1      20.076 -13.463  -0.448  1.00  0.00    -0.354 N 
ATOM     33  N   UNL     1      22.323 -11.569  -0.604  1.00  0.00    -0.248 NA
ATOM     34  C   UNL     1      24.347 -10.885  -1.550  1.00  0.00     0.031 C 
ATOM     35  C   UNL     1      20.006 -15.123  -1.921  1.00  0.00     0.029 A 
ATOM     36  C   UNL     1      20.751 -14.025  -1.519  1.00  0.00     0.049 A 
ATOM     37  H   UNL     1      20.370 -12.666   0.050  1.00  0.00     0.167 HD
ATOM     38  C   UNL     1      22.662 -12.442  -1.630  1.00  0.00     0.074 A 
ATOM     39  C   UNL     1      23.911 -11.965  -2.188  1.00  0.00     0.031 C 
ATOM     40  C   UNL     1      21.992 -13.535  -2.070  1.00  0.00     0.037 A 
BRANCH  27  41
ATOM     41  C   UNL     1      16.856 -14.847   1.127  1.00  0.00     0.058 A 
ATOM     42  C   UNL     1      15.528 -14.483   0.853  1.00  0.00     0.135 A 
ATOM     43  C   UNL     1      17.089 -16.135   1.637  1.00  0.00     0.135 A 
ATOM     44  F   UNL     1      15.246 -13.261   0.374  1.00  0.00    -0.206 F 
ATOM     45  C   UNL     1      14.468 -15.344   1.122  1.00  0.00     0.059 A 
ATOM     46  C   UNL     1      16.046 -17.022   1.888  1.00  0.00     0.059 A 
ATOM     47  F   UNL     1      18.340 -16.538   1.910  1.00  0.00    -0.206 F 
ATOM     48  C   UNL     1      14.737 -16.607   1.651  1.00  0.00     0.060 A 
BRANCH  48  49
ATOM     49  S   UNL     1      13.350 -17.696   2.041  1.00  0.00     0.124 S 
ATOM     50  O   UNL     1      12.850 -17.096   3.274  1.00  0.00    -0.237 OA
ATOM     51  O   UNL     1      12.491 -17.545   0.870  1.00  0.00    -0.237 OA
ATOM     52  O   UNL     1      13.977 -19.006   2.189  1.00  0.00    -0.744 OA
ENDBRANCH  48  49
ENDBRANCH  27  41
BRANCH  28  53
ATOM     53  C   UNL     1      24.599  -8.590   0.292  1.00  0.00     0.058 A 
ATOM     54  C   UNL     1      24.753  -7.655  -0.740  1.00  0.00     0.135 A 
ATOM     55  C   UNL     1      25.546  -8.586   1.329  1.00  0.00     0.135 A 
ATOM     56  F   UNL     1      23.875  -7.624  -1.754  1.00  0.00    -0.206 F 
ATOM     57  C   UNL     1      25.797  -6.735  -0.736  1.00  0.00     0.059 A 
ATOM     58  C   UNL     1      26.585  -7.663   1.366  1.00  0.00     0.059 A 
ATOM     59  F   UNL     1      25.430  -9.453   2.348  1.00  0.00    -0.206 F 
ATOM     60  C   UNL     1      26.701  -6.739   0.329  1.00  0.00     0.060 A 
BRANCH  60  61
ATOM     61  S   UNL     1      27.984  -5.469   0.380  1.00  0.00     0.124 S 
ATOM     62  O   UNL     1      28.908  -5.943  -0.644  1.00  0.00    -0.237 OA
ATOM     63  O   UNL     1      27.233  -4.261   0.052  1.00  0.00    -0.237 OA
ATOM     64  O   UNL     1      28.472  -5.539   1.754  1.00  0.00    -0.744 OA
ENDBRANCH  60  61
ENDBRANCH  28  53
BRANCH  40  65
ATOM     65  C   UNL     1      22.570 -14.286  -3.236  1.00  0.00     0.058 A 
ATOM     66  C   UNL     1      23.664 -15.152  -3.085  1.00  0.00     0.135 A 
ATOM     67  C   UNL     1      21.957 -14.213  -4.497  1.00  0.00     0.135 A 
ATOM     68  F   UNL     1      24.291 -15.248  -1.902  1.00  0.00    -0.206 F 
ATOM     69  C   UNL     1      24.128 -15.925  -4.145  1.00  0.00     0.059 A 
ATOM     70  C   UNL     1      22.391 -14.992  -5.565  1.00  0.00     0.059 A 
ATOM     71  F   UNL     1      20.905 -13.403  -4.691  1.00  0.00    -0.206 F 
ATOM     72  C   UNL     1      23.478 -15.845  -5.379  1.00  0.00     0.060 A 
BRANCH  72  73
ATOM     73  S   UNL     1      24.036 -16.914  -6.723  1.00  0.00     0.124 S 
ATOM     74  O   UNL     1      25.272 -16.254  -7.131  1.00  0.00    -0.237 OA
ATOM     75  O   UNL     1      24.196 -18.202  -6.054  1.00  0.00    -0.237 OA
ATOM     76  O   UNL     1      22.941 -16.848  -7.686  1.00  0.00    -0.744 OA
ENDBRANCH  72  73
ENDBRANCH  40  65
ENDBRANCH  14  15
ENDBRANCH   7   9
ENDBRANCH   4   5
ENDBRANCH   3   4
ENDBRANCH   2   3
ENDBRANCH   1   2
BRANCH   1  77
ATOM     77  C   UNL     1      12.491  -4.222   7.489  1.00  0.00     0.021 C 
BRANCH  77  78
ATOM     78  C   UNL     1      11.075  -4.741   7.737  1.00  0.00     0.116 C 
BRANCH  78  79
ATOM     79  N   UNL     1      10.242  -3.721   8.343  1.00  0.00    -0.354 N 
ATOM     80  C   UNL     1       9.287  -2.905   7.819  1.00  0.00     0.249 C 
ATOM     81  H   UNL     1      10.395  -3.595   9.308  1.00  0.00     0.163 HD
ATOM     82  O   UNL     1       8.755  -2.100   8.593  1.00  0.00    -0.272 OA
BRANCH  80  83
ATOM     83  C   UNL     1       8.856  -2.943   6.327  1.00  0.00     0.207 C 
ATOM     84  C   UNL     1       9.148  -1.606   5.651  1.00  0.00     0.045 C 
ATOM     85  O   UNL     1       9.365  -3.951   5.464  1.00  0.00    -0.363 OA
ATOM     86  C   UNL     1      10.357  -1.915   4.801  1.00  0.00     0.037 C 
ATOM     87  C   UNL     1      10.084  -3.346   4.372  1.00  0.00     0.138 C 
BRANCH  87  88
ATOM     88  C   UNL     1      11.357  -4.157   4.080  1.00  0.00     0.145 C 
BRANCH  88  89
ATOM     89  N   UNL     1      11.738  -4.096   2.681  1.00  0.00    -0.382 N 
ATOM     90  H   UNL     1      11.136  -4.549   2.047  1.00  0.00     0.160 HD
BRANCH  89  91
ATOM     91  C   UNL     1      12.845  -3.478   2.136  1.00  0.00     0.046 A 
ATOM     92  C   UNL     1      12.634  -2.856   0.887  1.00  0.00     0.026 A 
ATOM     93  C   UNL     1      14.122  -3.360   2.714  1.00  0.00     0.079 A 
ATOM     94  C   UNL     1      13.623  -2.112   0.242  1.00  0.00     0.002 A 
ATOM     95  C   UNL     1      15.108  -2.578   2.061  1.00  0.00     0.015 A 
ATOM     96  C   UNL     1      14.862  -1.959   0.840  1.00  0.00     0.001 A 
BRANCH  93  97
ATOM     97  C   UNL     1      14.562  -4.046   3.984  1.00  0.00     0.418 C 
ATOM     98  F   UNL     1      15.899  -4.335   4.008  1.00  0.00    -0.166 F 
ATOM     99  F   UNL     1      14.358  -3.267   5.089  1.00  0.00    -0.166 F 
ATOM    100  F   UNL     1      13.952  -5.236   4.253  1.00  0.00    -0.166 F 
ENDBRANCH  93  97
ENDBRANCH  89  91
ENDBRANCH  88  89
ENDBRANCH  87  88
ENDBRANCH  80  83
ENDBRANCH  78  79
ENDBRANCH  77  78
ENDBRANCH   1  77
TORSDOF 20
