REMARK SMILES CC(C)C[C@H](NC(=O)[C@@H](NC(=O)N1CC(NCCCCCCNC(=O)c2ccc(-c3c4nc(c(-c5c(F)cc(S(=O)(=O)[O-])cc5F)c5ccc([nH]5)c(-c5c(F)cc(S(=O)(=O)[O-])cc5F)c5nc(c(-c6c(F)cc(S(=O)(=O)[O-])cc6F)c6ccc3[nH]6)C=C5)C=C4)cc2)=[NH+]c2ccccc21)C(C)C)C(=O)[O-]
REMARK SMILES IDX 18 1 17 2 16 3 13 4 14 5 98 6 15 7 93 8 97 9 92 10 94 11
REMARK SMILES IDX 96 12 95 15 11 16 10 17 12 19 9 20 7 21 6 22 8 24 5 25 4 26
REMARK SMILES IDX 2 27 1 28 3 29 102 30 103 31 104 32 99 33 100 34 101 35
REMARK SMILES IDX 19 36 20 37 21 38 22 39 23 40 24 41 25 43 26 44 27 45 91 46
REMARK SMILES IDX 28 47 90 48 29 49 30 50 31 51 84 52 32 53 89 54 83 55 85 56
REMARK SMILES IDX 33 57 88 58 82 59 81 60 34 62 68 63 47 64 67 65 48 66 51 67
REMARK SMILES IDX 66 68 86 69 49 70 50 71 65 73 87 74 52 75 35 76 36 77 45 78
REMARK SMILES IDX 37 79 38 80 44 81 46 82 39 83 40 84 41 85 42 86 43 87 69 88
REMARK SMILES IDX 70 89 79 90 71 91 72 92 78 93 80 94 73 95 74 96 75 97 76 98
REMARK SMILES IDX 77 99 53 100 54 101 63 102 55 103 56 104 62 105 64 106
REMARK SMILES IDX 57 107 58 108 59 109 60 110 61 111
REMARK H PARENT 16 13 92 14 10 18 6 23 23 42 85 61 51 72
REMARK Flexibility Score: inf
ROOT
ATOM      1  C   UNL     1      -4.883  -1.962   2.281  1.00  0.00     0.046 C 
ENDROOT
BRANCH   1   2
ATOM      2  C   UNL     1      -4.145  -3.296   2.122  1.00  0.00     0.233 C 
BRANCH   2   3
ATOM      3  N   UNL     1      -3.359  -3.320   0.908  1.00  0.00    -0.277 N 
ATOM      4  N   UNL     1       0.170  -3.096   1.357  1.00  0.00    -0.278 N 
ATOM      5  C   UNL     1      -1.037  -3.738   1.883  1.00  0.00     0.255 C 
ATOM      6  C   UNL     1       0.681  -3.850   0.275  1.00  0.00     0.093 A 
ATOM      7  C   UNL     1      -2.048  -3.694   0.728  1.00  0.00     0.268 C 
ATOM      8  C   UNL     1      -0.284  -4.310  -0.653  1.00  0.00     0.148 A 
ATOM      9  C   UNL     1       2.034  -4.150   0.125  1.00  0.00     0.031 A 
ATOM     10  N   UNL     1      -1.663  -4.011  -0.486  1.00  0.00    -0.241 N 
ATOM     11  C   UNL     1       0.153  -4.964  -1.800  1.00  0.00     0.054 A 
ATOM     12  C   UNL     1       2.447  -4.853  -1.006  1.00  0.00     0.002 A 
ATOM     13  H   UNL     1      -3.829  -3.026   0.095  1.00  0.00     0.304 HD
ATOM     14  H   UNL     1      -2.295  -4.040  -1.240  1.00  0.00     0.312 HD
ATOM     15  C   UNL     1       1.515  -5.230  -1.979  1.00  0.00     0.005 A 
BRANCH   4  16
ATOM     16  C   UNL     1       0.862  -2.179   2.079  1.00  0.00     0.323 C 
ATOM     17  N   UNL     1       1.192  -0.965   1.564  1.00  0.00    -0.326 N 
ATOM     18  H   UNL     1       1.639  -0.425   2.255  1.00  0.00     0.166 HD
ATOM     19  O   UNL     1       1.118  -2.356   3.273  1.00  0.00    -0.248 OA
BRANCH  17  20
ATOM     20  C   UNL     1       1.101  -0.177   0.296  1.00  0.00     0.175 C 
BRANCH  20  21
ATOM     21  C   UNL     1       0.459   1.234   0.363  1.00  0.00     0.243 C 
ATOM     22  N   UNL     1      -0.712   1.505   0.979  1.00  0.00    -0.346 N 
ATOM     23  H   UNL     1      -1.059   2.410   0.803  1.00  0.00     0.164 HD
ATOM     24  O   UNL     1       0.945   2.159  -0.302  1.00  0.00    -0.273 OA
BRANCH  22  25
ATOM     25  C   UNL     1      -1.558   0.699   1.858  1.00  0.00     0.128 C 
BRANCH  25  26
ATOM     26  C   UNL     1      -1.202   1.057   3.314  1.00  0.00     0.034 C 
BRANCH  26  27
ATOM     27  C   UNL     1      -1.867   0.257   4.454  1.00  0.00    -0.015 C 
ATOM     28  C   UNL     1      -1.859  -1.241   4.237  1.00  0.00     0.007 C 
ATOM     29  C   UNL     1      -1.150   0.545   5.776  1.00  0.00     0.007 C 
ENDBRANCH  26  27
ENDBRANCH  25  26
BRANCH  25  30
ATOM     30  C   UNL     1      -2.999   0.999   1.419  1.00  0.00     0.064 C 
ATOM     31  O   UNL     1      -3.454   0.807   0.300  1.00  0.00    -0.548 OA
ATOM     32  O   UNL     1      -3.770   1.596   2.345  1.00  0.00    -0.548 OA
ENDBRANCH  25  30
ENDBRANCH  22  25
ENDBRANCH  20  21
BRANCH  20  33
ATOM     33  C   UNL     1       0.734  -0.921  -1.006  1.00  0.00     0.015 C 
ATOM     34  C   UNL     1      -0.042  -0.155  -2.085  1.00  0.00     0.010 C 
ATOM     35  C   UNL     1       2.025  -1.442  -1.653  1.00  0.00     0.010 C 
ENDBRANCH  20  33
ENDBRANCH  17  20
ENDBRANCH   4  16
ENDBRANCH   2   3
ENDBRANCH   1   2
BRANCH   1  36
ATOM     36  C   UNL     1      -5.953  -1.665   1.226  1.00  0.00     0.004 C 
BRANCH  36  37
ATOM     37  C   UNL     1      -7.171  -2.592   1.263  1.00  0.00     0.002 C 
BRANCH  37  38
ATOM     38  C   UNL     1      -7.956  -2.583   2.577  1.00  0.00     0.021 C 
BRANCH  38  39
ATOM     39  C   UNL     1      -8.555  -1.232   2.960  1.00  0.00     0.116 C 
BRANCH  39  40
ATOM     40  N   UNL     1      -9.629  -0.828   2.063  1.00  0.00    -0.352 N 
ATOM     41  C   UNL     1     -10.925  -0.487   2.369  1.00  0.00     0.251 C 
ATOM     42  H   UNL     1      -9.395  -0.795   1.107  1.00  0.00     0.163 HD
ATOM     43  O   UNL     1     -11.759  -0.357   1.475  1.00  0.00    -0.269 OA
BRANCH  41  44
ATOM     44  C   UNL     1     -11.316  -0.298   3.783  1.00  0.00     0.039 A 
ATOM     45  C   UNL     1     -12.467  -0.926   4.265  1.00  0.00     0.014 A 
ATOM     46  C   UNL     1     -10.527   0.478   4.636  1.00  0.00     0.014 A 
ATOM     47  C   UNL     1     -12.786  -0.836   5.623  1.00  0.00     0.010 A 
ATOM     48  C   UNL     1     -10.807   0.507   6.000  1.00  0.00     0.010 A 
ATOM     49  C   UNL     1     -11.937  -0.154   6.510  1.00  0.00    -0.014 A 
BRANCH  49  50
ATOM     50  C   UNL     1     -12.196  -0.128   7.974  1.00  0.00     0.031 A 
ATOM     51  C   UNL     1     -12.450   1.180   8.673  1.00  0.00     0.074 A 
ATOM     52  C   UNL     1     -12.118  -1.270   8.687  1.00  0.00     0.049 A 
ATOM     53  N   UNL     1     -12.590   1.421   9.951  1.00  0.00    -0.248 NA
ATOM     54  C   UNL     1     -12.529   2.381   7.825  1.00  0.00     0.031 C 
ATOM     55  C   UNL     1     -11.835  -2.596   8.133  1.00  0.00     0.029 A 
ATOM     56  N   UNL     1     -12.252  -1.498  10.035  1.00  0.00    -0.354 N 
ATOM     57  C   UNL     1     -12.755   2.796  10.063  1.00  0.00     0.074 A 
ATOM     58  C   UNL     1     -12.646   3.343   8.728  1.00  0.00     0.031 C 
ATOM     59  C   UNL     1     -11.831  -3.498   9.128  1.00  0.00     0.029 A 
ATOM     60  C   UNL     1     -12.065  -2.812  10.395  1.00  0.00     0.049 A 
ATOM     61  H   UNL     1     -12.461  -0.787  10.683  1.00  0.00     0.167 HD
ATOM     62  C   UNL     1     -12.996   3.534  11.174  1.00  0.00     0.037 A 
ATOM     63  C   UNL     1     -12.066  -3.399  11.609  1.00  0.00     0.037 A 
ATOM     64  C   UNL     1     -13.123   2.979  12.497  1.00  0.00     0.049 A 
ATOM     65  C   UNL     1     -12.326  -2.558  12.830  1.00  0.00     0.074 A 
ATOM     66  C   UNL     1     -13.424   3.635  13.678  1.00  0.00     0.029 A 
ATOM     67  N   UNL     1     -12.954   1.640  12.817  1.00  0.00    -0.354 N 
ATOM     68  N   UNL     1     -12.541  -1.266  12.911  1.00  0.00    -0.248 NA
ATOM     69  C   UNL     1     -12.350  -3.252  14.125  1.00  0.00     0.031 C 
ATOM     70  C   UNL     1     -13.382   2.702  14.719  1.00  0.00     0.029 A 
ATOM     71  C   UNL     1     -13.119   1.453  14.180  1.00  0.00     0.049 A 
ATOM     72  H   UNL     1     -12.746   0.927  12.170  1.00  0.00     0.167 HD
ATOM     73  C   UNL     1     -12.760  -1.000  14.258  1.00  0.00     0.074 A 
ATOM     74  C   UNL     1     -12.657  -2.265  14.955  1.00  0.00     0.031 C 
ATOM     75  C   UNL     1     -13.027   0.185  14.861  1.00  0.00     0.037 A 
BRANCH  62  76
ATOM     76  C   UNL     1     -13.134   5.024  11.009  1.00  0.00     0.058 A 
ATOM     77  C   UNL     1     -14.233   5.597  10.348  1.00  0.00     0.135 A 
ATOM     78  C   UNL     1     -12.174   5.894  11.550  1.00  0.00     0.135 A 
ATOM     79  F   UNL     1     -15.176   4.814   9.798  1.00  0.00    -0.206 F 
ATOM     80  C   UNL     1     -14.358   6.974  10.201  1.00  0.00     0.059 A 
ATOM     81  C   UNL     1     -12.295   7.277  11.444  1.00  0.00     0.059 A 
ATOM     82  F   UNL     1     -11.102   5.403  12.193  1.00  0.00    -0.206 F 
ATOM     83  C   UNL     1     -13.383   7.807  10.753  1.00  0.00     0.060 A 
BRANCH  83  84
ATOM     84  S   UNL     1     -13.562   9.592  10.554  1.00  0.00     0.124 S 
ATOM     85  O   UNL     1     -13.267   9.756   9.134  1.00  0.00    -0.237 OA
ATOM     86  O   UNL     1     -14.951   9.811  10.943  1.00  0.00    -0.237 OA
ATOM     87  O   UNL     1     -12.564  10.138  11.468  1.00  0.00    -0.744 OA
ENDBRANCH  83  84
ENDBRANCH  62  76
BRANCH  63  88
ATOM     88  C   UNL     1     -11.826  -4.863  11.726  1.00  0.00     0.058 A 
ATOM     89  C   UNL     1     -12.856  -5.736  12.105  1.00  0.00     0.135 A 
ATOM     90  C   UNL     1     -10.568  -5.421  11.447  1.00  0.00     0.135 A 
ATOM     91  F   UNL     1     -14.075  -5.252  12.390  1.00  0.00    -0.206 F 
ATOM     92  C   UNL     1     -12.647  -7.107  12.217  1.00  0.00     0.059 A 
ATOM     93  C   UNL     1     -10.341  -6.791  11.525  1.00  0.00     0.059 A 
ATOM     94  F   UNL     1      -9.552  -4.632  11.065  1.00  0.00    -0.206 F 
ATOM     95  C   UNL     1     -11.385  -7.626  11.921  1.00  0.00     0.060 A 
BRANCH  95  96
ATOM     96  S   UNL     1     -11.139  -9.412  12.018  1.00  0.00     0.124 S 
ATOM     97  O   UNL     1     -11.163  -9.634  13.459  1.00  0.00    -0.237 OA
ATOM     98  O   UNL     1     -12.288  -9.919  11.273  1.00  0.00    -0.237 OA
ATOM     99  O   UNL     1      -9.846  -9.608  11.370  1.00  0.00    -0.744 OA
ENDBRANCH  95  96
ENDBRANCH  63  88
BRANCH  75 100
ATOM    100  C   UNL     1     -13.277   0.173  16.345  1.00  0.00     0.058 A 
ATOM    101  C   UNL     1     -12.245  -0.037  17.272  1.00  0.00     0.135 A 
ATOM    102  C   UNL     1     -14.562   0.441  16.846  1.00  0.00     0.135 A 
ATOM    103  F   UNL     1     -10.999  -0.304  16.848  1.00  0.00    -0.206 F 
ATOM    104  C   UNL     1     -12.481  -0.001  18.643  1.00  0.00     0.059 A 
ATOM    105  C   UNL     1     -14.815   0.513  18.212  1.00  0.00     0.059 A 
ATOM    106  F   UNL     1     -15.585   0.659  16.003  1.00  0.00    -0.206 F 
ATOM    107  C   UNL     1     -13.769   0.281  19.103  1.00  0.00     0.060 A 
BRANCH 107 108
ATOM    108  S   UNL     1     -14.052   0.368  20.884  1.00  0.00     0.124 S 
ATOM    109  O   UNL     1     -13.968  -1.037  21.265  1.00  0.00    -0.237 OA
ATOM    110  O   UNL     1     -12.950   1.214  21.333  1.00  0.00    -0.237 OA
ATOM    111  O   UNL     1     -15.378   0.969  20.989  1.00  0.00    -0.744 OA
ENDBRANCH 107 108
ENDBRANCH  75 100
ENDBRANCH  49  50
ENDBRANCH  41  44
ENDBRANCH  39  40
ENDBRANCH  38  39
ENDBRANCH  37  38
ENDBRANCH  36  37
ENDBRANCH   1  36
TORSDOF 23
