REMARK SMILES O=C(CCCCCN1C(=O)/C(=C/c2cccc(O)c2)SC1=S)NCCCCCCNC(=O)c1ccc(-c2c3nc(c(-c4c(F)cc(S(=O)(=O)[O-])cc4F)c4ccc([nH]4)c(-c4c(F)cc(S(=O)(=O)[O-])cc4F)c4nc(c(-c5c(F)cc(S(=O)(=O)[O-])cc5F)c5ccc2[nH]5)C=C4)C=C3)cc1
REMARK SMILES IDX 24 1 23 2 1 3 2 4 3 6 4 7 5 8 6 9 7 10 8 11 9 12 21 13 10 14
REMARK SMILES IDX 11 15 20 16 22 17 12 18 13 19 14 20 19 21 15 22 17 23 16 24
REMARK SMILES IDX 18 25 25 27 26 28 27 29 28 30 29 31 30 32 31 33 32 35 33 36
REMARK SMILES IDX 34 37 98 38 35 39 97 40 36 41 37 42 38 43 91 44 39 45 96 46
REMARK SMILES IDX 90 47 92 48 40 49 95 50 89 51 88 52 41 54 75 55 54 56 74 57
REMARK SMILES IDX 55 58 58 59 73 60 93 61 56 62 57 63 72 65 94 66 59 67 42 68
REMARK SMILES IDX 43 69 52 70 44 71 45 72 51 73 53 74 46 75 47 76 48 77 49 78
REMARK SMILES IDX 50 79 76 80 77 81 86 82 78 83 79 84 85 85 87 86 80 87 81 88
REMARK SMILES IDX 82 89 83 90 84 91 60 92 61 93 70 94 62 95 63 96 69 97 71 98
REMARK SMILES IDX 64 99 65 100 66 101 67 102 68 103
REMARK H PARENT 23 5 18 26 30 34 92 53 58 64
REMARK Flexibility Score: inf
ROOT
ATOM      1  C   UNL     1       1.919   2.250  -1.044  1.00  0.00     0.116 C 
ENDROOT
BRANCH   1   2
ATOM      2  N   UNL     1       2.517   1.110  -0.383  1.00  0.00    -0.356 N 
ATOM      3  O   UNL     1       0.653  -0.231  -0.323  1.00  0.00    -0.275 OA
ATOM      4  C   UNL     1       1.845  -0.053  -0.103  1.00  0.00     0.219 C 
ATOM      5  H   UNL     1       3.463   1.172  -0.119  1.00  0.00     0.163 HD
BRANCH   4   6
ATOM      6  C   UNL     1       2.720  -1.117   0.532  1.00  0.00     0.100 C 
BRANCH   6   7
ATOM      7  C   UNL     1       3.651  -1.811  -0.464  1.00  0.00     0.010 C 
BRANCH   7   8
ATOM      8  C   UNL     1       4.813  -0.978  -1.017  1.00  0.00     0.002 C 
BRANCH   8   9
ATOM      9  C   UNL     1       5.754  -0.359   0.026  1.00  0.00     0.022 C 
BRANCH   9  10
ATOM     10  C   UNL     1       6.667  -1.358   0.756  1.00  0.00     0.127 C 
BRANCH  10  11
ATOM     11  N   UNL     1       7.466  -2.169  -0.163  1.00  0.00    -0.293 N 
ATOM     12  C   UNL     1       8.381  -1.526  -0.984  1.00  0.00     0.266 C 
ATOM     13  C   UNL     1       7.402  -3.542  -0.278  1.00  0.00     0.148 C 
ATOM     14  O   UNL     1       8.697  -0.348  -0.929  1.00  0.00    -0.268 OA
ATOM     15  C   UNL     1       8.931  -2.480  -1.978  1.00  0.00     0.081 C 
ATOM     16  S   UNL     1       8.430  -4.077  -1.602  1.00  0.00    -0.054 SA
ATOM     17  S   UNL     1       6.525  -4.624   0.640  1.00  0.00    -0.052 S 
ATOM     18  C   UNL     1       9.668  -2.059  -3.013  1.00  0.00     0.029 C 
BRANCH  18  19
ATOM     19  C   UNL     1      10.200  -2.904  -4.085  1.00  0.00    -0.021 A 
ATOM     20  C   UNL     1       9.347  -3.614  -4.941  1.00  0.00     0.008 A 
ATOM     21  C   UNL     1      11.582  -2.976  -4.279  1.00  0.00     0.054 A 
ATOM     22  C   UNL     1       9.873  -4.414  -5.957  1.00  0.00     0.004 A 
ATOM     23  C   UNL     1      12.096  -3.772  -5.298  1.00  0.00     0.116 A 
ATOM     24  C   UNL     1      11.254  -4.497  -6.136  1.00  0.00     0.046 A 
BRANCH  23  25
ATOM     25  O   UNL     1      13.451  -3.816  -5.444  1.00  0.00    -0.508 OA
ATOM     26  H   UNL     1      13.832  -4.342  -6.120  1.00  0.00     0.293 HD
ENDBRANCH  23  25
ENDBRANCH  18  19
ENDBRANCH  10  11
ENDBRANCH   9  10
ENDBRANCH   8   9
ENDBRANCH   7   8
ENDBRANCH   6   7
ENDBRANCH   4   6
ENDBRANCH   1   2
BRANCH   1  27
ATOM     27  C   UNL     1       2.509   3.556  -0.513  1.00  0.00     0.021 C 
BRANCH  27  28
ATOM     28  C   UNL     1       4.021   3.724  -0.734  1.00  0.00     0.002 C 
BRANCH  28  29
ATOM     29  C   UNL     1       4.475   3.747  -2.196  1.00  0.00     0.002 C 
BRANCH  29  30
ATOM     30  C   UNL     1       3.832   4.834  -3.058  1.00  0.00     0.021 C 
BRANCH  30  31
ATOM     31  C   UNL     1       3.989   6.257  -2.529  1.00  0.00     0.116 C 
BRANCH  31  32
ATOM     32  N   UNL     1       5.378   6.688  -2.486  1.00  0.00    -0.352 N 
ATOM     33  C   UNL     1       5.951   7.830  -2.995  1.00  0.00     0.251 C 
ATOM     34  H   UNL     1       5.997   6.075  -2.027  1.00  0.00     0.163 HD
ATOM     35  O   UNL     1       7.172   7.952  -3.004  1.00  0.00    -0.269 OA
BRANCH  33  36
ATOM     36  C   UNL     1       5.094   8.895  -3.563  1.00  0.00     0.039 A 
ATOM     37  C   UNL     1       5.437   9.450  -4.798  1.00  0.00     0.014 A 
ATOM     38  C   UNL     1       3.948   9.331  -2.892  1.00  0.00     0.014 A 
ATOM     39  C   UNL     1       4.588  10.383  -5.398  1.00  0.00     0.010 A 
ATOM     40  C   UNL     1       3.066  10.206  -3.524  1.00  0.00     0.010 A 
ATOM     41  C   UNL     1       3.371  10.732  -4.788  1.00  0.00    -0.014 A 
BRANCH  41  42
ATOM     42  C   UNL     1       2.387  11.604  -5.483  1.00  0.00     0.031 A 
ATOM     43  C   UNL     1       1.997  12.935  -4.902  1.00  0.00     0.074 A 
ATOM     44  C   UNL     1       1.788  11.159  -6.605  1.00  0.00     0.049 A 
ATOM     45  N   UNL     1       1.112  13.797  -5.335  1.00  0.00    -0.248 NA
ATOM     46  C   UNL     1       2.670  13.338  -3.658  1.00  0.00     0.031 C 
ATOM     47  C   UNL     1       2.038   9.861  -7.236  1.00  0.00     0.029 A 
ATOM     48  N   UNL     1       0.834  11.737  -7.406  1.00  0.00    -0.354 N 
ATOM     49  C   UNL     1       1.121  14.842  -4.419  1.00  0.00     0.074 A 
ATOM     50  C   UNL     1       2.053  14.476  -3.374  1.00  0.00     0.031 C 
ATOM     51  C   UNL     1       1.269   9.747  -8.329  1.00  0.00     0.029 A 
ATOM     52  C   UNL     1       0.439  10.941  -8.455  1.00  0.00     0.049 A 
ATOM     53  H   UNL     1       0.468  12.637  -7.244  1.00  0.00     0.167 HD
ATOM     54  C   UNL     1       0.434  16.010  -4.458  1.00  0.00     0.037 A 
ATOM     55  C   UNL     1      -0.499  11.137  -9.402  1.00  0.00     0.037 A 
ATOM     56  C   UNL     1      -0.498  16.364  -5.499  1.00  0.00     0.049 A 
ATOM     57  C   UNL     1      -1.271  12.427  -9.415  1.00  0.00     0.074 A 
ATOM     58  C   UNL     1      -1.208  17.541  -5.656  1.00  0.00     0.029 A 
ATOM     59  N   UNL     1      -0.864  15.536  -6.553  1.00  0.00    -0.354 N 
ATOM     60  N   UNL     1      -1.193  13.440  -8.585  1.00  0.00    -0.248 NA
ATOM     61  C   UNL     1      -2.252  12.605 -10.493  1.00  0.00     0.031 C 
ATOM     62  C   UNL     1      -2.044  17.404  -6.770  1.00  0.00     0.029 A 
ATOM     63  C   UNL     1      -1.813  16.164  -7.344  1.00  0.00     0.049 A 
ATOM     64  H   UNL     1      -0.501  14.635  -6.714  1.00  0.00     0.167 HD
ATOM     65  C   UNL     1      -2.107  14.382  -9.046  1.00  0.00     0.074 A 
ATOM     66  C   UNL     1      -2.709  13.825 -10.242  1.00  0.00     0.031 C 
ATOM     67  C   UNL     1      -2.418  15.595  -8.525  1.00  0.00     0.037 A 
BRANCH  54  68
ATOM     68  C   UNL     1       0.662  16.984  -3.331  1.00  0.00     0.058 A 
ATOM     69  C   UNL     1       1.896  17.635  -3.157  1.00  0.00     0.135 A 
ATOM     70  C   UNL     1      -0.361  17.276  -2.414  1.00  0.00     0.135 A 
ATOM     71  F   UNL     1       2.915  17.390  -3.996  1.00  0.00    -0.206 F 
ATOM     72  C   UNL     1       2.122  18.496  -2.087  1.00  0.00     0.059 A 
ATOM     73  C   UNL     1      -0.168  18.160  -1.357  1.00  0.00     0.059 A 
ATOM     74  F   UNL     1      -1.563  16.690  -2.534  1.00  0.00    -0.206 F 
ATOM     75  C   UNL     1       1.085  18.747  -1.188  1.00  0.00     0.060 A 
BRANCH  75  76
ATOM     76  S   UNL     1       1.407  19.839   0.213  1.00  0.00     0.124 S 
ATOM     77  O   UNL     1       2.265  19.000   1.044  1.00  0.00    -0.237 OA
ATOM     78  O   UNL     1       2.060  20.979  -0.422  1.00  0.00    -0.237 OA
ATOM     79  O   UNL     1       0.076  20.102   0.752  1.00  0.00    -0.744 OA
ENDBRANCH  75  76
ENDBRANCH  54  68
BRANCH  55  80
ATOM     80  C   UNL     1      -0.748  10.074 -10.413  1.00  0.00     0.058 A 
ATOM     81  C   UNL     1      -0.355  10.235 -11.749  1.00  0.00     0.135 A 
ATOM     82  C   UNL     1      -1.334   8.851 -10.046  1.00  0.00     0.135 A 
ATOM     83  F   UNL     1       0.200  11.389 -12.151  1.00  0.00    -0.206 F 
ATOM     84  C   UNL     1      -0.530   9.222 -12.686  1.00  0.00     0.059 A 
ATOM     85  C   UNL     1      -1.494   7.814 -10.958  1.00  0.00     0.059 A 
ATOM     86  F   UNL     1      -1.714   8.642  -8.776  1.00  0.00    -0.206 F 
ATOM     87  C   UNL     1      -1.090   8.009 -12.278  1.00  0.00     0.060 A 
BRANCH  87  88
ATOM     88  S   UNL     1      -1.228   6.670 -13.482  1.00  0.00     0.124 S 
ATOM     89  O   UNL     1      -2.297   7.159 -14.345  1.00  0.00    -0.237 OA
ATOM     90  O   UNL     1       0.108   6.650 -14.069  1.00  0.00    -0.237 OA
ATOM     91  O   UNL     1      -1.560   5.511 -12.659  1.00  0.00    -0.744 OA
ENDBRANCH  87  88
ENDBRANCH  55  80
BRANCH  67  92
ATOM     92  C   UNL     1      -3.456  16.413  -9.246  1.00  0.00     0.058 A 
ATOM     93  C   UNL     1      -4.816  16.061  -9.227  1.00  0.00     0.135 A 
ATOM     94  C   UNL     1      -3.096  17.592  -9.919  1.00  0.00     0.135 A 
ATOM     95  F   UNL     1      -5.215  14.940  -8.607  1.00  0.00    -0.206 F 
ATOM     96  C   UNL     1      -5.778  16.839  -9.864  1.00  0.00     0.059 A 
ATOM     97  C   UNL     1      -4.045  18.401 -10.537  1.00  0.00     0.059 A 
ATOM     98  F   UNL     1      -1.812  17.980  -9.963  1.00  0.00    -0.206 F 
ATOM     99  C   UNL     1      -5.383  18.010 -10.513  1.00  0.00     0.060 A 
BRANCH  99 100
ATOM    100  S   UNL     1      -6.648  19.030 -11.300  1.00  0.00     0.124 S 
ATOM    101  O   UNL     1      -7.009  18.214 -12.454  1.00  0.00    -0.237 OA
ATOM    102  O   UNL     1      -7.660  19.132 -10.253  1.00  0.00    -0.237 OA
ATOM    103  O   UNL     1      -5.944  20.272 -11.605  1.00  0.00    -0.744 OA
ENDBRANCH  99 100
ENDBRANCH  67  92
ENDBRANCH  41  42
ENDBRANCH  33  36
ENDBRANCH  31  32
ENDBRANCH  30  31
ENDBRANCH  29  30
ENDBRANCH  28  29
ENDBRANCH  27  28
ENDBRANCH   1  27
TORSDOF 23
