REMARK SMILES CC(C)[C@H](NC(=O)[C@H](C)NC(=O)CNC(=O)OCc1ccccc1)C(=O)NCCCCCCNC(=O)c1ccc(-c2c3nc(c(-c4c(F)cc(S(=O)(=O)[O-])cc4F)c4ccc([nH]4)c(-c4c(F)cc(S(=O)(=O)[O-])cc4F)c4nc(c(-c5c(F)cc(S(=O)(=O)[O-])cc5F)c5ccc2[nH]5)C=C4)C=C3)cc1
REMARK SMILES IDX 28 1 27 2 25 3 26 4 4 6 2 7 1 8 3 9 5 10 6 11 7 13 8 14 9 15
REMARK SMILES IDX 10 16 11 17 12 19 13 20 14 21 15 22 16 24 17 25 18 26 19 27
REMARK SMILES IDX 20 28 24 29 21 30 23 31 22 32 29 33 30 34 31 35 32 36 33 37
REMARK SMILES IDX 34 38 35 39 36 41 37 42 38 43 102 44 39 45 101 46 40 47
REMARK SMILES IDX 41 48 42 49 95 50 43 51 100 52 94 53 96 54 44 55 99 56 93 57
REMARK SMILES IDX 92 58 45 60 79 61 58 62 78 63 59 64 62 65 77 66 97 67 60 68
REMARK SMILES IDX 61 69 76 71 98 72 63 73 46 74 47 75 56 76 48 77 49 78 55 79
REMARK SMILES IDX 57 80 50 81 51 82 52 83 53 84 54 85 80 86 81 87 90 88 82 89
REMARK SMILES IDX 83 90 89 91 91 92 84 93 85 94 86 95 87 96 88 97 64 98 65 99
REMARK SMILES IDX 74 100 66 101 67 102 73 103 75 104 68 105 69 106 70 107
REMARK SMILES IDX 71 108 72 109
REMARK H PARENT 27 5 5 12 10 18 14 23 34 40 96 59 62 70
REMARK Flexibility Score: inf
ROOT
ATOM      1  C   UNL     1       1.673  -1.027   3.301  1.00  0.00     0.116 C 
ENDROOT
BRANCH   1   2
ATOM      2  N   UNL     1       1.033  -0.995   4.821  1.00  0.00    -0.354 N 
ATOM      3  C   UNL     1      -0.106  -1.348   5.659  1.00  0.00     0.242 C 
ATOM      4  O   UNL     1       0.210  -1.323   6.872  1.00  0.00    -0.273 OA
ATOM      5  H   UNL     1       1.694  -0.554   5.403  1.00  0.00     0.163 HD
BRANCH   3   6
ATOM      6  C   UNL     1      -1.878  -1.577   5.413  1.00  0.00     0.173 C 
BRANCH   6   7
ATOM      7  C   UNL     1      -3.089  -2.438   4.640  1.00  0.00     0.015 C 
ATOM      8  C   UNL     1      -4.476  -1.686   4.762  1.00  0.00     0.010 C 
ATOM      9  C   UNL     1      -3.170  -2.880   3.160  1.00  0.00     0.010 C 
ENDBRANCH   6   7
BRANCH   6  10
ATOM     10  N   UNL     1      -2.371  -0.222   5.463  1.00  0.00    -0.342 N 
ATOM     11  C   UNL     1      -2.234   0.528   4.328  1.00  0.00     0.242 C 
ATOM     12  H   UNL     1      -2.787   0.145   6.276  1.00  0.00     0.164 HD
ATOM     13  O   UNL     1      -2.835   1.585   4.201  1.00  0.00    -0.273 OA
BRANCH  11  14
ATOM     14  C   UNL     1      -1.029   0.059   3.496  1.00  0.00     0.168 C 
ATOM     15  C   UNL     1      -0.419   1.179   2.641  1.00  0.00     0.041 C 
BRANCH  14  16
ATOM     16  N   UNL     1      -0.809  -1.576   3.030  1.00  0.00    -0.343 N 
ATOM     17  C   UNL     1      -0.178  -2.861   3.248  1.00  0.00     0.240 C 
ATOM     18  H   UNL     1      -1.384  -1.701   2.241  1.00  0.00     0.164 HD
ATOM     19  O   UNL     1      -0.273  -3.594   2.239  1.00  0.00    -0.273 OA
BRANCH  17  20
ATOM     20  C   UNL     1       0.814  -3.586   4.507  1.00  0.00     0.219 C 
BRANCH  20  21
ATOM     21  N   UNL     1       2.338  -3.594   4.540  1.00  0.00    -0.312 N 
ATOM     22  C   UNL     1       3.309  -2.860   5.215  1.00  0.00     0.407 C 
ATOM     23  H   UNL     1       2.725  -4.276   3.945  1.00  0.00     0.167 HD
ATOM     24  O   UNL     1       4.452  -2.828   4.784  1.00  0.00    -0.225 OA
BRANCH  22  25
ATOM     25  O   UNL     1       2.899  -2.122   6.284  1.00  0.00    -0.445 OA
BRANCH  25  26
ATOM     26  C   UNL     1       3.667  -0.922   6.634  1.00  0.00     0.270 C 
BRANCH  26  27
ATOM     27  C   UNL     1       4.930  -1.040   7.444  1.00  0.00    -0.011 A 
ATOM     28  C   UNL     1       5.324  -2.241   8.027  1.00  0.00     0.007 A 
ATOM     29  C   UNL     1       5.734   0.105   7.630  1.00  0.00     0.007 A 
ATOM     30  C   UNL     1       6.526  -2.319   8.731  1.00  0.00     0.000 A 
ATOM     31  C   UNL     1       6.933   0.027   8.340  1.00  0.00     0.000 A 
ATOM     32  C   UNL     1       7.334  -1.192   8.879  1.00  0.00     0.000 A 
ENDBRANCH  26  27
ENDBRANCH  25  26
ENDBRANCH  22  25
ENDBRANCH  20  21
ENDBRANCH  17  20
ENDBRANCH  14  16
ENDBRANCH  11  14
ENDBRANCH   6  10
ENDBRANCH   3   6
ENDBRANCH   1   2
BRANCH   1  33
ATOM     33  C   UNL     1       2.841  -0.179   2.807  1.00  0.00     0.021 C 
BRANCH  33  34
ATOM     34  C   UNL     1       3.827  -0.977   1.903  1.00  0.00     0.002 C 
BRANCH  34  35
ATOM     35  C   UNL     1       3.319  -1.936   0.793  1.00  0.00     0.002 C 
BRANCH  35  36
ATOM     36  C   UNL     1       2.546  -1.385  -0.411  1.00  0.00     0.021 C 
BRANCH  36  37
ATOM     37  C   UNL     1       3.070  -0.096  -1.031  1.00  0.00     0.116 C 
BRANCH  37  38
ATOM     38  N   UNL     1       4.500  -0.128  -1.300  1.00  0.00    -0.352 N 
ATOM     39  C   UNL     1       5.193   0.334  -2.390  1.00  0.00     0.251 C 
ATOM     40  H   UNL     1       5.051  -0.541  -0.596  1.00  0.00     0.163 HD
ATOM     41  O   UNL     1       6.405   0.169  -2.472  1.00  0.00    -0.269 OA
BRANCH  39  42
ATOM     42  C   UNL     1       4.456   0.991  -3.483  1.00  0.00     0.039 A 
ATOM     43  C   UNL     1       4.593   0.483  -4.776  1.00  0.00     0.014 A 
ATOM     44  C   UNL     1       3.597   2.061  -3.218  1.00  0.00     0.014 A 
ATOM     45  C   UNL     1       3.809   1.008  -5.802  1.00  0.00     0.010 A 
ATOM     46  C   UNL     1       2.774   2.541  -4.231  1.00  0.00     0.010 A 
ATOM     47  C   UNL     1       2.867   2.013  -5.527  1.00  0.00    -0.014 A 
BRANCH  47  48
ATOM     48  C   UNL     1       1.950   2.498  -6.586  1.00  0.00     0.031 A 
ATOM     49  C   UNL     1       2.049   3.913  -7.077  1.00  0.00     0.074 A 
ATOM     50  C   UNL     1       0.997   1.670  -7.059  1.00  0.00     0.049 A 
ATOM     51  N   UNL     1       1.313   4.529  -7.964  1.00  0.00    -0.248 NA
ATOM     52  C   UNL     1       3.097   4.753  -6.475  1.00  0.00     0.031 C 
ATOM     53  C   UNL     1       0.783   0.290  -6.615  1.00  0.00     0.029 A 
ATOM     54  N   UNL     1       0.026   1.867  -8.006  1.00  0.00    -0.354 N 
ATOM     55  C   UNL     1       1.804   5.827  -8.024  1.00  0.00     0.074 A 
ATOM     56  C   UNL     1       2.864   5.926  -7.045  1.00  0.00     0.031 C 
ATOM     57  C   UNL     1      -0.239  -0.241  -7.304  1.00  0.00     0.029 A 
ATOM     58  C   UNL     1      -0.779   0.770  -8.208  1.00  0.00     0.049 A 
ATOM     59  H   UNL     1      -0.085   2.714  -8.496  1.00  0.00     0.167 HD
ATOM     60  C   UNL     1       1.417   6.836  -8.839  1.00  0.00     0.037 A 
ATOM     61  C   UNL     1      -1.839   0.603  -9.022  1.00  0.00     0.037 A 
ATOM     62  C   UNL     1       0.368   6.716  -9.819  1.00  0.00     0.049 A 
ATOM     63  C   UNL     1      -2.265   1.747  -9.900  1.00  0.00     0.074 A 
ATOM     64  C   UNL     1      -0.057   7.653 -10.742  1.00  0.00     0.029 A 
ATOM     65  N   UNL     1      -0.428   5.592  -9.992  1.00  0.00    -0.354 N 
ATOM     66  N   UNL     1      -1.735   2.943 -10.008  1.00  0.00    -0.248 NA
ATOM     67  C   UNL     1      -3.431   1.525 -10.766  1.00  0.00     0.031 C 
ATOM     68  C   UNL     1      -1.147   7.117 -11.436  1.00  0.00     0.029 A 
ATOM     69  C   UNL     1      -1.369   5.826 -10.981  1.00  0.00     0.049 A 
ATOM     70  H   UNL     1      -0.338   4.752  -9.487  1.00  0.00     0.167 HD
ATOM     71  C   UNL     1      -2.496   3.612 -10.959  1.00  0.00     0.074 A 
ATOM     72  C   UNL     1      -3.507   2.679 -11.414  1.00  0.00     0.031 C 
ATOM     73  C   UNL     1      -2.374   4.885 -11.412  1.00  0.00     0.037 A 
BRANCH  60  74
ATOM     74  C   UNL     1       2.128   8.155  -8.707  1.00  0.00     0.058 A 
ATOM     75  C   UNL     1       3.466   8.315  -9.102  1.00  0.00     0.135 A 
ATOM     76  C   UNL     1       1.455   9.282  -8.210  1.00  0.00     0.135 A 
ATOM     77  F   UNL     1       4.163   7.267  -9.570  1.00  0.00    -0.206 F 
ATOM     78  C   UNL     1       4.120   9.537  -8.983  1.00  0.00     0.059 A 
ATOM     79  C   UNL     1       2.080  10.522  -8.109  1.00  0.00     0.059 A 
ATOM     80  F   UNL     1       0.176   9.187  -7.814  1.00  0.00    -0.206 F 
ATOM     81  C   UNL     1       3.417  10.636  -8.486  1.00  0.00     0.060 A 
BRANCH  81  82
ATOM     82  S   UNL     1       4.279  12.216  -8.346  1.00  0.00     0.124 S 
ATOM     83  O   UNL     1       5.180  11.958  -7.227  1.00  0.00    -0.237 OA
ATOM     84  O   UNL     1       4.914  12.341  -9.654  1.00  0.00    -0.237 OA
ATOM     85  O   UNL     1       3.205  13.168  -8.080  1.00  0.00    -0.744 OA
ENDBRANCH  81  82
ENDBRANCH  60  74
BRANCH  61  86
ATOM     86  C   UNL     1      -2.563  -0.696  -9.042  1.00  0.00     0.058 A 
ATOM     87  C   UNL     1      -2.498  -1.544 -10.157  1.00  0.00     0.135 A 
ATOM     88  C   UNL     1      -3.315  -1.127  -7.937  1.00  0.00     0.135 A 
ATOM     89  F   UNL     1      -1.797  -1.175 -11.240  1.00  0.00    -0.206 F 
ATOM     90  C   UNL     1      -3.159  -2.768 -10.182  1.00  0.00     0.059 A 
ATOM     91  C   UNL     1      -3.964  -2.358  -7.928  1.00  0.00     0.059 A 
ATOM     92  F   UNL     1      -3.398  -0.361  -6.838  1.00  0.00    -0.206 F 
ATOM     93  C   UNL     1      -3.887  -3.168  -9.060  1.00  0.00     0.060 A 
BRANCH  93  94
ATOM     94  S   UNL     1      -4.697  -4.783  -9.083  1.00  0.00     0.124 S 
ATOM     95  O   UNL     1      -5.798  -4.546 -10.009  1.00  0.00    -0.237 OA
ATOM     96  O   UNL     1      -3.630  -5.653  -9.567  1.00  0.00    -0.237 OA
ATOM     97  O   UNL     1      -5.077  -4.987  -7.688  1.00  0.00    -0.744 OA
ENDBRANCH  93  94
ENDBRANCH  61  86
BRANCH  73  98
ATOM     98  C   UNL     1      -3.359   5.347 -12.449  1.00  0.00     0.058 A 
ATOM     99  C   UNL     1      -4.694   5.621 -12.116  1.00  0.00     0.135 A 
ATOM    100  C   UNL     1      -2.948   5.586 -13.770  1.00  0.00     0.135 A 
ATOM    101  F   UNL     1      -5.140   5.399 -10.869  1.00  0.00    -0.206 F 
ATOM    102  C   UNL     1      -5.593   6.106 -13.060  1.00  0.00     0.059 A 
ATOM    103  C   UNL     1      -3.822   6.098 -14.724  1.00  0.00     0.059 A 
ATOM    104  F   UNL     1      -1.679   5.347 -14.138  1.00  0.00    -0.206 F 
ATOM    105  C   UNL     1      -5.145   6.348 -14.360  1.00  0.00     0.060 A 
BRANCH 105 106
ATOM    106  S   UNL     1      -6.309   7.030 -15.559  1.00  0.00     0.124 S 
ATOM    107  O   UNL     1      -7.178   5.885 -15.810  1.00  0.00    -0.237 OA
ATOM    108  O   UNL     1      -6.911   8.132 -14.816  1.00  0.00    -0.237 OA
ATOM    109  O   UNL     1      -5.455   7.426 -16.675  1.00  0.00    -0.744 OA
ENDBRANCH 105 106
ENDBRANCH  73  98
ENDBRANCH  47  48
ENDBRANCH  39  42
ENDBRANCH  37  38
ENDBRANCH  36  37
ENDBRANCH  35  36
ENDBRANCH  34  35
ENDBRANCH  33  34
ENDBRANCH   1  33
TORSDOF 25
