REMARK SMILES C[NH+](C)CCCN1c2ccccc2CCc2cc(O[C@@H]3O[C@H](C(=O)NCCCCCCNC(=O)c4ccc(-c5c6nc(c(-c7c(F)cc(S(=O)(=O)[O-])cc7F)c7ccc([nH]7)c(-c7c(F)cc(S(=O)(=O)[O-])cc7F)c7nc(c(-c8c(F)cc(S(=O)(=O)[O-])cc8F)c8ccc5[nH]8)C=C7)C=C6)cc4)[C@@H](O)[C@H](O)[C@H]3O)ccc21
REMARK SMILES IDX 26 1 25 2 23 3 24 4 22 6 20 7 21 8 105 9 103 10 101 11 19 12
REMARK SMILES IDX 18 13 109 14 16 15 108 16 17 17 107 18 7 19 6 20 5 21 4 22
REMARK SMILES IDX 2 23 1 24 3 25 8 27 9 28 13 29 10 30 12 31 11 32 14 33 15 35
REMARK SMILES IDX 106 37 104 39 102 41 27 43 28 44 29 45 30 46 31 47 32 48
REMARK SMILES IDX 33 49 34 51 35 52 36 53 100 54 37 55 99 56 38 57 39 58 40 59
REMARK SMILES IDX 93 60 41 61 98 62 92 63 94 64 42 65 97 66 91 67 90 68 43 70
REMARK SMILES IDX 77 71 56 72 76 73 57 74 60 75 75 76 95 77 58 78 59 79 74 81
REMARK SMILES IDX 96 82 61 83 44 84 45 85 54 86 46 87 47 88 53 89 55 90 48 91
REMARK SMILES IDX 49 92 50 93 51 94 52 95 78 96 79 97 88 98 80 99 81 100
REMARK SMILES IDX 87 101 89 102 82 103 83 104 84 105 85 106 86 107 62 108
REMARK SMILES IDX 63 109 72 110 64 111 65 112 71 113 73 114 66 115 67 116
REMARK SMILES IDX 68 117 69 118 70 119
REMARK H PARENT 25 5 2 26 106 38 104 40 102 42 32 50 94 69 60 80
REMARK Flexibility Score: 90.00
ROOT
ATOM      1  C   UNL     1       2.131   6.593   3.472  1.00  0.00     0.116 C 
ENDROOT
BRANCH   1   2
ATOM      2  N   UNL     1       1.380   5.651   2.674  1.00  0.00    -0.354 N 
ATOM      3  C   UNL     1       1.812   4.601   1.916  1.00  0.00     0.252 C 
ATOM      4  O   UNL     1       0.957   3.985   1.269  1.00  0.00    -0.272 OA
ATOM      5  H   UNL     1       0.405   5.787   2.678  1.00  0.00     0.163 HD
BRANCH   3   6
ATOM      6  C   UNL     1       3.297   4.172   1.856  1.00  0.00     0.242 C 
ATOM      7  C   UNL     1       5.515   4.792   1.205  1.00  0.00     0.339 C 
ATOM      8  O   UNL     1       4.161   5.222   1.423  1.00  0.00    -0.324 OA
ATOM      9  C   UNL     1       6.150   4.163   2.475  1.00  0.00     0.214 C 
ATOM     10  C   UNL     1       5.220   3.084   3.038  1.00  0.00     0.181 C 
ATOM     11  C   UNL     1       3.771   3.567   3.184  1.00  0.00     0.184 C 
BRANCH   7  12
ATOM     12  O   UNL     1       6.347   5.821   0.633  1.00  0.00    -0.462 OA
BRANCH  12  13
ATOM     13  C   UNL     1       6.594   6.964   1.339  1.00  0.00     0.123 A 
ATOM     14  C   UNL     1       7.231   9.376   2.674  1.00  0.00     0.045 A 
ATOM     15  C   UNL     1       6.184   8.572   3.125  1.00  0.00    -0.020 A 
ATOM     16  C   UNL     1       7.987   8.931   1.577  1.00  0.00     0.030 A 
ATOM     17  C   UNL     1       5.864   7.396   2.438  1.00  0.00     0.052 A 
ATOM     18  C   UNL     1       7.666   7.741   0.910  1.00  0.00     0.049 A 
BRANCH  14  19
ATOM     19  N   UNL     1       7.521  10.616   3.270  1.00  0.00    -0.341 N 
BRANCH  19  20
ATOM     20  C   UNL     1       6.712  11.765   2.755  1.00  0.00     0.128 C 
BRANCH  20  21
ATOM     21  C   UNL     1       6.710  11.980   1.231  1.00  0.00     0.083 C 
BRANCH  21  22
ATOM     22  C   UNL     1       5.726  11.171   0.359  1.00  0.00     0.263 C 
BRANCH  22  23
ATOM     23  N   UNL     1       4.291  11.483   0.342  1.00  0.00    -0.340 N 
ATOM     24  C   UNL     1       3.597  11.231   1.589  1.00  0.00     0.332 C 
ATOM     25  C   UNL     1       3.974  12.795  -0.202  1.00  0.00     0.332 C 
ATOM     26  H   UNL     1       3.920  10.801  -0.320  1.00  0.00     0.347 HD
ENDBRANCH  22  23
ENDBRANCH  21  22
ENDBRANCH  20  21
ENDBRANCH  19  20
BRANCH  19  27
ATOM     27  C   UNL     1       7.856  10.782   4.652  1.00  0.00     0.044 A 
ATOM     28  C   UNL     1       8.800  11.781   4.975  1.00  0.00     0.026 A 
ATOM     29  C   UNL     1       7.354   9.989   5.710  1.00  0.00    -0.024 A 
ATOM     30  C   UNL     1       9.237  11.993   6.285  1.00  0.00     0.002 A 
ATOM     31  C   UNL     1       7.825  10.206   7.025  1.00  0.00     0.006 A 
ATOM     32  C   UNL     1       8.751  11.201   7.313  1.00  0.00     0.000 A 
BRANCH  29  33
ATOM     33  C   UNL     1       6.340   8.879   5.580  1.00  0.00     0.042 CG0
ATOM     34  G   UNL     1       5.428   8.927   4.369  1.00  0.00     0.000 G0
ENDBRANCH  29  33
ENDBRANCH  19  27
ENDBRANCH  14  19
BRANCH  15  35
ATOM     35  C   UNL     1       5.428   8.927   4.369  1.00  0.00     0.042 CG0
ATOM     36  G   UNL     1       6.340   8.879   5.580  1.00  0.00     0.000 G0
ENDBRANCH  15  35
ENDBRANCH  12  13
ENDBRANCH   7  12
BRANCH   9  37
ATOM     37  O   UNL     1       7.445   3.599   2.220  1.00  0.00    -0.384 OA
ATOM     38  H   UNL     1       7.363   2.880   1.574  1.00  0.00     0.211 HD
ENDBRANCH   9  37
BRANCH  10  39
ATOM     39  O   UNL     1       5.664   2.594   4.314  1.00  0.00    -0.387 OA
ATOM     40  H   UNL     1       5.634   3.313   4.965  1.00  0.00     0.211 HD
ENDBRANCH  10  39
BRANCH  11  41
ATOM     41  O   UNL     1       2.959   2.444   3.547  1.00  0.00    -0.387 OA
ATOM     42  H   UNL     1       3.026   1.762   2.861  1.00  0.00     0.211 HD
ENDBRANCH  11  41
ENDBRANCH   3   6
ENDBRANCH   1   2
BRANCH   1  43
ATOM     43  C   UNL     1       1.989   8.024   2.956  1.00  0.00     0.021 C 
BRANCH  43  44
ATOM     44  C   UNL     1       0.741   8.772   3.437  1.00  0.00     0.002 C 
BRANCH  44  45
ATOM     45  C   UNL     1       0.568   8.890   4.957  1.00  0.00     0.002 C 
BRANCH  45  46
ATOM     46  C   UNL     1       1.769   9.422   5.748  1.00  0.00     0.021 C 
BRANCH  46  47
ATOM     47  C   UNL     1       2.274  10.806   5.344  1.00  0.00     0.116 C 
BRANCH  47  48
ATOM     48  N   UNL     1       1.275  11.841   5.534  1.00  0.00    -0.352 N 
ATOM     49  C   UNL     1       1.346  13.025   6.226  1.00  0.00     0.251 C 
ATOM     50  H   UNL     1       0.410  11.668   5.096  1.00  0.00     0.163 HD
ATOM     51  O   UNL     1       0.319  13.677   6.400  1.00  0.00    -0.269 OA
BRANCH  49  52
ATOM     52  C   UNL     1       2.631  13.517   6.779  1.00  0.00     0.039 A 
ATOM     53  C   UNL     1       2.627  14.094   8.053  1.00  0.00     0.014 A 
ATOM     54  C   UNL     1       3.819  13.471   6.042  1.00  0.00     0.014 A 
ATOM     55  C   UNL     1       3.815  14.584   8.604  1.00  0.00     0.010 A 
ATOM     56  C   UNL     1       5.016  13.908   6.615  1.00  0.00     0.010 A 
ATOM     57  C   UNL     1       5.024  14.476   7.899  1.00  0.00    -0.014 A 
BRANCH  57  58
ATOM     58  C   UNL     1       6.299  14.955   8.495  1.00  0.00     0.031 A 
ATOM     59  C   UNL     1       7.021  16.138   7.907  1.00  0.00     0.074 A 
ATOM     60  C   UNL     1       6.827  14.303   9.550  1.00  0.00     0.049 A 
ATOM     61  N   UNL     1       8.159  16.675   8.268  1.00  0.00    -0.248 NA
ATOM     62  C   UNL     1       6.389  16.794   6.751  1.00  0.00     0.031 C 
ATOM     63  C   UNL     1       6.238  13.128  10.197  1.00  0.00     0.029 A 
ATOM     64  N   UNL     1       7.978  14.532  10.263  1.00  0.00    -0.354 N 
ATOM     65  C   UNL     1       8.388  17.718   7.378  1.00  0.00     0.074 A 
ATOM     66  C   UNL     1       7.288  17.716   6.437  1.00  0.00     0.031 C 
ATOM     67  C   UNL     1       7.018  12.756  11.225  1.00  0.00     0.029 A 
ATOM     68  C   UNL     1       8.180  13.638  11.288  1.00  0.00     0.049 A 
ATOM     69  H   UNL     1       8.600  15.267  10.060  1.00  0.00     0.167 HD
ATOM     70  C   UNL     1       9.412  18.606   7.357  1.00  0.00     0.037 A 
ATOM     71  C   UNL     1       9.188  13.536  12.176  1.00  0.00     0.037 A 
ATOM     72  C   UNL     1      10.489  18.623   8.314  1.00  0.00     0.049 A 
ATOM     73  C   UNL     1      10.317  14.530  12.126  1.00  0.00     0.074 A 
ATOM     74  C   UNL     1      11.540  19.520   8.410  1.00  0.00     0.029 A 
ATOM     75  N   UNL     1      10.656  17.704   9.339  1.00  0.00    -0.354 N 
ATOM     76  N   UNL     1      10.489  15.543  11.311  1.00  0.00    -0.248 NA
ATOM     77  C   UNL     1      11.389  14.370  13.119  1.00  0.00     0.031 C 
ATOM     78  C   UNL     1      12.367  19.116   9.463  1.00  0.00     0.029 A 
ATOM     79  C   UNL     1      11.805  17.997  10.056  1.00  0.00     0.049 A 
ATOM     80  H   UNL     1      10.047  16.954   9.530  1.00  0.00     0.167 HD
ATOM     81  C   UNL     1      11.669  16.160  11.714  1.00  0.00     0.074 A 
ATOM     82  C   UNL     1      12.165  15.410  12.849  1.00  0.00     0.031 C 
ATOM     83  C   UNL     1      12.283  17.250  11.192  1.00  0.00     0.037 A 
BRANCH  70  84
ATOM     84  C   UNL     1       9.427  19.634   6.259  1.00  0.00     0.058 A 
ATOM     85  C   UNL     1       8.520  20.706   6.237  1.00  0.00     0.135 A 
ATOM     86  C   UNL     1      10.395  19.576   5.243  1.00  0.00     0.135 A 
ATOM     87  F   UNL     1       7.566  20.804   7.176  1.00  0.00    -0.206 F 
ATOM     88  C   UNL     1       8.556  21.669   5.233  1.00  0.00     0.059 A 
ATOM     89  C   UNL     1      10.467  20.542   4.244  1.00  0.00     0.059 A 
ATOM     90  F   UNL     1      11.287  18.573   5.217  1.00  0.00    -0.206 F 
ATOM     91  C   UNL     1       9.534  21.577   4.240  1.00  0.00     0.060 A 
BRANCH  91  92
ATOM     92  S   UNL     1       9.571  22.838   2.948  1.00  0.00     0.124 S 
ATOM     93  O   UNL     1       8.409  22.465   2.146  1.00  0.00    -0.237 OA
ATOM     94  O   UNL     1       9.444  24.074   3.712  1.00  0.00    -0.237 OA
ATOM     95  O   UNL     1      10.867  22.630   2.307  1.00  0.00    -0.744 OA
ENDBRANCH  91  92
ENDBRANCH  70  84
BRANCH  71  96
ATOM     96  C   UNL     1       9.170  12.462  13.204  1.00  0.00     0.058 A 
ATOM     97  C   UNL     1       8.972  12.765  14.559  1.00  0.00     0.135 A 
ATOM     98  C   UNL     1       9.351  11.115  12.854  1.00  0.00     0.135 A 
ATOM     99  F   UNL     1       8.800  14.040  14.942  1.00  0.00    -0.206 F 
ATOM    100  C   UNL     1       8.976  11.775  15.536  1.00  0.00     0.059 A 
ATOM    101  C   UNL     1       9.333  10.104  13.809  1.00  0.00     0.059 A 
ATOM    102  F   UNL     1       9.525  10.771  11.568  1.00  0.00    -0.206 F 
ATOM    103  C   UNL     1       9.158  10.446  15.150  1.00  0.00     0.060 A 
BRANCH 103 104
ATOM    104  S   UNL     1       9.124   9.163  16.420  1.00  0.00     0.124 S 
ATOM    105  O   UNL     1      10.418   9.354  17.064  1.00  0.00    -0.237 OA
ATOM    106  O   UNL     1       7.955   9.541  17.208  1.00  0.00    -0.237 OA
ATOM    107  O   UNL     1       8.977   7.933  15.647  1.00  0.00    -0.744 OA
ENDBRANCH 103 104
ENDBRANCH  71  96
BRANCH  83 108
ATOM    108  C   UNL     1      13.541  17.726  11.866  1.00  0.00     0.058 A 
ATOM    109  C   UNL     1      14.753  17.029  11.748  1.00  0.00     0.135 A 
ATOM    110  C   UNL     1      13.541  18.923  12.602  1.00  0.00     0.135 A 
ATOM    111  F   UNL     1      14.805  15.876  11.062  1.00  0.00    -0.206 F 
ATOM    112  C   UNL     1      15.917  17.489  12.356  1.00  0.00     0.059 A 
ATOM    113  C   UNL     1      14.699  19.415  13.195  1.00  0.00     0.059 A 
ATOM    114  F   UNL     1      12.411  19.634  12.737  1.00  0.00    -0.206 F 
ATOM    115  C   UNL     1      15.880  18.684  13.077  1.00  0.00     0.060 A 
BRANCH 115 116
ATOM    116  S   UNL     1      17.404  19.287  13.835  1.00  0.00     0.124 S 
ATOM    117  O   UNL     1      17.539  18.390  14.978  1.00  0.00    -0.237 OA
ATOM    118  O   UNL     1      18.381  19.101  12.765  1.00  0.00    -0.237 OA
ATOM    119  O   UNL     1      17.096  20.677  14.158  1.00  0.00    -0.744 OA
ENDBRANCH 115 116
ENDBRANCH  83 108
ENDBRANCH  57  58
ENDBRANCH  49  52
ENDBRANCH  47  48
ENDBRANCH  46  47
ENDBRANCH  45  46
ENDBRANCH  44  45
ENDBRANCH  43  44
ENDBRANCH   1  43
TORSDOF 25
