REMARK SMILES C[NH+]1CCN(c2nc3c(cc2F)c(=O)c(C(=O)NCCCCCCNC(=O)c2ccc(-c4c5nc(c(-c6c(F)cc(S(=O)(=O)[O-])cc6F)c6ccc([nH]6)c(-c6c(F)cc(S(=O)(=O)[O-])cc6F)c6nc(c(-c7c(F)cc(S(=O)(=O)[O-])cc7F)c7ccc4[nH]7)C=C6)C=C5)cc2)cn3-c2ccc(F)cc2F)CC1
REMARK SMILES IDX 22 1 21 2 20 3 19 4 18 5 16 6 17 7 15 9 6 10 7 11 11 12 8 13
REMARK SMILES IDX 10 14 12 15 9 16 95 17 13 18 94 19 14 20 5 21 1 22 2 23 3 24
REMARK SMILES IDX 105 25 4 27 104 28 96 29 97 30 102 31 98 32 101 33 103 34
REMARK SMILES IDX 99 35 100 36 23 37 24 38 25 39 26 40 27 42 28 43 29 44 93 45
REMARK SMILES IDX 30 46 92 47 31 48 32 49 33 50 86 51 34 52 91 53 85 54 87 55
REMARK SMILES IDX 35 56 90 57 84 58 83 59 36 61 70 62 49 63 69 64 50 65 53 66
REMARK SMILES IDX 68 67 88 68 51 69 52 70 67 72 89 73 54 74 37 75 38 76 47 77
REMARK SMILES IDX 39 78 40 79 46 80 48 81 41 82 42 83 43 84 44 85 45 86 71 87
REMARK SMILES IDX 72 88 81 89 73 90 74 91 80 92 82 93 75 94 76 95 77 96 78 97
REMARK SMILES IDX 79 98 55 99 56 100 65 101 57 102 58 103 64 104 66 105 59 106
REMARK SMILES IDX 60 107 61 108 62 109 63 110
REMARK H PARENT 18 8 2 26 25 41 87 60 53 71
REMARK Flexibility Score: inf
ROOT
ATOM      1  C   UNL     1     -10.151  -1.796   7.258  1.00  0.00     0.002 C 
ENDROOT
BRANCH   1   2
ATOM      2  C   UNL     1      -9.800  -0.382   6.779  1.00  0.00     0.002 C 
BRANCH   2   3
ATOM      3  C   UNL     1      -8.624  -0.309   5.800  1.00  0.00     0.021 C 
BRANCH   3   4
ATOM      4  C   UNL     1      -8.903  -0.982   4.454  1.00  0.00     0.116 C 
BRANCH   4   5
ATOM      5  N   UNL     1      -9.588  -0.067   3.559  1.00  0.00    -0.352 N 
ATOM      6  C   UNL     1      -9.140   0.731   2.555  1.00  0.00     0.256 C 
ATOM      7  O   UNL     1      -9.991   1.418   1.979  1.00  0.00    -0.269 OA
ATOM      8  H   UNL     1     -10.559  -0.014   3.708  1.00  0.00     0.163 HD
BRANCH   6   9
ATOM      9  C   UNL     1      -7.729   0.741   2.081  1.00  0.00     0.104 A 
ATOM     10  C   UNL     1      -2.929  -0.093   0.645  1.00  0.00     0.167 A 
ATOM     11  N   UNL     1      -3.977   0.563   0.085  1.00  0.00    -0.209 NA
ATOM     12  C   UNL     1      -3.041  -0.684   1.907  1.00  0.00     0.166 A 
ATOM     13  C   UNL     1      -5.158   0.637   0.753  1.00  0.00     0.151 A 
ATOM     14  C   UNL     1      -4.209  -0.547   2.635  1.00  0.00     0.059 A 
ATOM     15  F   UNL     1      -2.003  -1.325   2.465  1.00  0.00    -0.203 F 
ATOM     16  C   UNL     1      -5.273   0.136   2.051  1.00  0.00     0.069 A 
ATOM     17  N   UNL     1      -6.308   1.234   0.142  1.00  0.00    -0.297 N 
ATOM     18  C   UNL     1      -6.499   0.397   2.825  1.00  0.00     0.203 A 
ATOM     19  C   UNL     1      -7.521   1.175   0.824  1.00  0.00     0.111 A 
ATOM     20  O   UNL     1      -6.427   0.375   4.047  1.00  0.00    -0.288 OA
BRANCH  10  21
ATOM     21  N   UNL     1      -1.752  -0.110  -0.055  1.00  0.00    -0.343 N 
ATOM     22  C   UNL     1       2.485   0.092   0.128  1.00  0.00     0.332 C 
ATOM     23  N   UNL     1       1.116   0.009  -0.379  1.00  0.00    -0.334 N 
ATOM     24  C   UNL     1       0.331   1.200   0.025  1.00  0.00     0.283 C 
ATOM     25  C   UNL     1       0.452  -1.211   0.144  1.00  0.00     0.283 C 
ATOM     26  H   UNL     1       1.159  -0.031  -1.397  1.00  0.00     0.347 HD
ATOM     27  C   UNL     1      -1.139   1.147  -0.470  1.00  0.00     0.179 C 
ATOM     28  C   UNL     1      -1.013  -1.338  -0.327  1.00  0.00     0.179 C 
ENDBRANCH  10  21
BRANCH  17  29
ATOM     29  C   UNL     1      -6.269   1.805  -1.165  1.00  0.00     0.083 A 
ATOM     30  C   UNL     1      -5.860   1.046  -2.274  1.00  0.00     0.033 A 
ATOM     31  C   UNL     1      -6.651   3.141  -1.384  1.00  0.00     0.150 A 
ATOM     32  C   UNL     1      -5.841   1.608  -3.553  1.00  0.00     0.041 A 
ATOM     33  C   UNL     1      -6.620   3.713  -2.651  1.00  0.00     0.080 A 
ATOM     34  F   UNL     1      -7.036   3.907  -0.351  1.00  0.00    -0.205 F 
ATOM     35  C   UNL     1      -6.217   2.936  -3.727  1.00  0.00     0.126 A 
ATOM     36  F   UNL     1      -6.189   3.474  -4.953  1.00  0.00    -0.207 F 
ENDBRANCH  17  29
ENDBRANCH   6   9
ENDBRANCH   4   5
ENDBRANCH   3   4
ENDBRANCH   2   3
ENDBRANCH   1   2
BRANCH   1  37
ATOM     37  C   UNL     1      -8.988  -2.581   7.872  1.00  0.00     0.021 C 
BRANCH  37  38
ATOM     38  C   UNL     1      -8.366  -1.919   9.098  1.00  0.00     0.116 C 
BRANCH  38  39
ATOM     39  N   UNL     1      -9.305  -1.884  10.210  1.00  0.00    -0.352 N 
ATOM     40  C   UNL     1      -9.227  -2.538  11.414  1.00  0.00     0.251 C 
ATOM     41  H   UNL     1     -10.099  -1.316  10.083  1.00  0.00     0.163 HD
ATOM     42  O   UNL     1     -10.209  -2.623  12.144  1.00  0.00    -0.269 OA
BRANCH  40  43
ATOM     43  C   UNL     1      -7.943  -3.143  11.817  1.00  0.00     0.039 A 
ATOM     44  C   UNL     1      -7.913  -4.474  12.239  1.00  0.00     0.014 A 
ATOM     45  C   UNL     1      -6.769  -2.382  11.774  1.00  0.00     0.014 A 
ATOM     46  C   UNL     1      -6.692  -5.059  12.578  1.00  0.00     0.010 A 
ATOM     47  C   UNL     1      -5.548  -2.981  12.063  1.00  0.00     0.010 A 
ATOM     48  C   UNL     1      -5.502  -4.321  12.478  1.00  0.00    -0.014 A 
BRANCH  48  49
ATOM     49  C   UNL     1      -4.198  -4.919  12.850  1.00  0.00     0.031 A 
ATOM     50  C   UNL     1      -3.498  -4.451  14.094  1.00  0.00     0.074 A 
ATOM     51  C   UNL     1      -3.633  -5.846  12.053  1.00  0.00     0.049 A 
ATOM     52  N   UNL     1      -2.340  -4.818  14.576  1.00  0.00    -0.248 NA
ATOM     53  C   UNL     1      -4.184  -3.422  14.893  1.00  0.00     0.031 C 
ATOM     54  C   UNL     1      -4.210  -6.355  10.807  1.00  0.00     0.029 A 
ATOM     55  N   UNL     1      -2.444  -6.520  12.169  1.00  0.00    -0.354 N 
ATOM     56  C   UNL     1      -2.162  -4.073  15.735  1.00  0.00     0.074 A 
ATOM     57  C   UNL     1      -3.300  -3.189  15.852  1.00  0.00     0.031 C 
ATOM     58  C   UNL     1      -3.382  -7.275  10.285  1.00  0.00     0.029 A 
ATOM     59  C   UNL     1      -2.206  -7.402  11.142  1.00  0.00     0.049 A 
ATOM     60  H   UNL     1      -1.820  -6.386  12.919  1.00  0.00     0.167 HD
ATOM     61  C   UNL     1      -1.154  -4.142  16.636  1.00  0.00     0.037 A 
ATOM     62  C   UNL     1      -1.157  -8.218  10.919  1.00  0.00     0.037 A 
ATOM     63  C   UNL     1      -0.029  -5.031  16.517  1.00  0.00     0.049 A 
ATOM     64  C   UNL     1      -0.028  -8.248  11.914  1.00  0.00     0.074 A 
ATOM     65  C   UNL     1       1.029  -5.200  17.391  1.00  0.00     0.029 A 
ATOM     66  N   UNL     1       0.183  -5.900  15.456  1.00  0.00    -0.354 N 
ATOM     67  N   UNL     1       0.103  -7.571  13.031  1.00  0.00    -0.248 NA
ATOM     68  C   UNL     1       1.093  -9.152  11.624  1.00  0.00     0.031 C 
ATOM     69  C   UNL     1       1.902  -6.144  16.840  1.00  0.00     0.029 A 
ATOM     70  C   UNL     1       1.365  -6.595  15.644  1.00  0.00     0.049 A 
ATOM     71  H   UNL     1      -0.418  -6.006  14.684  1.00  0.00     0.167 HD
ATOM     72  C   UNL     1       1.307  -7.986  13.588  1.00  0.00     0.074 A 
ATOM     73  C   UNL     1       1.863  -8.978  12.690  1.00  0.00     0.031 C 
ATOM     74  C   UNL     1       1.899  -7.584  14.740  1.00  0.00     0.037 A 
BRANCH  61  75
ATOM     75  C   UNL     1      -1.233  -3.243  17.837  1.00  0.00     0.058 A 
ATOM     76  C   UNL     1      -2.166  -3.474  18.861  1.00  0.00     0.135 A 
ATOM     77  C   UNL     1      -0.346  -2.165  17.988  1.00  0.00     0.135 A 
ATOM     78  F   UNL     1      -3.049  -4.479  18.756  1.00  0.00    -0.206 F 
ATOM     79  C   UNL     1      -2.232  -2.655  19.983  1.00  0.00     0.059 A 
ATOM     80  C   UNL     1      -0.377  -1.348  19.115  1.00  0.00     0.059 A 
ATOM     81  F   UNL     1       0.562  -1.897  17.037  1.00  0.00    -0.206 F 
ATOM     82  C   UNL     1      -1.331  -1.595  20.102  1.00  0.00     0.060 A 
BRANCH  82  83
ATOM     83  S   UNL     1      -1.422  -0.554  21.573  1.00  0.00     0.124 S 
ATOM     84  O   UNL     1      -2.665   0.175  21.338  1.00  0.00    -0.237 OA
ATOM     85  O   UNL     1      -1.459  -1.538  22.649  1.00  0.00    -0.237 OA
ATOM     86  O   UNL     1      -0.204   0.247  21.500  1.00  0.00    -0.744 OA
ENDBRANCH  82  83
ENDBRANCH  61  75
BRANCH  62  87
ATOM     87  C   UNL     1      -1.144  -9.098   9.721  1.00  0.00     0.058 A 
ATOM     88  C   UNL     1      -1.322 -10.484   9.847  1.00  0.00     0.135 A 
ATOM     89  C   UNL     1      -0.979  -8.575   8.430  1.00  0.00     0.135 A 
ATOM     90  F   UNL     1      -1.477 -11.032  11.062  1.00  0.00    -0.206 F 
ATOM     91  C   UNL     1      -1.329 -11.322   8.737  1.00  0.00     0.059 A 
ATOM     92  C   UNL     1      -1.003  -9.391   7.302  1.00  0.00     0.059 A 
ATOM     93  F   UNL     1      -0.818  -7.254   8.254  1.00  0.00    -0.206 F 
ATOM     94  C   UNL     1      -1.173 -10.765   7.467  1.00  0.00     0.060 A 
BRANCH  94  95
ATOM     95  S   UNL     1      -1.242 -11.857   6.030  1.00  0.00     0.124 S 
ATOM     96  O   UNL     1       0.017 -12.583   6.151  1.00  0.00    -0.237 OA
ATOM     97  O   UNL     1      -2.453 -12.628   6.291  1.00  0.00    -0.237 OA
ATOM     98  O   UNL     1      -1.330 -10.928   4.907  1.00  0.00    -0.744 OA
ENDBRANCH  94  95
ENDBRANCH  62  87
BRANCH  74  99
ATOM     99  C   UNL     1       3.206  -8.224  15.114  1.00  0.00     0.058 A 
ATOM    100  C   UNL     1       4.400  -7.885  14.461  1.00  0.00     0.135 A 
ATOM    101  C   UNL     1       3.277  -9.118  16.194  1.00  0.00     0.135 A 
ATOM    102  F   UNL     1       4.385  -7.040  13.418  1.00  0.00    -0.206 F 
ATOM    103  C   UNL     1       5.621  -8.417  14.862  1.00  0.00     0.059 A 
ATOM    104  C   UNL     1       4.490  -9.643  16.628  1.00  0.00     0.059 A 
ATOM    105  F   UNL     1       2.163  -9.467  16.858  1.00  0.00    -0.206 F 
ATOM    106  C   UNL     1       5.657  -9.290  15.952  1.00  0.00     0.060 A 
BRANCH 106 107
ATOM    107  S   UNL     1       7.256  -9.925  16.496  1.00  0.00     0.124 S 
ATOM    108  O   UNL     1       7.580 -10.863  15.426  1.00  0.00    -0.237 OA
ATOM    109  O   UNL     1       8.071  -8.714  16.546  1.00  0.00    -0.237 OA
ATOM    110  O   UNL     1       6.961 -10.528  17.792  1.00  0.00    -0.744 OA
ENDBRANCH 106 107
ENDBRANCH  74  99
ENDBRANCH  48  49
ENDBRANCH  40  43
ENDBRANCH  38  39
ENDBRANCH  37  38
ENDBRANCH   1  37
TORSDOF 18
