REMARK SMILES C[N@H+]1CCO[C@H](CNc2nnc(SCC(=O)NCCCCCCNC(=O)c3ccc(-c4c5nc(c(-c6c(F)cc(S(=O)(=O)[O-])cc6F)c6ccc([nH]6)c(-c6c(F)cc(S(=O)(=O)[O-])cc6F)c6nc(c(-c7c(F)cc(S(=O)(=O)[O-])cc7F)c7ccc4[nH]7)C=C6)C=C5)cc3)s2)C1
REMARK SMILES IDX 19 1 18 2 17 3 15 4 16 5 14 7 13 8 12 9 9 10 10 11 93 12
REMARK SMILES IDX 11 13 8 14 7 16 6 17 1 18 2 19 3 20 94 21 4 23 5 24 20 25
REMARK SMILES IDX 21 26 22 27 23 28 24 29 25 30 26 32 27 33 28 34 92 35 29 36
REMARK SMILES IDX 91 37 30 38 31 39 32 40 85 41 33 42 90 43 84 44 86 45 34 46
REMARK SMILES IDX 89 47 83 48 82 49 35 51 69 52 48 53 68 54 49 55 52 56 67 57
REMARK SMILES IDX 87 58 50 59 51 60 66 62 88 63 53 64 36 65 37 66 46 67 38 68
REMARK SMILES IDX 39 69 45 70 47 71 40 72 41 73 42 74 43 75 44 76 70 77 71 78
REMARK SMILES IDX 80 79 72 80 73 81 79 82 81 83 74 84 75 85 76 86 77 87 78 88
REMARK SMILES IDX 54 89 55 90 64 91 56 92 57 93 63 94 65 95 58 96 59 97 60 98
REMARK SMILES IDX 61 99 62 100
REMARK H PARENT 17 6 8 15 2 22 24 31 86 50 52 61
REMARK Flexibility Score: inf
ROOT
ATOM      1  C   UNL     1      -1.697  -3.912  -8.910  1.00  0.00     0.021 C 
ENDROOT
BRANCH   1   2
ATOM      2  C   UNL     1      -0.925  -5.181  -9.275  1.00  0.00     0.116 C 
BRANCH   2   3
ATOM      3  N   UNL     1       0.239  -5.335  -8.421  1.00  0.00    -0.355 N 
ATOM      4  C   UNL     1       0.484  -6.232  -7.428  1.00  0.00     0.230 C 
ATOM      5  O   UNL     1       1.525  -6.096  -6.778  1.00  0.00    -0.274 OA
ATOM      6  H   UNL     1       0.964  -4.690  -8.586  1.00  0.00     0.163 HD
BRANCH   4   7
ATOM      7  C   UNL     1      -0.431  -7.417  -7.192  1.00  0.00     0.177 C 
BRANCH   7   8
ATOM      8  S   UNL     1      -2.083  -7.008  -6.610  1.00  0.00    -0.084 SA
BRANCH   8   9
ATOM      9  C   UNL     1      -1.888  -6.213  -5.069  1.00  0.00     0.176 A 
ATOM     10  C   UNL     1      -1.378  -5.166  -2.988  1.00  0.00     0.206 A 
ATOM     11  N   UNL     1      -2.654  -5.087  -3.296  1.00  0.00    -0.119 NA
ATOM     12  S   UNL     1      -0.468  -6.080  -4.128  1.00  0.00    -0.069 S 
ATOM     13  N   UNL     1      -2.945  -5.665  -4.511  1.00  0.00    -0.130 NA
BRANCH  10  14
ATOM     14  N   UNL     1      -0.867  -4.592  -1.872  1.00  0.00    -0.357 N 
ATOM     15  H   UNL     1      -1.345  -4.690  -1.017  1.00  0.00     0.163 HD
BRANCH  14  16
ATOM     16  C   UNL     1       0.377  -3.833  -1.911  1.00  0.00     0.153 C 
BRANCH  16  17
ATOM     17  C   UNL     1       0.174  -2.423  -1.294  1.00  0.00     0.192 C 
ATOM     18  C   UNL     1       1.363   0.053   0.203  1.00  0.00     0.332 C 
ATOM     19  N   UNL     1       0.566  -1.024   0.789  1.00  0.00    -0.333 N 
ATOM     20  C   UNL     1      -0.881  -0.719   0.733  1.00  0.00     0.290 C 
ATOM     21  C   UNL     1       0.802  -2.322   0.115  1.00  0.00     0.296 C 
ATOM     22  H   UNL     1       0.863  -1.096   1.762  1.00  0.00     0.348 HD
ATOM     23  C   UNL     1      -1.489  -0.839  -0.672  1.00  0.00     0.222 C 
ATOM     24  O   UNL     1      -1.240  -2.130  -1.234  1.00  0.00    -0.365 OA
ENDBRANCH  16  17
ENDBRANCH  14  16
ENDBRANCH  10  14
ENDBRANCH   8   9
ENDBRANCH   7   8
ENDBRANCH   4   7
ENDBRANCH   2   3
ENDBRANCH   1   2
BRANCH   1  25
ATOM     25  C   UNL     1      -0.927  -2.610  -9.176  1.00  0.00     0.002 C 
BRANCH  25  26
ATOM     26  C   UNL     1      -0.476  -2.403 -10.626  1.00  0.00     0.002 C 
BRANCH  26  27
ATOM     27  C   UNL     1      -1.597  -2.462 -11.667  1.00  0.00     0.021 C 
BRANCH  27  28
ATOM     28  C   UNL     1      -2.705  -1.433 -11.467  1.00  0.00     0.116 C 
BRANCH  28  29
ATOM     29  N   UNL     1      -2.219  -0.068 -11.612  1.00  0.00    -0.352 N 
ATOM     30  C   UNL     1      -2.656   0.928 -12.449  1.00  0.00     0.251 C 
ATOM     31  H   UNL     1      -1.467   0.175 -11.024  1.00  0.00     0.163 HD
ATOM     32  O   UNL     1      -1.997   1.958 -12.573  1.00  0.00    -0.269 OA
BRANCH  30  33
ATOM     33  C   UNL     1      -3.906   0.749 -13.218  1.00  0.00     0.039 A 
ATOM     34  C   UNL     1      -3.921   1.086 -14.574  1.00  0.00     0.014 A 
ATOM     35  C   UNL     1      -5.057   0.241 -12.608  1.00  0.00     0.014 A 
ATOM     36  C   UNL     1      -5.067   0.842 -15.334  1.00  0.00     0.010 A 
ATOM     37  C   UNL     1      -6.172  -0.069 -13.383  1.00  0.00     0.010 A 
ATOM     38  C   UNL     1      -6.187   0.220 -14.755  1.00  0.00    -0.014 A 
BRANCH  38  39
ATOM     39  C   UNL     1      -7.363  -0.168 -15.578  1.00  0.00     0.031 A 
ATOM     40  C   UNL     1      -8.713   0.442 -15.316  1.00  0.00     0.074 A 
ATOM     41  C   UNL     1      -7.225  -1.125 -16.517  1.00  0.00     0.049 A 
ATOM     42  N   UNL     1      -9.861   0.177 -15.883  1.00  0.00    -0.248 NA
ATOM     43  C   UNL     1      -8.785   1.469 -14.264  1.00  0.00     0.031 C 
ATOM     44  C   UNL     1      -5.978  -1.826 -16.833  1.00  0.00     0.029 A 
ATOM     45  N   UNL     1      -8.142  -1.685 -17.372  1.00  0.00    -0.354 N 
ATOM     46  C   UNL     1     -10.793   0.997 -15.256  1.00  0.00     0.074 A 
ATOM     47  C   UNL     1     -10.085   1.728 -14.228  1.00  0.00     0.031 C 
ATOM     48  C   UNL     1      -6.204  -2.705 -17.821  1.00  0.00     0.029 A 
ATOM     49  C   UNL     1      -7.618  -2.668 -18.179  1.00  0.00     0.049 A 
ATOM     50  H   UNL     1      -9.087  -1.409 -17.404  1.00  0.00     0.167 HD
ATOM     51  C   UNL     1     -12.113   1.141 -15.528  1.00  0.00     0.037 A 
ATOM     52  C   UNL     1      -8.209  -3.462 -19.093  1.00  0.00     0.037 A 
ATOM     53  C   UNL     1     -12.808   0.413 -16.559  1.00  0.00     0.049 A 
ATOM     54  C   UNL     1      -9.682  -3.303 -19.358  1.00  0.00     0.074 A 
ATOM     55  C   UNL     1     -14.132   0.526 -16.946  1.00  0.00     0.029 A 
ATOM     56  N   UNL     1     -12.241  -0.569 -17.359  1.00  0.00    -0.354 N 
ATOM     57  N   UNL     1     -10.533  -2.472 -18.804  1.00  0.00    -0.248 NA
ATOM     58  C   UNL     1     -10.275  -4.184 -20.372  1.00  0.00     0.031 C 
ATOM     59  C   UNL     1     -14.380  -0.425 -17.941  1.00  0.00     0.029 A 
ATOM     60  C   UNL     1     -13.196  -1.091 -18.217  1.00  0.00     0.049 A 
ATOM     61  H   UNL     1     -11.300  -0.853 -17.323  1.00  0.00     0.167 HD
ATOM     62  C   UNL     1     -11.757  -2.716 -19.418  1.00  0.00     0.074 A 
ATOM     63  C   UNL     1     -11.531  -3.759 -20.397  1.00  0.00     0.031 C 
ATOM     64  C   UNL     1     -12.959  -2.130 -19.189  1.00  0.00     0.037 A 
BRANCH  51  65
ATOM     65  C   UNL     1     -12.894   2.125 -14.698  1.00  0.00     0.058 A 
ATOM     66  C   UNL     1     -12.686   3.510 -14.806  1.00  0.00     0.135 A 
ATOM     67  C   UNL     1     -13.893   1.683 -13.815  1.00  0.00     0.135 A 
ATOM     68  F   UNL     1     -11.736   3.990 -15.625  1.00  0.00    -0.206 F 
ATOM     69  C   UNL     1     -13.416   4.418 -14.047  1.00  0.00     0.059 A 
ATOM     70  C   UNL     1     -14.657   2.576 -13.068  1.00  0.00     0.059 A 
ATOM     71  F   UNL     1     -14.136   0.371 -13.671  1.00  0.00    -0.206 F 
ATOM     72  C   UNL     1     -14.401   3.941 -13.180  1.00  0.00     0.060 A 
BRANCH  72  73
ATOM     73  S   UNL     1     -15.342   5.136 -12.207  1.00  0.00     0.124 S 
ATOM     74  O   UNL     1     -14.337   5.587 -11.249  1.00  0.00    -0.237 OA
ATOM     75  O   UNL     1     -15.740   6.113 -13.215  1.00  0.00    -0.237 OA
ATOM     76  O   UNL     1     -16.429   4.339 -11.647  1.00  0.00    -0.744 OA
ENDBRANCH  72  73
ENDBRANCH  51  65
BRANCH  52  77
ATOM     77  C   UNL     1      -7.404  -4.475 -19.828  1.00  0.00     0.058 A 
ATOM     78  C   UNL     1      -7.143  -4.338 -21.199  1.00  0.00     0.135 A 
ATOM     79  C   UNL     1      -6.868  -5.594 -19.170  1.00  0.00     0.135 A 
ATOM     80  F   UNL     1      -7.639  -3.290 -21.874  1.00  0.00    -0.206 F 
ATOM     81  C   UNL     1      -6.391  -5.278 -21.896  1.00  0.00     0.059 A 
ATOM     82  C   UNL     1      -6.089  -6.533 -19.840  1.00  0.00     0.059 A 
ATOM     83  F   UNL     1      -7.074  -5.766 -17.855  1.00  0.00    -0.206 F 
ATOM     84  C   UNL     1      -5.864  -6.371 -21.206  1.00  0.00     0.060 A 
BRANCH  84  85
ATOM     85  S   UNL     1      -4.846  -7.558 -22.110  1.00  0.00     0.124 S 
ATOM     86  O   UNL     1      -5.844  -8.240 -22.925  1.00  0.00    -0.237 OA
ATOM     87  O   UNL     1      -3.923  -6.684 -22.827  1.00  0.00    -0.237 OA
ATOM     88  O   UNL     1      -4.242  -8.358 -21.048  1.00  0.00    -0.744 OA
ENDBRANCH  84  85
ENDBRANCH  52  77
BRANCH  64  89
ATOM     89  C   UNL     1     -14.123  -2.584 -20.028  1.00  0.00     0.058 A 
ATOM     90  C   UNL     1     -14.716  -3.843 -19.849  1.00  0.00     0.135 A 
ATOM     91  C   UNL     1     -14.689  -1.724 -20.984  1.00  0.00     0.135 A 
ATOM     92  F   UNL     1     -14.210  -4.708 -18.955  1.00  0.00    -0.206 F 
ATOM     93  C   UNL     1     -15.817  -4.242 -20.600  1.00  0.00     0.059 A 
ATOM     94  C   UNL     1     -15.809  -2.090 -21.725  1.00  0.00     0.059 A 
ATOM     95  F   UNL     1     -14.167  -0.504 -21.190  1.00  0.00    -0.206 F 
ATOM     96  C   UNL     1     -16.359  -3.356 -21.533  1.00  0.00     0.060 A 
BRANCH  96  97
ATOM     97  S   UNL     1     -17.814  -3.872 -22.470  1.00  0.00     0.124 S 
ATOM     98  O   UNL     1     -17.244  -4.864 -23.376  1.00  0.00    -0.237 OA
ATOM     99  O   UNL     1     -18.688  -4.395 -21.425  1.00  0.00    -0.237 OA
ATOM    100  O   UNL     1     -18.270  -2.636 -23.099  1.00  0.00    -0.744 OA
ENDBRANCH  96  97
ENDBRANCH  64  89
ENDBRANCH  38  39
ENDBRANCH  30  33
ENDBRANCH  28  29
ENDBRANCH  27  28
ENDBRANCH  26  27
ENDBRANCH  25  26
ENDBRANCH   1  25
TORSDOF 21
