REMARK SMILES COc1ncccc1Cn1ccc(C(=O)NCCCCCCNC(=O)c2ccc(-c3c4nc(c(-c5c(F)cc(S(=O)(=O)[O-])cc5F)c5ccc([nH]5)c(-c5c(F)cc(S(=O)(=O)[O-])cc5F)c5nc(c(-c6c(F)cc(S(=O)(=O)[O-])cc6F)c6ccc3[nH]6)C=C5)C=C4)cc2)n1
REMARK SMILES IDX 19 1 18 2 17 3 16 4 14 5 15 6 13 8 10 9 11 10 92 11 12 12
REMARK SMILES IDX 9 13 8 14 3 15 4 16 5 17 7 18 6 19 2 20 1 21 20 22 21 23
REMARK SMILES IDX 22 24 23 25 24 26 25 28 26 29 27 30 91 31 28 32 90 33 29 34
REMARK SMILES IDX 30 35 31 36 84 37 32 38 89 39 83 40 85 41 33 42 88 43 82 44
REMARK SMILES IDX 81 45 34 47 68 48 47 49 67 50 48 51 51 52 66 53 86 54 49 55
REMARK SMILES IDX 50 56 65 58 87 59 52 60 35 61 36 62 45 63 37 64 38 65 44 66
REMARK SMILES IDX 46 67 39 68 40 69 41 70 42 71 43 72 69 73 70 74 79 75 71 76
REMARK SMILES IDX 72 77 78 78 80 79 73 80 74 81 75 82 76 83 77 84 53 85 54 86
REMARK SMILES IDX 63 87 55 88 56 89 62 90 64 91 57 92 58 93 59 94 60 95 61 96
REMARK H PARENT 16 7 23 27 85 46 51 57
REMARK Flexibility Score: inf
ROOT
ATOM      1  C   UNL     1       6.849   1.048   5.748  1.00  0.00     0.002 C 
ENDROOT
BRANCH   1   2
ATOM      2  C   UNL     1       6.008   1.459   4.538  1.00  0.00     0.021 C 
BRANCH   2   3
ATOM      3  C   UNL     1       5.782   0.352   3.511  1.00  0.00     0.116 C 
BRANCH   3   4
ATOM      4  N   UNL     1       5.019  -0.763   4.048  1.00  0.00    -0.351 N 
ATOM      5  C   UNL     1       3.749  -1.184   3.718  1.00  0.00     0.271 C 
ATOM      6  O   UNL     1       3.234  -2.087   4.380  1.00  0.00    -0.267 OA
ATOM      7  H   UNL     1       5.473  -1.291   4.743  1.00  0.00     0.163 HD
BRANCH   5   8
ATOM      8  C   UNL     1       3.031  -0.495   2.641  1.00  0.00     0.150 A 
ATOM      9  N   UNL     1       2.714   0.702   0.906  1.00  0.00    -0.267 N 
ATOM     10  C   UNL     1       1.508   0.681   1.549  1.00  0.00     0.110 A 
ATOM     11  N   UNL     1       3.623  -0.093   1.501  1.00  0.00    -0.167 NA
ATOM     12  C   UNL     1       1.658  -0.154   2.631  1.00  0.00     0.056 A 
BRANCH   9  13
ATOM     13  C   UNL     1       3.141   1.422  -0.296  1.00  0.00     0.185 C 
BRANCH  13  14
ATOM     14  C   UNL     1       2.130   2.384  -0.832  1.00  0.00     0.036 A 
ATOM     15  C   UNL     1       1.068   1.980  -1.640  1.00  0.00     0.218 A 
ATOM     16  N   UNL     1       0.107   2.817  -2.082  1.00  0.00    -0.222 NA
ATOM     17  C   UNL     1       0.220   4.121  -1.734  1.00  0.00     0.115 A 
ATOM     18  C   UNL     1       2.228   3.749  -0.523  1.00  0.00     0.013 A 
ATOM     19  C   UNL     1       1.268   4.635  -0.992  1.00  0.00     0.021 A 
BRANCH  15  20
ATOM     20  O   UNL     1       1.083   0.752  -2.254  1.00  0.00    -0.481 OA
ATOM     21  C   UNL     1       0.581  -0.299  -1.439  1.00  0.00     0.280 C 
ENDBRANCH  15  20
ENDBRANCH  13  14
ENDBRANCH   9  13
ENDBRANCH   5   8
ENDBRANCH   3   4
ENDBRANCH   2   3
ENDBRANCH   1   2
BRANCH   1  22
ATOM     22  C   UNL     1       8.158   0.310   5.432  1.00  0.00     0.002 C 
BRANCH  22  23
ATOM     23  C   UNL     1       9.104   0.988   4.429  1.00  0.00     0.021 C 
BRANCH  23  24
ATOM     24  C   UNL     1       9.680   2.305   4.919  1.00  0.00     0.116 C 
BRANCH  24  25
ATOM     25  N   UNL     1      10.588   2.126   6.053  1.00  0.00    -0.352 N 
ATOM     26  C   UNL     1      11.239   3.108   6.769  1.00  0.00     0.251 C 
ATOM     27  H   UNL     1      10.753   1.198   6.336  1.00  0.00     0.163 HD
ATOM     28  O   UNL     1      12.247   2.850   7.426  1.00  0.00    -0.269 OA
BRANCH  26  29
ATOM     29  C   UNL     1      10.686   4.469   6.741  1.00  0.00     0.039 A 
ATOM     30  C   UNL     1      11.499   5.597   6.596  1.00  0.00     0.014 A 
ATOM     31  C   UNL     1       9.300   4.586   6.814  1.00  0.00     0.014 A 
ATOM     32  C   UNL     1      10.891   6.841   6.446  1.00  0.00     0.010 A 
ATOM     33  C   UNL     1       8.706   5.777   6.499  1.00  0.00     0.010 A 
ATOM     34  C   UNL     1       9.490   6.918   6.383  1.00  0.00    -0.014 A 
BRANCH  34  35
ATOM     35  C   UNL     1       8.809   8.172   6.095  1.00  0.00     0.031 A 
ATOM     36  C   UNL     1       9.195   8.803   4.804  1.00  0.00     0.074 A 
ATOM     37  C   UNL     1       7.742   8.591   6.811  1.00  0.00     0.049 A 
ATOM     38  N   UNL     1       9.886   9.880   4.629  1.00  0.00    -0.248 NA
ATOM     39  C   UNL     1       8.922   8.071   3.555  1.00  0.00     0.031 C 
ATOM     40  C   UNL     1       7.041   7.897   7.900  1.00  0.00     0.029 A 
ATOM     41  N   UNL     1       6.979   9.700   6.635  1.00  0.00    -0.354 N 
ATOM     42  C   UNL     1       9.920  10.096   3.254  1.00  0.00     0.074 A 
ATOM     43  C   UNL     1       9.506   8.858   2.648  1.00  0.00     0.031 C 
ATOM     44  C   UNL     1       5.838   8.477   8.109  1.00  0.00     0.029 A 
ATOM     45  C   UNL     1       5.758   9.681   7.304  1.00  0.00     0.049 A 
ATOM     46  H   UNL     1       7.266  10.459   6.078  1.00  0.00     0.167 HD
ATOM     47  C   UNL     1      10.046  11.352   2.739  1.00  0.00     0.037 A 
ATOM     48  C   UNL     1       4.750  10.582   7.175  1.00  0.00     0.037 A 
ATOM     49  C   UNL     1      10.430  12.292   3.764  1.00  0.00     0.049 A 
ATOM     50  C   UNL     1       5.351  11.813   6.594  1.00  0.00     0.074 A 
ATOM     51  C   UNL     1      11.505  12.403   4.625  1.00  0.00     0.029 A 
ATOM     52  N   UNL     1       9.440  13.082   4.299  1.00  0.00    -0.354 N 
ATOM     53  N   UNL     1       6.225  12.554   7.221  1.00  0.00    -0.248 NA
ATOM     54  C   UNL     1       5.354  11.941   5.145  1.00  0.00     0.031 C 
ATOM     55  C   UNL     1      10.941  12.833   5.862  1.00  0.00     0.029 A 
ATOM     56  C   UNL     1       9.575  13.045   5.664  1.00  0.00     0.049 A 
ATOM     57  H   UNL     1       8.758  13.582   3.795  1.00  0.00     0.167 HD
ATOM     58  C   UNL     1       7.162  12.894   6.255  1.00  0.00     0.074 A 
ATOM     59  C   UNL     1       6.531  12.554   4.980  1.00  0.00     0.031 C 
ATOM     60  C   UNL     1       8.465  13.141   6.587  1.00  0.00     0.037 A 
BRANCH  47  61
ATOM     61  C   UNL     1       9.475  11.814   1.418  1.00  0.00     0.058 A 
ATOM     62  C   UNL     1       9.834  13.085   0.920  1.00  0.00     0.135 A 
ATOM     63  C   UNL     1       8.389  11.191   0.765  1.00  0.00     0.135 A 
ATOM     64  F   UNL     1      10.848  13.773   1.469  1.00  0.00    -0.206 F 
ATOM     65  C   UNL     1       9.121  13.719  -0.099  1.00  0.00     0.059 A 
ATOM     66  C   UNL     1       7.701  11.781  -0.289  1.00  0.00     0.059 A 
ATOM     67  F   UNL     1       7.879  10.025   1.179  1.00  0.00    -0.206 F 
ATOM     68  C   UNL     1       8.046  13.061  -0.688  1.00  0.00     0.060 A 
BRANCH  68  69
ATOM     69  S   UNL     1       7.069  13.910  -1.939  1.00  0.00     0.124 S 
ATOM     70  O   UNL     1       6.417  14.945  -1.145  1.00  0.00    -0.237 OA
ATOM     71  O   UNL     1       8.098  14.366  -2.867  1.00  0.00    -0.237 OA
ATOM     72  O   UNL     1       6.193  12.859  -2.449  1.00  0.00    -0.744 OA
ENDBRANCH  68  69
ENDBRANCH  47  61
BRANCH  48  73
ATOM     73  C   UNL     1       3.284  10.327   7.175  1.00  0.00     0.058 A 
ATOM     74  C   UNL     1       2.361  11.387   7.253  1.00  0.00     0.135 A 
ATOM     75  C   UNL     1       2.757   9.074   6.800  1.00  0.00     0.135 A 
ATOM     76  F   UNL     1       2.776  12.618   7.587  1.00  0.00    -0.206 F 
ATOM     77  C   UNL     1       1.010  11.229   6.917  1.00  0.00     0.059 A 
ATOM     78  C   UNL     1       1.414   8.891   6.470  1.00  0.00     0.059 A 
ATOM     79  F   UNL     1       3.554   8.007   6.646  1.00  0.00    -0.206 F 
ATOM     80  C   UNL     1       0.551   9.980   6.501  1.00  0.00     0.060 A 
BRANCH  80  81
ATOM     81  S   UNL     1      -1.137   9.812   5.870  1.00  0.00     0.124 S 
ATOM     82  O   UNL     1      -1.931   9.964   7.085  1.00  0.00    -0.237 OA
ATOM     83  O   UNL     1      -1.219  10.909   4.912  1.00  0.00    -0.237 OA
ATOM     84  O   UNL     1      -1.147   8.475   5.281  1.00  0.00    -0.744 OA
ENDBRANCH  80  81
ENDBRANCH  48  73
BRANCH  60  85
ATOM     85  C   UNL     1       8.809  13.331   8.044  1.00  0.00     0.058 A 
ATOM     86  C   UNL     1       8.654  12.355   9.046  1.00  0.00     0.135 A 
ATOM     87  C   UNL     1       9.456  14.521   8.412  1.00  0.00     0.135 A 
ATOM     88  F   UNL     1       8.148  11.148   8.762  1.00  0.00    -0.206 F 
ATOM     89  C   UNL     1       9.071  12.576  10.362  1.00  0.00     0.059 A 
ATOM     90  C   UNL     1       9.910  14.749   9.707  1.00  0.00     0.059 A 
ATOM     91  F   UNL     1       9.696  15.467   7.489  1.00  0.00    -0.206 F 
ATOM     92  C   UNL     1       9.696  13.780  10.683  1.00  0.00     0.060 A 
BRANCH  92  93
ATOM     93  S   UNL     1      10.266  14.057  12.374  1.00  0.00     0.124 S 
ATOM     94  O   UNL     1       9.010  14.204  13.101  1.00  0.00    -0.237 OA
ATOM     95  O   UNL     1      11.025  12.842  12.656  1.00  0.00    -0.237 OA
ATOM     96  O   UNL     1      11.070  15.273  12.268  1.00  0.00    -0.744 OA
ENDBRANCH  92  93
ENDBRANCH  60  85
ENDBRANCH  34  35
ENDBRANCH  26  29
ENDBRANCH  24  25
ENDBRANCH  23  24
ENDBRANCH  22  23
ENDBRANCH   1  22
TORSDOF 19
