REMARK SMILES Cc1c(Cl)ccc2c1C=C(C(=O)NCCCCCCNC(=O)c1ccc(-c3c4nc(c(-c5c(F)cc(S(=O)(=O)[O-])cc5F)c5ccc([nH]5)c(-c5c(F)cc(S(=O)(=O)[O-])cc5F)c5nc(c(-c6c(F)cc(S(=O)(=O)[O-])cc6F)c6ccc3[nH]6)C=C5)C=C4)cc1)[C@@H](C(F)(F)F)O2
REMARK SMILES IDX 17 1 16 2 15 3 14 4 13 5 11 6 12 7 10 9 1 10 2 11 3 12 8 13
REMARK SMILES IDX 4 14 5 15 7 16 9 17 6 18 94 19 89 20 90 21 91 22 92 23 93 24
REMARK SMILES IDX 18 25 19 26 20 27 21 28 22 30 23 31 24 32 88 33 25 34 87 35
REMARK SMILES IDX 26 36 27 37 28 38 81 39 29 40 86 41 80 42 82 43 30 44 85 45
REMARK SMILES IDX 79 46 78 47 31 49 65 50 44 51 64 52 45 53 48 54 63 55 83 56
REMARK SMILES IDX 46 57 47 58 62 60 84 61 49 62 32 63 33 64 42 65 34 66 35 67
REMARK SMILES IDX 41 68 43 69 36 70 37 71 38 72 39 73 40 74 66 75 67 76 76 77
REMARK SMILES IDX 68 78 69 79 75 80 77 81 70 82 71 83 72 84 73 85 74 86 50 87
REMARK SMILES IDX 51 88 60 89 52 90 53 91 59 92 61 93 54 94 55 95 56 96 57 97
REMARK SMILES IDX 58 98
REMARK H PARENT 13 8 20 29 82 48 48 59
REMARK Flexibility Score: inf
ROOT
ATOM      1  C   UNL     1       8.673   6.875  -1.173  1.00  0.00     0.002 C 
ENDROOT
BRANCH   1   2
ATOM      2  C   UNL     1       8.276   6.097   0.089  1.00  0.00     0.002 C 
BRANCH   2   3
ATOM      3  C   UNL     1       6.778   6.088   0.410  1.00  0.00     0.021 C 
BRANCH   3   4
ATOM      4  C   UNL     1       5.902   5.554  -0.719  1.00  0.00     0.116 C 
BRANCH   4   5
ATOM      5  N   UNL     1       5.862   4.103  -0.725  1.00  0.00    -0.352 N 
ATOM      6  C   UNL     1       4.922   3.137  -0.624  1.00  0.00     0.251 C 
ATOM      7  O   UNL     1       5.355   1.981  -0.694  1.00  0.00    -0.270 OA
ATOM      8  H   UNL     1       6.762   3.719  -0.831  1.00  0.00     0.163 HD
BRANCH   6   9
ATOM      9  C   UNL     1       3.454   3.363  -0.446  1.00  0.00     0.067 C 
ATOM     10  C   UNL     1       0.934  -0.207  -0.007  1.00  0.00     0.047 C 
ATOM     11  C   UNL     1       0.429   1.212   0.094  1.00  0.00    -0.021 A 
ATOM     12  C   UNL     1      -0.959   1.428   0.265  1.00  0.00     0.044 A 
ATOM     13  C   UNL     1       1.276   2.341  -0.018  1.00  0.00     0.022 A 
ATOM     14  Cl  UNL     1      -2.081   0.113   0.384  1.00  0.00    -0.084 Cl
ATOM     15  C   UNL     1      -1.491   2.716   0.345  1.00  0.00     0.024 A 
ATOM     16  C   UNL     1       0.715   3.626   0.047  1.00  0.00     0.128 A 
ATOM     17  C   UNL     1       2.733   2.260  -0.165  1.00  0.00     0.026 C 
ATOM     18  C   UNL     1      -0.652   3.815   0.240  1.00  0.00     0.048 A 
ATOM     19  O   UNL     1       1.445   4.774  -0.028  1.00  0.00    -0.475 OA
ATOM     20  C   UNL     1       2.772   4.688  -0.606  1.00  0.00     0.314 C 
BRANCH  20  21
ATOM     21  C   UNL     1       2.723   5.165  -2.067  1.00  0.00     0.429 C 
ATOM     22  F   UNL     1       2.405   6.481  -2.128  1.00  0.00    -0.167 F 
ATOM     23  F   UNL     1       3.913   5.030  -2.697  1.00  0.00    -0.167 F 
ATOM     24  F   UNL     1       1.810   4.489  -2.800  1.00  0.00    -0.167 F 
ENDBRANCH  20  21
ENDBRANCH   6   9
ENDBRANCH   4   5
ENDBRANCH   3   4
ENDBRANCH   2   3
ENDBRANCH   1   2
BRANCH   1  25
ATOM     25  C   UNL     1       8.085   8.284  -1.291  1.00  0.00     0.021 C 
BRANCH  25  26
ATOM     26  C   UNL     1       8.416   9.209  -0.124  1.00  0.00     0.116 C 
BRANCH  26  27
ATOM     27  N   UNL     1       9.843   9.463  -0.031  1.00  0.00    -0.352 N 
ATOM     28  C   UNL     1      10.503  10.662  -0.113  1.00  0.00     0.251 C 
ATOM     29  H   UNL     1      10.411   8.671   0.109  1.00  0.00     0.163 HD
ATOM     30  O   UNL     1      11.724  10.693  -0.235  1.00  0.00    -0.269 OA
BRANCH  28  31
ATOM     31  C   UNL     1       9.725  11.915  -0.061  1.00  0.00     0.039 A 
ATOM     32  C   UNL     1       9.920  12.879  -1.052  1.00  0.00     0.014 A 
ATOM     33  C   UNL     1       8.805  12.129   0.972  1.00  0.00     0.014 A 
ATOM     34  C   UNL     1       9.161  14.050  -1.030  1.00  0.00     0.010 A 
ATOM     35  C   UNL     1       8.016  13.274   0.966  1.00  0.00     0.010 A 
ATOM     36  C   UNL     1       8.196  14.248  -0.028  1.00  0.00    -0.014 A 
BRANCH  36  37
ATOM     37  C   UNL     1       7.405  15.500   0.029  1.00  0.00     0.031 A 
ATOM     38  C   UNL     1       7.678  16.496   1.120  1.00  0.00     0.074 A 
ATOM     39  C   UNL     1       6.432  15.722  -0.876  1.00  0.00     0.049 A 
ATOM     40  N   UNL     1       7.077  17.629   1.371  1.00  0.00    -0.248 NA
ATOM     41  C   UNL     1       8.761  16.168   2.062  1.00  0.00     0.031 C 
ATOM     42  C   UNL     1       6.068  14.817  -1.967  1.00  0.00     0.029 A 
ATOM     43  N   UNL     1       5.569  16.779  -1.018  1.00  0.00    -0.354 N 
ATOM     44  C   UNL     1       7.712  18.153   2.490  1.00  0.00     0.074 A 
ATOM     45  C   UNL     1       8.705  17.187   2.907  1.00  0.00     0.031 C 
ATOM     46  C   UNL     1       5.069  15.366  -2.678  1.00  0.00     0.029 A 
ATOM     47  C   UNL     1       4.704  16.647  -2.079  1.00  0.00     0.049 A 
ATOM     48  H   UNL     1       5.570  17.559  -0.417  1.00  0.00     0.167 HD
ATOM     49  C   UNL     1       7.507  19.345   3.096  1.00  0.00     0.037 A 
ATOM     50  C   UNL     1       3.729  17.469  -2.514  1.00  0.00     0.037 A 
ATOM     51  C   UNL     1       6.526  20.306   2.670  1.00  0.00     0.049 A 
ATOM     52  C   UNL     1       3.490  18.768  -1.793  1.00  0.00     0.074 A 
ATOM     53  C   UNL     1       6.255  21.553   3.204  1.00  0.00     0.029 A 
ATOM     54  N   UNL     1       5.658  20.130   1.602  1.00  0.00    -0.354 N 
ATOM     55  N   UNL     1       4.123  19.264  -0.756  1.00  0.00    -0.248 NA
ATOM     56  C   UNL     1       2.406  19.622  -2.300  1.00  0.00     0.031 C 
ATOM     57  C   UNL     1       5.199  22.117   2.481  1.00  0.00     0.029 A 
ATOM     58  C   UNL     1       4.840  21.238   1.471  1.00  0.00     0.049 A 
ATOM     59  H   UNL     1       5.628  19.334   1.024  1.00  0.00     0.167 HD
ATOM     60  C   UNL     1       3.532  20.497  -0.504  1.00  0.00     0.074 A 
ATOM     61  C   UNL     1       2.497  20.677  -1.501  1.00  0.00     0.031 C 
ATOM     62  C   UNL     1       3.821  21.401   0.465  1.00  0.00     0.037 A 
BRANCH  49  63
ATOM     63  C   UNL     1       8.376  19.686   4.273  1.00  0.00     0.058 A 
ATOM     64  C   UNL     1       9.728  20.025   4.105  1.00  0.00     0.135 A 
ATOM     65  C   UNL     1       7.845  19.727   5.572  1.00  0.00     0.135 A 
ATOM     66  F   UNL     1      10.289  19.982   2.886  1.00  0.00    -0.206 F 
ATOM     67  C   UNL     1      10.528  20.379   5.185  1.00  0.00     0.059 A 
ATOM     68  C   UNL     1       8.622  20.101   6.665  1.00  0.00     0.059 A 
ATOM     69  F   UNL     1       6.560  19.405   5.788  1.00  0.00    -0.206 F 
ATOM     70  C   UNL     1       9.965  20.418   6.462  1.00  0.00     0.060 A 
BRANCH  70  71
ATOM     71  S   UNL     1      11.014  20.906   7.847  1.00  0.00     0.124 S 
ATOM     72  O   UNL     1      11.887  19.743   7.975  1.00  0.00    -0.237 OA
ATOM     73  O   UNL     1      11.646  22.121   7.345  1.00  0.00    -0.237 OA
ATOM     74  O   UNL     1      10.066  21.101   8.940  1.00  0.00    -0.744 OA
ENDBRANCH  70  71
ENDBRANCH  49  63
BRANCH  50  75
ATOM     75  C   UNL     1       2.925  17.104  -3.710  1.00  0.00     0.058 A 
ATOM     76  C   UNL     1       3.086  17.794  -4.920  1.00  0.00     0.135 A 
ATOM     77  C   UNL     1       1.985  16.063  -3.671  1.00  0.00     0.135 A 
ATOM     78  F   UNL     1       3.967  18.803  -5.004  1.00  0.00    -0.206 F 
ATOM     79  C   UNL     1       2.334  17.477  -6.046  1.00  0.00     0.059 A 
ATOM     80  C   UNL     1       1.236  15.712  -4.790  1.00  0.00     0.059 A 
ATOM     81  F   UNL     1       1.804  15.362  -2.540  1.00  0.00    -0.206 F 
ATOM     82  C   UNL     1       1.411  16.433  -5.971  1.00  0.00     0.060 A 
BRANCH  82  83
ATOM     83  S   UNL     1       0.469  16.005  -7.451  1.00  0.00     0.124 S 
ATOM     84  O   UNL     1      -0.448  17.134  -7.552  1.00  0.00    -0.237 OA
ATOM     85  O   UNL     1       1.513  15.936  -8.469  1.00  0.00    -0.237 OA
ATOM     86  O   UNL     1      -0.141  14.725  -7.102  1.00  0.00    -0.744 OA
ENDBRANCH  82  83
ENDBRANCH  50  75
BRANCH  62  87
ATOM     87  C   UNL     1       3.026  22.675   0.487  1.00  0.00     0.058 A 
ATOM     88  C   UNL     1       1.703  22.705   0.952  1.00  0.00     0.135 A 
ATOM     89  C   UNL     1       3.622  23.892   0.117  1.00  0.00     0.135 A 
ATOM     90  F   UNL     1       1.087  21.567   1.312  1.00  0.00    -0.206 F 
ATOM     91  C   UNL     1       0.993  23.897   1.041  1.00  0.00     0.059 A 
ATOM     92  C   UNL     1       2.939  25.099   0.221  1.00  0.00     0.059 A 
ATOM     93  F   UNL     1       4.889  23.917  -0.325  1.00  0.00    -0.206 F 
ATOM     94  C   UNL     1       1.622  25.090   0.678  1.00  0.00     0.060 A 
BRANCH  94  95
ATOM     95  S   UNL     1       0.705  26.636   0.852  1.00  0.00     0.124 S 
ATOM     96  O   UNL     1      -0.246  26.539  -0.250  1.00  0.00    -0.237 OA
ATOM     97  O   UNL     1       0.138  26.513   2.192  1.00  0.00    -0.237 OA
ATOM     98  O   UNL     1       1.734  27.661   0.705  1.00  0.00    -0.744 OA
ENDBRANCH  94  95
ENDBRANCH  62  87
ENDBRANCH  36  37
ENDBRANCH  28  31
ENDBRANCH  26  27
ENDBRANCH  25  26
ENDBRANCH   1  25
TORSDOF 17
