REMARK SMILES CC[C@H](C)[C@H](C(=O)NCCCCCCNC(=O)c1ccc(-c2c3nc(c(-c4c(F)cc(S(=O)(=O)[O-])cc4F)c4ccc([nH]4)c(-c4c(F)cc(S(=O)(=O)[O-])cc4F)c4nc(c(-c5c(F)cc(S(=O)(=O)[O-])cc5F)c5ccc2[nH]5)C=C4)C=C3)cc1)[NH+]1CC2(CC2)C1
REMARK SMILES IDX 12 1 11 2 10 3 9 4 8 5 6 6 7 7 5 9 3 10 4 11 2 12 1 13 84 14
REMARK SMILES IDX 85 15 89 16 86 18 87 19 88 20 13 21 14 22 15 23 16 24 17 26
REMARK SMILES IDX 18 27 19 28 83 29 20 30 82 31 21 32 22 33 23 34 76 35 24 36
REMARK SMILES IDX 81 37 75 38 77 39 25 40 80 41 74 42 73 43 26 45 60 46 39 47
REMARK SMILES IDX 59 48 40 49 43 50 58 51 78 52 41 53 42 54 57 56 79 57 44 58
REMARK SMILES IDX 27 59 28 60 37 61 29 62 30 63 36 64 38 65 31 66 32 67 33 68
REMARK SMILES IDX 34 69 35 70 61 71 62 72 71 73 63 74 64 75 70 76 72 77 65 78
REMARK SMILES IDX 66 79 67 80 68 81 69 82 45 83 46 84 55 85 47 86 48 87 54 88
REMARK SMILES IDX 56 89 49 90 50 91 51 92 52 93 53 94
REMARK H PARENT 8 8 84 17 15 25 77 44 43 55
REMARK Flexibility Score: inf
ROOT
ATOM      1  C   UNL     1      -1.639   1.105   1.403  1.00  0.00     0.002 C 
ENDROOT
BRANCH   1   2
ATOM      2  C   UNL     1      -2.073  -0.046   0.490  1.00  0.00     0.002 C 
BRANCH   2   3
ATOM      3  C   UNL     1      -2.318   0.338  -0.977  1.00  0.00     0.021 C 
BRANCH   3   4
ATOM      4  C   UNL     1      -1.151   1.061  -1.649  1.00  0.00     0.116 C 
BRANCH   4   5
ATOM      5  N   UNL     1       0.080   0.313  -1.486  1.00  0.00    -0.351 N 
ATOM      6  C   UNL     1       1.029  -0.078  -2.379  1.00  0.00     0.278 C 
ATOM      7  O   UNL     1       2.002  -0.659  -1.896  1.00  0.00    -0.268 OA
ATOM      8  H   UNL     1       0.264   0.038  -0.559  1.00  0.00     0.163 HD
BRANCH   6   9
ATOM      9  C   UNL     1       0.895   0.317  -3.866  1.00  0.00     0.277 C 
BRANCH   9  10
ATOM     10  C   UNL     1       1.486   1.758  -4.031  1.00  0.00     0.054 C 
ATOM     11  C   UNL     1       2.983   1.863  -3.704  1.00  0.00     0.014 C 
BRANCH  10  12
ATOM     12  C   UNL     1       1.132   2.373  -5.404  1.00  0.00     0.006 C 
ATOM     13  C   UNL     1       1.952   3.603  -5.773  1.00  0.00     0.004 C 
ENDBRANCH  10  12
ENDBRANCH   9  10
BRANCH   9  14
ATOM     14  N   UNL     1       1.343  -0.684  -4.873  1.00  0.00    -0.323 N 
ATOM     15  C   UNL     1       2.717  -1.171  -4.739  1.00  0.00     0.275 C 
ATOM     16  C   UNL     1       0.798  -2.033  -4.629  1.00  0.00     0.275 C 
ATOM     17  H   UNL     1       1.100  -0.165  -5.717  1.00  0.00     0.348 HD
ATOM     18  C   UNL     1       2.167  -2.461  -4.275  1.00  0.00     0.068 C 
ATOM     19  C   UNL     1       2.574  -3.203  -3.036  1.00  0.00     0.020 C 
ATOM     20  C   UNL     1       2.806  -3.807  -4.391  1.00  0.00     0.020 C 
ENDBRANCH   9  14
ENDBRANCH   6   9
ENDBRANCH   4   5
ENDBRANCH   3   4
ENDBRANCH   2   3
ENDBRANCH   1   2
BRANCH   1  21
ATOM     21  C   UNL     1      -2.604   2.289   1.448  1.00  0.00     0.021 C 
BRANCH  21  22
ATOM     22  C   UNL     1      -4.032   1.925   1.829  1.00  0.00     0.116 C 
BRANCH  22  23
ATOM     23  N   UNL     1      -4.120   1.368   3.168  1.00  0.00    -0.352 N 
ATOM     24  C   UNL     1      -5.004   1.680   4.173  1.00  0.00     0.251 C 
ATOM     25  H   UNL     1      -3.457   0.674   3.385  1.00  0.00     0.163 HD
ATOM     26  O   UNL     1      -4.827   1.244   5.303  1.00  0.00    -0.269 OA
BRANCH  24  27
ATOM     27  C   UNL     1      -6.155   2.564   3.881  1.00  0.00     0.039 A 
ATOM     28  C   UNL     1      -6.477   3.574   4.788  1.00  0.00     0.014 A 
ATOM     29  C   UNL     1      -6.912   2.396   2.717  1.00  0.00     0.014 A 
ATOM     30  C   UNL     1      -7.536   4.440   4.509  1.00  0.00     0.010 A 
ATOM     31  C   UNL     1      -7.909   3.313   2.400  1.00  0.00     0.010 A 
ATOM     32  C   UNL     1      -8.247   4.332   3.302  1.00  0.00    -0.014 A 
BRANCH  32  33
ATOM     33  C   UNL     1      -9.370   5.253   2.990  1.00  0.00     0.031 A 
ATOM     34  C   UNL     1     -10.766   4.711   2.827  1.00  0.00     0.074 A 
ATOM     35  C   UNL     1      -9.129   6.568   2.820  1.00  0.00     0.049 A 
ATOM     36  N   UNL     1     -11.870   5.348   2.536  1.00  0.00    -0.248 NA
ATOM     37  C   UNL     1     -10.939   3.257   2.983  1.00  0.00     0.031 C 
ATOM     38  C   UNL     1      -7.812   7.205   2.901  1.00  0.00     0.029 A 
ATOM     39  N   UNL     1      -9.982   7.607   2.544  1.00  0.00    -0.354 N 
ATOM     40  C   UNL     1     -12.862   4.377   2.466  1.00  0.00     0.074 A 
ATOM     41  C   UNL     1     -12.218   3.100   2.676  1.00  0.00     0.031 C 
ATOM     42  C   UNL     1      -7.951   8.527   2.712  1.00  0.00     0.029 A 
ATOM     43  C   UNL     1      -9.356   8.829   2.459  1.00  0.00     0.049 A 
ATOM     44  H   UNL     1     -10.951   7.489   2.417  1.00  0.00     0.167 HD
ATOM     45  C   UNL     1     -14.194   4.535   2.274  1.00  0.00     0.037 A 
ATOM     46  C   UNL     1      -9.859  10.053   2.207  1.00  0.00     0.037 A 
ATOM     47  C   UNL     1     -14.831   5.812   2.087  1.00  0.00     0.049 A 
ATOM     48  C   UNL     1     -11.342  10.205   1.998  1.00  0.00     0.074 A 
ATOM     49  C   UNL     1     -16.179   6.088   1.936  1.00  0.00     0.029 A 
ATOM     50  N   UNL     1     -14.166   7.029   2.025  1.00  0.00    -0.354 N 
ATOM     51  N   UNL     1     -12.275   9.282   2.000  1.00  0.00    -0.248 NA
ATOM     52  C   UNL     1     -11.844  11.566   1.767  1.00  0.00     0.031 C 
ATOM     53  C   UNL     1     -16.323   7.463   1.729  1.00  0.00     0.029 A 
ATOM     54  C   UNL     1     -15.073   8.055   1.817  1.00  0.00     0.049 A 
ATOM     55  H   UNL     1     -13.193   7.145   2.115  1.00  0.00     0.167 HD
ATOM     56  C   UNL     1     -13.477   9.955   1.806  1.00  0.00     0.074 A 
ATOM     57  C   UNL     1     -13.152  11.363   1.702  1.00  0.00     0.031 C 
ATOM     58  C   UNL     1     -14.735   9.454   1.724  1.00  0.00     0.037 A 
BRANCH  45  59
ATOM     59  C   UNL     1     -15.050   3.296   2.259  1.00  0.00     0.058 A 
ATOM     60  C   UNL     1     -15.262   2.529   3.417  1.00  0.00     0.135 A 
ATOM     61  C   UNL     1     -15.694   2.886   1.080  1.00  0.00     0.135 A 
ATOM     62  F   UNL     1     -14.659   2.863   4.570  1.00  0.00    -0.206 F 
ATOM     63  C   UNL     1     -16.052   1.385   3.399  1.00  0.00     0.059 A 
ATOM     64  C   UNL     1     -16.516   1.763   1.047  1.00  0.00     0.059 A 
ATOM     65  F   UNL     1     -15.527   3.579  -0.057  1.00  0.00    -0.206 F 
ATOM     66  C   UNL     1     -16.677   1.010   2.209  1.00  0.00     0.060 A 
BRANCH  66  67
ATOM     67  S   UNL     1     -17.704  -0.474   2.205  1.00  0.00     0.124 S 
ATOM     68  O   UNL     1     -16.696  -1.525   2.314  1.00  0.00    -0.237 OA
ATOM     69  O   UNL     1     -18.542  -0.275   3.383  1.00  0.00    -0.237 OA
ATOM     70  O   UNL     1     -18.400  -0.404   0.924  1.00  0.00    -0.744 OA
ENDBRANCH  66  67
ENDBRANCH  45  59
BRANCH  46  71
ATOM     71  C   UNL     1      -8.956  11.236   2.169  1.00  0.00     0.058 A 
ATOM     72  C   UNL     1      -9.012  12.224   3.164  1.00  0.00     0.135 A 
ATOM     73  C   UNL     1      -8.014  11.399   1.141  1.00  0.00     0.135 A 
ATOM     74  F   UNL     1      -9.899  12.117   4.165  1.00  0.00    -0.206 F 
ATOM     75  C   UNL     1      -8.184  13.341   3.131  1.00  0.00     0.059 A 
ATOM     76  C   UNL     1      -7.155  12.493   1.103  1.00  0.00     0.059 A 
ATOM     77  F   UNL     1      -7.906  10.475   0.174  1.00  0.00    -0.206 F 
ATOM     78  C   UNL     1      -7.256  13.465   2.096  1.00  0.00     0.060 A 
BRANCH  78  79
ATOM     79  S   UNL     1      -6.156  14.898   2.087  1.00  0.00     0.124 S 
ATOM     80  O   UNL     1      -7.075  15.971   1.727  1.00  0.00    -0.237 OA
ATOM     81  O   UNL     1      -5.662  14.912   3.460  1.00  0.00    -0.237 OA
ATOM     82  O   UNL     1      -5.162  14.551   1.075  1.00  0.00    -0.744 OA
ENDBRANCH  78  79
ENDBRANCH  46  71
BRANCH  58  83
ATOM     83  C   UNL     1     -15.863  10.438   1.562  1.00  0.00     0.058 A 
ATOM     84  C   UNL     1     -16.061  11.154   0.371  1.00  0.00     0.135 A 
ATOM     85  C   UNL     1     -16.781  10.638   2.606  1.00  0.00     0.135 A 
ATOM     86  F   UNL     1     -15.213  11.004  -0.658  1.00  0.00    -0.206 F 
ATOM     87  C   UNL     1     -17.106  12.063   0.235  1.00  0.00     0.059 A 
ATOM     88  C   UNL     1     -17.853  11.516   2.480  1.00  0.00     0.059 A 
ATOM     89  F   UNL     1     -16.648   9.968   3.762  1.00  0.00    -0.206 F 
ATOM     90  C   UNL     1     -17.997  12.237   1.297  1.00  0.00     0.060 A 
BRANCH  90  91
ATOM     91  S   UNL     1     -19.355  13.409   1.103  1.00  0.00     0.124 S 
ATOM     92  O   UNL     1     -18.655  14.687   1.183  1.00  0.00    -0.237 OA
ATOM     93  O   UNL     1     -19.885  13.058  -0.211  1.00  0.00    -0.237 OA
ATOM     94  O   UNL     1     -20.233  13.102   2.228  1.00  0.00    -0.744 OA
ENDBRANCH  90  91
ENDBRANCH  58  83
ENDBRANCH  32  33
ENDBRANCH  24  27
ENDBRANCH  22  23
ENDBRANCH  21  22
ENDBRANCH   1  21
TORSDOF 19
