REMARK SMILES O=C(CNC(=O)c1cccs1)N[C@@H]1C=C[C@H](C(=O)NCCCCCCNC(=O)c2ccc(-c3c4nc(c(-c5c(F)cc(S(=O)(=O)[O-])cc5F)c5ccc([nH]5)c(-c5c(F)cc(S(=O)(=O)[O-])cc5F)c5nc(c(-c6c(F)cc(S(=O)(=O)[O-])cc6F)c6ccc3[nH]6)C=C5)C=C4)cc2)C1
REMARK SMILES IDX 22 1 21 2 20 3 19 4 17 5 18 6 16 8 13 9 14 10 95 11 15 12
REMARK SMILES IDX 12 13 1 14 2 15 3 17 4 18 5 19 6 21 7 22 8 23 11 24 9 25
REMARK SMILES IDX 10 26 23 27 24 28 25 29 26 30 27 31 28 33 29 34 30 35 94 36
REMARK SMILES IDX 31 37 93 38 32 39 33 40 34 41 87 42 35 43 92 44 86 45 88 46
REMARK SMILES IDX 36 47 91 48 85 49 84 50 37 52 71 53 50 54 70 55 51 56 54 57
REMARK SMILES IDX 69 58 89 59 52 60 53 61 68 63 90 64 55 65 38 66 39 67 48 68
REMARK SMILES IDX 40 69 41 70 47 71 49 72 42 73 43 74 44 75 45 76 46 77 72 78
REMARK SMILES IDX 73 79 82 80 74 81 75 82 81 83 83 84 76 85 77 86 78 87 79 88
REMARK SMILES IDX 80 89 56 90 57 91 66 92 58 93 59 94 65 95 67 96 60 97 61 98
REMARK SMILES IDX 62 99 63 100 64 101
REMARK H PARENT 19 7 12 16 4 20 26 32 88 51 54 62
REMARK Flexibility Score: inf
ROOT
ATOM      1  C   UNL     1      -2.887   4.703  -4.368  1.00  0.00     0.002 C 
ENDROOT
BRANCH   1   2
ATOM      2  C   UNL     1      -2.359   4.035  -3.094  1.00  0.00     0.021 C 
BRANCH   2   3
ATOM      3  C   UNL     1      -0.949   3.464  -3.240  1.00  0.00     0.116 C 
BRANCH   3   4
ATOM      4  N   UNL     1       0.045   4.520  -3.215  1.00  0.00    -0.356 N 
ATOM      5  C   UNL     1       0.982   4.892  -2.308  1.00  0.00     0.227 C 
ATOM      6  O   UNL     1       1.588   5.944  -2.551  1.00  0.00    -0.274 OA
ATOM      7  H   UNL     1       0.039   5.082  -4.023  1.00  0.00     0.163 HD
BRANCH   5   8
ATOM      8  C   UNL     1       1.391   4.067  -1.076  1.00  0.00     0.103 C 
ATOM      9  C   UNL     1       2.482   1.871  -1.379  1.00  0.00     0.106 C 
ATOM     10  C   UNL     1       1.106   1.748  -0.826  1.00  0.00    -0.006 C 
ATOM     11  C   UNL     1       2.747   3.383  -1.340  1.00  0.00     0.047 C 
ATOM     12  C   UNL     1       0.538   2.939  -0.604  1.00  0.00    -0.016 C 
BRANCH   9  13
ATOM     13  N   UNL     1       2.538   1.334  -2.720  1.00  0.00    -0.348 N 
ATOM     14  O   UNL     1       4.600   0.387  -2.394  1.00  0.00    -0.273 OA
ATOM     15  C   UNL     1       3.650   0.629  -3.138  1.00  0.00     0.239 C 
ATOM     16  H   UNL     1       1.783   1.472  -3.336  1.00  0.00     0.164 HD
BRANCH  15  17
ATOM     17  C   UNL     1       3.756   0.380  -4.643  1.00  0.00     0.216 C 
BRANCH  17  18
ATOM     18  N   UNL     1       2.496   0.090  -5.305  1.00  0.00    -0.342 N 
ATOM     19  C   UNL     1       1.959   0.637  -6.444  1.00  0.00     0.261 C 
ATOM     20  H   UNL     1       1.945  -0.602  -4.873  1.00  0.00     0.164 HD
ATOM     21  O   UNL     1       0.825   0.263  -6.756  1.00  0.00    -0.268 OA
BRANCH  19  22
ATOM     22  C   UNL     1       2.705   1.634  -7.188  1.00  0.00     0.092 A 
ATOM     23  C   UNL     1       4.034   1.664  -7.576  1.00  0.00     0.025 A 
ATOM     24  S   UNL     1       1.866   3.021  -7.754  1.00  0.00    -0.139 S 
ATOM     25  C   UNL     1       4.377   2.869  -8.259  1.00  0.00     0.012 A 
ATOM     26  C   UNL     1       3.287   3.694  -8.422  1.00  0.00     0.065 A 
ENDBRANCH  19  22
ENDBRANCH  17  18
ENDBRANCH  15  17
ENDBRANCH   9  13
ENDBRANCH   5   8
ENDBRANCH   3   4
ENDBRANCH   2   3
ENDBRANCH   1   2
BRANCH   1  27
ATOM     27  C   UNL     1      -2.884   3.808  -5.613  1.00  0.00     0.002 C 
BRANCH  27  28
ATOM     28  C   UNL     1      -3.576   2.453  -5.438  1.00  0.00     0.021 C 
BRANCH  28  29
ATOM     29  C   UNL     1      -5.049   2.545  -5.054  1.00  0.00     0.116 C 
BRANCH  29  30
ATOM     30  N   UNL     1      -5.836   3.200  -6.087  1.00  0.00    -0.352 N 
ATOM     31  C   UNL     1      -6.954   2.747  -6.741  1.00  0.00     0.251 C 
ATOM     32  H   UNL     1      -5.524   4.095  -6.353  1.00  0.00     0.163 HD
ATOM     33  O   UNL     1      -7.362   3.332  -7.739  1.00  0.00    -0.269 OA
BRANCH  31  34
ATOM     34  C   UNL     1      -7.652   1.543  -6.244  1.00  0.00     0.039 A 
ATOM     35  C   UNL     1      -8.052   0.564  -7.156  1.00  0.00     0.014 A 
ATOM     36  C   UNL     1      -7.910   1.383  -4.879  1.00  0.00     0.014 A 
ATOM     37  C   UNL     1      -8.660  -0.604  -6.691  1.00  0.00     0.010 A 
ATOM     38  C   UNL     1      -8.447   0.187  -4.412  1.00  0.00     0.010 A 
ATOM     39  C   UNL     1      -8.832  -0.817  -5.313  1.00  0.00    -0.014 A 
BRANCH  39  40
ATOM     40  C   UNL     1      -9.406  -2.086  -4.795  1.00  0.00     0.031 A 
ATOM     41  C   UNL     1     -10.702  -2.073  -4.031  1.00  0.00     0.074 A 
ATOM     42  C   UNL     1      -8.725  -3.238  -4.957  1.00  0.00     0.049 A 
ATOM     43  N   UNL     1     -11.324  -3.062  -3.444  1.00  0.00    -0.248 NA
ATOM     44  C   UNL     1     -11.375  -0.772  -3.884  1.00  0.00     0.031 C 
ATOM     45  C   UNL     1      -7.435  -3.369  -5.638  1.00  0.00     0.029 A 
ATOM     46  N   UNL     1      -9.016  -4.517  -4.552  1.00  0.00    -0.354 N 
ATOM     47  C   UNL     1     -12.451  -2.505  -2.850  1.00  0.00     0.074 A 
ATOM     48  C   UNL     1     -12.397  -1.081  -3.100  1.00  0.00     0.031 C 
ATOM     49  C   UNL     1      -7.059  -4.658  -5.624  1.00  0.00     0.029 A 
ATOM     50  C   UNL     1      -8.055  -5.438  -4.897  1.00  0.00     0.049 A 
ATOM     51  H   UNL     1      -9.836  -4.753  -4.061  1.00  0.00     0.167 HD
ATOM     52  C   UNL     1     -13.450  -3.126  -2.179  1.00  0.00     0.037 A 
ATOM     53  C   UNL     1      -7.979  -6.760  -4.647  1.00  0.00     0.037 A 
ATOM     54  C   UNL     1     -13.503  -4.548  -1.953  1.00  0.00     0.049 A 
ATOM     55  C   UNL     1      -9.097  -7.427  -3.891  1.00  0.00     0.074 A 
ATOM     56  C   UNL     1     -14.498  -5.282  -1.332  1.00  0.00     0.029 A 
ATOM     57  N   UNL     1     -12.520  -5.450  -2.334  1.00  0.00    -0.354 N 
ATOM     58  N   UNL     1     -10.186  -6.893  -3.392  1.00  0.00    -0.248 NA
ATOM     59  C   UNL     1      -8.980  -8.874  -3.670  1.00  0.00     0.031 C 
ATOM     60  C   UNL     1     -14.093  -6.620  -1.290  1.00  0.00     0.029 A 
ATOM     61  C   UNL     1     -12.874  -6.730  -1.941  1.00  0.00     0.049 A 
ATOM     62  H   UNL     1     -11.693  -5.215  -2.814  1.00  0.00     0.167 HD
ATOM     63  C   UNL     1     -10.901  -7.945  -2.828  1.00  0.00     0.074 A 
ATOM     64  C   UNL     1     -10.123  -9.146  -3.054  1.00  0.00     0.031 C 
ATOM     65  C   UNL     1     -12.094  -7.919  -2.184  1.00  0.00     0.037 A 
BRANCH  52  66
ATOM     66  C   UNL     1     -14.569  -2.274  -1.641  1.00  0.00     0.058 A 
ATOM     67  C   UNL     1     -15.489  -1.639  -2.492  1.00  0.00     0.135 A 
ATOM     68  C   UNL     1     -14.749  -2.123  -0.257  1.00  0.00     0.135 A 
ATOM     69  F   UNL     1     -15.358  -1.737  -3.824  1.00  0.00    -0.206 F 
ATOM     70  C   UNL     1     -16.528  -0.861  -1.990  1.00  0.00     0.059 A 
ATOM     71  C   UNL     1     -15.800  -1.375   0.268  1.00  0.00     0.059 A 
ATOM     72  F   UNL     1     -13.900  -2.707   0.604  1.00  0.00    -0.206 F 
ATOM     73  C   UNL     1     -16.675  -0.736  -0.608  1.00  0.00     0.060 A 
BRANCH  73  74
ATOM     74  S   UNL     1     -18.033   0.271   0.025  1.00  0.00     0.124 S 
ATOM     75  O   UNL     1     -17.578   1.617  -0.311  1.00  0.00    -0.237 OA
ATOM     76  O   UNL     1     -19.171  -0.223  -0.744  1.00  0.00    -0.237 OA
ATOM     77  O   UNL     1     -18.057  -0.045   1.449  1.00  0.00    -0.744 OA
ENDBRANCH  73  74
ENDBRANCH  52  66
BRANCH  53  78
ATOM     78  C   UNL     1      -6.811  -7.543  -5.135  1.00  0.00     0.058 A 
ATOM     79  C   UNL     1      -6.952  -8.486  -6.164  1.00  0.00     0.135 A 
ATOM     80  C   UNL     1      -5.530  -7.354  -4.594  1.00  0.00     0.135 A 
ATOM     81  F   UNL     1      -8.157  -8.707  -6.711  1.00  0.00    -0.206 F 
ATOM     82  C   UNL     1      -5.870  -9.230  -6.625  1.00  0.00     0.059 A 
ATOM     83  C   UNL     1      -4.427  -8.065  -5.058  1.00  0.00     0.059 A 
ATOM     84  F   UNL     1      -5.336  -6.451  -3.620  1.00  0.00    -0.206 F 
ATOM     85  C   UNL     1      -4.610  -9.009  -6.067  1.00  0.00     0.060 A 
BRANCH  85  86
ATOM     86  S   UNL     1      -3.205  -9.950  -6.702  1.00  0.00     0.124 S 
ATOM     87  O   UNL     1      -3.479 -11.281  -6.173  1.00  0.00    -0.237 OA
ATOM     88  O   UNL     1      -3.358  -9.791  -8.145  1.00  0.00    -0.237 OA
ATOM     89  O   UNL     1      -2.053  -9.265  -6.122  1.00  0.00    -0.744 OA
ENDBRANCH  85  86
ENDBRANCH  53  78
BRANCH  65  90
ATOM     90  C   UNL     1     -12.663  -9.232  -1.718  1.00  0.00     0.058 A 
ATOM     91  C   UNL     1     -12.117  -9.934  -0.632  1.00  0.00     0.135 A 
ATOM     92  C   UNL     1     -13.811  -9.762  -2.331  1.00  0.00     0.135 A 
ATOM     93  F   UNL     1     -11.017  -9.475  -0.015  1.00  0.00    -0.206 F 
ATOM     94  C   UNL     1     -12.677 -11.126  -0.184  1.00  0.00     0.059 A 
ATOM     95  C   UNL     1     -14.405 -10.936  -1.880  1.00  0.00     0.059 A 
ATOM     96  F   UNL     1     -14.379  -9.125  -3.367  1.00  0.00    -0.206 F 
ATOM     97  C   UNL     1     -13.823 -11.617  -0.812  1.00  0.00     0.060 A 
BRANCH  97  98
ATOM     98  S   UNL     1     -14.562 -13.143  -0.192  1.00  0.00     0.124 S 
ATOM     99  O   UNL     1     -13.601 -14.142  -0.648  1.00  0.00    -0.237 OA
ATOM    100  O   UNL     1     -14.599 -12.909   1.248  1.00  0.00    -0.237 OA
ATOM    101  O   UNL     1     -15.866 -13.181  -0.848  1.00  0.00    -0.744 OA
ENDBRANCH  97  98
ENDBRANCH  65  90
ENDBRANCH  39  40
ENDBRANCH  31  34
ENDBRANCH  29  30
ENDBRANCH  28  29
ENDBRANCH  27  28
ENDBRANCH   1  27
TORSDOF 20
