REMARK SMILES O=C(NCCCCCCNC(=O)[C@H]1C[C@](O)(c2ccccc2Cl)[C@@H](c2ccccc2Cl)O1)c1ccc(-c2c3nc(c(-c4c(F)cc(S(=O)(=O)[O-])cc4F)c4ccc([nH]4)c(-c4c(F)cc(S(=O)(=O)[O-])cc4F)c4nc(c(-c5c(F)cc(S(=O)(=O)[O-])cc5F)c5ccc2[nH]5)C=C4)C=C3)cc1
REMARK SMILES IDX 5 1 4 2 3 3 1 4 2 5 33 7 34 8 98 9 35 10 97 11 36 12 37 13
REMARK SMILES IDX 38 14 91 15 39 16 96 17 90 18 92 19 40 20 95 21 89 22 88 23
REMARK SMILES IDX 41 25 75 26 54 27 74 28 55 29 58 30 73 31 93 32 56 33 57 34
REMARK SMILES IDX 72 36 94 37 59 38 42 39 43 40 52 41 44 42 45 43 51 44 53 45
REMARK SMILES IDX 46 46 47 47 48 48 49 49 50 50 76 51 77 52 86 53 78 54 79 55
REMARK SMILES IDX 85 56 87 57 80 58 81 59 82 60 83 61 84 62 60 63 61 64 70 65
REMARK SMILES IDX 62 66 63 67 69 68 71 69 64 70 65 71 66 72 67 73 68 74 6 75
REMARK SMILES IDX 7 76 8 77 9 78 10 79 11 80 12 82 13 83 14 84 32 85 15 86
REMARK SMILES IDX 24 87 17 88 18 89 22 90 19 91 21 92 23 93 20 94 16 95 25 97
REMARK SMILES IDX 26 98 30 99 27 100 29 101 31 102 28 103
REMARK H PARENT 3 6 92 24 58 35 10 81 16 96
REMARK Flexibility Score: inf
ROOT
ATOM      1  C   UNL     1      13.792 -10.093  -5.620  1.00  0.00     0.021 C 
ENDROOT
BRANCH   1   2
ATOM      2  C   UNL     1      13.706 -11.615  -5.658  1.00  0.00     0.116 C 
BRANCH   2   3
ATOM      3  N   UNL     1      14.287 -12.203  -6.853  1.00  0.00    -0.352 N 
ATOM      4  O   UNL     1      15.591 -13.606  -8.047  1.00  0.00    -0.269 OA
ATOM      5  C   UNL     1      15.123 -13.293  -6.961  1.00  0.00     0.251 C 
ATOM      6  H   UNL     1      14.052 -11.763  -7.701  1.00  0.00     0.163 HD
BRANCH   5   7
ATOM      7  C   UNL     1      15.485 -14.058  -5.743  1.00  0.00     0.039 A 
ATOM      8  C   UNL     1      14.509 -14.441  -4.821  1.00  0.00     0.014 A 
ATOM      9  C   UNL     1      16.828 -14.367  -5.511  1.00  0.00     0.014 A 
ATOM     10  C   UNL     1      14.891 -14.984  -3.599  1.00  0.00     0.010 A 
ATOM     11  C   UNL     1      17.201 -14.992  -4.316  1.00  0.00     0.010 A 
ATOM     12  C   UNL     1      16.241 -15.266  -3.330  1.00  0.00    -0.014 A 
BRANCH  12  13
ATOM     13  C   UNL     1      16.613 -15.868  -2.022  1.00  0.00     0.031 A 
ATOM     14  C   UNL     1      17.478 -15.124  -1.038  1.00  0.00     0.074 A 
ATOM     15  C   UNL     1      16.125 -17.084  -1.706  1.00  0.00     0.049 A 
ATOM     16  N   UNL     1      17.856 -15.485   0.163  1.00  0.00    -0.248 NA
ATOM     17  C   UNL     1      17.994 -13.812  -1.456  1.00  0.00     0.031 C 
ATOM     18  C   UNL     1      15.290 -17.910  -2.583  1.00  0.00     0.029 A 
ATOM     19  N   UNL     1      16.236 -17.829  -0.559  1.00  0.00    -0.354 N 
ATOM     20  C   UNL     1      18.673 -14.462   0.633  1.00  0.00     0.074 A 
ATOM     21  C   UNL     1      18.752 -13.473  -0.421  1.00  0.00     0.031 C 
ATOM     22  C   UNL     1      14.919 -19.017  -1.925  1.00  0.00     0.029 A 
ATOM     23  C   UNL     1      15.533 -19.009  -0.602  1.00  0.00     0.049 A 
ATOM     24  H   UNL     1      16.767 -17.545   0.219  1.00  0.00     0.167 HD
ATOM     25  C   UNL     1      19.293 -14.355   1.834  1.00  0.00     0.037 A 
ATOM     26  C   UNL     1      15.399 -19.983   0.319  1.00  0.00     0.037 A 
ATOM     27  C   UNL     1      19.187 -15.331   2.889  1.00  0.00     0.049 A 
ATOM     28  C   UNL     1      16.085 -19.833   1.646  1.00  0.00     0.074 A 
ATOM     29  C   UNL     1      19.744 -15.294   4.156  1.00  0.00     0.029 A 
ATOM     30  N   UNL     1      18.477 -16.521   2.802  1.00  0.00    -0.354 N 
ATOM     31  N   UNL     1      16.827 -18.843   2.081  1.00  0.00    -0.248 NA
ATOM     32  C   UNL     1      15.916 -20.930   2.606  1.00  0.00     0.031 C 
ATOM     33  C   UNL     1      19.402 -16.477   4.822  1.00  0.00     0.029 A 
ATOM     34  C   UNL     1      18.594 -17.231   3.986  1.00  0.00     0.049 A 
ATOM     35  H   UNL     1      17.965 -16.816   2.015  1.00  0.00     0.167 HD
ATOM     36  C   UNL     1      17.197 -19.189   3.375  1.00  0.00     0.074 A 
ATOM     37  C   UNL     1      16.584 -20.472   3.656  1.00  0.00     0.031 C 
ATOM     38  C   UNL     1      17.973 -18.505   4.252  1.00  0.00     0.037 A 
BRANCH  25  39
ATOM     39  C   UNL     1      20.160 -13.148   2.070  1.00  0.00     0.058 A 
ATOM     40  C   UNL     1      19.615 -11.870   2.272  1.00  0.00     0.135 A 
ATOM     41  C   UNL     1      21.558 -13.279   2.134  1.00  0.00     0.135 A 
ATOM     42  F   UNL     1      18.287 -11.684   2.209  1.00  0.00    -0.206 F 
ATOM     43  C   UNL     1      20.425 -10.761   2.502  1.00  0.00     0.059 A 
ATOM     44  C   UNL     1      22.386 -12.188   2.387  1.00  0.00     0.059 A 
ATOM     45  F   UNL     1      22.133 -14.478   1.951  1.00  0.00    -0.206 F 
ATOM     46  C   UNL     1      21.810 -10.930   2.554  1.00  0.00     0.060 A 
BRANCH  46  47
ATOM     47  S   UNL     1      22.847  -9.481   2.849  1.00  0.00     0.124 S 
ATOM     48  O   UNL     1      22.779  -8.809   1.555  1.00  0.00    -0.237 OA
ATOM     49  O   UNL     1      22.152  -8.815   3.945  1.00  0.00    -0.237 OA
ATOM     50  O   UNL     1      24.145 -10.056   3.190  1.00  0.00    -0.744 OA
ENDBRANCH  46  47
ENDBRANCH  25  39
BRANCH  26  51
ATOM     51  C   UNL     1      14.565 -21.174   0.015  1.00  0.00     0.058 A 
ATOM     52  C   UNL     1      13.331 -21.373   0.651  1.00  0.00     0.135 A 
ATOM     53  C   UNL     1      14.970 -22.120  -0.940  1.00  0.00     0.135 A 
ATOM     54  F   UNL     1      12.903 -20.497   1.573  1.00  0.00    -0.206 F 
ATOM     55  C   UNL     1      12.532 -22.474   0.362  1.00  0.00     0.059 A 
ATOM     56  C   UNL     1      14.176 -23.214  -1.266  1.00  0.00     0.059 A 
ATOM     57  F   UNL     1      16.133 -21.963  -1.590  1.00  0.00    -0.206 F 
ATOM     58  C   UNL     1      12.963 -23.388  -0.602  1.00  0.00     0.060 A 
BRANCH  58  59
ATOM     59  S   UNL     1      11.894 -24.784  -1.013  1.00  0.00     0.124 S 
ATOM     60  O   UNL     1      12.098 -25.657   0.136  1.00  0.00    -0.237 OA
ATOM     61  O   UNL     1      10.582 -24.149  -1.109  1.00  0.00    -0.237 OA
ATOM     62  O   UNL     1      12.443 -25.262  -2.279  1.00  0.00    -0.744 OA
ENDBRANCH  58  59
ENDBRANCH  26  51
BRANCH  38  63
ATOM     63  C   UNL     1      18.169 -19.116   5.611  1.00  0.00     0.058 A 
ATOM     64  C   UNL     1      18.991 -20.236   5.805  1.00  0.00     0.135 A 
ATOM     65  C   UNL     1      17.539 -18.560   6.735  1.00  0.00     0.135 A 
ATOM     66  F   UNL     1      19.610 -20.810   4.761  1.00  0.00    -0.206 F 
ATOM     67  C   UNL     1      19.156 -20.805   7.064  1.00  0.00     0.059 A 
ATOM     68  C   UNL     1      17.710 -19.096   8.007  1.00  0.00     0.059 A 
ATOM     69  F   UNL     1      16.749 -17.482   6.604  1.00  0.00    -0.206 F 
ATOM     70  C   UNL     1      18.507 -20.230   8.158  1.00  0.00     0.060 A 
BRANCH  70  71
ATOM     71  S   UNL     1      18.734 -20.968   9.790  1.00  0.00     0.124 S 
ATOM     72  O   UNL     1      17.861 -22.134   9.708  1.00  0.00    -0.237 OA
ATOM     73  O   UNL     1      20.167 -21.248   9.813  1.00  0.00    -0.237 OA
ATOM     74  O   UNL     1      18.294 -19.916  10.701  1.00  0.00    -0.744 OA
ENDBRANCH  70  71
ENDBRANCH  38  63
ENDBRANCH  12  13
ENDBRANCH   5   7
ENDBRANCH   2   3
ENDBRANCH   1   2
BRANCH   1  75
ATOM     75  C   UNL     1      13.061  -9.351  -6.740  1.00  0.00     0.002 C 
BRANCH  75  76
ATOM     76  C   UNL     1      11.598  -9.745  -6.971  1.00  0.00     0.002 C 
BRANCH  76  77
ATOM     77  C   UNL     1      10.705  -9.776  -5.727  1.00  0.00     0.021 C 
BRANCH  77  78
ATOM     78  C   UNL     1      10.498  -8.425  -5.045  1.00  0.00     0.116 C 
BRANCH  78  79
ATOM     79  N   UNL     1       9.532  -7.610  -5.752  1.00  0.00    -0.354 N 
ATOM     80  C   UNL     1       8.758  -6.561  -5.385  1.00  0.00     0.249 C 
ATOM     81  H   UNL     1       9.414  -7.873  -6.694  1.00  0.00     0.163 HD
ATOM     82  O   UNL     1       8.042  -6.104  -6.290  1.00  0.00    -0.272 OA
BRANCH  80  83
ATOM     83  C   UNL     1       8.753  -5.860  -4.005  1.00  0.00     0.211 C 
ATOM     84  C   UNL     1       9.034  -6.594  -2.721  1.00  0.00     0.085 C 
ATOM     85  O   UNL     1       9.536  -4.670  -4.005  1.00  0.00    -0.357 OA
ATOM     86  C   UNL     1      10.397  -6.090  -2.219  1.00  0.00     0.124 C 
ATOM     87  C   UNL     1      10.585  -4.748  -3.010  1.00  0.00     0.187 C 
BRANCH  86  88
ATOM     88  C   UNL     1      10.340  -6.222  -0.683  1.00  0.00     0.005 A 
ATOM     89  C   UNL     1      10.521  -7.537  -0.163  1.00  0.00     0.008 A 
ATOM     90  C   UNL     1       9.957  -5.243   0.252  1.00  0.00     0.047 A 
ATOM     91  C   UNL     1      10.357  -7.852   1.188  1.00  0.00     0.001 A 
ATOM     92  C   UNL     1       9.822  -5.560   1.619  1.00  0.00     0.021 A 
ATOM     93  Cl  UNL     1       9.500  -3.629  -0.144  1.00  0.00    -0.084 Cl
ATOM     94  C   UNL     1      10.013  -6.857   2.085  1.00  0.00     0.002 A 
ENDBRANCH  86  88
BRANCH  86  95
ATOM     95  O   UNL     1      11.403  -7.021  -2.668  1.00  0.00    -0.382 OA
ATOM     96  H   UNL     1      11.477  -6.976  -3.634  1.00  0.00     0.212 HD
ENDBRANCH  86  95
BRANCH  87  97
ATOM     97  C   UNL     1      11.904  -4.519  -3.751  1.00  0.00     0.003 A 
ATOM     98  C   UNL     1      12.048  -4.939  -5.092  1.00  0.00     0.008 A 
ATOM     99  C   UNL     1      12.989  -3.843  -3.174  1.00  0.00     0.046 A 
ATOM    100  C   UNL     1      13.205  -4.684  -5.829  1.00  0.00     0.000 A 
ATOM    101  C   UNL     1      14.146  -3.570  -3.920  1.00  0.00     0.021 A 
ATOM    102  Cl  UNL     1      12.964  -3.304  -1.534  1.00  0.00    -0.084 Cl
ATOM    103  C   UNL     1      14.253  -3.988  -5.246  1.00  0.00     0.002 A 
ENDBRANCH  87  97
ENDBRANCH  80  83
ENDBRANCH  78  79
ENDBRANCH  77  78
ENDBRANCH  76  77
ENDBRANCH  75  76
ENDBRANCH   1  75
TORSDOF 19
