REMARK SMILES COc1ccc(S(=O)(=O)N2CCC[C@H](C(=O)N3CCC[C@H](C(=O)NCCCCCCNC(=O)c4ccc(-c5c6nc(c(-c7c(F)cc(S(=O)(=O)[O-])cc7F)c7ccc([nH]7)c(-c7c(F)cc(S(=O)(=O)[O-])cc7F)c7nc(c(-c8c(F)cc(S(=O)(=O)[O-])cc8F)c8ccc5[nH]8)C=C7)C=C6)cc4)C3)C2)cc1
REMARK SMILES IDX 26 1 25 2 24 3 22 4 23 5 21 7 17 8 18 9 100 10 19 11 20 12
REMARK SMILES IDX 15 13 16 14 14 15 10 16 11 17 101 18 12 19 13 20 7 21 8 22
REMARK SMILES IDX 9 23 6 24 3 25 4 26 103 27 5 28 102 29 2 30 1 31 27 32 28 33
REMARK SMILES IDX 29 34 30 35 31 36 32 37 33 39 34 40 35 41 99 42 36 43 98 44
REMARK SMILES IDX 37 45 38 46 39 47 92 48 40 49 97 50 91 51 93 52 41 53 96 54
REMARK SMILES IDX 90 55 89 56 42 58 76 59 55 60 75 61 56 62 59 63 74 64 94 65
REMARK SMILES IDX 57 66 58 67 73 69 95 70 60 71 43 72 44 73 53 74 45 75 46 76
REMARK SMILES IDX 52 77 54 78 47 79 48 80 49 81 50 82 51 83 77 84 78 85 87 86
REMARK SMILES IDX 79 87 80 88 86 89 88 90 81 91 82 92 83 93 84 94 85 95 61 96
REMARK SMILES IDX 62 97 71 98 63 99 64 100 70 101 72 102 65 103 66 104 67 105
REMARK SMILES IDX 68 106 69 107
REMARK H PARENT 24 6 31 38 93 57 59 68
REMARK Flexibility Score: inf
ROOT
ATOM      1  C   UNL     1       8.425   1.838  11.787  1.00  0.00     0.021 C 
ENDROOT
BRANCH   1   2
ATOM      2  C   UNL     1       8.160   0.907  10.608  1.00  0.00     0.116 C 
BRANCH   2   3
ATOM      3  N   UNL     1       8.677  -0.427  10.802  1.00  0.00    -0.356 N 
ATOM      4  C   UNL     1       8.081  -1.631  10.614  1.00  0.00     0.224 C 
ATOM      5  O   UNL     1       8.813  -2.626  10.683  1.00  0.00    -0.275 OA
ATOM      6  H   UNL     1       9.607  -0.470  11.121  1.00  0.00     0.163 HD
BRANCH   4   7
ATOM      7  C   UNL     1       6.588  -1.819  10.319  1.00  0.00     0.098 C 
ATOM      8  N   UNL     1       5.500  -0.070   8.887  1.00  0.00    -0.342 N 
ATOM      9  C   UNL     1       4.445   0.162   9.868  1.00  0.00     0.119 C 
ATOM     10  C   UNL     1       6.153  -1.366   8.924  1.00  0.00     0.133 C 
ATOM     11  C   UNL     1       4.884  -0.120  11.300  1.00  0.00     0.022 C 
ATOM     12  C   UNL     1       5.628  -1.445  11.455  1.00  0.00     0.017 C 
BRANCH   8  13
ATOM     13  C   UNL     1       5.914   0.983   8.100  1.00  0.00     0.227 C 
ATOM     14  O   UNL     1       6.086   2.103   8.595  1.00  0.00    -0.275 OA
BRANCH  13  15
ATOM     15  C   UNL     1       5.928   0.859   6.575  1.00  0.00     0.094 C 
ATOM     16  N   UNL     1       3.548   0.277   6.311  1.00  0.00    -0.197 NA
ATOM     17  C   UNL     1       3.819  -1.121   5.939  1.00  0.00     0.102 C 
ATOM     18  C   UNL     1       4.566   1.316   6.069  1.00  0.00     0.116 C 
ATOM     19  C   UNL     1       5.284  -1.497   5.741  1.00  0.00     0.018 C 
ATOM     20  C   UNL     1       6.342  -0.407   5.848  1.00  0.00     0.016 C 
BRANCH  16  21
ATOM     21  S   UNL     1       1.915   0.763   6.312  1.00  0.00     0.243 S 
ATOM     22  O   UNL     1       1.836   2.081   6.894  1.00  0.00    -0.207 OA
ATOM     23  O   UNL     1       1.152  -0.349   6.848  1.00  0.00    -0.207 OA
BRANCH  21  24
ATOM     24  C   UNL     1       1.434   0.913   4.602  1.00  0.00     0.082 A 
ATOM     25  C   UNL     1       0.512   0.949   1.960  1.00  0.00     0.118 A 
ATOM     26  C   UNL     1      -0.362   1.223   3.014  1.00  0.00     0.048 A 
ATOM     27  C   UNL     1       1.861   0.722   2.227  1.00  0.00     0.048 A 
ATOM     28  C   UNL     1       0.091   1.196   4.336  1.00  0.00     0.025 A 
ATOM     29  C   UNL     1       2.321   0.699   3.545  1.00  0.00     0.025 A 
BRANCH  25  30
ATOM     30  O   UNL     1      -0.044   0.941   0.711  1.00  0.00    -0.497 OA
ATOM     31  C   UNL     1       0.621   0.117  -0.241  1.00  0.00     0.278 C 
ENDBRANCH  25  30
ENDBRANCH  21  24
ENDBRANCH  16  21
ENDBRANCH  13  15
ENDBRANCH   8  13
ENDBRANCH   4   7
ENDBRANCH   2   3
ENDBRANCH   1   2
BRANCH   1  32
ATOM     32  C   UNL     1       9.591   2.805  11.573  1.00  0.00     0.002 C 
BRANCH  32  33
ATOM     33  C   UNL     1       9.470   3.740  10.363  1.00  0.00     0.002 C 
BRANCH  33  34
ATOM     34  C   UNL     1       8.180   4.561  10.264  1.00  0.00     0.021 C 
BRANCH  34  35
ATOM     35  C   UNL     1       7.843   5.423  11.477  1.00  0.00     0.116 C 
BRANCH  35  36
ATOM     36  N   UNL     1       8.930   6.315  11.848  1.00  0.00    -0.352 N 
ATOM     37  C   UNL     1       8.932   7.669  12.062  1.00  0.00     0.251 C 
ATOM     38  H   UNL     1       9.803   5.876  11.963  1.00  0.00     0.163 HD
ATOM     39  O   UNL     1      10.002   8.253  12.215  1.00  0.00    -0.269 OA
BRANCH  37  40
ATOM     40  C   UNL     1       7.665   8.433  12.094  1.00  0.00     0.039 A 
ATOM     41  C   UNL     1       7.619   9.676  11.455  1.00  0.00     0.014 A 
ATOM     42  C   UNL     1       6.545   7.961  12.784  1.00  0.00     0.014 A 
ATOM     43  C   UNL     1       6.438  10.422  11.465  1.00  0.00     0.010 A 
ATOM     44  C   UNL     1       5.350   8.678  12.745  1.00  0.00     0.010 A 
ATOM     45  C   UNL     1       5.287   9.918  12.091  1.00  0.00    -0.014 A 
BRANCH  45  46
ATOM     46  C   UNL     1       4.012  10.678  12.076  1.00  0.00     0.031 A 
ATOM     47  C   UNL     1       3.447  11.231  13.355  1.00  0.00     0.074 A 
ATOM     48  C   UNL     1       3.334  10.817  10.921  1.00  0.00     0.049 A 
ATOM     49  N   UNL     1       2.318  11.861  13.557  1.00  0.00    -0.248 NA
ATOM     50  C   UNL     1       4.247  11.028  14.574  1.00  0.00     0.031 C 
ATOM     51  C   UNL     1       3.757  10.284   9.624  1.00  0.00     0.029 A 
ATOM     52  N   UNL     1       2.139  11.436  10.652  1.00  0.00    -0.354 N 
ATOM     53  C   UNL     1       2.261  12.111  14.922  1.00  0.00     0.074 A 
ATOM     54  C   UNL     1       3.451  11.530  15.507  1.00  0.00     0.031 C 
ATOM     55  C   UNL     1       2.843  10.610   8.696  1.00  0.00     0.029 A 
ATOM     56  C   UNL     1       1.757  11.348   9.334  1.00  0.00     0.049 A 
ATOM     57  H   UNL     1       1.607  11.900  11.338  1.00  0.00     0.167 HD
ATOM     58  C   UNL     1       1.313  12.778  15.623  1.00  0.00     0.037 A 
ATOM     59  C   UNL     1       0.653  11.805   8.712  1.00  0.00     0.037 A 
ATOM     60  C   UNL     1       0.145  13.377  15.031  1.00  0.00     0.049 A 
ATOM     61  C   UNL     1      -0.375  12.563   9.504  1.00  0.00     0.074 A 
ATOM     62  C   UNL     1      -0.845  14.125  15.644  1.00  0.00     0.029 A 
ATOM     63  N   UNL     1      -0.190  13.297  13.687  1.00  0.00    -0.354 N 
ATOM     64  N   UNL     1      -0.385  12.841  10.787  1.00  0.00    -0.248 NA
ATOM     65  C   UNL     1      -1.536  13.078   8.767  1.00  0.00     0.031 C 
ATOM     66  C   UNL     1      -1.794  14.473  14.675  1.00  0.00     0.029 A 
ATOM     67  C   UNL     1      -1.377  13.972  13.452  1.00  0.00     0.049 A 
ATOM     68  H   UNL     1       0.339  12.830  13.000  1.00  0.00     0.167 HD
ATOM     69  C   UNL     1      -1.542  13.579  11.006  1.00  0.00     0.074 A 
ATOM     70  C   UNL     1      -2.201  13.714   9.722  1.00  0.00     0.031 C 
ATOM     71  C   UNL     1      -2.015  14.099  12.166  1.00  0.00     0.037 A 
BRANCH  58  72
ATOM     72  C   UNL     1       1.506  12.893  17.110  1.00  0.00     0.058 A 
ATOM     73  C   UNL     1       2.496  13.723  17.660  1.00  0.00     0.135 A 
ATOM     74  C   UNL     1       0.689  12.172  17.995  1.00  0.00     0.135 A 
ATOM     75  F   UNL     1       3.313  14.424  16.859  1.00  0.00    -0.206 F 
ATOM     76  C   UNL     1       2.695  13.804  19.035  1.00  0.00     0.059 A 
ATOM     77  C   UNL     1       0.854  12.258  19.375  1.00  0.00     0.059 A 
ATOM     78  F   UNL     1      -0.275  11.366  17.523  1.00  0.00    -0.206 F 
ATOM     79  C   UNL     1       1.874  13.061  19.884  1.00  0.00     0.060 A 
BRANCH  79  80
ATOM     80  S   UNL     1       2.155  13.159  21.665  1.00  0.00     0.124 S 
ATOM     81  O   UNL     1       3.332  12.310  21.820  1.00  0.00    -0.237 OA
ATOM     82  O   UNL     1       2.374  14.588  21.872  1.00  0.00    -0.237 OA
ATOM     83  O   UNL     1       0.919  12.630  22.233  1.00  0.00    -0.744 OA
ENDBRANCH  79  80
ENDBRANCH  58  72
BRANCH  59  84
ATOM     84  C   UNL     1       0.486  11.581   7.253  1.00  0.00     0.058 A 
ATOM     85  C   UNL     1       0.661  12.631   6.341  1.00  0.00     0.135 A 
ATOM     86  C   UNL     1       0.191  10.309   6.739  1.00  0.00     0.135 A 
ATOM     87  F   UNL     1       0.939  13.866   6.787  1.00  0.00    -0.206 F 
ATOM     88  C   UNL     1       0.545  12.432   4.970  1.00  0.00     0.059 A 
ATOM     89  C   UNL     1       0.090  10.080   5.370  1.00  0.00     0.059 A 
ATOM     90  F   UNL     1       0.029   9.269   7.572  1.00  0.00    -0.206 F 
ATOM     91  C   UNL     1       0.264  11.150   4.493  1.00  0.00     0.060 A 
BRANCH  91  92
ATOM     92  S   UNL     1       0.187  10.887   2.707  1.00  0.00     0.124 S 
ATOM     93  O   UNL     1      -1.115  11.458   2.382  1.00  0.00    -0.237 OA
ATOM     94  O   UNL     1       1.348  11.635   2.234  1.00  0.00    -0.237 OA
ATOM     95  O   UNL     1       0.292   9.437   2.577  1.00  0.00    -0.744 OA
ENDBRANCH  91  92
ENDBRANCH  59  84
BRANCH  71  96
ATOM     96  C   UNL     1      -3.295  14.883  12.097  1.00  0.00     0.058 A 
ATOM     97  C   UNL     1      -4.538  14.249  11.960  1.00  0.00     0.135 A 
ATOM     98  C   UNL     1      -3.278  16.282  12.220  1.00  0.00     0.135 A 
ATOM     99  F   UNL     1      -4.606  12.914  11.832  1.00  0.00    -0.206 F 
ATOM    100  C   UNL     1      -5.724  14.976  11.930  1.00  0.00     0.059 A 
ATOM    101  C   UNL     1      -4.453  17.027  12.213  1.00  0.00     0.059 A 
ATOM    102  F   UNL     1      -2.114  16.935  12.361  1.00  0.00    -0.206 F 
ATOM    103  C   UNL     1      -5.671  16.366  12.057  1.00  0.00     0.060 A 
BRANCH 103 104
ATOM    104  S   UNL     1      -7.217  17.299  12.054  1.00  0.00     0.124 S 
ATOM    105  O   UNL     1      -7.549  17.311  10.634  1.00  0.00    -0.237 OA
ATOM    106  O   UNL     1      -8.081  16.481  12.900  1.00  0.00    -0.237 OA
ATOM    107  O   UNL     1      -6.835  18.588  12.622  1.00  0.00    -0.744 OA
ENDBRANCH 103 104
ENDBRANCH  71  96
ENDBRANCH  45  46
ENDBRANCH  37  40
ENDBRANCH  35  36
ENDBRANCH  34  35
ENDBRANCH  33  34
ENDBRANCH  32  33
ENDBRANCH   1  32
TORSDOF 21
