REMARK SMILES CC[C@](C)(NC(=O)NC[C@@H](C)[NH+](C)C)C(=O)NCCCCCCNC(=O)c1ccc(-c2c3nc(c(-c4c(F)cc(S(=O)(=O)[O-])cc4F)c4ccc([nH]4)c(-c4c(F)cc(S(=O)(=O)[O-])cc4F)c4nc(c(-c5c(F)cc(S(=O)(=O)[O-])cc5F)c5ccc2[nH]5)C=C4)C=C3)cc1
REMARK SMILES IDX 20 1 19 2 18 3 17 4 15 5 16 6 3 8 4 9 2 10 1 11 5 12 6 13
REMARK SMILES IDX 7 15 8 16 9 18 10 19 11 20 12 21 13 22 14 23 21 25 22 26
REMARK SMILES IDX 23 27 24 28 25 29 26 31 27 32 28 33 92 34 29 35 91 36 30 37
REMARK SMILES IDX 31 38 32 39 85 40 33 41 90 42 84 43 86 44 34 45 89 46 83 47
REMARK SMILES IDX 82 48 35 50 69 51 48 52 68 53 49 54 52 55 67 56 87 57 50 58
REMARK SMILES IDX 51 59 66 61 88 62 53 63 36 64 37 65 46 66 38 67 39 68 45 69
REMARK SMILES IDX 47 70 40 71 41 72 42 73 43 74 44 75 70 76 71 77 80 78 72 79
REMARK SMILES IDX 73 80 79 81 81 82 74 83 75 84 76 85 77 86 78 87 54 88 55 89
REMARK SMILES IDX 64 90 56 91 57 92 63 93 65 94 58 95 59 96 60 97 61 98 62 99
REMARK H PARENT 17 7 5 14 8 17 12 24 24 30 86 49 52 60
REMARK Flexibility Score: inf
ROOT
ATOM      1  C   UNL     1       3.680   4.516   4.642  1.00  0.00     0.002 C 
ENDROOT
BRANCH   1   2
ATOM      2  C   UNL     1       2.205   4.406   4.258  1.00  0.00     0.021 C 
BRANCH   2   3
ATOM      3  C   UNL     1       1.789   4.409   2.780  1.00  0.00     0.116 C 
BRANCH   3   4
ATOM      4  N   UNL     1       2.423   3.487   1.845  1.00  0.00    -0.354 N 
ATOM      5  C   UNL     1       2.031   2.300   1.282  1.00  0.00     0.245 C 
ATOM      6  O   UNL     1       2.570   1.978   0.216  1.00  0.00    -0.272 OA
ATOM      7  H   UNL     1       3.318   3.778   1.558  1.00  0.00     0.163 HD
BRANCH   5   8
ATOM      8  C   UNL     1       0.859   1.460   1.841  1.00  0.00     0.117 C 
ATOM      9  C   UNL     1       0.821  -0.004   1.360  1.00  0.00     0.045 C 
BRANCH   8  10
ATOM     10  C   UNL     1      -0.447   2.153   1.320  1.00  0.00     0.035 C 
ATOM     11  C   UNL     1      -0.656   2.083  -0.198  1.00  0.00     0.007 C 
ENDBRANCH   8  10
BRANCH   8  12
ATOM     12  N   UNL     1       0.902   1.459   3.312  1.00  0.00    -0.324 N 
ATOM     13  C   UNL     1       1.783   1.047   4.231  1.00  0.00     0.315 C 
ATOM     14  H   UNL     1       0.094   1.854   3.713  1.00  0.00     0.166 HD
ATOM     15  O   UNL     1       1.379   1.002   5.398  1.00  0.00    -0.249 OA
ATOM     16  N   UNL     1       3.067   0.731   4.030  1.00  0.00    -0.332 N 
ATOM     17  H   UNL     1       3.526   0.578   4.887  1.00  0.00     0.165 HD
BRANCH  16  18
ATOM     18  C   UNL     1       3.992   0.547   2.904  1.00  0.00     0.182 C 
BRANCH  18  19
ATOM     19  C   UNL     1       5.003   1.716   2.675  1.00  0.00     0.200 C 
ATOM     20  C   UNL     1       6.174   1.664   3.665  1.00  0.00     0.077 C 
BRANCH  19  21
ATOM     21  N   UNL     1       5.420   1.850   1.266  1.00  0.00    -0.336 N 
ATOM     22  C   UNL     1       6.068   3.118   0.948  1.00  0.00     0.332 C 
ATOM     23  C   UNL     1       6.150   0.723   0.713  1.00  0.00     0.332 C 
ATOM     24  H   UNL     1       4.521   1.847   0.784  1.00  0.00     0.347 HD
ENDBRANCH  19  21
ENDBRANCH  18  19
ENDBRANCH  16  18
ENDBRANCH   8  12
ENDBRANCH   5   8
ENDBRANCH   3   4
ENDBRANCH   2   3
ENDBRANCH   1   2
BRANCH   1  25
ATOM     25  C   UNL     1       4.502   5.533   3.857  1.00  0.00     0.002 C 
BRANCH  25  26
ATOM     26  C   UNL     1       4.106   6.985   4.113  1.00  0.00     0.021 C 
BRANCH  26  27
ATOM     27  C   UNL     1       4.279   7.441   5.556  1.00  0.00     0.116 C 
BRANCH  27  28
ATOM     28  N   UNL     1       5.665   7.417   5.998  1.00  0.00    -0.352 N 
ATOM     29  C   UNL     1       6.303   8.316   6.827  1.00  0.00     0.251 C 
ATOM     30  H   UNL     1       6.213   6.670   5.665  1.00  0.00     0.163 HD
ATOM     31  O   UNL     1       7.503   8.256   7.017  1.00  0.00    -0.269 OA
BRANCH  29  32
ATOM     32  C   UNL     1       5.486   9.383   7.447  1.00  0.00     0.039 A 
ATOM     33  C   UNL     1       5.854  10.714   7.254  1.00  0.00     0.014 A 
ATOM     34  C   UNL     1       4.314   9.056   8.134  1.00  0.00     0.014 A 
ATOM     35  C   UNL     1       5.003  11.727   7.697  1.00  0.00     0.010 A 
ATOM     36  C   UNL     1       3.433  10.065   8.505  1.00  0.00     0.010 A 
ATOM     37  C   UNL     1       3.768  11.411   8.290  1.00  0.00    -0.014 A 
BRANCH  37  38
ATOM     38  C   UNL     1       2.811  12.478   8.674  1.00  0.00     0.031 A 
ATOM     39  C   UNL     1       2.444  12.682  10.118  1.00  0.00     0.074 A 
ATOM     40  C   UNL     1       2.229  13.224   7.714  1.00  0.00     0.049 A 
ATOM     41  N   UNL     1       1.625  13.554  10.645  1.00  0.00    -0.248 NA
ATOM     42  C   UNL     1       3.057  11.767  11.094  1.00  0.00     0.031 C 
ATOM     43  C   UNL     1       2.452  13.073   6.274  1.00  0.00     0.029 A 
ATOM     44  N   UNL     1       1.330  14.257   7.802  1.00  0.00    -0.354 N 
ATOM     45  C   UNL     1       1.614  13.286  12.009  1.00  0.00     0.074 A 
ATOM     46  C   UNL     1       2.461  12.132  12.219  1.00  0.00     0.031 C 
ATOM     47  C   UNL     1       1.741  14.004   5.618  1.00  0.00     0.029 A 
ATOM     48  C   UNL     1       0.988  14.796   6.585  1.00  0.00     0.049 A 
ATOM     49  H   UNL     1       0.965  14.581   8.657  1.00  0.00     0.167 HD
ATOM     50  C   UNL     1       0.979  13.957  12.999  1.00  0.00     0.037 A 
ATOM     51  C   UNL     1       0.165  15.820   6.283  1.00  0.00     0.037 A 
ATOM     52  C   UNL     1       0.155  15.118  12.782  1.00  0.00     0.049 A 
ATOM     53  C   UNL     1      -0.519  16.560   7.399  1.00  0.00     0.074 A 
ATOM     54  C   UNL     1      -0.473  15.916  13.721  1.00  0.00     0.029 A 
ATOM     55  N   UNL     1      -0.161  15.643  11.536  1.00  0.00    -0.354 N 
ATOM     56  N   UNL     1      -0.450  16.348   8.692  1.00  0.00    -0.248 NA
ATOM     57  C   UNL     1      -1.386  17.682   7.016  1.00  0.00     0.031 C 
ATOM     58  C   UNL     1      -1.207  16.896  13.041  1.00  0.00     0.029 A 
ATOM     59  C   UNL     1      -0.997  16.738  11.680  1.00  0.00     0.049 A 
ATOM     60  H   UNL     1       0.162  15.288  10.676  1.00  0.00     0.167 HD
ATOM     61  C   UNL     1      -1.249  17.323   9.280  1.00  0.00     0.074 A 
ATOM     62  C   UNL     1      -1.777  18.134   8.201  1.00  0.00     0.031 C 
ATOM     63  C   UNL     1      -1.520  17.528  10.593  1.00  0.00     0.037 A 
BRANCH  50  64
ATOM     64  C   UNL     1       1.154  13.446  14.403  1.00  0.00     0.058 A 
ATOM     65  C   UNL     1       2.386  13.537  15.073  1.00  0.00     0.135 A 
ATOM     66  C   UNL     1       0.079  12.861  15.091  1.00  0.00     0.135 A 
ATOM     67  F   UNL     1       3.452  14.073  14.459  1.00  0.00    -0.206 F 
ATOM     68  C   UNL     1       2.557  13.027  16.356  1.00  0.00     0.059 A 
ATOM     69  C   UNL     1       0.219  12.372  16.387  1.00  0.00     0.059 A 
ATOM     70  F   UNL     1      -1.121  12.750  14.501  1.00  0.00    -0.206 F 
ATOM     71  C   UNL     1       1.468  12.440  17.003  1.00  0.00     0.060 A 
BRANCH  71  72
ATOM     72  S   UNL     1       1.710  11.766  18.660  1.00  0.00     0.124 S 
ATOM     73  O   UNL     1       2.459  10.547  18.370  1.00  0.00    -0.237 OA
ATOM     74  O   UNL     1       2.461  12.827  19.323  1.00  0.00    -0.237 OA
ATOM     75  O   UNL     1       0.349  11.566  19.147  1.00  0.00    -0.744 OA
ENDBRANCH  71  72
ENDBRANCH  50  64
BRANCH  51  76
ATOM     76  C   UNL     1      -0.014  16.229   4.865  1.00  0.00     0.058 A 
ATOM     77  C   UNL     1       0.548  17.422   4.385  1.00  0.00     0.135 A 
ATOM     78  C   UNL     1      -0.716  15.424   3.954  1.00  0.00     0.135 A 
ATOM     79  F   UNL     1       1.222  18.228   5.219  1.00  0.00    -0.206 F 
ATOM     80  C   UNL     1       0.418  17.805   3.054  1.00  0.00     0.059 A 
ATOM     81  C   UNL     1      -0.840  15.775   2.613  1.00  0.00     0.059 A 
ATOM     82  F   UNL     1      -1.258  14.266   4.360  1.00  0.00    -0.206 F 
ATOM     83  C   UNL     1      -0.273  16.971   2.174  1.00  0.00     0.060 A 
BRANCH  83  84
ATOM     84  S   UNL     1      -0.373  17.444   0.433  1.00  0.00     0.124 S 
ATOM     85  O   UNL     1      -1.329  18.544   0.481  1.00  0.00    -0.237 OA
ATOM     86  O   UNL     1       1.008  17.809   0.136  1.00  0.00    -0.237 OA
ATOM     87  O   UNL     1      -0.845  16.224  -0.217  1.00  0.00    -0.744 OA
ENDBRANCH  83  84
ENDBRANCH  51  76
BRANCH  63  88
ATOM     88  C   UNL     1      -2.418  18.685  10.936  1.00  0.00     0.058 A 
ATOM     89  C   UNL     1      -3.796  18.650  10.673  1.00  0.00     0.135 A 
ATOM     90  C   UNL     1      -1.900  19.826  11.568  1.00  0.00     0.135 A 
ATOM     91  F   UNL     1      -4.341  17.584  10.064  1.00  0.00    -0.206 F 
ATOM     92  C   UNL     1      -4.625  19.718  10.999  1.00  0.00     0.059 A 
ATOM     93  C   UNL     1      -2.715  20.895  11.928  1.00  0.00     0.059 A 
ATOM     94  F   UNL     1      -0.590  19.906  11.853  1.00  0.00    -0.206 F 
ATOM     95  C   UNL     1      -4.074  20.837  11.626  1.00  0.00     0.060 A 
BRANCH  95  96
ATOM     96  S   UNL     1      -5.163  22.209  12.062  1.00  0.00     0.124 S 
ATOM     97  O   UNL     1      -5.398  22.823  10.759  1.00  0.00    -0.237 OA
ATOM     98  O   UNL     1      -6.308  21.524  12.656  1.00  0.00    -0.237 OA
ATOM     99  O   UNL     1      -4.361  22.997  12.993  1.00  0.00    -0.744 OA
ENDBRANCH  95  96
ENDBRANCH  63  88
ENDBRANCH  37  38
ENDBRANCH  29  32
ENDBRANCH  27  28
ENDBRANCH  26  27
ENDBRANCH  25  26
ENDBRANCH   1  25
TORSDOF 21
