REMARK SMILES Cc1ccccc1/[NH+]=C1\S[C@@H](CC(=O)Nc2ccc(C(=O)NCCCCCCNC(=O)c3ccc(-c4c5nc(c(-c6c(F)cc(S(=O)(=O)[O-])cc6F)c6ccc([nH]6)c(-c6c(F)cc(S(=O)(=O)[O-])cc6F)c6nc(c(-c7c(F)cc(S(=O)(=O)[O-])cc7F)c7ccc4[nH]7)C=C6)C=C5)cc3)cc2)C(=O)N1C
REMARK SMILES IDX 25 1 24 2 23 3 22 4 20 5 21 6 19 8 16 9 17 10 99 11 18 12
REMARK SMILES IDX 98 13 15 14 13 15 14 16 12 18 11 19 8 20 9 21 10 23 102 24
REMARK SMILES IDX 100 25 103 26 101 27 7 28 1 29 2 30 3 31 4 32 6 33 5 34
REMARK SMILES IDX 26 35 27 36 28 37 29 38 30 39 31 41 32 42 33 43 97 44 34 45
REMARK SMILES IDX 96 46 35 47 36 48 37 49 90 50 38 51 95 52 89 53 91 54 39 55
REMARK SMILES IDX 94 56 88 57 87 58 40 60 74 61 53 62 73 63 54 64 57 65 72 66
REMARK SMILES IDX 92 67 55 68 56 69 71 71 93 72 58 73 41 74 42 75 51 76 43 77
REMARK SMILES IDX 44 78 50 79 52 80 45 81 46 82 47 83 48 84 49 85 75 86 76 87
REMARK SMILES IDX 85 88 77 89 78 90 84 91 86 92 79 93 80 94 81 95 82 96 83 97
REMARK SMILES IDX 59 98 60 99 69 100 61 101 62 102 68 103 70 104 63 105 64 106
REMARK SMILES IDX 65 107 66 108 67 109
REMARK H PARENT 22 7 15 17 8 22 29 40 91 59 57 70
REMARK Flexibility Score: inf
ROOT
ATOM      1  C   UNL     1       1.070   6.981  -3.266  1.00  0.00     0.002 C 
ENDROOT
BRANCH   1   2
ATOM      2  C   UNL     1       2.028   6.268  -2.296  1.00  0.00     0.021 C 
BRANCH   2   3
ATOM      3  C   UNL     1       3.094   5.389  -2.958  1.00  0.00     0.116 C 
BRANCH   3   4
ATOM      4  N   UNL     1       4.166   6.178  -3.552  1.00  0.00    -0.352 N 
ATOM      5  C   UNL     1       5.513   6.246  -3.282  1.00  0.00     0.251 C 
ATOM      6  O   UNL     1       6.252   6.830  -4.074  1.00  0.00    -0.269 OA
ATOM      7  H   UNL     1       3.872   6.772  -4.280  1.00  0.00     0.163 HD
BRANCH   5   8
ATOM      8  C   UNL     1       6.119   5.604  -2.088  1.00  0.00     0.039 A 
ATOM      9  C   UNL     1       7.287   4.251   0.065  1.00  0.00     0.041 A 
ATOM     10  C   UNL     1       6.061   4.900   0.213  1.00  0.00     0.027 A 
ATOM     11  C   UNL     1       8.013   4.410  -1.109  1.00  0.00     0.027 A 
ATOM     12  C   UNL     1       5.476   5.578  -0.854  1.00  0.00     0.016 A 
ATOM     13  C   UNL     1       7.419   5.075  -2.190  1.00  0.00     0.016 A 
BRANCH   9  14
ATOM     14  N   UNL     1       7.756   3.402   1.073  1.00  0.00    -0.326 N 
ATOM     15  C   UNL     1       7.129   2.252   1.505  1.00  0.00     0.226 C 
ATOM     16  O   UNL     1       7.506   1.673   2.524  1.00  0.00    -0.275 OA
ATOM     17  H   UNL     1       8.604   3.645   1.510  1.00  0.00     0.169 HD
BRANCH  15  18
ATOM     18  C   UNL     1       6.100   1.618   0.581  1.00  0.00     0.128 C 
BRANCH  18  19
ATOM     19  C   UNL     1       4.692   1.535   1.127  1.00  0.00     0.183 C 
ATOM     20  N   UNL     1       1.005   1.820   0.659  1.00  0.00    -0.234 N 
ATOM     21  C   UNL     1       2.269   2.029   0.590  1.00  0.00     0.319 C 
ATOM     22  H   UNL     1       0.492   2.504   1.147  1.00  0.00     0.313 HD
ATOM     23  S   UNL     1       3.522   1.161  -0.235  1.00  0.00    -0.022 SA
ATOM     24  N   UNL     1       2.844   3.048   1.291  1.00  0.00    -0.193 N 
ATOM     25  C   UNL     1       4.119   2.795   1.748  1.00  0.00     0.324 C 
ATOM     26  C   UNL     1       2.115   4.219   1.738  1.00  0.00     0.301 C 
ATOM     27  O   UNL     1       4.677   3.430   2.634  1.00  0.00    -0.245 OA
BRANCH  20  28
ATOM     28  C   UNL     1       0.248   0.759   0.142  1.00  0.00     0.128 A 
ATOM     29  C   UNL     1       1.765  -1.218   0.837  1.00  0.00     0.049 C 
ATOM     30  C   UNL     1       0.508  -0.623   0.271  1.00  0.00    -0.004 A 
ATOM     31  C   UNL     1      -0.474  -1.552  -0.139  1.00  0.00     0.008 A 
ATOM     32  C   UNL     1      -1.726  -1.137  -0.583  1.00  0.00     0.001 A 
ATOM     33  C   UNL     1      -1.022   1.147  -0.323  1.00  0.00     0.052 A 
ATOM     34  C   UNL     1      -2.005   0.217  -0.668  1.00  0.00     0.004 A 
ENDBRANCH  20  28
ENDBRANCH  18  19
ENDBRANCH  15  18
ENDBRANCH   9  14
ENDBRANCH   5   8
ENDBRANCH   3   4
ENDBRANCH   2   3
ENDBRANCH   1   2
BRANCH   1  35
ATOM     35  C   UNL     1       0.249   6.087  -4.211  1.00  0.00     0.002 C 
BRANCH  35  36
ATOM     36  C   UNL     1      -0.543   4.958  -3.547  1.00  0.00     0.021 C 
BRANCH  36  37
ATOM     37  C   UNL     1      -1.738   5.438  -2.726  1.00  0.00     0.116 C 
BRANCH  37  38
ATOM     38  N   UNL     1      -3.021   5.173  -3.362  1.00  0.00    -0.352 N 
ATOM     39  C   UNL     1      -4.303   5.410  -2.885  1.00  0.00     0.251 C 
ATOM     40  H   UNL     1      -2.973   4.768  -4.258  1.00  0.00     0.163 HD
ATOM     41  O   UNL     1      -5.272   4.944  -3.442  1.00  0.00    -0.269 OA
BRANCH  39  42
ATOM     42  C   UNL     1      -4.457   6.317  -1.720  1.00  0.00     0.039 A 
ATOM     43  C   UNL     1      -5.246   7.463  -1.881  1.00  0.00     0.014 A 
ATOM     44  C   UNL     1      -3.692   6.143  -0.573  1.00  0.00     0.014 A 
ATOM     45  C   UNL     1      -5.114   8.526  -0.985  1.00  0.00     0.010 A 
ATOM     46  C   UNL     1      -3.503   7.221   0.269  1.00  0.00     0.010 A 
ATOM     47  C   UNL     1      -4.172   8.433   0.037  1.00  0.00    -0.014 A 
BRANCH  47  48
ATOM     48  C   UNL     1      -3.723   9.544   0.871  1.00  0.00     0.031 A 
ATOM     49  C   UNL     1      -4.017   9.559   2.329  1.00  0.00     0.074 A 
ATOM     50  C   UNL     1      -2.905  10.495   0.367  1.00  0.00     0.049 A 
ATOM     51  N   UNL     1      -3.747  10.552   3.110  1.00  0.00    -0.248 NA
ATOM     52  C   UNL     1      -4.720   8.480   3.018  1.00  0.00     0.031 C 
ATOM     53  C   UNL     1      -1.990  11.346   1.128  1.00  0.00     0.029 A 
ATOM     54  N   UNL     1      -2.783  10.997  -0.915  1.00  0.00    -0.354 N 
ATOM     55  C   UNL     1      -3.962  10.156   4.407  1.00  0.00     0.074 A 
ATOM     56  C   UNL     1      -4.690   8.918   4.283  1.00  0.00     0.031 C 
ATOM     57  C   UNL     1      -1.627  12.391   0.372  1.00  0.00     0.029 A 
ATOM     58  C   UNL     1      -2.427  12.349  -0.835  1.00  0.00     0.049 A 
ATOM     59  H   UNL     1      -2.923  10.489  -1.746  1.00  0.00     0.167 HD
ATOM     60  C   UNL     1      -3.396  10.883   5.415  1.00  0.00     0.037 A 
ATOM     61  C   UNL     1      -3.234  13.372  -1.258  1.00  0.00     0.037 A 
ATOM     62  C   UNL     1      -2.881  12.163   4.917  1.00  0.00     0.049 A 
ATOM     63  C   UNL     1      -3.658  14.350  -0.171  1.00  0.00     0.074 A 
ATOM     64  C   UNL     1      -1.631  12.706   4.679  1.00  0.00     0.029 A 
ATOM     65  N   UNL     1      -3.791  13.066   4.399  1.00  0.00    -0.354 N 
ATOM     66  N   UNL     1      -3.289  14.272   1.077  1.00  0.00    -0.248 NA
ATOM     67  C   UNL     1      -4.612  15.443  -0.391  1.00  0.00     0.031 C 
ATOM     68  C   UNL     1      -1.811  13.945   3.990  1.00  0.00     0.029 A 
ATOM     69  C   UNL     1      -3.168  14.155   3.828  1.00  0.00     0.049 A 
ATOM     70  H   UNL     1      -4.767  12.946   4.433  1.00  0.00     0.167 HD
ATOM     71  C   UNL     1      -4.018  15.159   1.825  1.00  0.00     0.074 A 
ATOM     72  C   UNL     1      -4.797  15.907   0.858  1.00  0.00     0.031 C 
ATOM     73  C   UNL     1      -3.996  15.165   3.188  1.00  0.00     0.037 A 
BRANCH  60  74
ATOM     74  C   UNL     1      -3.169  10.429   6.851  1.00  0.00     0.058 A 
ATOM     75  C   UNL     1      -2.502  11.282   7.765  1.00  0.00     0.135 A 
ATOM     76  C   UNL     1      -3.463   9.150   7.369  1.00  0.00     0.135 A 
ATOM     77  F   UNL     1      -2.177  12.541   7.438  1.00  0.00    -0.206 F 
ATOM     78  C   UNL     1      -2.105  10.878   9.044  1.00  0.00     0.059 A 
ATOM     79  C   UNL     1      -3.111   8.738   8.656  1.00  0.00     0.059 A 
ATOM     80  F   UNL     1      -4.062   8.200   6.649  1.00  0.00    -0.206 F 
ATOM     81  C   UNL     1      -2.399   9.594   9.476  1.00  0.00     0.060 A 
BRANCH  81  82
ATOM     82  S   UNL     1      -1.814   9.038  11.085  1.00  0.00     0.124 S 
ATOM     83  O   UNL     1      -0.371   8.980  10.873  1.00  0.00    -0.237 OA
ATOM     84  O   UNL     1      -2.287  10.094  11.973  1.00  0.00    -0.237 OA
ATOM     85  O   UNL     1      -2.469   7.744  11.256  1.00  0.00    -0.744 OA
ENDBRANCH  81  82
ENDBRANCH  60  74
BRANCH  61  86
ATOM     86  C   UNL     1      -4.064  13.007  -2.434  1.00  0.00     0.058 A 
ATOM     87  C   UNL     1      -3.396  12.784  -3.651  1.00  0.00     0.135 A 
ATOM     88  C   UNL     1      -5.332  12.435  -2.261  1.00  0.00     0.135 A 
ATOM     89  F   UNL     1      -2.191  13.336  -3.869  1.00  0.00    -0.206 F 
ATOM     90  C   UNL     1      -3.871  11.864  -4.574  1.00  0.00     0.059 A 
ATOM     91  C   UNL     1      -5.833  11.517  -3.181  1.00  0.00     0.059 A 
ATOM     92  F   UNL     1      -6.016  12.632  -1.125  1.00  0.00    -0.206 F 
ATOM     93  C   UNL     1      -5.052  11.180  -4.287  1.00  0.00     0.060 A 
BRANCH  93  94
ATOM     94  S   UNL     1      -5.413   9.694  -5.250  1.00  0.00     0.124 S 
ATOM     95  O   UNL     1      -5.478  10.219  -6.609  1.00  0.00    -0.237 OA
ATOM     96  O   UNL     1      -4.247   8.870  -4.940  1.00  0.00    -0.237 OA
ATOM     97  O   UNL     1      -6.675   9.230  -4.686  1.00  0.00    -0.744 OA
ENDBRANCH  93  94
ENDBRANCH  61  86
BRANCH  73  98
ATOM     98  C   UNL     1      -4.808  16.107   4.029  1.00  0.00     0.058 A 
ATOM     99  C   UNL     1      -4.766  17.497   3.843  1.00  0.00     0.135 A 
ATOM    100  C   UNL     1      -5.546  15.646   5.141  1.00  0.00     0.135 A 
ATOM    101  F   UNL     1      -4.075  18.028   2.822  1.00  0.00    -0.206 F 
ATOM    102  C   UNL     1      -5.418  18.379   4.708  1.00  0.00     0.059 A 
ATOM    103  C   UNL     1      -6.165  16.508   6.042  1.00  0.00     0.059 A 
ATOM    104  F   UNL     1      -5.711  14.334   5.369  1.00  0.00    -0.206 F 
ATOM    105  C   UNL     1      -6.107  17.875   5.811  1.00  0.00     0.060 A 
BRANCH 105 106
ATOM    106  S   UNL     1      -6.901  19.014   6.964  1.00  0.00     0.124 S 
ATOM    107  O   UNL     1      -5.975  20.143   6.988  1.00  0.00    -0.237 OA
ATOM    108  O   UNL     1      -8.177  19.258   6.299  1.00  0.00    -0.237 OA
ATOM    109  O   UNL     1      -6.973  18.245   8.203  1.00  0.00    -0.744 OA
ENDBRANCH 105 106
ENDBRANCH  73  98
ENDBRANCH  47  48
ENDBRANCH  39  42
ENDBRANCH  37  38
ENDBRANCH  36  37
ENDBRANCH  35  36
ENDBRANCH   1  35
TORSDOF 20
