REMARK SMILES C[C@H](NC(=O)c1cc(Br)nn1-c1ncccc1Cl)C(=O)NCCCCCCNC(=O)c1ccc(-c2c3nc(c(-c4c(F)cc(S(=O)(=O)[O-])cc4F)c4ccc([nH]4)c(-c4c(F)cc(S(=O)(=O)[O-])cc4F)c4nc(c(-c5c(F)cc(S(=O)(=O)[O-])cc5F)c5ccc2[nH]5)C=C4)C=C3)cc1
REMARK SMILES IDX 24 1 23 2 22 3 21 4 19 5 20 6 2 8 1 9 3 10 4 11 5 13 6 14
REMARK SMILES IDX 7 15 11 16 8 17 10 18 9 19 12 20 13 21 17 22 14 23 16 24
REMARK SMILES IDX 18 25 15 26 25 27 26 28 27 29 28 30 29 31 30 33 31 34 32 35
REMARK SMILES IDX 96 36 33 37 95 38 34 39 35 40 36 41 89 42 37 43 94 44 88 45
REMARK SMILES IDX 90 46 38 47 93 48 87 49 86 50 39 52 73 53 52 54 72 55 53 56
REMARK SMILES IDX 56 57 71 58 91 59 54 60 55 61 70 63 92 64 57 65 40 66 41 67
REMARK SMILES IDX 50 68 42 69 43 70 49 71 51 72 44 73 45 74 46 75 47 76 48 77
REMARK SMILES IDX 74 78 75 79 84 80 76 81 77 82 83 83 85 84 78 85 79 86 80 87
REMARK SMILES IDX 81 88 82 89 58 90 59 91 68 92 60 93 61 94 67 95 69 96 62 97
REMARK SMILES IDX 63 98 64 99 65 100 66 101
REMARK H PARENT 21 7 3 12 28 32 90 51 56 62
REMARK Flexibility Score: inf
ROOT
ATOM      1  C   UNL     1      -3.783  -1.444   2.130  1.00  0.00     0.002 C 
ENDROOT
BRANCH   1   2
ATOM      2  C   UNL     1      -2.383  -0.989   1.669  1.00  0.00     0.021 C 
BRANCH   2   3
ATOM      3  C   UNL     1      -1.859  -1.526   0.333  1.00  0.00     0.116 C 
BRANCH   3   4
ATOM      4  N   UNL     1      -1.901  -0.573  -0.753  1.00  0.00    -0.354 N 
ATOM      5  C   UNL     1      -0.888  -0.161  -1.576  1.00  0.00     0.242 C 
ATOM      6  O   UNL     1      -1.219   0.457  -2.595  1.00  0.00    -0.273 OA
ATOM      7  H   UNL     1      -2.780  -0.164  -0.926  1.00  0.00     0.163 HD
BRANCH   5   8
ATOM      8  C   UNL     1       0.599  -0.611  -1.384  1.00  0.00     0.168 C 
ATOM      9  C   UNL     1       0.773  -1.959  -2.059  1.00  0.00     0.041 C 
BRANCH   8  10
ATOM     10  N   UNL     1       1.105  -0.424  -0.011  1.00  0.00    -0.339 N 
ATOM     11  C   UNL     1       1.771  -1.095   0.982  1.00  0.00     0.270 C 
ATOM     12  H   UNL     1       0.894   0.488   0.295  1.00  0.00     0.164 HD
ATOM     13  O   UNL     1       1.773  -0.507   2.064  1.00  0.00    -0.267 OA
BRANCH  11  14
ATOM     14  C   UNL     1       2.393  -2.393   0.844  1.00  0.00     0.135 A 
ATOM     15  C   UNL     1       3.082  -2.990  -0.195  1.00  0.00     0.072 A 
ATOM     16  N   UNL     1       2.543  -3.291   1.921  1.00  0.00    -0.207 N 
ATOM     17  C   UNL     1       3.406  -4.271   0.260  1.00  0.00     0.129 A 
ATOM     18  N   UNL     1       3.132  -4.458   1.542  1.00  0.00    -0.159 NA
ATOM     19  Br  UNL     1       4.098  -5.621  -0.846  1.00  0.00    -0.027 Br
BRANCH  16  20
ATOM     20  C   UNL     1       1.879  -3.247   3.177  1.00  0.00     0.173 A 
ATOM     21  N   UNL     1       2.601  -3.244   4.329  1.00  0.00    -0.236 NA
ATOM     22  C   UNL     1       0.495  -3.187   3.156  1.00  0.00     0.085 A 
ATOM     23  C   UNL     1       1.911  -3.003   5.468  1.00  0.00     0.113 A 
ATOM     24  C   UNL     1      -0.165  -2.813   4.314  1.00  0.00     0.026 A 
ATOM     25  Cl  UNL     1      -0.382  -3.885   1.846  1.00  0.00    -0.080 Cl
ATOM     26  C   UNL     1       0.555  -2.712   5.492  1.00  0.00     0.022 A 
ENDBRANCH  16  20
ENDBRANCH  11  14
ENDBRANCH   8  10
ENDBRANCH   5   8
ENDBRANCH   3   4
ENDBRANCH   2   3
ENDBRANCH   1   2
BRANCH   1  27
ATOM     27  C   UNL     1      -4.201  -2.935   2.112  1.00  0.00     0.002 C 
BRANCH  27  28
ATOM     28  C   UNL     1      -3.685  -3.948   3.153  1.00  0.00     0.021 C 
BRANCH  28  29
ATOM     29  C   UNL     1      -3.742  -3.549   4.617  1.00  0.00     0.116 C 
BRANCH  29  30
ATOM     30  N   UNL     1      -5.021  -3.784   5.280  1.00  0.00    -0.352 N 
ATOM     31  C   UNL     1      -5.293  -3.670   6.636  1.00  0.00     0.251 C 
ATOM     32  H   UNL     1      -5.772  -4.052   4.703  1.00  0.00     0.163 HD
ATOM     33  O   UNL     1      -6.267  -4.248   7.123  1.00  0.00    -0.269 OA
BRANCH  31  34
ATOM     34  C   UNL     1      -4.400  -2.860   7.496  1.00  0.00     0.039 A 
ATOM     35  C   UNL     1      -4.149  -3.173   8.837  1.00  0.00     0.014 A 
ATOM     36  C   UNL     1      -3.790  -1.749   6.928  1.00  0.00     0.014 A 
ATOM     37  C   UNL     1      -3.235  -2.396   9.559  1.00  0.00     0.010 A 
ATOM     38  C   UNL     1      -2.742  -1.136   7.558  1.00  0.00     0.010 A 
ATOM     39  C   UNL     1      -2.521  -1.379   8.905  1.00  0.00    -0.014 A 
BRANCH  39  40
ATOM     40  C   UNL     1      -1.484  -0.589   9.570  1.00  0.00     0.031 A 
ATOM     41  C   UNL     1      -0.428  -1.385  10.250  1.00  0.00     0.074 A 
ATOM     42  C   UNL     1      -1.346   0.745   9.378  1.00  0.00     0.049 A 
ATOM     43  N   UNL     1      -0.226  -1.523  11.517  1.00  0.00    -0.248 NA
ATOM     44  C   UNL     1       0.421  -2.259   9.431  1.00  0.00     0.031 C 
ATOM     45  C   UNL     1      -2.134   1.634   8.510  1.00  0.00     0.029 A 
ATOM     46  N   UNL     1      -0.378   1.583   9.839  1.00  0.00    -0.354 N 
ATOM     47  C   UNL     1       0.932  -2.291  11.636  1.00  0.00     0.074 A 
ATOM     48  C   UNL     1       1.140  -2.899  10.352  1.00  0.00     0.031 C 
ATOM     49  C   UNL     1      -1.474   2.797   8.323  1.00  0.00     0.029 A 
ATOM     50  C   UNL     1      -0.313   2.815   9.191  1.00  0.00     0.049 A 
ATOM     51  H   UNL     1       0.230   1.338  10.574  1.00  0.00     0.167 HD
ATOM     52  C   UNL     1       1.775  -2.145  12.695  1.00  0.00     0.037 A 
ATOM     53  C   UNL     1       0.629   3.781   9.349  1.00  0.00     0.037 A 
ATOM     54  C   UNL     1       1.147  -1.385  13.748  1.00  0.00     0.049 A 
ATOM     55  C   UNL     1       1.270   3.535  10.667  1.00  0.00     0.074 A 
ATOM     56  C   UNL     1      -0.024  -1.522  14.470  1.00  0.00     0.029 A 
ATOM     57  N   UNL     1       1.528  -0.072  13.901  1.00  0.00    -0.354 N 
ATOM     58  N   UNL     1       0.645   3.667  11.806  1.00  0.00    -0.248 NA
ATOM     59  C   UNL     1       2.449   2.682  10.702  1.00  0.00     0.031 C 
ATOM     60  C   UNL     1      -0.541  -0.198  14.581  1.00  0.00     0.029 A 
ATOM     61  C   UNL     1       0.383   0.676  14.006  1.00  0.00     0.049 A 
ATOM     62  H   UNL     1       2.452   0.268  13.929  1.00  0.00     0.167 HD
ATOM     63  C   UNL     1       1.066   2.586  12.568  1.00  0.00     0.074 A 
ATOM     64  C   UNL     1       2.248   2.073  11.875  1.00  0.00     0.031 C 
ATOM     65  C   UNL     1       0.255   2.032  13.518  1.00  0.00     0.037 A 
BRANCH  52  66
ATOM     66  C   UNL     1       3.273  -2.346  12.642  1.00  0.00     0.058 A 
ATOM     67  C   UNL     1       4.001  -2.339  13.850  1.00  0.00     0.135 A 
ATOM     68  C   UNL     1       4.049  -2.261  11.464  1.00  0.00     0.135 A 
ATOM     69  F   UNL     1       3.366  -2.418  15.031  1.00  0.00    -0.206 F 
ATOM     70  C   UNL     1       5.384  -2.167  13.888  1.00  0.00     0.059 A 
ATOM     71  C   UNL     1       5.435  -2.148  11.478  1.00  0.00     0.059 A 
ATOM     72  F   UNL     1       3.500  -2.180  10.246  1.00  0.00    -0.206 F 
ATOM     73  C   UNL     1       6.089  -2.053  12.695  1.00  0.00     0.060 A 
BRANCH  73  74
ATOM     74  S   UNL     1       7.855  -1.708  12.745  1.00  0.00     0.124 S 
ATOM     75  O   UNL     1       7.866  -0.340  13.248  1.00  0.00    -0.237 OA
ATOM     76  O   UNL     1       8.336  -2.733  13.665  1.00  0.00    -0.237 OA
ATOM     77  O   UNL     1       8.269  -1.876  11.355  1.00  0.00    -0.744 OA
ENDBRANCH  73  74
ENDBRANCH  52  66
BRANCH  53  78
ATOM     78  C   UNL     1       1.185   4.724   8.339  1.00  0.00     0.058 A 
ATOM     79  C   UNL     1       2.016   5.796   8.717  1.00  0.00     0.135 A 
ATOM     80  C   UNL     1       1.148   4.432   6.960  1.00  0.00     0.135 A 
ATOM     81  F   UNL     1       2.126   6.143  10.008  1.00  0.00    -0.206 F 
ATOM     82  C   UNL     1       2.810   6.492   7.795  1.00  0.00     0.059 A 
ATOM     83  C   UNL     1       1.921   5.118   6.022  1.00  0.00     0.059 A 
ATOM     84  F   UNL     1       0.426   3.405   6.489  1.00  0.00    -0.206 F 
ATOM     85  C   UNL     1       2.775   6.127   6.450  1.00  0.00     0.060 A 
BRANCH  85  86
ATOM     86  S   UNL     1       3.939   6.881   5.287  1.00  0.00     0.124 S 
ATOM     87  O   UNL     1       3.427   8.243   5.185  1.00  0.00    -0.237 OA
ATOM     88  O   UNL     1       5.213   6.729   5.982  1.00  0.00    -0.237 OA
ATOM     89  O   UNL     1       3.790   6.067   4.083  1.00  0.00    -0.744 OA
ENDBRANCH  85  86
ENDBRANCH  53  78
BRANCH  65  90
ATOM     90  C   UNL     1      -0.985   2.786  13.931  1.00  0.00     0.058 A 
ATOM     91  C   UNL     1      -2.055   3.102  13.074  1.00  0.00     0.135 A 
ATOM     92  C   UNL     1      -1.160   3.070  15.294  1.00  0.00     0.135 A 
ATOM     93  F   UNL     1      -2.026   2.764  11.778  1.00  0.00    -0.206 F 
ATOM     94  C   UNL     1      -3.217   3.719  13.539  1.00  0.00     0.059 A 
ATOM     95  C   UNL     1      -2.324   3.654  15.787  1.00  0.00     0.059 A 
ATOM     96  F   UNL     1      -0.207   2.732  16.179  1.00  0.00    -0.206 F 
ATOM     97  C   UNL     1      -3.342   3.994  14.899  1.00  0.00     0.060 A 
BRANCH  97  98
ATOM     98  S   UNL     1      -4.866   4.745  15.509  1.00  0.00     0.124 S 
ATOM     99  O   UNL     1      -4.753   6.112  15.014  1.00  0.00    -0.237 OA
ATOM    100  O   UNL     1      -5.899   3.926  14.880  1.00  0.00    -0.237 OA
ATOM    101  O   UNL     1      -4.764   4.595  16.959  1.00  0.00    -0.744 OA
ENDBRANCH  97  98
ENDBRANCH  65  90
ENDBRANCH  39  40
ENDBRANCH  31  34
ENDBRANCH  29  30
ENDBRANCH  28  29
ENDBRANCH  27  28
ENDBRANCH   1  27
TORSDOF 19
