REMARK SMILES O=C1C[C@H](c2cn[nH]c2C(=O)NCCCCCCNC(=O)c2ccc(-c3c4nc(c(-c5c(F)cc(S(=O)(=O)[O-])cc5F)c5ccc([nH]5)c(-c5c(F)cc(S(=O)(=O)[O-])cc5F)c5nc(c(-c6c(F)cc(S(=O)(=O)[O-])cc6F)c6ccc3[nH]6)C=C5)C=C4)cc2)c2c(-c3cccs3)n[nH]c2N1
REMARK SMILES IDX 16 1 15 2 14 3 13 4 12 5 10 6 11 7 9 9 5 10 6 11 7 12 8 13
REMARK SMILES IDX 4 15 1 16 2 17 3 18 98 19 97 20 88 22 96 23 89 24 95 25
REMARK SMILES IDX 90 27 91 28 94 29 92 30 93 31 17 32 18 33 19 34 20 35 21 37
REMARK SMILES IDX 22 38 23 39 87 40 24 41 86 42 25 43 26 44 27 45 80 46 28 47
REMARK SMILES IDX 85 48 79 49 81 50 29 51 84 52 78 53 77 54 30 56 64 57 43 58
REMARK SMILES IDX 63 59 44 60 47 61 62 62 82 63 45 64 46 65 61 67 83 68 48 69
REMARK SMILES IDX 31 70 32 71 41 72 33 73 34 74 40 75 42 76 35 77 36 78 37 79
REMARK SMILES IDX 38 80 39 81 65 82 66 83 75 84 67 85 68 86 74 87 76 88 69 89
REMARK SMILES IDX 70 90 71 91 72 92 73 93 49 94 50 95 59 96 51 97 52 98 58 99
REMARK SMILES IDX 60 100 53 101 54 102 55 103 56 104 57 105
REMARK H PARENT 12 8 8 14 98 21 96 26 19 36 81 55 47 66
REMARK Flexibility Score: inf
ROOT
ATOM      1  C   UNL     1       6.053  -3.304   2.263  1.00  0.00     0.002 C 
ENDROOT
BRANCH   1   2
ATOM      2  C   UNL     1       4.888  -3.576   1.304  1.00  0.00     0.002 C 
BRANCH   2   3
ATOM      3  C   UNL     1       4.140  -2.339   0.799  1.00  0.00     0.021 C 
BRANCH   3   4
ATOM      4  C   UNL     1       5.191  -1.038   0.299  1.00  0.00     0.116 C 
BRANCH   4   5
ATOM      5  N   UNL     1       5.669  -0.387  -1.704  1.00  0.00    -0.351 N 
ATOM      6  C   UNL     1       5.691   0.473  -2.833  1.00  0.00     0.269 C 
ATOM      7  O   UNL     1       6.341   0.065  -3.801  1.00  0.00    -0.268 OA
ATOM      8  H   UNL     1       6.185  -1.156  -2.038  1.00  0.00     0.163 HD
BRANCH   6   9
ATOM      9  C   UNL     1       5.104   1.791  -2.853  1.00  0.00     0.126 A 
ATOM     10  C   UNL     1       4.440   2.531  -1.887  1.00  0.00     0.011 A 
ATOM     11  C   UNL     1       4.217   3.785  -2.486  1.00  0.00     0.140 A 
ATOM     12  N   UNL     1       4.694   3.845  -3.732  1.00  0.00    -0.183 NA
ATOM     13  N   UNL     1       5.189   2.612  -3.940  1.00  0.00    -0.273 N 
ATOM     14  H   UNL     1       5.577   2.327  -4.799  1.00  0.00     0.190 HD
BRANCH  10  15
ATOM     15  C   UNL     1       4.120   2.050  -0.517  1.00  0.00     0.069 C 
ATOM     16  O   UNL     1       0.693   0.377  -0.315  1.00  0.00    -0.275 OA
ATOM     17  C   UNL     1       1.879   0.512  -0.629  1.00  0.00     0.226 C 
ATOM     18  C   UNL     1       2.606   1.843  -0.281  1.00  0.00     0.114 C 
ATOM     19  N   UNL     1       2.515  -0.563  -1.201  1.00  0.00    -0.311 N 
ATOM     20  C   UNL     1       3.871  -0.613  -1.095  1.00  0.00     0.132 A 
ATOM     21  H   UNL     1       2.011  -1.269  -1.667  1.00  0.00     0.171 HD
ATOM     22  C   UNL     1       4.783   0.750  -0.439  1.00  0.00     0.031 A 
ATOM     23  N   UNL     1       5.041  -2.026  -1.325  1.00  0.00    -0.262 N 
ATOM     24  C   UNL     1       6.628   0.176  -0.217  1.00  0.00     0.108 A 
ATOM     25  N   UNL     1       6.759  -1.511  -0.736  1.00  0.00    -0.173 NA
ATOM     26  H   UNL     1       4.806  -2.907  -1.695  1.00  0.00     0.192 HD
BRANCH  24  27
ATOM     27  C   UNL     1       7.744   1.129  -0.005  1.00  0.00     0.055 A 
ATOM     28  C   UNL     1       8.862   1.166  -0.803  1.00  0.00     0.022 A 
ATOM     29  S   UNL     1       7.700   2.387   1.137  1.00  0.00    -0.142 S 
ATOM     30  C   UNL     1       9.661   2.314  -0.519  1.00  0.00     0.012 A 
ATOM     31  C   UNL     1       9.177   3.029   0.556  1.00  0.00     0.065 A 
ENDBRANCH  24  27
ENDBRANCH  10  15
ENDBRANCH   6   9
ENDBRANCH   4   5
ENDBRANCH   3   4
ENDBRANCH   2   3
ENDBRANCH   1   2
BRANCH   1  32
ATOM     32  C   UNL     1       5.731  -2.383   3.454  1.00  0.00     0.021 C 
BRANCH  32  33
ATOM     33  C   UNL     1       4.557  -2.881   4.272  1.00  0.00     0.116 C 
BRANCH  33  34
ATOM     34  N   UNL     1       4.749  -4.275   4.683  1.00  0.00    -0.352 N 
ATOM     35  C   UNL     1       3.950  -5.072   5.470  1.00  0.00     0.251 C 
ATOM     36  H   UNL     1       5.569  -4.704   4.347  1.00  0.00     0.163 HD
ATOM     37  O   UNL     1       4.386  -6.079   6.010  1.00  0.00    -0.269 OA
BRANCH  35  38
ATOM     38  C   UNL     1       2.528  -4.739   5.526  1.00  0.00     0.039 A 
ATOM     39  C   UNL     1       1.673  -5.009   6.593  1.00  0.00     0.014 A 
ATOM     40  C   UNL     1       1.999  -4.241   4.353  1.00  0.00     0.014 A 
ATOM     41  C   UNL     1       0.308  -4.788   6.382  1.00  0.00     0.010 A 
ATOM     42  C   UNL     1       0.876  -3.507   4.453  1.00  0.00     0.010 A 
ATOM     43  C   UNL     1      -0.081  -4.135   5.203  1.00  0.00    -0.014 A 
BRANCH  43  44
ATOM     44  C   UNL     1      -1.408  -3.671   4.859  1.00  0.00     0.031 A 
ATOM     45  C   UNL     1      -1.859  -2.670   5.863  1.00  0.00     0.074 A 
ATOM     46  C   UNL     1      -1.974  -3.958   3.657  1.00  0.00     0.049 A 
ATOM     47  N   UNL     1      -2.567  -2.936   6.910  1.00  0.00    -0.248 NA
ATOM     48  C   UNL     1      -1.185  -1.353   5.961  1.00  0.00     0.031 C 
ATOM     49  C   UNL     1      -1.464  -4.736   2.513  1.00  0.00     0.029 A 
ATOM     50  N   UNL     1      -3.205  -3.580   3.200  1.00  0.00    -0.354 N 
ATOM     51  C   UNL     1      -2.718  -1.724   7.569  1.00  0.00     0.074 A 
ATOM     52  C   UNL     1      -1.610  -0.920   7.152  1.00  0.00     0.031 C 
ATOM     53  C   UNL     1      -2.268  -4.563   1.430  1.00  0.00     0.029 A 
ATOM     54  C   UNL     1      -3.424  -3.782   1.821  1.00  0.00     0.049 A 
ATOM     55  H   UNL     1      -3.891  -3.194   3.791  1.00  0.00     0.167 HD
ATOM     56  C   UNL     1      -3.926  -1.385   8.098  1.00  0.00     0.037 A 
ATOM     57  C   UNL     1      -4.519  -3.344   1.121  1.00  0.00     0.037 A 
ATOM     58  C   UNL     1      -4.785  -2.550   8.116  1.00  0.00     0.049 A 
ATOM     59  C   UNL     1      -5.577  -3.113   2.159  1.00  0.00     0.074 A 
ATOM     60  C   UNL     1      -4.715  -3.781   8.738  1.00  0.00     0.029 A 
ATOM     61  N   UNL     1      -5.606  -2.714   7.022  1.00  0.00    -0.354 N 
ATOM     62  N   UNL     1      -6.061  -4.092   2.886  1.00  0.00    -0.248 NA
ATOM     63  C   UNL     1      -5.583  -1.795   2.788  1.00  0.00     0.031 C 
ATOM     64  C   UNL     1      -5.099  -4.721   7.736  1.00  0.00     0.029 A 
ATOM     65  C   UNL     1      -5.540  -4.024   6.610  1.00  0.00     0.049 A 
ATOM     66  H   UNL     1      -6.151  -2.009   6.604  1.00  0.00     0.167 HD
ATOM     67  C   UNL     1      -6.012  -3.618   4.193  1.00  0.00     0.074 A 
ATOM     68  C   UNL     1      -5.697  -2.188   4.062  1.00  0.00     0.031 C 
ATOM     69  C   UNL     1      -5.871  -4.458   5.265  1.00  0.00     0.037 A 
BRANCH  56  70
ATOM     70  C   UNL     1      -4.481   0.018   8.192  1.00  0.00     0.058 A 
ATOM     71  C   UNL     1      -5.706   0.207   8.864  1.00  0.00     0.135 A 
ATOM     72  C   UNL     1      -4.018   1.133   7.457  1.00  0.00     0.135 A 
ATOM     73  F   UNL     1      -6.240  -0.778   9.604  1.00  0.00    -0.206 F 
ATOM     74  C   UNL     1      -6.448   1.383   8.756  1.00  0.00     0.059 A 
ATOM     75  C   UNL     1      -4.721   2.331   7.371  1.00  0.00     0.059 A 
ATOM     76  F   UNL     1      -2.901   1.102   6.723  1.00  0.00    -0.206 F 
ATOM     77  C   UNL     1      -5.949   2.438   8.000  1.00  0.00     0.060 A 
BRANCH  77  78
ATOM     78  S   UNL     1      -6.926   3.942   7.845  1.00  0.00     0.124 S 
ATOM     79  O   UNL     1      -8.090   3.465   7.107  1.00  0.00    -0.237 OA
ATOM     80  O   UNL     1      -7.154   4.292   9.243  1.00  0.00    -0.237 OA
ATOM     81  O   UNL     1      -6.042   4.845   7.115  1.00  0.00    -0.744 OA
ENDBRANCH  77  78
ENDBRANCH  56  70
BRANCH  57  82
ATOM     82  C   UNL     1      -4.535  -2.644  -0.211  1.00  0.00     0.058 A 
ATOM     83  C   UNL     1      -5.721  -2.305  -0.906  1.00  0.00     0.135 A 
ATOM     84  C   UNL     1      -3.366  -2.026  -0.691  1.00  0.00     0.135 A 
ATOM     85  F   UNL     1      -6.898  -2.831  -0.528  1.00  0.00    -0.206 F 
ATOM     86  C   UNL     1      -5.744  -1.376  -1.968  1.00  0.00     0.059 A 
ATOM     87  C   UNL     1      -3.365  -1.095  -1.733  1.00  0.00     0.059 A 
ATOM     88  F   UNL     1      -2.184  -2.245  -0.099  1.00  0.00    -0.206 F 
ATOM     89  C   UNL     1      -4.557  -0.752  -2.355  1.00  0.00     0.060 A 
BRANCH  89  90
ATOM     90  S   UNL     1      -4.569   0.589  -3.580  1.00  0.00     0.124 S 
ATOM     91  O   UNL     1      -4.921  -0.117  -4.807  1.00  0.00    -0.237 OA
ATOM     92  O   UNL     1      -5.587   1.489  -3.050  1.00  0.00    -0.237 OA
ATOM     93  O   UNL     1      -3.202   1.104  -3.534  1.00  0.00    -0.744 OA
ENDBRANCH  89  90
ENDBRANCH  57  82
BRANCH  69  94
ATOM     94  C   UNL     1      -5.944  -5.957   5.042  1.00  0.00     0.058 A 
ATOM     95  C   UNL     1      -4.997  -6.736   4.345  1.00  0.00     0.135 A 
ATOM     96  C   UNL     1      -6.936  -6.659   5.737  1.00  0.00     0.135 A 
ATOM     97  F   UNL     1      -3.946  -6.166   3.744  1.00  0.00    -0.206 F 
ATOM     98  C   UNL     1      -5.063  -8.135   4.304  1.00  0.00     0.059 A 
ATOM     99  C   UNL     1      -7.007  -8.049   5.737  1.00  0.00     0.059 A 
ATOM    100  F   UNL     1      -7.826  -5.988   6.486  1.00  0.00    -0.206 F 
ATOM    101  C   UNL     1      -6.081  -8.783   5.002  1.00  0.00     0.060 A 
BRANCH 101 102
ATOM    102  S   UNL     1      -6.178 -10.588   4.974  1.00  0.00     0.124 S 
ATOM    103  O   UNL     1      -6.537 -10.854   3.586  1.00  0.00    -0.237 OA
ATOM    104  O   UNL     1      -4.829 -10.985   5.367  1.00  0.00    -0.237 OA
ATOM    105  O   UNL     1      -7.218 -10.888   5.955  1.00  0.00    -0.744 OA
ENDBRANCH 101 102
ENDBRANCH  69  94
ENDBRANCH  43  44
ENDBRANCH  35  38
ENDBRANCH  33  34
ENDBRANCH  32  33
ENDBRANCH   1  32
TORSDOF 18
