REMARK SMILES C[C@H]1C[C@H](C)CN(S(=O)(=O)N[C@@H](CCC(N)=O)C(=O)NCCCCCCNC(=O)c2ccc(-c3c4nc(c(-c5c(F)cc(S(=O)(=O)[O-])cc5F)c5ccc([nH]5)c(-c5c(F)cc(S(=O)(=O)[O-])cc5F)c5nc(c(-c6c(F)cc(S(=O)(=O)[O-])cc6F)c6ccc3[nH]6)C=C5)C=C4)cc2)C1
REMARK SMILES IDX 23 1 22 2 21 3 20 4 18 5 19 6 12 8 11 9 8 11 9 12 10 13 7 14
REMARK SMILES IDX 1 15 2 16 3 17 96 18 4 19 5 20 6 21 13 22 14 23 15 24 16 25
REMARK SMILES IDX 17 26 24 29 25 30 26 31 27 32 28 33 29 35 30 36 31 37 95 38
REMARK SMILES IDX 32 39 94 40 33 41 34 42 35 43 88 44 36 45 93 46 87 47 89 48
REMARK SMILES IDX 37 49 92 50 86 51 85 52 38 54 72 55 51 56 71 57 52 58 55 59
REMARK SMILES IDX 70 60 90 61 53 62 54 63 69 65 91 66 56 67 39 68 40 69 49 70
REMARK SMILES IDX 41 71 42 72 48 73 50 74 43 75 44 76 45 77 46 78 47 79 73 80
REMARK SMILES IDX 74 81 83 82 75 83 76 84 82 85 84 86 77 87 78 88 79 89 80 90
REMARK SMILES IDX 81 91 57 92 58 93 67 94 59 95 60 96 66 97 68 98 61 99 62 100
REMARK SMILES IDX 63 101 64 102 65 103
REMARK H PARENT 20 7 11 10 16 27 16 28 27 34 89 53 55 64
REMARK Flexibility Score: inf
ROOT
ATOM      1  C   UNL     1       5.111 -10.619   2.244  1.00  0.00     0.002 C 
ENDROOT
BRANCH   1   2
ATOM      2  C   UNL     1       4.646  -9.553   1.244  1.00  0.00     0.021 C 
BRANCH   2   3
ATOM      3  C   UNL     1       3.382  -8.810   1.661  1.00  0.00     0.116 C 
BRANCH   3   4
ATOM      4  N   UNL     1       3.560  -8.097   2.910  1.00  0.00    -0.355 N 
ATOM      5  C   UNL     1       2.918  -7.011   3.417  1.00  0.00     0.238 C 
ATOM      6  O   UNL     1       3.255  -6.627   4.543  1.00  0.00    -0.273 OA
ATOM      7  H   UNL     1       4.266  -8.461   3.492  1.00  0.00     0.163 HD
BRANCH   5   8
ATOM      8  C   UNL     1       1.870  -6.229   2.616  1.00  0.00     0.160 C 
BRANCH   8   9
ATOM      9  N   UNL     1       2.399  -5.915   1.278  1.00  0.00    -0.190 NA
ATOM     10  H   UNL     1       3.172  -5.273   1.454  1.00  0.00     0.143 HD
BRANCH   9  11
ATOM     11  S   UNL     1       1.613  -5.266  -0.011  1.00  0.00     0.280 S 
ATOM     12  O   UNL     1       0.309  -5.871  -0.147  1.00  0.00    -0.195 OA
ATOM     13  O   UNL     1       2.568  -5.317  -1.089  1.00  0.00    -0.195 OA
BRANCH  11  14
ATOM     14  N   UNL     1       1.412  -3.613   0.386  1.00  0.00    -0.188 NA
ATOM     15  C   UNL     1       0.131  -0.675  -1.793  1.00  0.00     0.009 C 
ATOM     16  C   UNL     1       0.759  -1.363  -0.578  1.00  0.00     0.001 C 
ATOM     17  C   UNL     1      -0.078  -1.089   0.674  1.00  0.00     0.009 C 
ATOM     18  C   UNL     1       0.902  -2.871  -0.827  1.00  0.00     0.106 C 
ATOM     19  C   UNL     1       0.475  -1.837   1.883  1.00  0.00     0.001 C 
ATOM     20  C   UNL     1       1.820  -1.274   2.359  1.00  0.00     0.009 C 
ATOM     21  C   UNL     1       0.553  -3.333   1.568  1.00  0.00     0.106 C 
ENDBRANCH  11  14
ENDBRANCH   9  11
ENDBRANCH   8   9
BRANCH   8  22
ATOM     22  C   UNL     1       0.429  -6.751   2.714  1.00  0.00     0.040 C 
BRANCH  22  23
ATOM     23  C   UNL     1       0.132  -8.200   2.327  1.00  0.00     0.102 C 
BRANCH  23  24
ATOM     24  C   UNL     1       0.403  -9.176   3.456  1.00  0.00     0.217 C 
ATOM     25  N   UNL     1       0.146 -10.481   3.166  1.00  0.00    -0.370 N 
ATOM     26  O   UNL     1       0.815  -8.856   4.564  1.00  0.00    -0.275 OA
ATOM     27  H   UNL     1      -0.186 -10.732   2.274  1.00  0.00     0.159 HD
ATOM     28  H   UNL     1       0.292 -11.175   3.849  1.00  0.00     0.159 HD
ENDBRANCH  23  24
ENDBRANCH  22  23
ENDBRANCH   8  22
ENDBRANCH   5   8
ENDBRANCH   3   4
ENDBRANCH   2   3
ENDBRANCH   1   2
BRANCH   1  29
ATOM     29  C   UNL     1       4.045 -11.636   2.668  1.00  0.00     0.002 C 
BRANCH  29  30
ATOM     30  C   UNL     1       3.361 -12.382   1.522  1.00  0.00     0.021 C 
BRANCH  30  31
ATOM     31  C   UNL     1       4.313 -13.040   0.532  1.00  0.00     0.116 C 
BRANCH  31  32
ATOM     32  N   UNL     1       5.209 -13.993   1.166  1.00  0.00    -0.352 N 
ATOM     33  C   UNL     1       5.567 -15.246   0.734  1.00  0.00     0.251 C 
ATOM     34  H   UNL     1       5.611 -13.702   2.016  1.00  0.00     0.163 HD
ATOM     35  O   UNL     1       6.228 -15.988   1.453  1.00  0.00    -0.269 OA
BRANCH  33  36
ATOM     36  C   UNL     1       5.112 -15.699  -0.596  1.00  0.00     0.039 A 
ATOM     37  C   UNL     1       4.480 -16.938  -0.709  1.00  0.00     0.014 A 
ATOM     38  C   UNL     1       5.263 -14.873  -1.714  1.00  0.00     0.014 A 
ATOM     39  C   UNL     1       3.937 -17.323  -1.936  1.00  0.00     0.010 A 
ATOM     40  C   UNL     1       4.654 -15.224  -2.913  1.00  0.00     0.010 A 
ATOM     41  C   UNL     1       3.986 -16.452  -3.037  1.00  0.00    -0.014 A 
BRANCH  41  42
ATOM     42  C   UNL     1       3.344 -16.801  -4.329  1.00  0.00     0.031 A 
ATOM     43  C   UNL     1       4.186 -16.949  -5.567  1.00  0.00     0.074 A 
ATOM     44  C   UNL     1       2.002 -16.907  -4.402  1.00  0.00     0.049 A 
ATOM     45  N   UNL     1       3.808 -17.151  -6.802  1.00  0.00    -0.248 NA
ATOM     46  C   UNL     1       5.643 -16.827  -5.396  1.00  0.00     0.031 C 
ATOM     47  C   UNL     1       1.077 -16.743  -3.277  1.00  0.00     0.029 A 
ATOM     48  N   UNL     1       1.179 -17.163  -5.470  1.00  0.00    -0.354 N 
ATOM     49  C   UNL     1       4.976 -17.164  -7.557  1.00  0.00     0.074 A 
ATOM     50  C   UNL     1       6.069 -16.895  -6.649  1.00  0.00     0.031 C 
ATOM     51  C   UNL     1      -0.181 -16.920  -3.712  1.00  0.00     0.029 A 
ATOM     52  C   UNL     1      -0.158 -17.163  -5.151  1.00  0.00     0.049 A 
ATOM     53  H   UNL     1       1.516 -17.331  -6.380  1.00  0.00     0.167 HD
ATOM     54  C   UNL     1       5.123 -17.401  -8.882  1.00  0.00     0.037 A 
ATOM     55  C   UNL     1      -1.245 -17.325  -5.932  1.00  0.00     0.037 A 
ATOM     56  C   UNL     1       4.030 -17.688  -9.772  1.00  0.00     0.049 A 
ATOM     57  C   UNL     1      -1.056 -17.569  -7.405  1.00  0.00     0.074 A 
ATOM     58  C   UNL     1       4.078 -17.997 -11.120  1.00  0.00     0.029 A 
ATOM     59  N   UNL     1       2.691 -17.697  -9.408  1.00  0.00    -0.354 N 
ATOM     60  N   UNL     1       0.059 -17.641  -8.092  1.00  0.00    -0.248 NA
ATOM     61  C   UNL     1      -2.271 -17.758  -8.210  1.00  0.00     0.031 C 
ATOM     62  C   UNL     1       2.766 -18.140 -11.582  1.00  0.00     0.029 A 
ATOM     63  C   UNL     1       1.902 -17.981 -10.510  1.00  0.00     0.049 A 
ATOM     64  H   UNL     1       2.352 -17.526  -8.500  1.00  0.00     0.167 HD
ATOM     65  C   UNL     1      -0.317 -17.915  -9.403  1.00  0.00     0.074 A 
ATOM     66  C   UNL     1      -1.763 -18.004  -9.411  1.00  0.00     0.031 C 
ATOM     67  C   UNL     1       0.463 -18.080 -10.499  1.00  0.00     0.037 A 
BRANCH  54  68
ATOM     68  C   UNL     1       6.517 -17.360  -9.448  1.00  0.00     0.058 A 
ATOM     69  C   UNL     1       7.472 -18.340  -9.132  1.00  0.00     0.135 A 
ATOM     70  C   UNL     1       6.892 -16.349 -10.348  1.00  0.00     0.135 A 
ATOM     71  F   UNL     1       7.174 -19.321  -8.265  1.00  0.00    -0.206 F 
ATOM     72  C   UNL     1       8.757 -18.302  -9.663  1.00  0.00     0.059 A 
ATOM     73  C   UNL     1       8.162 -16.309 -10.917  1.00  0.00     0.059 A 
ATOM     74  F   UNL     1       6.020 -15.386 -10.685  1.00  0.00    -0.206 F 
ATOM     75  C   UNL     1       9.092 -17.283 -10.556  1.00  0.00     0.060 A 
BRANCH  75  76
ATOM     76  S   UNL     1      10.762 -17.255 -11.242  1.00  0.00     0.124 S 
ATOM     77  O   UNL     1      11.546 -16.850 -10.079  1.00  0.00    -0.237 OA
ATOM     78  O   UNL     1      10.942 -18.635 -11.678  1.00  0.00    -0.237 OA
ATOM     79  O   UNL     1      10.674 -16.267 -12.313  1.00  0.00    -0.744 OA
ENDBRANCH  75  76
ENDBRANCH  54  68
BRANCH  55  80
ATOM     80  C   UNL     1      -2.606 -17.274  -5.333  1.00  0.00     0.058 A 
ATOM     81  C   UNL     1      -3.402 -18.426  -5.248  1.00  0.00     0.135 A 
ATOM     82  C   UNL     1      -3.135 -16.078  -4.824  1.00  0.00     0.135 A 
ATOM     83  F   UNL     1      -2.945 -19.594  -5.726  1.00  0.00    -0.206 F 
ATOM     84  C   UNL     1      -4.679 -18.393  -4.696  1.00  0.00     0.059 A 
ATOM     85  C   UNL     1      -4.398 -16.024  -4.242  1.00  0.00     0.059 A 
ATOM     86  F   UNL     1      -2.409 -14.949  -4.864  1.00  0.00    -0.206 F 
ATOM     87  C   UNL     1      -5.167 -17.186  -4.193  1.00  0.00     0.060 A 
BRANCH  87  88
ATOM     88  S   UNL     1      -6.806 -17.164  -3.435  1.00  0.00     0.124 S 
ATOM     89  O   UNL     1      -7.671 -17.310  -4.600  1.00  0.00    -0.237 OA
ATOM     90  O   UNL     1      -6.743 -18.313  -2.537  1.00  0.00    -0.237 OA
ATOM     91  O   UNL     1      -6.852 -15.863  -2.773  1.00  0.00    -0.744 OA
ENDBRANCH  87  88
ENDBRANCH  55  80
BRANCH  67  92
ATOM     92  C   UNL     1      -0.218 -18.418 -11.797  1.00  0.00     0.058 A 
ATOM     93  C   UNL     1      -0.965 -17.469 -12.511  1.00  0.00     0.135 A 
ATOM     94  C   UNL     1      -0.058 -19.692 -12.368  1.00  0.00     0.135 A 
ATOM     95  F   UNL     1      -1.155 -16.239 -12.007  1.00  0.00    -0.206 F 
ATOM     96  C   UNL     1      -1.541 -17.774 -13.740  1.00  0.00     0.059 A 
ATOM     97  C   UNL     1      -0.600 -20.009 -13.609  1.00  0.00     0.059 A 
ATOM     98  F   UNL     1       0.655 -20.634 -11.731  1.00  0.00    -0.206 F 
ATOM     99  C   UNL     1      -1.347 -19.046 -14.284  1.00  0.00     0.060 A 
BRANCH  99 100
ATOM    100  S   UNL     1      -2.057 -19.410 -15.904  1.00  0.00     0.124 S 
ATOM    101  O   UNL     1      -3.478 -19.499 -15.589  1.00  0.00    -0.237 OA
ATOM    102  O   UNL     1      -1.653 -18.248 -16.689  1.00  0.00    -0.237 OA
ATOM    103  O   UNL     1      -1.417 -20.667 -16.281  1.00  0.00    -0.744 OA
ENDBRANCH  99 100
ENDBRANCH  67  92
ENDBRANCH  41  42
ENDBRANCH  33  36
ENDBRANCH  31  32
ENDBRANCH  30  31
ENDBRANCH  29  30
ENDBRANCH   1  29
TORSDOF 22
