REMARK SMILES COC(=O)c1sc(NC(=O)[C@H]2CC=CC[C@H]2C(=O)NCCCCCCNC(=O)c2ccc(-c3c4nc(c(-c5c(F)cc(S(=O)(=O)[O-])cc5F)c5ccc([nH]5)c(-c5c(F)cc(S(=O)(=O)[O-])cc5F)c5nc(c(-c6c(F)cc(S(=O)(=O)[O-])cc6F)c6ccc3[nH]6)C=C5)C=C4)cc2)nc1C
REMARK SMILES IDX 22 1 21 2 20 3 19 4 17 5 18 6 16 8 11 9 12 10 13 11 15 12
REMARK SMILES IDX 14 13 9 14 8 15 10 17 7 18 5 19 6 20 96 21 95 22 97 23 3 24
REMARK SMILES IDX 4 25 2 26 1 27 23 28 24 29 25 30 26 31 27 32 28 34 29 35
REMARK SMILES IDX 30 36 94 37 31 38 93 39 32 40 33 41 34 42 87 43 35 44 92 45
REMARK SMILES IDX 86 46 88 47 36 48 91 49 85 50 84 51 37 53 71 54 50 55 70 56
REMARK SMILES IDX 51 57 54 58 69 59 89 60 52 61 53 62 68 64 90 65 55 66 38 67
REMARK SMILES IDX 39 68 48 69 40 70 41 71 47 72 49 73 42 74 43 75 44 76 45 77
REMARK SMILES IDX 46 78 72 79 73 80 82 81 74 82 75 83 81 84 83 85 76 86 77 87
REMARK SMILES IDX 78 88 79 89 80 90 56 91 57 92 66 93 58 94 59 95 65 96 67 97
REMARK SMILES IDX 60 98 61 99 62 100 63 101 64 102
REMARK H PARENT 19 7 8 16 26 33 88 52 54 63
REMARK Flexibility Score: inf
ROOT
ATOM      1  C   UNL     1       2.601   6.090   2.641  1.00  0.00     0.002 C 
ENDROOT
BRANCH   1   2
ATOM      2  C   UNL     1       1.610   7.249   2.511  1.00  0.00     0.021 C 
BRANCH   2   3
ATOM      3  C   UNL     1       0.904   7.381   1.164  1.00  0.00     0.116 C 
BRANCH   3   4
ATOM      4  N   UNL     1       0.306   6.141   0.703  1.00  0.00    -0.356 N 
ATOM      5  C   UNL     1      -0.917   5.880   0.177  1.00  0.00     0.224 C 
ATOM      6  O   UNL     1      -1.022   4.827  -0.463  1.00  0.00    -0.275 OA
ATOM      7  H   UNL     1       0.890   5.353   0.787  1.00  0.00     0.163 HD
BRANCH   5   8
ATOM      8  C   UNL     1      -2.098   6.840   0.269  1.00  0.00     0.095 C 
ATOM      9  C   UNL     1      -2.720   7.153   1.660  1.00  0.00     0.095 C 
ATOM     10  C   UNL     1      -3.599   8.434   1.671  1.00  0.00     0.041 C 
ATOM     11  C   UNL     1      -3.273   9.491   0.664  1.00  0.00    -0.030 C 
ATOM     12  C   UNL     1      -1.809   8.008  -0.694  1.00  0.00     0.041 C 
ATOM     13  C   UNL     1      -2.479   9.299  -0.391  1.00  0.00    -0.030 C 
BRANCH   9  14
ATOM     14  C   UNL     1      -1.820   7.157   2.897  1.00  0.00     0.230 C 
ATOM     15  N   UNL     1      -1.389   6.024   3.516  1.00  0.00    -0.302 N 
ATOM     16  H   UNL     1      -0.941   6.149   4.384  1.00  0.00     0.172 HD
ATOM     17  O   UNL     1      -1.429   8.223   3.390  1.00  0.00    -0.274 OA
BRANCH  15  18
ATOM     18  C   UNL     1      -1.501   4.740   3.083  1.00  0.00     0.190 A 
ATOM     19  C   UNL     1      -0.579   2.662   2.320  1.00  0.00     0.137 A 
ATOM     20  S   UNL     1      -0.240   3.732   3.629  1.00  0.00    -0.089 S 
ATOM     21  C   UNL     1      -1.838   2.975   1.819  1.00  0.00     0.065 A 
ATOM     22  N   UNL     1      -2.341   4.206   2.243  1.00  0.00    -0.224 NA
ATOM     23  C   UNL     1      -2.634   2.223   0.813  1.00  0.00     0.069 C 
BRANCH  19  24
ATOM     24  C   UNL     1       0.400   1.672   1.935  1.00  0.00     0.350 C 
ATOM     25  O   UNL     1       1.433   1.400   2.543  1.00  0.00    -0.245 OA
BRANCH  24  26
ATOM     26  O   UNL     1       0.056   1.105   0.744  1.00  0.00    -0.465 OA
ATOM     27  C   UNL     1       1.003   0.173   0.220  1.00  0.00     0.282 C 
ENDBRANCH  24  26
ENDBRANCH  19  24
ENDBRANCH  15  18
ENDBRANCH   9  14
ENDBRANCH   5   8
ENDBRANCH   3   4
ENDBRANCH   2   3
ENDBRANCH   1   2
BRANCH   1  28
ATOM     28  C   UNL     1       3.823   6.176   1.732  1.00  0.00     0.002 C 
BRANCH  28  29
ATOM     29  C   UNL     1       4.588   7.494   1.818  1.00  0.00     0.021 C 
BRANCH  29  30
ATOM     30  C   UNL     1       4.934   7.939   3.233  1.00  0.00     0.116 C 
BRANCH  30  31
ATOM     31  N   UNL     1       5.793   6.988   3.921  1.00  0.00    -0.352 N 
ATOM     32  C   UNL     1       6.965   7.247   4.587  1.00  0.00     0.251 C 
ATOM     33  H   UNL     1       5.499   6.048   3.907  1.00  0.00     0.163 HD
ATOM     34  O   UNL     1       7.681   6.337   4.990  1.00  0.00    -0.269 OA
BRANCH  32  35
ATOM     35  C   UNL     1       7.353   8.656   4.781  1.00  0.00     0.039 A 
ATOM     36  C   UNL     1       8.582   9.097   4.292  1.00  0.00     0.014 A 
ATOM     37  C   UNL     1       6.447   9.549   5.363  1.00  0.00     0.014 A 
ATOM     38  C   UNL     1       8.885  10.458   4.343  1.00  0.00     0.010 A 
ATOM     39  C   UNL     1       6.720  10.911   5.341  1.00  0.00     0.010 A 
ATOM     40  C   UNL     1       7.945  11.378   4.839  1.00  0.00    -0.014 A 
BRANCH  40  41
ATOM     41  C   UNL     1       8.236  12.833   4.858  1.00  0.00     0.031 A 
ATOM     42  C   UNL     1       8.332  13.556   6.173  1.00  0.00     0.074 A 
ATOM     43  C   UNL     1       8.361  13.505   3.697  1.00  0.00     0.049 A 
ATOM     44  N   UNL     1       8.539  14.826   6.403  1.00  0.00    -0.248 NA
ATOM     45  C   UNL     1       8.143  12.750   7.391  1.00  0.00     0.031 C 
ATOM     46  C   UNL     1       8.234  12.919   2.361  1.00  0.00     0.029 A 
ATOM     47  N   UNL     1       8.618  14.831   3.452  1.00  0.00    -0.354 N 
ATOM     48  C   UNL     1       8.496  14.972   7.784  1.00  0.00     0.074 A 
ATOM     49  C   UNL     1       8.179  13.674   8.338  1.00  0.00     0.031 C 
ATOM     50  C   UNL     1       8.440  13.873   1.439  1.00  0.00     0.029 A 
ATOM     51  C   UNL     1       8.676  15.146   2.115  1.00  0.00     0.049 A 
ATOM     52  H   UNL     1       8.748  15.495   4.168  1.00  0.00     0.167 HD
ATOM     53  C   UNL     1       8.728  16.081   8.526  1.00  0.00     0.037 A 
ATOM     54  C   UNL     1       8.890  16.328   1.504  1.00  0.00     0.037 A 
ATOM     55  C   UNL     1       9.063  17.363   7.964  1.00  0.00     0.049 A 
ATOM     56  C   UNL     1       9.138  17.549   2.349  1.00  0.00     0.074 A 
ATOM     57  C   UNL     1       9.374  18.537   8.626  1.00  0.00     0.029 A 
ATOM     58  N   UNL     1       9.125  17.640   6.605  1.00  0.00    -0.354 N 
ATOM     59  N   UNL     1       9.168  17.654   3.657  1.00  0.00    -0.248 NA
ATOM     60  C   UNL     1       9.389  18.810   1.638  1.00  0.00     0.031 C 
ATOM     61  C   UNL     1       9.572  19.537   7.668  1.00  0.00     0.029 A 
ATOM     62  C   UNL     1       9.443  18.973   6.409  1.00  0.00     0.049 A 
ATOM     63  H   UNL     1       8.966  16.985   5.888  1.00  0.00     0.167 HD
ATOM     64  C   UNL     1       9.466  18.986   3.925  1.00  0.00     0.074 A 
ATOM     65  C   UNL     1       9.622  19.643   2.643  1.00  0.00     0.031 C 
ATOM     66  C   UNL     1       9.599  19.609   5.123  1.00  0.00     0.037 A 
BRANCH  53  67
ATOM     67  C   UNL     1       8.630  15.952  10.022  1.00  0.00     0.058 A 
ATOM     68  C   UNL     1       9.564  15.209  10.763  1.00  0.00     0.135 A 
ATOM     69  C   UNL     1       7.604  16.601  10.729  1.00  0.00     0.135 A 
ATOM     70  F   UNL     1      10.555  14.554  10.138  1.00  0.00    -0.206 F 
ATOM     71  C   UNL     1       9.466  15.086  12.145  1.00  0.00     0.059 A 
ATOM     72  C   UNL     1       7.506  16.518  12.115  1.00  0.00     0.059 A 
ATOM     73  F   UNL     1       6.683  17.323  10.073  1.00  0.00    -0.206 F 
ATOM     74  C   UNL     1       8.433  15.745  12.812  1.00  0.00     0.060 A 
BRANCH  74  75
ATOM     75  S   UNL     1       8.325  15.579  14.607  1.00  0.00     0.124 S 
ATOM     76  O   UNL     1       7.878  14.196  14.745  1.00  0.00    -0.237 OA
ATOM     77  O   UNL     1       9.697  15.846  15.027  1.00  0.00    -0.237 OA
ATOM     78  O   UNL     1       7.348  16.595  14.985  1.00  0.00    -0.744 OA
ENDBRANCH  74  75
ENDBRANCH  53  67
BRANCH  54  79
ATOM     79  C   UNL     1       8.902  16.407   0.018  1.00  0.00     0.058 A 
ATOM     80  C   UNL     1      10.090  16.659  -0.684  1.00  0.00     0.135 A 
ATOM     81  C   UNL     1       7.730  16.220  -0.732  1.00  0.00     0.135 A 
ATOM     82  F   UNL     1      11.237  16.851  -0.014  1.00  0.00    -0.206 F 
ATOM     83  C   UNL     1      10.115  16.739  -2.073  1.00  0.00     0.059 A 
ATOM     84  C   UNL     1       7.734  16.268  -2.123  1.00  0.00     0.059 A 
ATOM     85  F   UNL     1       6.569  15.960  -0.111  1.00  0.00    -0.206 F 
ATOM     86  C   UNL     1       8.931  16.538  -2.784  1.00  0.00     0.060 A 
BRANCH  86  87
ATOM     87  S   UNL     1       8.984  16.595  -4.589  1.00  0.00     0.124 S 
ATOM     88  O   UNL     1       9.179  18.019  -4.833  1.00  0.00    -0.237 OA
ATOM     89  O   UNL     1      10.123  15.733  -4.888  1.00  0.00    -0.237 OA
ATOM     90  O   UNL     1       7.683  16.059  -4.980  1.00  0.00    -0.744 OA
ENDBRANCH  86  87
ENDBRANCH  54  79
BRANCH  66  91
ATOM     91  C   UNL     1       9.959  21.069   5.109  1.00  0.00     0.058 A 
ATOM     92  C   UNL     1       9.039  22.053   4.715  1.00  0.00     0.135 A 
ATOM     93  C   UNL     1      11.222  21.492   5.553  1.00  0.00     0.135 A 
ATOM     94  F   UNL     1       7.819  21.702   4.277  1.00  0.00    -0.206 F 
ATOM     95  C   UNL     1       9.366  23.405   4.741  1.00  0.00     0.059 A 
ATOM     96  C   UNL     1      11.560  22.840   5.617  1.00  0.00     0.059 A 
ATOM     97  F   UNL     1      12.136  20.593   5.951  1.00  0.00    -0.206 F 
ATOM     98  C   UNL     1      10.629  23.789   5.197  1.00  0.00     0.060 A 
BRANCH  98  99
ATOM     99  S   UNL     1      11.026  25.548   5.262  1.00  0.00     0.124 S 
ATOM    100  O   UNL     1      11.183  25.866   3.847  1.00  0.00    -0.237 OA
ATOM    101  O   UNL     1       9.846  26.110   5.911  1.00  0.00    -0.237 OA
ATOM    102  O   UNL     1      12.251  25.592   6.055  1.00  0.00    -0.744 OA
ENDBRANCH  98  99
ENDBRANCH  66  91
ENDBRANCH  40  41
ENDBRANCH  32  35
ENDBRANCH  30  31
ENDBRANCH  29  30
ENDBRANCH  28  29
ENDBRANCH   1  28
TORSDOF 20
