REMARK SMILES Cc1ccc(C(C)(C)C)c(OCC(=O)c2nc(C)c(C(=O)NCCCCCCNC(=O)c3ccc(-c4c5nc(c(-c6c(F)cc(S(=O)(=O)[O-])cc6F)c6ccc([nH]6)c(-c6c(F)cc(S(=O)(=O)[O-])cc6F)c6nc(c(-c7c(F)cc(S(=O)(=O)[O-])cc7F)c7ccc4[nH]7)C=C6)C=C5)cc3)s2)c1
REMARK SMILES IDX 24 1 23 2 22 3 20 4 21 5 19 7 15 8 16 9 98 10 17 11 18 12
REMARK SMILES IDX 13 13 14 14 12 15 11 16 10 17 1 18 2 19 3 20 99 21 4 22 5 23
REMARK SMILES IDX 6 24 7 25 8 26 9 27 25 28 26 29 27 30 28 31 29 32 30 33
REMARK SMILES IDX 31 35 32 36 33 37 97 38 34 39 96 40 35 41 36 42 37 43 90 44
REMARK SMILES IDX 38 45 95 46 89 47 91 48 39 49 94 50 88 51 87 52 40 54 74 55
REMARK SMILES IDX 53 56 73 57 54 58 57 59 72 60 92 61 55 62 56 63 71 65 93 66
REMARK SMILES IDX 58 67 41 68 42 69 51 70 43 71 44 72 50 73 52 74 45 75 46 76
REMARK SMILES IDX 47 77 48 78 49 79 75 80 76 81 85 82 77 83 78 84 84 85 86 86
REMARK SMILES IDX 79 87 80 88 81 89 82 90 83 91 59 92 60 93 69 94 61 95 62 96
REMARK SMILES IDX 68 97 70 98 63 99 64 100 65 101 66 102 67 103
REMARK H PARENT 22 6 29 34 91 53 57 64
REMARK Flexibility Score: inf
ROOT
ATOM      1  C   UNL     1      -2.549   4.593   8.435  1.00  0.00     0.021 C 
ENDROOT
BRANCH   1   2
ATOM      2  C   UNL     1      -1.829   3.475   7.686  1.00  0.00     0.116 C 
BRANCH   2   3
ATOM      3  N   UNL     1      -2.713   2.842   6.725  1.00  0.00    -0.351 N 
ATOM      4  C   UNL     1      -2.803   2.828   5.358  1.00  0.00     0.263 C 
ATOM      5  O   UNL     1      -3.740   2.133   4.940  1.00  0.00    -0.268 OA
ATOM      6  H   UNL     1      -3.410   2.296   7.155  1.00  0.00     0.163 HD
BRANCH   4   7
ATOM      7  C   UNL     1      -1.866   3.478   4.449  1.00  0.00     0.115 A 
ATOM      8  C   UNL     1      -0.636   3.896   2.358  1.00  0.00     0.164 A 
ATOM      9  N   UNL     1      -0.290   4.770   3.273  1.00  0.00    -0.237 NA
ATOM     10  S   UNL     1      -1.774   2.749   2.867  1.00  0.00    -0.105 S 
ATOM     11  C   UNL     1      -1.034   4.595   4.444  1.00  0.00     0.062 A 
ATOM     12  C   UNL     1      -0.824   5.667   5.452  1.00  0.00     0.068 C 
BRANCH   8  13
ATOM     13  C   UNL     1      -0.042   3.899   1.030  1.00  0.00     0.228 C 
ATOM     14  O   UNL     1       1.138   4.209   0.816  1.00  0.00    -0.288 OA
BRANCH  13  15
ATOM     15  C   UNL     1      -0.949   3.607  -0.180  1.00  0.00     0.313 C 
BRANCH  15  16
ATOM     16  O   UNL     1      -1.666   2.398  -0.310  1.00  0.00    -0.485 OA
BRANCH  16  17
ATOM     17  C   UNL     1      -1.015   1.199  -0.249  1.00  0.00     0.123 A 
ATOM     18  C   UNL     1       2.544  -0.186  -0.101  1.00  0.00     0.044 C 
ATOM     19  C   UNL     1       1.046  -0.117  -0.123  1.00  0.00    -0.047 A 
ATOM     20  C   UNL     1       0.286  -1.271   0.018  1.00  0.00     0.004 A 
ATOM     21  C   UNL     1       0.387   1.103  -0.294  1.00  0.00     0.050 A 
ATOM     22  C   UNL     1      -1.109  -1.195   0.007  1.00  0.00     0.008 A 
ATOM     23  C   UNL     1      -1.803   0.033  -0.116  1.00  0.00    -0.000 A 
BRANCH  23  24
ATOM     24  C   UNL     1      -3.355  -0.017  -0.105  1.00  0.00    -0.010 C 
ATOM     25  C   UNL     1      -3.830  -0.811  -1.345  1.00  0.00     0.016 C 
ATOM     26  C   UNL     1      -3.848  -0.737   1.175  1.00  0.00     0.016 C 
ATOM     27  C   UNL     1      -4.109   1.332  -0.149  1.00  0.00     0.016 C 
ENDBRANCH  23  24
ENDBRANCH  16  17
ENDBRANCH  15  16
ENDBRANCH  13  15
ENDBRANCH   8  13
ENDBRANCH   4   7
ENDBRANCH   2   3
ENDBRANCH   1   2
BRANCH   1  28
ATOM     28  C   UNL     1      -3.466   4.108   9.582  1.00  0.00     0.002 C 
BRANCH  28  29
ATOM     29  C   UNL     1      -2.865   3.768  10.981  1.00  0.00     0.002 C 
BRANCH  29  30
ATOM     30  C   UNL     1      -1.978   4.739  11.883  1.00  0.00     0.021 C 
BRANCH  30  31
ATOM     31  C   UNL     1      -2.680   5.568  13.052  1.00  0.00     0.116 C 
BRANCH  31  32
ATOM     32  N   UNL     1      -1.870   6.480  13.998  1.00  0.00    -0.352 N 
ATOM     33  C   UNL     1      -2.076   7.737  14.654  1.00  0.00     0.251 C 
ATOM     34  H   UNL     1      -0.985   6.101  14.203  1.00  0.00     0.163 HD
ATOM     35  O   UNL     1      -2.000   7.687  15.893  1.00  0.00    -0.269 OA
BRANCH  33  36
ATOM     36  C   UNL     1      -2.318   9.156  14.088  1.00  0.00     0.039 A 
ATOM     37  C   UNL     1      -3.272  10.021  14.696  1.00  0.00     0.014 A 
ATOM     38  C   UNL     1      -1.731   9.673  12.942  1.00  0.00     0.014 A 
ATOM     39  C   UNL     1      -3.953  11.026  13.927  1.00  0.00     0.010 A 
ATOM     40  C   UNL     1      -2.386  10.693  12.190  1.00  0.00     0.010 A 
ATOM     41  C   UNL     1      -3.621  11.234  12.581  1.00  0.00    -0.014 A 
BRANCH  41  42
ATOM     42  C   UNL     1      -4.577  11.796  11.554  1.00  0.00     0.031 A 
ATOM     43  C   UNL     1      -4.500  13.168  11.057  1.00  0.00     0.074 A 
ATOM     44  C   UNL     1      -5.536  11.112  10.868  1.00  0.00     0.049 A 
ATOM     45  N   UNL     1      -5.505  13.984  11.018  1.00  0.00    -0.248 NA
ATOM     46  C   UNL     1      -3.298  13.642  10.394  1.00  0.00     0.031 C 
ATOM     47  C   UNL     1      -6.426  11.470   9.751  1.00  0.00     0.029 A 
ATOM     48  N   UNL     1      -5.886   9.793  11.022  1.00  0.00    -0.354 N 
ATOM     49  C   UNL     1      -5.182  14.918  10.057  1.00  0.00     0.074 A 
ATOM     50  C   UNL     1      -3.754  14.766   9.834  1.00  0.00     0.031 C 
ATOM     51  C   UNL     1      -7.408  10.546   9.635  1.00  0.00     0.029 A 
ATOM     52  C   UNL     1      -7.215   9.564  10.678  1.00  0.00     0.049 A 
ATOM     53  H   UNL     1      -5.271   9.093  11.338  1.00  0.00     0.167 HD
ATOM     54  C   UNL     1      -6.137  15.536   9.294  1.00  0.00     0.037 A 
ATOM     55  C   UNL     1      -8.078   9.098  11.633  1.00  0.00     0.037 A 
ATOM     56  C   UNL     1      -7.440  14.858   9.383  1.00  0.00     0.049 A 
ATOM     57  C   UNL     1      -9.046  10.179  12.022  1.00  0.00     0.074 A 
ATOM     58  C   UNL     1      -8.154  14.098   8.463  1.00  0.00     0.029 A 
ATOM     59  N   UNL     1      -8.071  14.650  10.607  1.00  0.00    -0.354 N 
ATOM     60  N   UNL     1      -8.985  11.374  11.512  1.00  0.00    -0.248 NA
ATOM     61  C   UNL     1     -10.137  10.058  12.976  1.00  0.00     0.031 C 
ATOM     62  C   UNL     1      -9.212  13.440   9.136  1.00  0.00     0.029 A 
ATOM     63  C   UNL     1      -9.156  13.798  10.470  1.00  0.00     0.049 A 
ATOM     64  H   UNL     1      -7.784  15.055  11.457  1.00  0.00     0.167 HD
ATOM     65  C   UNL     1      -9.956  12.181  12.020  1.00  0.00     0.074 A 
ATOM     66  C   UNL     1     -10.676  11.295  12.920  1.00  0.00     0.031 C 
ATOM     67  C   UNL     1     -10.025  13.486  11.608  1.00  0.00     0.037 A 
BRANCH  54  68
ATOM     68  C   UNL     1      -5.788  16.544   8.206  1.00  0.00     0.058 A 
ATOM     69  C   UNL     1      -6.635  16.805   7.107  1.00  0.00     0.135 A 
ATOM     70  C   UNL     1      -4.621  17.340   8.239  1.00  0.00     0.135 A 
ATOM     71  F   UNL     1      -7.848  16.249   7.000  1.00  0.00    -0.206 F 
ATOM     72  C   UNL     1      -6.296  17.683   6.073  1.00  0.00     0.059 A 
ATOM     73  C   UNL     1      -4.231  18.180   7.191  1.00  0.00     0.059 A 
ATOM     74  F   UNL     1      -3.834  17.372   9.326  1.00  0.00    -0.206 F 
ATOM     75  C   UNL     1      -5.079  18.347   6.108  1.00  0.00     0.060 A 
BRANCH  75  76
ATOM     76  S   UNL     1      -4.663  19.478   4.768  1.00  0.00     0.124 S 
ATOM     77  O   UNL     1      -4.806  18.631   3.588  1.00  0.00    -0.237 OA
ATOM     78  O   UNL     1      -5.672  20.520   4.927  1.00  0.00    -0.237 OA
ATOM     79  O   UNL     1      -3.294  19.884   5.076  1.00  0.00    -0.744 OA
ENDBRANCH  75  76
ENDBRANCH  54  68
BRANCH  55  80
ATOM     80  C   UNL     1      -7.513   7.985  12.533  1.00  0.00     0.058 A 
ATOM     81  C   UNL     1      -7.219   6.820  11.795  1.00  0.00     0.135 A 
ATOM     82  C   UNL     1      -6.467   8.386  13.351  1.00  0.00     0.135 A 
ATOM     83  F   UNL     1      -8.218   6.058  11.332  1.00  0.00    -0.206 F 
ATOM     84  C   UNL     1      -5.928   6.571  11.319  1.00  0.00     0.059 A 
ATOM     85  C   UNL     1      -5.160   8.115  12.916  1.00  0.00     0.059 A 
ATOM     86  F   UNL     1      -6.665   9.322  14.295  1.00  0.00    -0.206 F 
ATOM     87  C   UNL     1      -4.912   7.397  11.747  1.00  0.00     0.060 A 
BRANCH  87  88
ATOM     88  S   UNL     1      -3.446   7.767  10.589  1.00  0.00     0.124 S 
ATOM     89  O   UNL     1      -3.676   6.833   9.509  1.00  0.00    -0.237 OA
ATOM     90  O   UNL     1      -3.648   9.136  10.133  1.00  0.00    -0.237 OA
ATOM     91  O   UNL     1      -2.242   7.546  11.349  1.00  0.00    -0.744 OA
ENDBRANCH  87  88
ENDBRANCH  55  80
BRANCH  67  92
ATOM     92  C   UNL     1     -10.939  14.590  12.102  1.00  0.00     0.058 A 
ATOM     93  C   UNL     1     -11.710  14.549  13.272  1.00  0.00     0.135 A 
ATOM     94  C   UNL     1     -10.997  15.826  11.397  1.00  0.00     0.135 A 
ATOM     95  F   UNL     1     -11.704  13.491  14.089  1.00  0.00    -0.206 F 
ATOM     96  C   UNL     1     -12.504  15.622  13.686  1.00  0.00     0.059 A 
ATOM     97  C   UNL     1     -11.727  16.927  11.826  1.00  0.00     0.059 A 
ATOM     98  F   UNL     1     -10.335  16.029  10.249  1.00  0.00    -0.206 F 
ATOM     99  C   UNL     1     -12.500  16.809  12.963  1.00  0.00     0.060 A 
BRANCH  99 100
ATOM    100  S   UNL     1     -13.474  18.203  13.542  1.00  0.00     0.124 S 
ATOM    101  O   UNL     1     -14.822  17.795  13.162  1.00  0.00    -0.237 OA
ATOM    102  O   UNL     1     -13.193  18.204  14.975  1.00  0.00    -0.237 OA
ATOM    103  O   UNL     1     -12.927  19.337  12.803  1.00  0.00    -0.744 OA
ENDBRANCH  99 100
ENDBRANCH  67  92
ENDBRANCH  41  42
ENDBRANCH  33  36
ENDBRANCH  31  32
ENDBRANCH  30  31
ENDBRANCH  29  30
ENDBRANCH  28  29
ENDBRANCH   1  28
TORSDOF 21
