REMARK SMILES O=C(NCCCCCCNC(=O)c1ccc(-c2c3nc(c(-c4c(F)cc(S(=O)(=O)[O-])cc4F)c4ccc([nH]4)c(-c4c(F)cc(S(=O)(=O)[O-])cc4F)c4nc(c(-c5c(F)cc(S(=O)(=O)[O-])cc5F)c5ccc2[nH]5)C=C4)C=C3)cc1)C1=CN(c2ccccc2)C[NH2+][C@H]1c1ccc(NC(=S)NC(=O)c2cc3ccccc3o2)cc1
REMARK SMILES IDX 5 1 4 2 3 3 1 4 2 5 79 7 80 8 90 9 81 10 89 11 88 12 91 15
REMARK SMILES IDX 92 16 111 17 93 18 110 19 94 20 95 21 96 23 97 24 98 25
REMARK SMILES IDX 99 26 100 28 101 29 102 30 109 31 103 32 108 33 104 34
REMARK SMILES IDX 107 35 105 36 106 37 82 38 83 39 87 40 84 41 86 42 85 43
REMARK SMILES IDX 6 44 7 45 8 46 9 47 10 48 11 49 12 51 13 52 14 53 78 54
REMARK SMILES IDX 15 55 77 56 16 57 17 58 18 59 71 60 19 61 76 62 70 63 72 64
REMARK SMILES IDX 20 65 75 66 69 67 68 68 21 70 55 71 34 72 54 73 35 74 38 75
REMARK SMILES IDX 53 76 73 77 36 78 37 79 52 81 74 82 39 83 22 84 23 85 32 86
REMARK SMILES IDX 24 87 25 88 31 89 33 90 26 91 27 92 28 93 29 94 30 95 56 96
REMARK SMILES IDX 57 97 66 98 58 99 59 100 65 101 67 102 60 103 61 104 62 105
REMARK SMILES IDX 63 106 64 107 40 108 41 109 50 110 42 111 43 112 49 113
REMARK SMILES IDX 51 114 44 115 45 116 46 117 47 118 48 119
REMARK H PARENT 3 6 89 13 89 14 95 22 98 27 10 50 72 69 38 80
REMARK Flexibility Score: inf
ROOT
ATOM      1  C   UNL     1       4.915   1.239   2.297  1.00  0.00     0.021 C 
ENDROOT
BRANCH   1   2
ATOM      2  C   UNL     1       4.676   0.036   1.413  1.00  0.00     0.116 C 
BRANCH   2   3
ATOM      3  N   UNL     1       3.256  -0.256   1.311  1.00  0.00    -0.352 N 
ATOM      4  O   UNL     1       1.231  -0.251   0.378  1.00  0.00    -0.269 OA
ATOM      5  C   UNL     1       2.449  -0.193   0.225  1.00  0.00     0.255 C 
ATOM      6  H   UNL     1       2.820  -0.539   2.147  1.00  0.00     0.163 HD
BRANCH   5   7
ATOM      7  C   UNL     1       3.085   0.009  -1.092  1.00  0.00     0.095 C 
ATOM      8  C   UNL     1       4.206  -0.675  -1.367  1.00  0.00     0.107 C 
ATOM      9  C   UNL     1       2.472   1.031  -1.998  1.00  0.00     0.253 C 
ATOM     10  N   UNL     1       5.077  -0.370  -2.389  1.00  0.00    -0.300 N 
ATOM     11  N   UNL     1       3.388   1.466  -3.092  1.00  0.00    -0.319 N 
ATOM     12  C   UNL     1       4.561   0.597  -3.382  1.00  0.00     0.393 C 
ATOM     13  H   UNL     1       2.835   1.532  -3.947  1.00  0.00     0.348 HD
ATOM     14  H   UNL     1       3.787   2.346  -2.766  1.00  0.00     0.348 HD
BRANCH   9  15
ATOM     15  C   UNL     1       1.043   0.647  -2.478  1.00  0.00     0.014 A 
ATOM     16  C   UNL     1       0.586  -0.688  -2.466  1.00  0.00     0.012 A 
ATOM     17  C   UNL     1       0.127   1.600  -2.951  1.00  0.00     0.012 A 
ATOM     18  C   UNL     1      -0.543  -1.098  -3.184  1.00  0.00     0.026 A 
ATOM     19  C   UNL     1      -1.044   1.196  -3.626  1.00  0.00     0.026 A 
ATOM     20  C   UNL     1      -1.268  -0.159  -3.894  1.00  0.00     0.040 A 
BRANCH  20  21
ATOM     21  N   UNL     1      -2.203  -0.517  -4.879  1.00  0.00    -0.332 N 
ATOM     22  H   UNL     1      -2.860   0.185  -5.092  1.00  0.00     0.169 HD
BRANCH  21  23
ATOM     23  C   UNL     1      -2.355  -1.658  -5.581  1.00  0.00     0.177 C 
ATOM     24  S   UNL     1      -3.902  -2.068  -6.090  1.00  0.00    -0.040 S 
BRANCH  23  25
ATOM     25  N   UNL     1      -1.346  -2.505  -5.968  1.00  0.00    -0.296 N 
ATOM     26  C   UNL     1       0.028  -2.615  -6.264  1.00  0.00     0.293 C 
ATOM     27  H   UNL     1      -1.743  -3.398  -6.087  1.00  0.00     0.172 HD
ATOM     28  O   UNL     1       0.422  -3.766  -6.484  1.00  0.00    -0.265 OA
BRANCH  26  29
ATOM     29  C   UNL     1       0.920  -1.459  -6.309  1.00  0.00     0.193 A 
ATOM     30  C   UNL     1       1.499  -0.901  -5.183  1.00  0.00     0.065 A 
ATOM     31  O   UNL     1       2.073  -1.578  -7.141  1.00  0.00    -0.451 OA
ATOM     32  C   UNL     1       2.552  -1.825  -4.974  1.00  0.00     0.021 A 
ATOM     33  C   UNL     1       3.078  -1.931  -6.251  1.00  0.00     0.135 A 
ATOM     34  C   UNL     1       3.165  -2.497  -3.918  1.00  0.00     0.012 A 
ATOM     35  C   UNL     1       4.357  -2.396  -6.510  1.00  0.00     0.048 A 
ATOM     36  C   UNL     1       4.380  -3.124  -4.181  1.00  0.00     0.001 A 
ATOM     37  C   UNL     1       5.014  -2.979  -5.418  1.00  0.00     0.004 A 
ENDBRANCH  26  29
ENDBRANCH  23  25
ENDBRANCH  21  23
ENDBRANCH  20  21
ENDBRANCH   9  15
BRANCH  10  38
ATOM     38  C   UNL     1       6.339  -1.011  -2.554  1.00  0.00     0.046 A 
ATOM     39  C   UNL     1       6.597  -2.292  -2.003  1.00  0.00     0.026 A 
ATOM     40  C   UNL     1       7.418  -0.437  -3.246  1.00  0.00     0.026 A 
ATOM     41  C   UNL     1       7.787  -3.003  -2.229  1.00  0.00     0.002 A 
ATOM     42  C   UNL     1       8.638  -1.123  -3.430  1.00  0.00     0.002 A 
ATOM     43  C   UNL     1       8.811  -2.417  -2.951  1.00  0.00     0.000 A 
ENDBRANCH  10  38
ENDBRANCH   5   7
ENDBRANCH   2   3
ENDBRANCH   1   2
BRANCH   1  44
ATOM     44  C   UNL     1       4.404   1.014   3.715  1.00  0.00     0.002 C 
BRANCH  44  45
ATOM     45  C   UNL     1       4.919  -0.288   4.342  1.00  0.00     0.002 C 
BRANCH  45  46
ATOM     46  C   UNL     1       6.442  -0.425   4.304  1.00  0.00     0.021 C 
BRANCH  46  47
ATOM     47  C   UNL     1       7.155   0.754   4.942  1.00  0.00     0.116 C 
BRANCH  47  48
ATOM     48  N   UNL     1       6.784   0.889   6.341  1.00  0.00    -0.352 N 
ATOM     49  C   UNL     1       7.589   0.833   7.444  1.00  0.00     0.251 C 
ATOM     50  H   UNL     1       5.828   1.040   6.518  1.00  0.00     0.163 HD
ATOM     51  O   UNL     1       7.095   0.683   8.563  1.00  0.00    -0.269 OA
BRANCH  49  52
ATOM     52  C   UNL     1       9.049   0.935   7.272  1.00  0.00     0.039 A 
ATOM     53  C   UNL     1       9.875   0.084   8.003  1.00  0.00     0.014 A 
ATOM     54  C   UNL     1       9.594   1.854   6.369  1.00  0.00     0.014 A 
ATOM     55  C   UNL     1      11.252   0.129   7.795  1.00  0.00     0.010 A 
ATOM     56  C   UNL     1      10.952   1.815   6.082  1.00  0.00     0.010 A 
ATOM     57  C   UNL     1      11.798   0.964   6.804  1.00  0.00    -0.014 A 
BRANCH  57  58
ATOM     58  C   UNL     1      13.253   0.948   6.513  1.00  0.00     0.031 A 
ATOM     59  C   UNL     1      14.074   2.196   6.678  1.00  0.00     0.074 A 
ATOM     60  C   UNL     1      13.828  -0.188   6.072  1.00  0.00     0.049 A 
ATOM     61  N   UNL     1      15.349   2.375   6.450  1.00  0.00    -0.248 NA
ATOM     62  C   UNL     1      13.371   3.405   7.139  1.00  0.00     0.031 C 
ATOM     63  C   UNL     1      13.125  -1.451   5.837  1.00  0.00     0.029 A 
ATOM     64  N   UNL     1      15.130  -0.469   5.741  1.00  0.00    -0.354 N 
ATOM     65  C   UNL     1      15.602   3.709   6.743  1.00  0.00     0.074 A 
ATOM     66  C   UNL     1      14.335   4.312   7.093  1.00  0.00     0.031 C 
ATOM     67  C   UNL     1      14.007  -2.379   5.439  1.00  0.00     0.029 A 
ATOM     68  C   UNL     1      15.325  -1.764   5.322  1.00  0.00     0.049 A 
ATOM     69  H   UNL     1      15.855   0.195   5.799  1.00  0.00     0.167 HD
ATOM     70  C   UNL     1      16.787   4.363   6.745  1.00  0.00     0.037 A 
ATOM     71  C   UNL     1      16.432  -2.383   4.868  1.00  0.00     0.037 A 
ATOM     72  C   UNL     1      18.040   3.755   6.376  1.00  0.00     0.049 A 
ATOM     73  C   UNL     1      17.724  -1.615   4.808  1.00  0.00     0.074 A 
ATOM     74  C   UNL     1      19.300   4.326   6.369  1.00  0.00     0.029 A 
ATOM     75  N   UNL     1      18.192   2.449   5.929  1.00  0.00    -0.354 N 
ATOM     76  N   UNL     1      17.957  -0.369   5.146  1.00  0.00    -0.248 NA
ATOM     77  C   UNL     1      18.903  -2.334   4.311  1.00  0.00     0.031 C 
ATOM     78  C   UNL     1      20.196   3.399   5.832  1.00  0.00     0.029 A 
ATOM     79  C   UNL     1      19.519   2.213   5.603  1.00  0.00     0.049 A 
ATOM     80  H   UNL     1      17.466   1.788   5.856  1.00  0.00     0.167 HD
ATOM     81  C   UNL     1      19.316  -0.166   4.935  1.00  0.00     0.074 A 
ATOM     82  C   UNL     1      19.854  -1.422   4.455  1.00  0.00     0.031 C 
ATOM     83  C   UNL     1      20.051   0.958   5.127  1.00  0.00     0.037 A 
BRANCH  70  84
ATOM     84  C   UNL     1      16.781   5.819   7.135  1.00  0.00     0.058 A 
ATOM     85  C   UNL     1      16.432   6.241   8.429  1.00  0.00     0.135 A 
ATOM     86  C   UNL     1      17.160   6.806   6.209  1.00  0.00     0.135 A 
ATOM     87  F   UNL     1      16.055   5.346   9.356  1.00  0.00    -0.206 F 
ATOM     88  C   UNL     1      16.415   7.587   8.776  1.00  0.00     0.059 A 
ATOM     89  C   UNL     1      17.197   8.154   6.550  1.00  0.00     0.059 A 
ATOM     90  F   UNL     1      17.508   6.464   4.959  1.00  0.00    -0.206 F 
ATOM     91  C   UNL     1      16.805   8.536   7.831  1.00  0.00     0.060 A 
BRANCH  91  92
ATOM     92  S   UNL     1      16.793  10.275   8.308  1.00  0.00     0.124 S 
ATOM     93  O   UNL     1      15.366  10.516   8.500  1.00  0.00    -0.237 OA
ATOM     94  O   UNL     1      17.604  10.265   9.521  1.00  0.00    -0.237 OA
ATOM     95  O   UNL     1      17.392  10.949   7.160  1.00  0.00    -0.744 OA
ENDBRANCH  91  92
ENDBRANCH  70  84
BRANCH  71  96
ATOM     96  C   UNL     1      16.359  -3.799   4.411  1.00  0.00     0.058 A 
ATOM     97  C   UNL     1      17.053  -4.823   5.073  1.00  0.00     0.135 A 
ATOM     98  C   UNL     1      15.586  -4.153   3.293  1.00  0.00     0.135 A 
ATOM     99  F   UNL     1      17.814  -4.538   6.141  1.00  0.00    -0.206 F 
ATOM    100  C   UNL     1      16.999  -6.142   4.633  1.00  0.00     0.059 A 
ATOM    101  C   UNL     1      15.481  -5.470   2.862  1.00  0.00     0.059 A 
ATOM    102  F   UNL     1      14.892  -3.216   2.628  1.00  0.00    -0.206 F 
ATOM    103  C   UNL     1      16.199  -6.457   3.533  1.00  0.00     0.060 A 
BRANCH 103 104
ATOM    104  S   UNL     1      16.076  -8.182   3.017  1.00  0.00     0.124 S 
ATOM    105  O   UNL     1      17.432  -8.450   2.550  1.00  0.00    -0.237 OA
ATOM    106  O   UNL     1      15.684  -8.839   4.259  1.00  0.00    -0.237 OA
ATOM    107  O   UNL     1      15.048  -8.150   1.980  1.00  0.00    -0.744 OA
ENDBRANCH 103 104
ENDBRANCH  71  96
BRANCH  83 108
ATOM    108  C   UNL     1      21.535   0.876   4.873  1.00  0.00     0.058 A 
ATOM    109  C   UNL     1      22.068   0.679   3.590  1.00  0.00     0.135 A 
ATOM    110  C   UNL     1      22.441   1.050   5.935  1.00  0.00     0.135 A 
ATOM    111  F   UNL     1      21.253   0.506   2.537  1.00  0.00    -0.206 F 
ATOM    112  C   UNL     1      23.441   0.621   3.374  1.00  0.00     0.059 A 
ATOM    113  C   UNL     1      23.816   1.046   5.734  1.00  0.00     0.059 A 
ATOM    114  F   UNL     1      21.991   1.254   7.184  1.00  0.00    -0.206 F 
ATOM    115  C   UNL     1      24.307   0.817   4.451  1.00  0.00     0.060 A 
BRANCH 115 116
ATOM    116  S   UNL     1      26.085   0.791   4.143  1.00  0.00     0.124 S 
ATOM    117  O   UNL     1      26.301  -0.603   3.769  1.00  0.00    -0.237 OA
ATOM    118  O   UNL     1      26.223   1.766   3.066  1.00  0.00    -0.237 OA
ATOM    119  O   UNL     1      26.660   1.193   5.423  1.00  0.00    -0.744 OA
ENDBRANCH 115 116
ENDBRANCH  83 108
ENDBRANCH  57  58
ENDBRANCH  49  52
ENDBRANCH  47  48
ENDBRANCH  46  47
ENDBRANCH  45  46
ENDBRANCH  44  45
ENDBRANCH   1  44
TORSDOF 22
