REMARK SMILES O=C(NCCCCCCNC(=O)[C@H]1C=C[C@@H](NS(=O)(=O)c2ccc(Br)cc2)C1)c1ccc(-c2c3nc(c(-c4c(F)cc(S(=O)(=O)[O-])cc4F)c4ccc([nH]4)c(-c4c(F)cc(S(=O)(=O)[O-])cc4F)c4nc(c(-c5c(F)cc(S(=O)(=O)[O-])cc5F)c5ccc2[nH]5)C=C4)C=C3)cc1
REMARK SMILES IDX 6 1 5 2 4 3 3 4 1 5 2 6 29 8 30 9 94 10 31 11 93 12 32 13
REMARK SMILES IDX 33 14 34 15 87 16 35 17 92 18 86 19 88 20 36 21 91 22 85 23
REMARK SMILES IDX 84 24 37 26 71 27 50 28 70 29 51 30 54 31 69 32 89 33 52 34
REMARK SMILES IDX 53 35 68 37 90 38 55 39 38 40 39 41 48 42 40 43 41 44 47 45
REMARK SMILES IDX 49 46 42 47 43 48 44 49 45 50 46 51 72 52 73 53 82 54 74 55
REMARK SMILES IDX 75 56 81 57 83 58 76 59 77 60 78 61 79 62 80 63 56 64 57 65
REMARK SMILES IDX 66 66 58 67 59 68 65 69 67 70 60 71 61 72 62 73 63 74 64 75
REMARK SMILES IDX 7 76 8 77 9 78 10 79 11 80 12 82 13 83 14 84 28 85 15 86
REMARK SMILES IDX 16 87 17 88 18 90 19 91 20 92 21 93 22 94 27 95 23 96 26 97
REMARK SMILES IDX 24 98 25 99
REMARK H PARENT 3 7 88 25 54 36 10 81 17 89
REMARK Flexibility Score: inf
ROOT
ATOM      1  C   UNL     1       4.238   3.157   2.149  1.00  0.00     0.002 C 
ENDROOT
BRANCH   1   2
ATOM      2  C   UNL     1       4.691   2.478   0.857  1.00  0.00     0.021 C 
BRANCH   2   3
ATOM      3  C   UNL     1       4.406   0.984   0.805  1.00  0.00     0.116 C 
BRANCH   3   4
ATOM      4  N   UNL     1       2.980   0.702   0.794  1.00  0.00    -0.352 N 
ATOM      5  O   UNL     1       1.035   0.006  -0.113  1.00  0.00    -0.269 OA
ATOM      6  C   UNL     1       2.261  -0.019  -0.127  1.00  0.00     0.251 C 
ATOM      7  H   UNL     1       2.463   1.077   1.543  1.00  0.00     0.163 HD
BRANCH   6   8
ATOM      8  C   UNL     1       2.986  -0.816  -1.139  1.00  0.00     0.039 A 
ATOM      9  C   UNL     1       4.066  -1.618  -0.757  1.00  0.00     0.014 A 
ATOM     10  C   UNL     1       2.578  -0.769  -2.473  1.00  0.00     0.014 A 
ATOM     11  C   UNL     1       4.804  -2.289  -1.722  1.00  0.00     0.010 A 
ATOM     12  C   UNL     1       3.267  -1.517  -3.431  1.00  0.00     0.010 A 
ATOM     13  C   UNL     1       4.387  -2.280  -3.062  1.00  0.00    -0.014 A 
BRANCH  13  14
ATOM     14  C   UNL     1       5.041  -3.194  -4.029  1.00  0.00     0.031 A 
ATOM     15  C   UNL     1       5.802  -2.673  -5.213  1.00  0.00     0.074 A 
ATOM     16  C   UNL     1       4.909  -4.521  -3.825  1.00  0.00     0.049 A 
ATOM     17  N   UNL     1       6.384  -3.347  -6.171  1.00  0.00    -0.248 NA
ATOM     18  C   UNL     1       5.925  -1.213  -5.349  1.00  0.00     0.031 C 
ATOM     19  C   UNL     1       4.170  -5.130  -2.713  1.00  0.00     0.029 A 
ATOM     20  N   UNL     1       5.376  -5.596  -4.535  1.00  0.00    -0.354 N 
ATOM     21  C   UNL     1       6.918  -2.401  -7.037  1.00  0.00     0.074 A 
ATOM     22  C   UNL     1       6.588  -1.101  -6.494  1.00  0.00     0.031 C 
ATOM     23  C   UNL     1       4.247  -6.464  -2.808  1.00  0.00     0.029 A 
ATOM     24  C   UNL     1       4.972  -6.807  -4.024  1.00  0.00     0.049 A 
ATOM     25  H   UNL     1       5.946  -5.509  -5.333  1.00  0.00     0.167 HD
ATOM     26  C   UNL     1       7.615  -2.611  -8.179  1.00  0.00     0.037 A 
ATOM     27  C   UNL     1       5.120  -8.056  -4.504  1.00  0.00     0.037 A 
ATOM     28  C   UNL     1       7.947  -3.918  -8.691  1.00  0.00     0.049 A 
ATOM     29  C   UNL     1       5.865  -8.248  -5.793  1.00  0.00     0.074 A 
ATOM     30  C   UNL     1       8.722  -4.233  -9.794  1.00  0.00     0.029 A 
ATOM     31  N   UNL     1       7.510  -5.120  -8.154  1.00  0.00    -0.354 N 
ATOM     32  N   UNL     1       6.443  -7.346  -6.550  1.00  0.00    -0.248 NA
ATOM     33  C   UNL     1       5.974  -9.621  -6.301  1.00  0.00     0.031 C 
ATOM     34  C   UNL     1       8.693  -5.620  -9.966  1.00  0.00     0.029 A 
ATOM     35  C   UNL     1       7.955  -6.175  -8.934  1.00  0.00     0.049 A 
ATOM     36  H   UNL     1       6.965  -5.210  -7.340  1.00  0.00     0.167 HD
ATOM     37  C   UNL     1       6.989  -8.044  -7.619  1.00  0.00     0.074 A 
ATOM     38  C   UNL     1       6.702  -9.445  -7.394  1.00  0.00     0.031 C 
ATOM     39  C   UNL     1       7.660  -7.566  -8.695  1.00  0.00     0.037 A 
BRANCH  26  40
ATOM     40  C   UNL     1       8.056  -1.421  -8.986  1.00  0.00     0.058 A 
ATOM     41  C   UNL     1       9.115  -0.597  -8.578  1.00  0.00     0.135 A 
ATOM     42  C   UNL     1       7.485  -1.177 -10.247  1.00  0.00     0.135 A 
ATOM     43  F   UNL     1       9.689  -0.776  -7.378  1.00  0.00    -0.206 F 
ATOM     44  C   UNL     1       9.596   0.424  -9.393  1.00  0.00     0.059 A 
ATOM     45  C   UNL     1       7.965  -0.177 -11.088  1.00  0.00     0.059 A 
ATOM     46  F   UNL     1       6.466  -1.934 -10.684  1.00  0.00    -0.206 F 
ATOM     47  C   UNL     1       9.021   0.619 -10.651  1.00  0.00     0.060 A 
BRANCH  47  48
ATOM     48  S   UNL     1       9.696   1.913 -11.716  1.00  0.00     0.124 S 
ATOM     49  O   UNL     1       9.275   3.120 -11.011  1.00  0.00    -0.237 OA
ATOM     50  O   UNL     1      11.127   1.627 -11.681  1.00  0.00    -0.237 OA
ATOM     51  O   UNL     1       9.043   1.676 -12.999  1.00  0.00    -0.744 OA
ENDBRANCH  47  48
ENDBRANCH  26  40
BRANCH  27  52
ATOM     52  C   UNL     1       4.499  -9.206  -3.795  1.00  0.00     0.058 A 
ATOM     53  C   UNL     1       5.282 -10.209  -3.208  1.00  0.00     0.135 A 
ATOM     54  C   UNL     1       3.103  -9.330  -3.704  1.00  0.00     0.135 A 
ATOM     55  F   UNL     1       6.621 -10.137  -3.268  1.00  0.00    -0.206 F 
ATOM     56  C   UNL     1       4.705 -11.312  -2.587  1.00  0.00     0.059 A 
ATOM     57  C   UNL     1       2.503 -10.403  -3.057  1.00  0.00     0.059 A 
ATOM     58  F   UNL     1       2.306  -8.386  -4.231  1.00  0.00    -0.206 F 
ATOM     59  C   UNL     1       3.313 -11.401  -2.520  1.00  0.00     0.060 A 
BRANCH  59  60
ATOM     60  S   UNL     1       2.575 -12.835  -1.710  1.00  0.00     0.124 S 
ATOM     61  O   UNL     1       2.827 -13.884  -2.691  1.00  0.00    -0.237 OA
ATOM     62  O   UNL     1       3.343 -12.917  -0.472  1.00  0.00    -0.237 OA
ATOM     63  O   UNL     1       1.177 -12.445  -1.548  1.00  0.00    -0.744 OA
ENDBRANCH  59  60
ENDBRANCH  27  52
BRANCH  39  64
ATOM     64  C   UNL     1       8.139  -8.566  -9.709  1.00  0.00     0.058 A 
ATOM     65  C   UNL     1       7.246  -9.214 -10.576  1.00  0.00     0.135 A 
ATOM     66  C   UNL     1       9.510  -8.829  -9.861  1.00  0.00     0.135 A 
ATOM     67  F   UNL     1       5.924  -9.009 -10.462  1.00  0.00    -0.206 F 
ATOM     68  C   UNL     1       7.695 -10.095 -11.554  1.00  0.00     0.059 A 
ATOM     69  C   UNL     1       9.984  -9.682 -10.852  1.00  0.00     0.059 A 
ATOM     70  F   UNL     1      10.406  -8.231  -9.059  1.00  0.00    -0.206 F 
ATOM     71  C   UNL     1       9.067 -10.314 -11.691  1.00  0.00     0.060 A 
BRANCH  71  72
ATOM     72  S   UNL     1       9.637 -11.410 -13.007  1.00  0.00     0.124 S 
ATOM     73  O   UNL     1       9.211 -12.714 -12.510  1.00  0.00    -0.237 OA
ATOM     74  O   UNL     1       8.909 -10.905 -14.167  1.00  0.00    -0.237 OA
ATOM     75  O   UNL     1      11.079 -11.189 -13.033  1.00  0.00    -0.744 OA
ENDBRANCH  71  72
ENDBRANCH  39  64
ENDBRANCH  13  14
ENDBRANCH   6   8
ENDBRANCH   3   4
ENDBRANCH   2   3
ENDBRANCH   1   2
BRANCH   1  76
ATOM     76  C   UNL     1       4.825   2.555   3.430  1.00  0.00     0.002 C 
BRANCH  76  77
ATOM     77  C   UNL     1       6.356   2.477   3.470  1.00  0.00     0.021 C 
BRANCH  77  78
ATOM     78  C   UNL     1       7.063   3.816   3.271  1.00  0.00     0.116 C 
BRANCH  78  79
ATOM     79  N   UNL     1       6.709   4.748   4.323  1.00  0.00    -0.356 N 
ATOM     80  C   UNL     1       7.512   5.424   5.191  1.00  0.00     0.226 C 
ATOM     81  H   UNL     1       5.745   4.918   4.426  1.00  0.00     0.163 HD
ATOM     82  O   UNL     1       6.976   6.078   6.087  1.00  0.00    -0.274 OA
BRANCH  80  83
ATOM     83  C   UNL     1       9.025   5.337   5.012  1.00  0.00     0.103 C 
ATOM     84  C   UNL     1       9.695   6.566   5.540  1.00  0.00    -0.016 C 
ATOM     85  C   UNL     1       9.637   4.220   5.867  1.00  0.00     0.042 C 
ATOM     86  C   UNL     1      10.720   6.271   6.343  1.00  0.00    -0.011 C 
ATOM     87  C   UNL     1      10.932   4.804   6.467  1.00  0.00     0.093 C 
BRANCH  87  88
ATOM     88  N   UNL     1      11.065   4.371   7.856  1.00  0.00    -0.204 NA
ATOM     89  H   UNL     1      11.033   3.352   7.847  1.00  0.00     0.142 HD
BRANCH  88  90
ATOM     90  S   UNL     1      12.411   4.800   8.768  1.00  0.00     0.241 S 
ATOM     91  O   UNL     1      12.474   6.241   8.842  1.00  0.00    -0.207 OA
ATOM     92  O   UNL     1      12.363   4.001   9.976  1.00  0.00    -0.207 OA
BRANCH  90  93
ATOM     93  C   UNL     1      13.783   4.226   7.802  1.00  0.00     0.082 A 
ATOM     94  C   UNL     1      14.690   5.153   7.275  1.00  0.00     0.023 A 
ATOM     95  C   UNL     1      13.951   2.856   7.587  1.00  0.00     0.023 A 
ATOM     96  C   UNL     1      15.775   4.702   6.522  1.00  0.00     0.017 A 
ATOM     97  C   UNL     1      15.036   2.410   6.830  1.00  0.00     0.017 A 
ATOM     98  C   UNL     1      15.943   3.334   6.304  1.00  0.00     0.018 A 
ATOM     99  Br  UNL     1      17.420   2.727   5.293  1.00  0.00    -0.051 Br
ENDBRANCH  90  93
ENDBRANCH  88  90
ENDBRANCH  87  88
ENDBRANCH  80  83
ENDBRANCH  78  79
ENDBRANCH  77  78
ENDBRANCH  76  77
ENDBRANCH   1  76
TORSDOF 19
