REMARK SMILES O=C(NCCCCCCNC(=O)[C@@H](c1cccc(O)c1)[NH+]1CC[NH+](C2CCCC2)CC1)c1ccc(-c2c3nc(c(-c4c(F)cc(S(=O)(=O)[O-])cc4F)c4ccc([nH]4)c(-c4c(F)cc(S(=O)(=O)[O-])cc4F)c4nc(c(-c5c(F)cc(S(=O)(=O)[O-])cc5F)c5ccc2[nH]5)C=C4)C=C3)cc1
REMARK SMILES IDX 6 1 5 2 4 3 3 4 1 5 2 6 32 8 33 9 97 10 34 11 96 12 35 13
REMARK SMILES IDX 36 14 37 15 90 16 38 17 95 18 89 19 91 20 39 21 94 22 88 23
REMARK SMILES IDX 87 24 40 26 74 27 53 28 73 29 54 30 57 31 72 32 92 33 55 34
REMARK SMILES IDX 56 35 71 37 93 38 58 39 41 40 42 41 51 42 43 43 44 44 50 45
REMARK SMILES IDX 52 46 45 47 46 48 47 49 48 50 49 51 75 52 76 53 85 54 77 55
REMARK SMILES IDX 78 56 84 57 86 58 79 59 80 60 81 61 82 62 83 63 59 64 60 65
REMARK SMILES IDX 69 66 61 67 62 68 68 69 70 70 63 71 64 72 65 73 66 74 67 75
REMARK SMILES IDX 7 76 8 77 9 78 10 79 11 80 12 82 13 83 14 84 15 85 20 86
REMARK SMILES IDX 16 87 18 88 17 89 19 90 21 92 22 93 31 94 23 96 30 97 24 98
REMARK SMILES IDX 25 100 26 101 29 102 27 103 28 104
REMARK H PARENT 3 7 91 25 57 36 10 81 19 91 21 95 24 99
REMARK Flexibility Score: inf
ROOT
ATOM      1  C   UNL     1       4.077   2.751   2.580  1.00  0.00     0.002 C 
ENDROOT
BRANCH   1   2
ATOM      2  C   UNL     1       4.559   2.340   1.190  1.00  0.00     0.021 C 
BRANCH   2   3
ATOM      3  C   UNL     1       4.348   0.865   0.878  1.00  0.00     0.116 C 
BRANCH   3   4
ATOM      4  N   UNL     1       2.937   0.517   0.868  1.00  0.00    -0.352 N 
ATOM      5  O   UNL     1       0.990  -0.086  -0.100  1.00  0.00    -0.269 OA
ATOM      6  C   UNL     1       2.212  -0.058  -0.145  1.00  0.00     0.251 C 
ATOM      7  H   UNL     1       2.438   0.720   1.692  1.00  0.00     0.163 HD
BRANCH   6   8
ATOM      8  C   UNL     1       2.941  -0.636  -1.293  1.00  0.00     0.039 A 
ATOM      9  C   UNL     1       4.047  -1.462  -1.073  1.00  0.00     0.014 A 
ATOM     10  C   UNL     1       2.516  -0.346  -2.591  1.00  0.00     0.014 A 
ATOM     11  C   UNL     1       4.792  -1.917  -2.151  1.00  0.00     0.010 A 
ATOM     12  C   UNL     1       3.216  -0.877  -3.675  1.00  0.00     0.010 A 
ATOM     13  C   UNL     1       4.361  -1.663  -3.462  1.00  0.00    -0.014 A 
BRANCH  13  14
ATOM     14  C   UNL     1       5.038  -2.343  -4.591  1.00  0.00     0.031 A 
ATOM     15  C   UNL     1       5.766  -1.567  -5.648  1.00  0.00     0.074 A 
ATOM     16  C   UNL     1       4.956  -3.688  -4.655  1.00  0.00     0.049 A 
ATOM     17  N   UNL     1       6.358  -2.011  -6.726  1.00  0.00    -0.248 NA
ATOM     18  C   UNL     1       5.836  -0.106  -5.484  1.00  0.00     0.031 C 
ATOM     19  C   UNL     1       4.252  -4.534  -3.685  1.00  0.00     0.029 A 
ATOM     20  N   UNL     1       5.453  -4.580  -5.568  1.00  0.00    -0.354 N 
ATOM     21  C   UNL     1       6.847  -0.890  -7.385  1.00  0.00     0.074 A 
ATOM     22  C   UNL     1       6.477   0.261  -6.588  1.00  0.00     0.031 C 
ATOM     23  C   UNL     1       4.378  -5.818  -4.045  1.00  0.00     0.029 A 
ATOM     24  C   UNL     1       5.102  -5.883  -5.306  1.00  0.00     0.049 A 
ATOM     25  H   UNL     1       6.008  -4.314  -6.337  1.00  0.00     0.167 HD
ATOM     26  C   UNL     1       7.538  -0.837  -8.548  1.00  0.00     0.037 A 
ATOM     27  C   UNL     1       5.299  -7.005  -6.024  1.00  0.00     0.037 A 
ATOM     28  C   UNL     1       7.912  -2.000  -9.314  1.00  0.00     0.049 A 
ATOM     29  C   UNL     1       6.038  -6.906  -7.326  1.00  0.00     0.074 A 
ATOM     30  C   UNL     1       8.681  -2.057 -10.464  1.00  0.00     0.029 A 
ATOM     31  N   UNL     1       7.530  -3.302  -9.025  1.00  0.00    -0.354 N 
ATOM     32  N   UNL     1       6.564  -5.846  -7.894  1.00  0.00    -0.248 NA
ATOM     33  C   UNL     1       6.207  -8.148  -8.091  1.00  0.00     0.031 C 
ATOM     34  C   UNL     1       8.708  -3.383 -10.906  1.00  0.00     0.029 A 
ATOM     35  C   UNL     1       8.007  -4.163 -10.000  1.00  0.00     0.049 A 
ATOM     36  H   UNL     1       6.998  -3.574  -8.242  1.00  0.00     0.167 HD
ATOM     37  C   UNL     1       7.135  -6.296  -9.077  1.00  0.00     0.074 A 
ATOM     38  C   UNL     1       6.913  -7.726  -9.132  1.00  0.00     0.031 C 
ATOM     39  C   UNL     1       7.778  -5.586 -10.036  1.00  0.00     0.037 A 
BRANCH  26  40
ATOM     40  C   UNL     1       7.923   0.511  -9.093  1.00  0.00     0.058 A 
ATOM     41  C   UNL     1       8.942   1.284  -8.517  1.00  0.00     0.135 A 
ATOM     42  C   UNL     1       7.326   0.990 -10.272  1.00  0.00     0.135 A 
ATOM     43  F   UNL     1       9.538   0.882  -7.384  1.00  0.00    -0.206 F 
ATOM     44  C   UNL     1       9.352   2.487  -9.087  1.00  0.00     0.059 A 
ATOM     45  C   UNL     1       7.737   2.177 -10.872  1.00  0.00     0.059 A 
ATOM     46  F   UNL     1       6.345   0.291 -10.864  1.00  0.00    -0.206 F 
ATOM     47  C   UNL     1       8.748   2.921 -10.269  1.00  0.00     0.060 A 
BRANCH  47  48
ATOM     48  S   UNL     1       9.321   4.463 -11.014  1.00  0.00     0.124 S 
ATOM     49  O   UNL     1       8.815   5.451 -10.065  1.00  0.00    -0.237 OA
ATOM     50  O   UNL     1      10.769   4.283 -11.027  1.00  0.00    -0.237 OA
ATOM     51  O   UNL     1       8.679   4.469 -12.325  1.00  0.00    -0.744 OA
ENDBRANCH  47  48
ENDBRANCH  26  40
BRANCH  27  52
ATOM     52  C   UNL     1       4.742  -8.298  -5.547  1.00  0.00     0.058 A 
ATOM     53  C   UNL     1       5.580  -9.346  -5.143  1.00  0.00     0.135 A 
ATOM     54  C   UNL     1       3.354  -8.508  -5.482  1.00  0.00     0.135 A 
ATOM     55  F   UNL     1       6.913  -9.194  -5.187  1.00  0.00    -0.206 F 
ATOM     56  C   UNL     1       5.066 -10.566  -4.718  1.00  0.00     0.059 A 
ATOM     57  C   UNL     1       2.815  -9.707  -5.029  1.00  0.00     0.059 A 
ATOM     58  F   UNL     1       2.507  -7.529  -5.837  1.00  0.00    -0.206 F 
ATOM     59  C   UNL     1       3.681 -10.737  -4.667  1.00  0.00     0.060 A 
BRANCH  59  60
ATOM     60  S   UNL     1       3.023 -12.319  -4.098  1.00  0.00     0.124 S 
ATOM     61  O   UNL     1       3.312 -13.181  -5.238  1.00  0.00    -0.237 OA
ATOM     62  O   UNL     1       3.812 -12.563  -2.894  1.00  0.00    -0.237 OA
ATOM     63  O   UNL     1       1.611 -12.031  -3.865  1.00  0.00    -0.744 OA
ENDBRANCH  59  60
ENDBRANCH  27  52
BRANCH  39  64
ATOM     64  C   UNL     1       8.303  -6.347 -11.221  1.00  0.00     0.058 A 
ATOM     65  C   UNL     1       7.443  -6.848 -12.210  1.00  0.00     0.135 A 
ATOM     66  C   UNL     1       9.685  -6.516 -11.404  1.00  0.00     0.135 A 
ATOM     67  F   UNL     1       6.113  -6.726 -12.074  1.00  0.00    -0.206 F 
ATOM     68  C   UNL     1       7.934  -7.499 -13.336  1.00  0.00     0.059 A 
ATOM     69  C   UNL     1      10.200  -7.136 -12.537  1.00  0.00     0.059 A 
ATOM     70  F   UNL     1      10.550  -6.050 -10.489  1.00  0.00    -0.206 F 
ATOM     71  C   UNL     1       9.315  -7.630 -13.495  1.00  0.00     0.060 A 
BRANCH  71  72
ATOM     72  S   UNL     1       9.939  -8.420 -14.993  1.00  0.00     0.124 S 
ATOM     73  O   UNL     1       9.585  -9.816 -14.760  1.00  0.00    -0.237 OA
ATOM     74  O   UNL     1       9.184  -7.740 -16.040  1.00  0.00    -0.237 OA
ATOM     75  O   UNL     1      11.368  -8.122 -14.964  1.00  0.00    -0.744 OA
ENDBRANCH  71  72
ENDBRANCH  39  64
ENDBRANCH  13  14
ENDBRANCH   6   8
ENDBRANCH   3   4
ENDBRANCH   2   3
ENDBRANCH   1   2
BRANCH   1  76
ATOM     76  C   UNL     1       4.666   1.919   3.724  1.00  0.00     0.002 C 
BRANCH  76  77
ATOM     77  C   UNL     1       6.198   1.855   3.736  1.00  0.00     0.021 C 
BRANCH  77  78
ATOM     78  C   UNL     1       6.854   3.226   3.867  1.00  0.00     0.116 C 
BRANCH  78  79
ATOM     79  N   UNL     1       6.541   3.803   5.161  1.00  0.00    -0.351 N 
ATOM     80  C   UNL     1       7.389   4.087   6.194  1.00  0.00     0.283 C 
ATOM     81  H   UNL     1       5.593   4.018   5.314  1.00  0.00     0.163 HD
ATOM     82  O   UNL     1       6.895   4.514   7.244  1.00  0.00    -0.268 OA
BRANCH  80  83
ATOM     83  C   UNL     1       8.933   3.938   6.029  1.00  0.00     0.306 C 
BRANCH  83  84
ATOM     84  C   UNL     1       9.306   2.447   5.817  1.00  0.00     0.023 A 
ATOM     85  C   UNL     1       8.631   1.447   6.548  1.00  0.00     0.011 A 
ATOM     86  C   UNL     1      10.303   2.014   4.922  1.00  0.00     0.056 A 
ATOM     87  C   UNL     1       8.912   0.088   6.361  1.00  0.00     0.004 A 
ATOM     88  C   UNL     1      10.621   0.663   4.787  1.00  0.00     0.116 A 
ATOM     89  C   UNL     1       9.921  -0.308   5.486  1.00  0.00     0.046 A 
BRANCH  88  90
ATOM     90  O   UNL     1      11.644   0.337   3.947  1.00  0.00    -0.508 OA
ATOM     91  H   UNL     1      11.887  -0.560   3.831  1.00  0.00     0.293 HD
ENDBRANCH  88  90
ENDBRANCH  83  84
BRANCH  83  92
ATOM     92  N   UNL     1       9.454   4.881   4.987  1.00  0.00    -0.312 N 
ATOM     93  C   UNL     1       8.697   6.148   4.806  1.00  0.00     0.325 C 
ATOM     94  C   UNL     1      10.900   5.158   5.164  1.00  0.00     0.325 C 
ATOM     95  H   UNL     1       9.306   4.368   4.118  1.00  0.00     0.349 HD
ATOM     96  C   UNL     1       9.174   7.411   5.566  1.00  0.00     0.324 C 
ATOM     97  C   UNL     1      11.250   6.372   6.038  1.00  0.00     0.324 C 
ATOM     98  N   UNL     1      10.628   7.622   5.597  1.00  0.00    -0.323 N 
ATOM     99  H   UNL     1      10.867   8.339   6.282  1.00  0.00     0.348 HD
BRANCH  98 100
ATOM    100  C   UNL     1      11.185   8.263   4.394  1.00  0.00     0.184 C 
ATOM    101  C   UNL     1      12.713   8.218   4.242  1.00  0.00     0.065 C 
ATOM    102  C   UNL     1      10.692   7.867   2.990  1.00  0.00     0.065 C 
ATOM    103  C   UNL     1      12.943   8.799   2.855  1.00  0.00     0.006 C 
ATOM    104  C   UNL     1      11.815   8.223   2.014  1.00  0.00     0.006 C 
ENDBRANCH  98 100
ENDBRANCH  83  92
ENDBRANCH  80  83
ENDBRANCH  78  79
ENDBRANCH  77  78
ENDBRANCH  76  77
ENDBRANCH   1  76
TORSDOF 20
