REMARK SMILES O=C(/C=C/c1ccccc1)Nc1ccc(O)cc1C(=O)NCCCCCCNC(=O)c1ccc(-c2c3nc(c(-c4c(F)cc(S(=O)(=O)[O-])cc4F)c4ccc([nH]4)c(-c4c(F)cc(S(=O)(=O)[O-])cc4F)c4nc(c(-c5c(F)cc(S(=O)(=O)[O-])cc5F)c5ccc2[nH]5)C=C4)C=C3)cc1
REMARK SMILES IDX 24 1 23 2 22 3 21 4 19 5 20 6 18 8 12 9 13 10 14 11 17 12
REMARK SMILES IDX 15 13 11 14 1 15 2 16 3 18 4 19 5 20 6 21 10 22 7 23 9 24
REMARK SMILES IDX 8 25 16 26 25 28 26 29 27 30 28 31 29 32 30 34 31 35 32 36
REMARK SMILES IDX 96 37 33 38 95 39 34 40 35 41 36 42 89 43 37 44 94 45 88 46
REMARK SMILES IDX 90 47 38 48 93 49 87 50 86 51 39 53 73 54 52 55 72 56 53 57
REMARK SMILES IDX 56 58 71 59 91 60 54 61 55 62 70 64 92 65 57 66 40 67 41 68
REMARK SMILES IDX 50 69 42 70 43 71 49 72 51 73 44 74 45 75 46 76 47 77 48 78
REMARK SMILES IDX 74 79 75 80 84 81 76 82 77 83 83 84 85 85 78 86 79 87 80 88
REMARK SMILES IDX 81 89 82 90 58 91 59 92 68 93 60 94 61 95 67 96 69 97 62 98
REMARK SMILES IDX 63 99 64 100 65 101 66 102
REMARK H PARENT 21 7 11 17 16 27 28 33 90 52 56 63
REMARK Flexibility Score: inf
ROOT
ATOM      1  C   UNL     1       2.937   2.259  -3.013  1.00  0.00     0.002 C 
ENDROOT
BRANCH   1   2
ATOM      2  C   UNL     1       3.447   0.885  -2.547  1.00  0.00     0.021 C 
BRANCH   2   3
ATOM      3  C   UNL     1       2.611   0.092  -1.537  1.00  0.00     0.116 C 
BRANCH   3   4
ATOM      4  N   UNL     1       1.357  -0.465  -1.993  1.00  0.00    -0.352 N 
ATOM      5  C   UNL     1       0.596  -1.532  -1.546  1.00  0.00     0.253 C 
ATOM      6  O   UNL     1      -0.560  -1.573  -1.990  1.00  0.00    -0.269 OA
ATOM      7  H   UNL     1       0.972   0.003  -2.769  1.00  0.00     0.163 HD
BRANCH   5   8
ATOM      8  C   UNL     1       1.068  -2.721  -0.738  1.00  0.00     0.067 A 
ATOM      9  C   UNL     1       2.025  -2.819   0.289  1.00  0.00     0.054 A 
ATOM     10  C   UNL     1       2.466  -4.089   0.731  1.00  0.00     0.031 A 
ATOM     11  C   UNL     1       1.856  -5.259   0.298  1.00  0.00     0.048 A 
ATOM     12  C   UNL     1       0.442  -3.933  -1.134  1.00  0.00     0.062 A 
ATOM     13  C   UNL     1       0.812  -5.168  -0.598  1.00  0.00     0.116 A 
BRANCH   9  14
ATOM     14  N   UNL     1       2.587  -1.774   1.035  1.00  0.00    -0.322 N 
ATOM     15  O   UNL     1       0.782  -0.342   1.253  1.00  0.00    -0.270 OA
ATOM     16  C   UNL     1       1.973  -0.593   1.355  1.00  0.00     0.248 C 
ATOM     17  H   UNL     1       3.508  -1.901   1.358  1.00  0.00     0.170 HD
BRANCH  16  18
ATOM     18  C   UNL     1       2.917   0.441   1.856  1.00  0.00     0.072 C 
ATOM     19  C   UNL     1       4.207   0.446   1.480  1.00  0.00     0.014 C 
BRANCH  19  20
ATOM     20  C   UNL     1       5.172   1.517   1.730  1.00  0.00    -0.025 A 
ATOM     21  C   UNL     1       6.411   1.445   1.071  1.00  0.00     0.008 A 
ATOM     22  C   UNL     1       4.899   2.605   2.566  1.00  0.00     0.008 A 
ATOM     23  C   UNL     1       7.373   2.421   1.283  1.00  0.00     0.001 A 
ATOM     24  C   UNL     1       5.855   3.591   2.763  1.00  0.00     0.001 A 
ATOM     25  C   UNL     1       7.092   3.474   2.144  1.00  0.00     0.000 A 
ENDBRANCH  19  20
ENDBRANCH  16  18
ENDBRANCH   9  14
BRANCH  13  26
ATOM     26  O   UNL     1       0.166  -6.319  -0.935  1.00  0.00    -0.508 OA
ATOM     27  H   UNL     1       0.435  -7.134  -0.561  1.00  0.00     0.293 HD
ENDBRANCH  13  26
ENDBRANCH   5   8
ENDBRANCH   3   4
ENDBRANCH   2   3
ENDBRANCH   1   2
BRANCH   1  28
ATOM     28  C   UNL     1       2.621   3.346  -1.970  1.00  0.00     0.002 C 
BRANCH  28  29
ATOM     29  C   UNL     1       3.674   3.683  -0.905  1.00  0.00     0.021 C 
BRANCH  29  30
ATOM     30  C   UNL     1       5.052   4.188  -1.359  1.00  0.00     0.116 C 
BRANCH  30  31
ATOM     31  N   UNL     1       5.064   5.590  -1.752  1.00  0.00    -0.352 N 
ATOM     32  C   UNL     1       5.875   6.635  -1.354  1.00  0.00     0.251 C 
ATOM     33  H   UNL     1       4.378   5.834  -2.414  1.00  0.00     0.163 HD
ATOM     34  O   UNL     1       5.606   7.768  -1.752  1.00  0.00    -0.269 OA
BRANCH  32  35
ATOM     35  C   UNL     1       7.048   6.459  -0.448  1.00  0.00     0.039 A 
ATOM     36  C   UNL     1       7.249   7.387   0.584  1.00  0.00     0.014 A 
ATOM     37  C   UNL     1       8.011   5.470  -0.643  1.00  0.00     0.014 A 
ATOM     38  C   UNL     1       8.351   7.280   1.456  1.00  0.00     0.010 A 
ATOM     39  C   UNL     1       9.091   5.343   0.258  1.00  0.00     0.010 A 
ATOM     40  C   UNL     1       9.270   6.224   1.347  1.00  0.00    -0.014 A 
BRANCH  40  41
ATOM     41  C   UNL     1      10.349   5.998   2.386  1.00  0.00     0.031 A 
ATOM     42  C   UNL     1      11.804   5.826   1.990  1.00  0.00     0.074 A 
ATOM     43  C   UNL     1      10.048   5.857   3.702  1.00  0.00     0.049 A 
ATOM     44  N   UNL     1      12.848   5.578   2.748  1.00  0.00    -0.248 NA
ATOM     45  C   UNL     1      12.124   5.915   0.559  1.00  0.00     0.031 C 
ATOM     46  C   UNL     1       8.706   5.918   4.288  1.00  0.00     0.029 A 
ATOM     47  N   UNL     1      10.855   5.605   4.796  1.00  0.00    -0.354 N 
ATOM     48  C   UNL     1      13.937   5.474   1.888  1.00  0.00     0.074 A 
ATOM     49  C   UNL     1      13.411   5.599   0.545  1.00  0.00     0.031 C 
ATOM     50  C   UNL     1       8.780   5.705   5.612  1.00  0.00     0.029 A 
ATOM     51  C   UNL     1      10.173   5.497   5.991  1.00  0.00     0.049 A 
ATOM     52  H   UNL     1      11.833   5.511   4.729  1.00  0.00     0.167 HD
ATOM     53  C   UNL     1      15.258   5.339   2.171  1.00  0.00     0.037 A 
ATOM     54  C   UNL     1      10.597   5.273   7.254  1.00  0.00     0.037 A 
ATOM     55  C   UNL     1      15.820   5.260   3.496  1.00  0.00     0.049 A 
ATOM     56  C   UNL     1      12.069   5.132   7.552  1.00  0.00     0.074 A 
ATOM     57  C   UNL     1      17.157   5.219   3.859  1.00  0.00     0.029 A 
ATOM     58  N   UNL     1      15.091   5.205   4.672  1.00  0.00    -0.354 N 
ATOM     59  N   UNL     1      13.084   5.162   6.725  1.00  0.00    -0.248 NA
ATOM     60  C   UNL     1      12.453   4.952   8.963  1.00  0.00     0.031 C 
ATOM     61  C   UNL     1      17.235   5.094   5.250  1.00  0.00     0.029 A 
ATOM     62  C   UNL     1      15.949   5.109   5.758  1.00  0.00     0.049 A 
ATOM     63  H   UNL     1      14.108   5.230   4.729  1.00  0.00     0.167 HD
ATOM     64  C   UNL     1      14.224   5.051   7.519  1.00  0.00     0.074 A 
ATOM     65  C   UNL     1      13.777   4.956   8.890  1.00  0.00     0.031 C 
ATOM     66  C   UNL     1      15.524   5.038   7.134  1.00  0.00     0.037 A 
BRANCH  53  67
ATOM     67  C   UNL     1      16.214   5.309   1.007  1.00  0.00     0.058 A 
ATOM     68  C   UNL     1      16.443   6.451   0.221  1.00  0.00     0.135 A 
ATOM     69  C   UNL     1      16.937   4.146   0.696  1.00  0.00     0.135 A 
ATOM     70  F   UNL     1      15.778   7.590   0.472  1.00  0.00    -0.206 F 
ATOM     71  C   UNL     1      17.313   6.426  -0.863  1.00  0.00     0.059 A 
ATOM     72  C   UNL     1      17.840   4.108  -0.363  1.00  0.00     0.059 A 
ATOM     73  F   UNL     1      16.770   3.030   1.423  1.00  0.00    -0.206 F 
ATOM     74  C   UNL     1      18.003   5.248  -1.150  1.00  0.00     0.060 A 
BRANCH  74  75
ATOM     75  S   UNL     1      19.112   5.229  -2.574  1.00  0.00     0.124 S 
ATOM     76  O   UNL     1      18.159   5.217  -3.680  1.00  0.00    -0.237 OA
ATOM     77  O   UNL     1      19.864   6.467  -2.400  1.00  0.00    -0.237 OA
ATOM     78  O   UNL     1      19.878   4.001  -2.392  1.00  0.00    -0.744 OA
ENDBRANCH  74  75
ENDBRANCH  53  67
BRANCH  54  79
ATOM     79  C   UNL     1       9.617   5.223   8.378  1.00  0.00     0.058 A 
ATOM     80  C   UNL     1       9.555   6.260   9.324  1.00  0.00     0.135 A 
ATOM     81  C   UNL     1       8.755   4.131   8.553  1.00  0.00     0.135 A 
ATOM     82  F   UNL     1      10.370   7.320   9.209  1.00  0.00    -0.206 F 
ATOM     83  C   UNL     1       8.695   6.204  10.416  1.00  0.00     0.059 A 
ATOM     84  C   UNL     1       7.867   4.064   9.624  1.00  0.00     0.059 A 
ATOM     85  F   UNL     1       8.765   3.118   7.672  1.00  0.00    -0.206 F 
ATOM     86  C   UNL     1       7.854   5.100  10.558  1.00  0.00     0.060 A 
BRANCH  86  87
ATOM     87  S   UNL     1       6.721   5.053  11.964  1.00  0.00     0.124 S 
ATOM     88  O   UNL     1       7.636   4.804  13.072  1.00  0.00    -0.237 OA
ATOM     89  O   UNL     1       6.121   6.383  11.917  1.00  0.00    -0.237 OA
ATOM     90  O   UNL     1       5.819   3.954  11.631  1.00  0.00    -0.744 OA
ENDBRANCH  86  87
ENDBRANCH  54  79
BRANCH  66  91
ATOM     91  C   UNL     1      16.585   4.971   8.202  1.00  0.00     0.058 A 
ATOM     92  C   UNL     1      16.819   3.805   8.948  1.00  0.00     0.135 A 
ATOM     93  C   UNL     1      17.426   6.072   8.436  1.00  0.00     0.135 A 
ATOM     94  F   UNL     1      16.043   2.724   8.773  1.00  0.00    -0.206 F 
ATOM     95  C   UNL     1      17.837   3.738   9.897  1.00  0.00     0.059 A 
ATOM     96  C   UNL     1      18.468   6.018   9.359  1.00  0.00     0.059 A 
ATOM     97  F   UNL     1      17.255   7.212   7.748  1.00  0.00    -0.206 F 
ATOM     98  C   UNL     1      18.661   4.849  10.091  1.00  0.00     0.060 A 
BRANCH  98  99
ATOM     99  S   UNL     1      20.010   4.730  11.287  1.00  0.00     0.124 S 
ATOM    100  O   UNL     1      19.286   4.765  12.553  1.00  0.00    -0.237 OA
ATOM    101  O   UNL     1      20.621   3.450  10.942  1.00  0.00    -0.237 OA
ATOM    102  O   UNL     1      20.826   5.906  10.998  1.00  0.00    -0.744 OA
ENDBRANCH  98  99
ENDBRANCH  66  91
ENDBRANCH  40  41
ENDBRANCH  32  35
ENDBRANCH  30  31
ENDBRANCH  29  30
ENDBRANCH  28  29
ENDBRANCH   1  28
TORSDOF 20
