REMARK SMILES COc1cc(F)ccc1-c1ccc(=O)n(CC(=O)NCc2ccc(C(=O)NCCCCCCNC(=O)c3ccc(-c4c5nc(c(-c6c(F)cc(S(=O)(=O)[O-])cc6F)c6ccc([nH]6)c(-c6c(F)cc(S(=O)(=O)[O-])cc6F)c6nc(c(-c7c(F)cc(S(=O)(=O)[O-])cc7F)c7ccc4[nH]7)C=C6)C=C5)cc3)cc2)n1
REMARK SMILES IDX 29 1 28 2 27 3 25 4 26 5 24 7 21 8 22 9 104 10 23 11 103 12
REMARK SMILES IDX 20 13 19 14 17 15 18 16 16 18 15 19 10 20 11 21 105 22 12 23
REMARK SMILES IDX 13 24 14 25 9 26 3 27 4 28 5 29 8 30 6 31 7 32 2 33 1 34
REMARK SMILES IDX 30 35 31 36 32 37 33 38 34 39 35 40 36 42 37 43 38 44 102 45
REMARK SMILES IDX 39 46 101 47 40 48 41 49 42 50 95 51 43 52 100 53 94 54
REMARK SMILES IDX 96 55 44 56 99 57 93 58 92 59 45 61 79 62 58 63 78 64 59 65
REMARK SMILES IDX 62 66 77 67 97 68 60 69 61 70 76 72 98 73 63 74 46 75 47 76
REMARK SMILES IDX 56 77 48 78 49 79 55 80 57 81 50 82 51 83 52 84 53 85 54 86
REMARK SMILES IDX 80 87 81 88 90 89 82 90 83 91 89 92 91 93 84 94 85 95 86 96
REMARK SMILES IDX 87 97 88 98 64 99 65 100 74 101 66 102 67 103 73 104 75 105
REMARK SMILES IDX 68 106 69 107 70 108 71 109 72 110
REMARK H PARENT 27 6 19 17 34 41 96 60 62 71
REMARK Flexibility Score: inf
ROOT
ATOM      1  C   UNL     1       0.125   4.015   8.769  1.00  0.00     0.021 C 
ENDROOT
BRANCH   1   2
ATOM      2  C   UNL     1      -1.253   3.365   8.688  1.00  0.00     0.116 C 
BRANCH   2   3
ATOM      3  N   UNL     1      -2.326   4.305   8.440  1.00  0.00    -0.352 N 
ATOM      4  C   UNL     1      -3.458   4.194   7.669  1.00  0.00     0.251 C 
ATOM      5  O   UNL     1      -4.203   5.169   7.581  1.00  0.00    -0.269 OA
ATOM      6  H   UNL     1      -2.229   5.169   8.901  1.00  0.00     0.163 HD
BRANCH   4   7
ATOM      7  C   UNL     1      -3.776   2.964   6.894  1.00  0.00     0.039 A 
ATOM      8  C   UNL     1      -4.330   0.733   5.246  1.00  0.00    -0.029 A 
ATOM      9  C   UNL     1      -4.708   2.024   4.858  1.00  0.00     0.006 A 
ATOM     10  C   UNL     1      -3.735   0.569   6.506  1.00  0.00     0.006 A 
ATOM     11  C   UNL     1      -4.423   3.129   5.665  1.00  0.00     0.014 A 
ATOM     12  C   UNL     1      -3.496   1.670   7.338  1.00  0.00     0.014 A 
BRANCH   8  13
ATOM     13  C   UNL     1      -4.476  -0.461   4.331  1.00  0.00     0.151 C 
BRANCH  13  14
ATOM     14  N   UNL     1      -5.614  -0.377   3.442  1.00  0.00    -0.350 N 
ATOM     15  C   UNL     1      -5.648  -0.243   2.086  1.00  0.00     0.242 C 
ATOM     16  O   UNL     1      -6.731  -0.457   1.529  1.00  0.00    -0.273 OA
ATOM     17  H   UNL     1      -6.494  -0.422   3.882  1.00  0.00     0.163 HD
BRANCH  15  18
ATOM     18  C   UNL     1      -4.375  -0.018   1.262  1.00  0.00     0.248 C 
BRANCH  18  19
ATOM     19  N   UNL     1      -3.571   1.122   1.684  1.00  0.00    -0.220 N 
ATOM     20  C   UNL     1      -1.562   1.862   2.482  1.00  0.00     0.095 A 
ATOM     21  C   UNL     1      -1.971   3.277   2.405  1.00  0.00     0.037 A 
ATOM     22  N   UNL     1      -2.302   0.850   2.157  1.00  0.00    -0.169 NA
ATOM     23  C   UNL     1      -3.176   3.515   1.887  1.00  0.00     0.075 A 
ATOM     24  C   UNL     1      -4.045   2.405   1.445  1.00  0.00     0.267 A 
ATOM     25  O   UNL     1      -5.134   2.670   0.942  1.00  0.00    -0.268 OA
BRANCH  20  26
ATOM     26  C   UNL     1      -0.192   1.636   2.977  1.00  0.00     0.044 A 
ATOM     27  C   UNL     1       0.822   1.253   2.087  1.00  0.00     0.131 A 
ATOM     28  C   UNL     1       2.118   1.061   2.569  1.00  0.00     0.086 A 
ATOM     29  C   UNL     1       2.372   1.225   3.928  1.00  0.00     0.126 A 
ATOM     30  C   UNL     1       0.070   1.793   4.344  1.00  0.00     0.017 A 
ATOM     31  F   UNL     1       3.618   1.050   4.386  1.00  0.00    -0.207 F 
ATOM     32  C   UNL     1       1.364   1.585   4.819  1.00  0.00     0.040 A 
BRANCH  27  33
ATOM     33  O   UNL     1       0.530   1.181   0.750  1.00  0.00    -0.496 OA
ATOM     34  C   UNL     1       0.958  -0.041   0.149  1.00  0.00     0.278 C 
ENDBRANCH  27  33
ENDBRANCH  20  26
ENDBRANCH  18  19
ENDBRANCH  15  18
ENDBRANCH  13  14
ENDBRANCH   8  13
ENDBRANCH   4   7
ENDBRANCH   2   3
ENDBRANCH   1   2
BRANCH   1  35
ATOM     35  C   UNL     1       0.327   5.084   9.847  1.00  0.00     0.002 C 
BRANCH  35  36
ATOM     36  C   UNL     1      -0.065   4.714  11.279  1.00  0.00     0.002 C 
BRANCH  36  37
ATOM     37  C   UNL     1       0.493   3.402  11.828  1.00  0.00     0.021 C 
BRANCH  37  38
ATOM     38  C   UNL     1       1.998   3.204  11.704  1.00  0.00     0.116 C 
BRANCH  38  39
ATOM     39  N   UNL     1       2.780   4.160  12.467  1.00  0.00    -0.352 N 
ATOM     40  C   UNL     1       3.830   3.933  13.332  1.00  0.00     0.251 C 
ATOM     41  H   UNL     1       2.525   5.104  12.350  1.00  0.00     0.163 HD
ATOM     42  O   UNL     1       4.321   4.862  13.958  1.00  0.00    -0.269 OA
BRANCH  40  43
ATOM     43  C   UNL     1       4.328   2.551  13.535  1.00  0.00     0.039 A 
ATOM     44  C   UNL     1       4.564   1.706  12.449  1.00  0.00     0.014 A 
ATOM     45  C   UNL     1       4.524   2.085  14.838  1.00  0.00     0.014 A 
ATOM     46  C   UNL     1       4.820   0.356  12.670  1.00  0.00     0.010 A 
ATOM     47  C   UNL     1       4.866   0.746  15.056  1.00  0.00     0.010 A 
ATOM     48  C   UNL     1       4.965  -0.144  13.975  1.00  0.00    -0.014 A 
BRANCH  48  49
ATOM     49  C   UNL     1       5.211  -1.598  14.177  1.00  0.00     0.031 A 
ATOM     50  C   UNL     1       4.195  -2.467  14.874  1.00  0.00     0.074 A 
ATOM     51  C   UNL     1       6.330  -2.151  13.668  1.00  0.00     0.049 A 
ATOM     52  N   UNL     1       4.227  -3.758  15.090  1.00  0.00    -0.248 NA
ATOM     53  C   UNL     1       2.990  -1.806  15.399  1.00  0.00     0.031 C 
ATOM     54  C   UNL     1       7.388  -1.416  12.971  1.00  0.00     0.029 A 
ATOM     55  N   UNL     1       6.752  -3.456  13.628  1.00  0.00    -0.354 N 
ATOM     56  C   UNL     1       3.062  -4.061  15.786  1.00  0.00     0.074 A 
ATOM     57  C   UNL     1       2.355  -2.814  15.982  1.00  0.00     0.031 C 
ATOM     58  C   UNL     1       8.305  -2.285  12.522  1.00  0.00     0.029 A 
ATOM     59  C   UNL     1       7.934  -3.631  12.948  1.00  0.00     0.049 A 
ATOM     60  H   UNL     1       6.256  -4.196  14.047  1.00  0.00     0.167 HD
ATOM     61  C   UNL     1       2.616  -5.268  16.209  1.00  0.00     0.037 A 
ATOM     62  C   UNL     1       8.647  -4.746  12.697  1.00  0.00     0.037 A 
ATOM     63  C   UNL     1       3.311  -6.512  15.992  1.00  0.00     0.049 A 
ATOM     64  C   UNL     1       8.144  -6.068  13.200  1.00  0.00     0.074 A 
ATOM     65  C   UNL     1       2.923  -7.789  16.361  1.00  0.00     0.029 A 
ATOM     66  N   UNL     1       4.533  -6.638  15.347  1.00  0.00    -0.354 N 
ATOM     67  N   UNL     1       7.036  -6.332  13.848  1.00  0.00    -0.248 NA
ATOM     68  C   UNL     1       8.992  -7.241  12.948  1.00  0.00     0.031 C 
ATOM     69  C   UNL     1       3.928  -8.682  15.973  1.00  0.00     0.029 A 
ATOM     70  C   UNL     1       4.922  -7.967  15.326  1.00  0.00     0.049 A 
ATOM     71  H   UNL     1       5.048  -5.892  14.962  1.00  0.00     0.167 HD
ATOM     72  C   UNL     1       7.051  -7.702  14.081  1.00  0.00     0.074 A 
ATOM     73  C   UNL     1       8.267  -8.215  13.483  1.00  0.00     0.031 C 
ATOM     74  C   UNL     1       6.141  -8.463  14.736  1.00  0.00     0.037 A 
BRANCH  61  75
ATOM     75  C   UNL     1       1.311  -5.316  16.955  1.00  0.00     0.058 A 
ATOM     76  C   UNL     1       1.286  -5.591  18.332  1.00  0.00     0.135 A 
ATOM     77  C   UNL     1       0.082  -5.157  16.297  1.00  0.00     0.135 A 
ATOM     78  F   UNL     1       2.432  -5.747  19.012  1.00  0.00    -0.206 F 
ATOM     79  C   UNL     1       0.087  -5.720  19.027  1.00  0.00     0.059 A 
ATOM     80  C   UNL     1      -1.129  -5.261  16.976  1.00  0.00     0.059 A 
ATOM     81  F   UNL     1       0.050  -4.872  14.985  1.00  0.00    -0.206 F 
ATOM     82  C   UNL     1      -1.116  -5.556  18.340  1.00  0.00     0.060 A 
BRANCH  82  83
ATOM     83  S   UNL     1      -2.664  -5.692  19.260  1.00  0.00     0.124 S 
ATOM     84  O   UNL     1      -2.736  -7.126  19.516  1.00  0.00    -0.237 OA
ATOM     85  O   UNL     1      -2.405  -4.848  20.423  1.00  0.00    -0.237 OA
ATOM     86  O   UNL     1      -3.657  -5.167  18.327  1.00  0.00    -0.744 OA
ENDBRANCH  82  83
ENDBRANCH  61  75
BRANCH  62  87
ATOM     87  C   UNL     1       9.911  -4.644  11.923  1.00  0.00     0.058 A 
ATOM     88  C   UNL     1      11.045  -4.020  12.465  1.00  0.00     0.135 A 
ATOM     89  C   UNL     1       9.989  -5.118  10.605  1.00  0.00     0.135 A 
ATOM     90  F   UNL     1      11.016  -3.543  13.719  1.00  0.00    -0.206 F 
ATOM     91  C   UNL     1      12.201  -3.835  11.716  1.00  0.00     0.059 A 
ATOM     92  C   UNL     1      11.144  -4.967   9.844  1.00  0.00     0.059 A 
ATOM     93  F   UNL     1       8.934  -5.733  10.050  1.00  0.00    -0.206 F 
ATOM     94  C   UNL     1      12.237  -4.304  10.402  1.00  0.00     0.060 A 
BRANCH  94  95
ATOM     95  S   UNL     1      13.736  -4.027   9.434  1.00  0.00     0.124 S 
ATOM     96  O   UNL     1      13.656  -2.591   9.183  1.00  0.00    -0.237 OA
ATOM     97  O   UNL     1      14.781  -4.454  10.357  1.00  0.00    -0.237 OA
ATOM     98  O   UNL     1      13.545  -4.881   8.267  1.00  0.00    -0.744 OA
ENDBRANCH  94  95
ENDBRANCH  62  87
BRANCH  74  99
ATOM     99  C   UNL     1       6.421  -9.934  14.848  1.00  0.00     0.058 A 
ATOM    100  C   UNL     1       5.677 -10.863  14.103  1.00  0.00     0.135 A 
ATOM    101  C   UNL     1       7.382 -10.428  15.743  1.00  0.00     0.135 A 
ATOM    102  F   UNL     1       4.744 -10.442  13.234  1.00  0.00    -0.206 F 
ATOM    103  C   UNL     1       5.867 -12.232  14.253  1.00  0.00     0.059 A 
ATOM    104  C   UNL     1       7.604 -11.793  15.893  1.00  0.00     0.059 A 
ATOM    105  F   UNL     1       8.128  -9.579  16.468  1.00  0.00    -0.206 F 
ATOM    106  C   UNL     1       6.830 -12.688  15.155  1.00  0.00     0.060 A 
BRANCH 106 107
ATOM    107  S   UNL     1       7.074 -14.468  15.328  1.00  0.00     0.124 S 
ATOM    108  O   UNL     1       5.878 -14.863  16.065  1.00  0.00    -0.237 OA
ATOM    109  O   UNL     1       7.136 -14.909  13.937  1.00  0.00    -0.237 OA
ATOM    110  O   UNL     1       8.329 -14.567  16.066  1.00  0.00    -0.744 OA
ENDBRANCH 106 107
ENDBRANCH  74  99
ENDBRANCH  48  49
ENDBRANCH  40  43
ENDBRANCH  38  39
ENDBRANCH  37  38
ENDBRANCH  36  37
ENDBRANCH  35  36
ENDBRANCH   1  35
TORSDOF 22
