REMARK SMILES COc1cc(NC(=O)c2ccc([N+](=O)[O-])cc2)c(C(=O)NCCCCCCNC(=O)c2ccc(-c3c4nc(c(-c5c(F)cc(S(=O)(=O)[O-])cc5F)c5ccc([nH]5)c(-c5c(F)cc(S(=O)(=O)[O-])cc5F)c5nc(c(-c6c(F)cc(S(=O)(=O)[O-])cc6F)c6ccc3[nH]6)C=C5)C=C4)cc2)cc1OC
REMARK SMILES IDX 24 1 23 2 22 3 21 4 19 5 20 6 18 8 3 9 4 10 98 11 5 12 97 13
REMARK SMILES IDX 2 14 1 15 99 16 100 17 6 18 7 19 8 21 9 22 10 23 17 24 11 25
REMARK SMILES IDX 16 26 12 27 13 28 14 29 15 30 25 31 26 32 27 33 28 34 29 35
REMARK SMILES IDX 30 37 31 38 32 39 96 40 33 41 95 42 34 43 35 44 36 45 89 46
REMARK SMILES IDX 37 47 94 48 88 49 90 50 38 51 93 52 87 53 86 54 39 56 73 57
REMARK SMILES IDX 52 58 72 59 53 60 56 61 71 62 91 63 54 64 55 65 70 67 92 68
REMARK SMILES IDX 57 69 40 70 41 71 50 72 42 73 43 74 49 75 51 76 44 77 45 78
REMARK SMILES IDX 46 79 47 80 48 81 74 82 75 83 84 84 76 85 77 86 83 87 85 88
REMARK SMILES IDX 78 89 79 90 80 91 81 92 82 93 58 94 59 95 68 96 60 97 61 98
REMARK SMILES IDX 67 99 69 100 62 101 63 102 64 103 65 104 66 105
REMARK H PARENT 21 7 6 20 28 36 90 55 56 66
REMARK Flexibility Score: inf
ROOT
ATOM      1  C   UNL     1       5.870  -7.717  -0.560  1.00  0.00     0.002 C 
ENDROOT
BRANCH   1   2
ATOM      2  C   UNL     1       5.221  -6.340  -0.371  1.00  0.00     0.021 C 
BRANCH   2   3
ATOM      3  C   UNL     1       4.065  -6.087  -1.344  1.00  0.00     0.116 C 
BRANCH   3   4
ATOM      4  N   UNL     1       2.852  -6.687  -0.823  1.00  0.00    -0.352 N 
ATOM      5  C   UNL     1       1.833  -6.220  -0.035  1.00  0.00     0.253 C 
ATOM      6  O   UNL     1       0.992  -7.056   0.309  1.00  0.00    -0.269 OA
ATOM      7  H   UNL     1       2.737  -7.627  -1.091  1.00  0.00     0.163 HD
BRANCH   5   8
ATOM      8  C   UNL     1       1.647  -4.784   0.365  1.00  0.00     0.067 A 
ATOM      9  C   UNL     1       1.275  -2.045   0.914  1.00  0.00     0.162 A 
ATOM     10  C   UNL     1       0.216  -2.955   1.046  1.00  0.00     0.077 A 
ATOM     11  C   UNL     1       2.548  -2.510   0.619  1.00  0.00     0.161 A 
ATOM     12  C   UNL     1       0.358  -4.317   0.737  1.00  0.00     0.058 A 
ATOM     13  C   UNL     1       2.721  -3.881   0.404  1.00  0.00     0.066 A 
BRANCH   9  14
ATOM     14  O   UNL     1       1.038  -0.732   1.221  1.00  0.00    -0.493 OA
ATOM     15  C   UNL     1       0.346  -0.061   0.163  1.00  0.00     0.278 C 
ENDBRANCH   9  14
BRANCH  11  16
ATOM     16  O   UNL     1       3.713  -1.799   0.553  1.00  0.00    -0.493 OA
ATOM     17  C   UNL     1       3.632  -0.424   0.203  1.00  0.00     0.278 C 
ENDBRANCH  11  16
BRANCH  12  18
ATOM     18  N   UNL     1      -0.713  -5.250   0.845  1.00  0.00    -0.321 N 
ATOM     19  C   UNL     1      -2.061  -5.155   1.096  1.00  0.00     0.255 C 
ATOM     20  H   UNL     1      -0.419  -6.179   0.708  1.00  0.00     0.170 HD
ATOM     21  O   UNL     1      -2.743  -6.147   1.340  1.00  0.00    -0.269 OA
BRANCH  19  22
ATOM     22  C   UNL     1      -2.740  -3.856   1.055  1.00  0.00     0.040 A 
ATOM     23  C   UNL     1      -3.281  -3.345   2.240  1.00  0.00     0.021 A 
ATOM     24  C   UNL     1      -2.757  -3.117  -0.134  1.00  0.00     0.021 A 
ATOM     25  C   UNL     1      -3.744  -2.030   2.267  1.00  0.00     0.086 A 
ATOM     26  C   UNL     1      -3.215  -1.801  -0.110  1.00  0.00     0.086 A 
ATOM     27  C   UNL     1      -3.675  -1.254   1.099  1.00  0.00     0.269 A 
BRANCH  27  28
ATOM     28  N   UNL     1      -4.023   0.170   1.157  1.00  0.00     0.062 N 
ATOM     29  O   UNL     1      -4.623   0.576   2.162  1.00  0.00    -0.258 OA
ATOM     30  O   UNL     1      -3.674   0.883   0.206  1.00  0.00    -0.258 OA
ENDBRANCH  27  28
ENDBRANCH  19  22
ENDBRANCH  12  18
ENDBRANCH   5   8
ENDBRANCH   3   4
ENDBRANCH   2   3
ENDBRANCH   1   2
BRANCH   1  31
ATOM     31  C   UNL     1       6.568  -7.909  -1.912  1.00  0.00     0.002 C 
BRANCH  31  32
ATOM     32  C   UNL     1       7.628  -6.854  -2.242  1.00  0.00     0.021 C 
BRANCH  32  33
ATOM     33  C   UNL     1       8.794  -6.817  -1.261  1.00  0.00     0.116 C 
BRANCH  33  34
ATOM     34  N   UNL     1       9.561  -8.053  -1.303  1.00  0.00    -0.352 N 
ATOM     35  C   UNL     1      10.887  -8.235  -1.596  1.00  0.00     0.251 C 
ATOM     36  H   UNL     1       9.057  -8.872  -1.092  1.00  0.00     0.163 HD
ATOM     37  O   UNL     1      11.312  -9.365  -1.847  1.00  0.00    -0.269 OA
BRANCH  35  38
ATOM     38  C   UNL     1      11.801  -7.076  -1.619  1.00  0.00     0.039 A 
ATOM     39  C   UNL     1      12.731  -6.959  -2.654  1.00  0.00     0.014 A 
ATOM     40  C   UNL     1      11.746  -6.112  -0.607  1.00  0.00     0.014 A 
ATOM     41  C   UNL     1      13.574  -5.848  -2.701  1.00  0.00     0.010 A 
ATOM     42  C   UNL     1      12.536  -4.970  -0.696  1.00  0.00     0.010 A 
ATOM     43  C   UNL     1      13.464  -4.830  -1.738  1.00  0.00    -0.014 A 
BRANCH  43  44
ATOM     44  C   UNL     1      14.315  -3.615  -1.801  1.00  0.00     0.031 A 
ATOM     45  C   UNL     1      15.304  -3.329  -0.705  1.00  0.00     0.074 A 
ATOM     46  C   UNL     1      14.150  -2.741  -2.812  1.00  0.00     0.049 A 
ATOM     47  N   UNL     1      16.091  -2.295  -0.551  1.00  0.00    -0.248 NA
ATOM     48  C   UNL     1      15.402  -4.323   0.376  1.00  0.00     0.031 C 
ATOM     49  C   UNL     1      13.190  -2.887  -3.908  1.00  0.00     0.029 A 
ATOM     50  N   UNL     1      14.779  -1.551  -3.079  1.00  0.00    -0.354 N 
ATOM     51  C   UNL     1      16.766  -2.507   0.645  1.00  0.00     0.074 A 
ATOM     52  C   UNL     1      16.254  -3.739   1.205  1.00  0.00     0.031 C 
ATOM     53  C   UNL     1      13.312  -1.842  -4.742  1.00  0.00     0.029 A 
ATOM     54  C   UNL     1      14.329  -0.933  -4.222  1.00  0.00     0.049 A 
ATOM     55  H   UNL     1      15.486  -1.175  -2.506  1.00  0.00     0.167 HD
ATOM     56  C   UNL     1      17.741  -1.757   1.213  1.00  0.00     0.037 A 
ATOM     57  C   UNL     1      14.692   0.236  -4.784  1.00  0.00     0.037 A 
ATOM     58  C   UNL     1      18.256  -0.541   0.638  1.00  0.00     0.049 A 
ATOM     59  C   UNL     1      15.770   1.058  -4.133  1.00  0.00     0.074 A 
ATOM     60  C   UNL     1      19.281   0.265   1.103  1.00  0.00     0.029 A 
ATOM     61  N   UNL     1      17.782   0.048  -0.526  1.00  0.00    -0.354 N 
ATOM     62  N   UNL     1      16.444   0.811  -3.034  1.00  0.00    -0.248 NA
ATOM     63  C   UNL     1      16.142   2.313  -4.800  1.00  0.00     0.031 C 
ATOM     64  C   UNL     1      19.394   1.365   0.246  1.00  0.00     0.029 A 
ATOM     65  C   UNL     1      18.476   1.219  -0.782  1.00  0.00     0.049 A 
ATOM     66  H   UNL     1      17.058  -0.314  -1.087  1.00  0.00     0.167 HD
ATOM     67  C   UNL     1      17.337   1.867  -2.891  1.00  0.00     0.074 A 
ATOM     68  C   UNL     1      17.124   2.748  -4.022  1.00  0.00     0.031 C 
ATOM     69  C   UNL     1      18.251   2.086  -1.913  1.00  0.00     0.037 A 
BRANCH  56  70
ATOM     70  C   UNL     1      18.307  -2.233   2.524  1.00  0.00     0.058 A 
ATOM     71  C   UNL     1      19.090  -3.396   2.611  1.00  0.00     0.135 A 
ATOM     72  C   UNL     1      18.073  -1.515   3.707  1.00  0.00     0.135 A 
ATOM     73  F   UNL     1      19.337  -4.130   1.514  1.00  0.00    -0.206 F 
ATOM     74  C   UNL     1      19.582  -3.854   3.829  1.00  0.00     0.059 A 
ATOM     75  C   UNL     1      18.581  -1.938   4.933  1.00  0.00     0.059 A 
ATOM     76  F   UNL     1      17.334  -0.395   3.684  1.00  0.00    -0.206 F 
ATOM     77  C   UNL     1      19.317  -3.121   4.986  1.00  0.00     0.060 A 
BRANCH  77  78
ATOM     78  S   UNL     1      19.944  -3.739   6.562  1.00  0.00     0.124 S 
ATOM     79  O   UNL     1      19.050  -4.868   6.806  1.00  0.00    -0.237 OA
ATOM     80  O   UNL     1      21.324  -4.083   6.236  1.00  0.00    -0.237 OA
ATOM     81  O   UNL     1      19.779  -2.603   7.463  1.00  0.00    -0.744 OA
ENDBRANCH  77  78
ENDBRANCH  56  70
BRANCH  57  82
ATOM     82  C   UNL     1      14.048   0.676  -6.050  1.00  0.00     0.058 A 
ATOM     83  C   UNL     1      14.756   0.660  -7.260  1.00  0.00     0.135 A 
ATOM     84  C   UNL     1      12.705   1.085  -6.083  1.00  0.00     0.135 A 
ATOM     85  F   UNL     1      16.044   0.283  -7.279  1.00  0.00    -0.206 F 
ATOM     86  C   UNL     1      14.160   1.039  -8.459  1.00  0.00     0.059 A 
ATOM     87  C   UNL     1      12.080   1.445  -7.272  1.00  0.00     0.059 A 
ATOM     88  F   UNL     1      11.979   1.101  -4.954  1.00  0.00    -0.206 F 
ATOM     89  C   UNL     1      12.818   1.424  -8.455  1.00  0.00     0.060 A 
BRANCH  89  90
ATOM     90  S   UNL     1      12.035   1.847 -10.027  1.00  0.00     0.124 S 
ATOM     91  O   UNL     1      12.643   3.140 -10.319  1.00  0.00    -0.237 OA
ATOM     92  O   UNL     1      12.447   0.739 -10.882  1.00  0.00    -0.237 OA
ATOM     93  O   UNL     1      10.614   1.878  -9.695  1.00  0.00    -0.744 OA
ENDBRANCH  89  90
ENDBRANCH  57  82
BRANCH  69  94
ATOM     94  C   UNL     1      19.112   3.313  -2.035  1.00  0.00     0.058 A 
ATOM     95  C   UNL     1      18.600   4.600  -1.809  1.00  0.00     0.135 A 
ATOM     96  C   UNL     1      20.480   3.195  -2.331  1.00  0.00     0.135 A 
ATOM     97  F   UNL     1      17.297   4.770  -1.530  1.00  0.00    -0.206 F 
ATOM     98  C   UNL     1      19.408   5.729  -1.895  1.00  0.00     0.059 A 
ATOM     99  C   UNL     1      21.313   4.308  -2.394  1.00  0.00     0.059 A 
ATOM    100  F   UNL     1      21.023   1.986  -2.546  1.00  0.00    -0.206 F 
ATOM    101  C   UNL     1      20.765   5.572  -2.187  1.00  0.00     0.060 A 
BRANCH 101 102
ATOM    102  S   UNL     1      21.809   7.043  -2.261  1.00  0.00     0.124 S 
ATOM    103  O   UNL     1      21.393   7.635  -3.528  1.00  0.00    -0.237 OA
ATOM    104  O   UNL     1      21.411   7.770  -1.060  1.00  0.00    -0.237 OA
ATOM    105  O   UNL     1      23.164   6.499  -2.238  1.00  0.00    -0.744 OA
ENDBRANCH 101 102
ENDBRANCH  69  94
ENDBRANCH  43  44
ENDBRANCH  35  38
ENDBRANCH  33  34
ENDBRANCH  32  33
ENDBRANCH  31  32
ENDBRANCH   1  31
TORSDOF 21
