REMARK SMILES CCC[C@@H](C(=O)N1CC[C@@](C)(C(=O)NCCCCCCNC(=O)c2ccc(-c3c4nc(c(-c5c(F)cc(S(=O)(=O)[O-])cc5F)c5ccc([nH]5)c(-c5c(F)cc(S(=O)(=O)[O-])cc5F)c5nc(c(-c6c(F)cc(S(=O)(=O)[O-])cc6F)c6ccc3[nH]6)C=C5)C=C4)cc2)C1)c1ccccc1
REMARK SMILES IDX 17 1 16 2 15 3 14 4 12 5 13 6 10 8 7 9 8 10 90 11 9 12 11 13
REMARK SMILES IDX 5 14 6 15 4 16 3 17 2 18 1 19 91 20 92 21 96 22 93 23 95 24
REMARK SMILES IDX 94 25 18 26 19 27 20 28 21 29 22 30 23 32 24 33 25 34 89 35
REMARK SMILES IDX 26 36 88 37 27 38 28 39 29 40 82 41 30 42 87 43 81 44 83 45
REMARK SMILES IDX 31 46 86 47 80 48 79 49 32 51 66 52 45 53 65 54 46 55 49 56
REMARK SMILES IDX 64 57 84 58 47 59 48 60 63 62 85 63 50 64 33 65 34 66 43 67
REMARK SMILES IDX 35 68 36 69 42 70 44 71 37 72 38 73 39 74 40 75 41 76 67 77
REMARK SMILES IDX 68 78 77 79 69 80 70 81 76 82 78 83 71 84 72 85 73 86 74 87
REMARK SMILES IDX 75 88 51 89 52 90 61 91 53 92 54 93 60 94 62 95 55 96 56 97
REMARK SMILES IDX 57 98 58 99 59 100
REMARK H PARENT 14 7 21 31 83 50 49 61
REMARK Flexibility Score: inf
ROOT
ATOM      1  C   UNL     1      -5.320  -2.749   4.598  1.00  0.00     0.002 C 
ENDROOT
BRANCH   1   2
ATOM      2  C   UNL     1      -5.741  -1.639   3.631  1.00  0.00     0.021 C 
BRANCH   2   3
ATOM      3  C   UNL     1      -4.644  -0.670   3.208  1.00  0.00     0.116 C 
BRANCH   3   4
ATOM      4  N   UNL     1      -3.575  -1.323   2.487  1.00  0.00    -0.356 N 
ATOM      5  C   UNL     1      -2.750  -0.880   1.506  1.00  0.00     0.227 C 
ATOM      6  O   UNL     1      -1.920  -1.703   1.106  1.00  0.00    -0.274 OA
ATOM      7  H   UNL     1      -3.417  -2.257   2.757  1.00  0.00     0.163 HD
BRANCH   5   8
ATOM      8  C   UNL     1      -2.889   0.509   0.850  1.00  0.00     0.066 C 
ATOM      9  N   UNL     1      -1.793   0.916  -1.254  1.00  0.00    -0.341 N 
ATOM     10  C   UNL     1      -3.041   0.245  -1.561  1.00  0.00     0.120 C 
ATOM     11  C   UNL     1      -1.547   0.860   0.162  1.00  0.00     0.136 C 
ATOM     12  C   UNL     1      -3.896   0.439  -0.318  1.00  0.00     0.040 C 
ATOM     13  C   UNL     1      -3.231   1.658   1.811  1.00  0.00     0.024 C 
BRANCH   9  14
ATOM     14  C   UNL     1      -1.067   1.581  -2.214  1.00  0.00     0.230 C 
ATOM     15  O   UNL     1      -1.628   1.849  -3.286  1.00  0.00    -0.274 OA
BRANCH  14  16
ATOM     16  C   UNL     1       0.479   1.825  -2.057  1.00  0.00     0.108 C 
BRANCH  16  17
ATOM     17  C   UNL     1       1.147   2.330  -0.750  1.00  0.00     0.018 C 
BRANCH  17  18
ATOM     18  C   UNL     1       1.526   1.368   0.393  1.00  0.00    -0.002 C 
ATOM     19  C   UNL     1       1.853  -0.068   0.021  1.00  0.00     0.004 C 
ENDBRANCH  17  18
ENDBRANCH  16  17
BRANCH  16  20
ATOM     20  C   UNL     1       0.939   2.818  -3.152  1.00  0.00    -0.036 A 
ATOM     21  C   UNL     1       1.821   2.404  -4.161  1.00  0.00     0.004 A 
ATOM     22  C   UNL     1       0.512   4.159  -3.134  1.00  0.00     0.004 A 
ATOM     23  C   UNL     1       2.274   3.313  -5.120  1.00  0.00     0.000 A 
ATOM     24  C   UNL     1       0.968   5.064  -4.093  1.00  0.00     0.000 A 
ATOM     25  C   UNL     1       1.852   4.642  -5.083  1.00  0.00     0.000 A 
ENDBRANCH  16  20
ENDBRANCH  14  16
ENDBRANCH   9  14
ENDBRANCH   5   8
ENDBRANCH   3   4
ENDBRANCH   2   3
ENDBRANCH   1   2
BRANCH   1  26
ATOM     26  C   UNL     1      -4.677  -2.292   5.909  1.00  0.00     0.002 C 
BRANCH  26  27
ATOM     27  C   UNL     1      -5.463  -1.252   6.709  1.00  0.00     0.021 C 
BRANCH  27  28
ATOM     28  C   UNL     1      -6.920  -1.603   6.988  1.00  0.00     0.116 C 
BRANCH  28  29
ATOM     29  N   UNL     1      -7.068  -2.825   7.759  1.00  0.00    -0.352 N 
ATOM     30  C   UNL     1      -7.818  -3.051   8.886  1.00  0.00     0.251 C 
ATOM     31  H   UNL     1      -6.559  -3.599   7.427  1.00  0.00     0.163 HD
ATOM     32  O   UNL     1      -7.706  -4.116   9.492  1.00  0.00    -0.269 OA
BRANCH  30  33
ATOM     33  C   UNL     1      -8.735  -2.005   9.387  1.00  0.00     0.039 A 
ATOM     34  C   UNL     1      -8.739  -1.710  10.752  1.00  0.00     0.014 A 
ATOM     35  C   UNL     1      -9.582  -1.310   8.518  1.00  0.00     0.014 A 
ATOM     36  C   UNL     1      -9.547  -0.677  11.236  1.00  0.00     0.010 A 
ATOM     37  C   UNL     1     -10.328  -0.232   8.989  1.00  0.00     0.010 A 
ATOM     38  C   UNL     1     -10.321   0.095  10.353  1.00  0.00    -0.014 A 
BRANCH  38  39
ATOM     39  C   UNL     1     -11.123   1.248  10.841  1.00  0.00     0.031 A 
ATOM     40  C   UNL     1     -12.623   1.240  10.707  1.00  0.00     0.074 A 
ATOM     41  C   UNL     1     -10.496   2.327  11.351  1.00  0.00     0.049 A 
ATOM     42  N   UNL     1     -13.484   2.174  11.018  1.00  0.00    -0.248 NA
ATOM     43  C   UNL     1     -13.233   0.035  10.121  1.00  0.00     0.031 C 
ATOM     44  C   UNL     1      -9.045   2.475  11.488  1.00  0.00     0.029 A 
ATOM     45  N   UNL     1     -10.995   3.509  11.839  1.00  0.00    -0.354 N 
ATOM     46  C   UNL     1     -14.731   1.679  10.655  1.00  0.00     0.074 A 
ATOM     47  C   UNL     1     -14.509   0.383  10.052  1.00  0.00     0.031 C 
ATOM     48  C   UNL     1      -8.774   3.668  12.041  1.00  0.00     0.029 A 
ATOM     49  C   UNL     1     -10.024   4.389  12.259  1.00  0.00     0.049 A 
ATOM     50  H   UNL     1     -11.958   3.709  11.884  1.00  0.00     0.167 HD
ATOM     51  C   UNL     1     -15.950   2.242  10.829  1.00  0.00     0.037 A 
ATOM     52  C   UNL     1     -10.127   5.639  12.751  1.00  0.00     0.037 A 
ATOM     53  C   UNL     1     -16.163   3.523  11.453  1.00  0.00     0.049 A 
ATOM     54  C   UNL     1     -11.492   6.246  12.932  1.00  0.00     0.074 A 
ATOM     55  C   UNL     1     -17.363   4.152  11.735  1.00  0.00     0.029 A 
ATOM     56  N   UNL     1     -15.156   4.375  11.884  1.00  0.00    -0.354 N 
ATOM     57  N   UNL     1     -12.666   5.731  12.651  1.00  0.00    -0.248 NA
ATOM     58  C   UNL     1     -11.551   7.598  13.503  1.00  0.00     0.031 C 
ATOM     59  C   UNL     1     -17.081   5.407  12.283  1.00  0.00     0.029 A 
ATOM     60  C   UNL     1     -15.707   5.535  12.403  1.00  0.00     0.049 A 
ATOM     61  H   UNL     1     -14.192   4.183  11.829  1.00  0.00     0.167 HD
ATOM     62  C   UNL     1     -13.602   6.684  13.039  1.00  0.00     0.074 A 
ATOM     63  C   UNL     1     -12.859   7.800  13.585  1.00  0.00     0.031 C 
ATOM     64  C   UNL     1     -14.955   6.637  12.951  1.00  0.00     0.037 A 
BRANCH  51  65
ATOM     65  C   UNL     1     -17.153   1.482  10.339  1.00  0.00     0.058 A 
ATOM     66  C   UNL     1     -17.584   0.297  10.958  1.00  0.00     0.135 A 
ATOM     67  C   UNL     1     -17.915   1.970   9.264  1.00  0.00     0.135 A 
ATOM     68  F   UNL     1     -16.888  -0.224  11.980  1.00  0.00    -0.206 F 
ATOM     69  C   UNL     1     -18.709  -0.390  10.513  1.00  0.00     0.059 A 
ATOM     70  C   UNL     1     -19.061   1.317   8.822  1.00  0.00     0.059 A 
ATOM     71  F   UNL     1     -17.549   3.098   8.633  1.00  0.00    -0.206 F 
ATOM     72  C   UNL     1     -19.443   0.130   9.445  1.00  0.00     0.060 A 
BRANCH  72  73
ATOM     73  S   UNL     1     -20.907  -0.768   8.889  1.00  0.00     0.124 S 
ATOM     74  O   UNL     1     -20.307  -1.939   8.256  1.00  0.00    -0.237 OA
ATOM     75  O   UNL     1     -21.613  -1.018  10.142  1.00  0.00    -0.237 OA
ATOM     76  O   UNL     1     -21.559   0.170   7.981  1.00  0.00    -0.744 OA
ENDBRANCH  72  73
ENDBRANCH  51  65
BRANCH  52  77
ATOM     77  C   UNL     1      -8.899   6.398  13.117  1.00  0.00     0.058 A 
ATOM     78  C   UNL     1      -8.599   6.693  14.455  1.00  0.00     0.135 A 
ATOM     79  C   UNL     1      -7.997   6.838  12.134  1.00  0.00     0.135 A 
ATOM     80  F   UNL     1      -9.432   6.301  15.431  1.00  0.00    -0.206 F 
ATOM     81  C   UNL     1      -7.461   7.413  14.806  1.00  0.00     0.059 A 
ATOM     82  C   UNL     1      -6.838   7.533  12.463  1.00  0.00     0.059 A 
ATOM     83  F   UNL     1      -8.227   6.567  10.840  1.00  0.00    -0.206 F 
ATOM     84  C   UNL     1      -6.584   7.826  13.802  1.00  0.00     0.060 A 
BRANCH  84  85
ATOM     85  S   UNL     1      -5.088   8.722  14.272  1.00  0.00     0.124 S 
ATOM     86  O   UNL     1      -5.632  10.015  14.668  1.00  0.00    -0.237 OA
ATOM     87  O   UNL     1      -4.562   7.891  15.351  1.00  0.00    -0.237 OA
ATOM     88  O   UNL     1      -4.296   8.717  13.045  1.00  0.00    -0.744 OA
ENDBRANCH  84  85
ENDBRANCH  52  77
BRANCH  64  89
ATOM     89  C   UNL     1     -15.728   7.809  13.493  1.00  0.00     0.058 A 
ATOM     90  C   UNL     1     -15.739   9.055  12.846  1.00  0.00     0.135 A 
ATOM     91  C   UNL     1     -16.514   7.665  14.649  1.00  0.00     0.135 A 
ATOM     92  F   UNL     1     -15.000   9.249  11.742  1.00  0.00    -0.206 F 
ATOM     93  C   UNL     1     -16.482  10.123  13.338  1.00  0.00     0.059 A 
ATOM     94  C   UNL     1     -17.290   8.710  15.140  1.00  0.00     0.059 A 
ATOM     95  F   UNL     1     -16.549   6.493  15.301  1.00  0.00    -0.206 F 
ATOM     96  C   UNL     1     -17.258   9.940  14.485  1.00  0.00     0.060 A 
BRANCH  96  97
ATOM     97  S   UNL     1     -18.244  11.324  15.092  1.00  0.00     0.124 S 
ATOM     98  O   UNL     1     -17.215  12.201  15.640  1.00  0.00    -0.237 OA
ATOM     99  O   UNL     1     -18.899  11.797  13.876  1.00  0.00    -0.237 OA
ATOM    100  O   UNL     1     -19.130  10.706  16.074  1.00  0.00    -0.744 OA
ENDBRANCH  96  97
ENDBRANCH  64  89
ENDBRANCH  38  39
ENDBRANCH  30  33
ENDBRANCH  28  29
ENDBRANCH  27  28
ENDBRANCH  26  27
ENDBRANCH   1  26
TORSDOF 21
