REMARK SMILES Cc1ccccc1-c1c(Cl)ccc2c1C=C(C(=O)NCCCCCCNC(=O)c1ccc(-c3c4nc(c(-c5c(F)cc(S(=O)(=O)[O-])cc5F)c5ccc([nH]5)c(-c5c(F)cc(S(=O)(=O)[O-])cc5F)c5nc(c(-c6c(F)cc(S(=O)(=O)[O-])cc6F)c6ccc3[nH]6)C=C5)C=C4)cc1)[C@@H](C(F)(F)F)O2
REMARK SMILES IDX 23 1 22 2 21 3 20 4 19 5 17 6 18 7 16 9 8 10 9 11 14 12
REMARK SMILES IDX 10 13 11 14 13 15 15 16 12 17 100 18 95 19 7 20 1 21 2 22
REMARK SMILES IDX 3 23 4 24 6 25 5 26 96 27 97 28 98 29 99 30 24 31 25 32
REMARK SMILES IDX 26 33 27 34 28 36 29 37 30 38 94 39 31 40 93 41 32 42 33 43
REMARK SMILES IDX 34 44 87 45 35 46 92 47 86 48 88 49 36 50 91 51 85 52 84 53
REMARK SMILES IDX 37 55 71 56 50 57 70 58 51 59 54 60 69 61 89 62 52 63 53 64
REMARK SMILES IDX 68 66 90 67 55 68 38 69 39 70 48 71 40 72 41 73 47 74 49 75
REMARK SMILES IDX 42 76 43 77 44 78 45 79 46 80 72 81 73 82 82 83 74 84 75 85
REMARK SMILES IDX 81 86 83 87 76 88 77 89 78 90 79 91 80 92 56 93 57 94 66 95
REMARK SMILES IDX 58 96 59 97 65 98 67 99 60 100 61 101 62 102 63 103 64 104
REMARK H PARENT 19 8 26 35 88 54 54 65
REMARK Flexibility Score: inf
ROOT
ATOM      1  C   UNL     1       7.293  -1.818   0.587  1.00  0.00     0.002 C 
ENDROOT
BRANCH   1   2
ATOM      2  C   UNL     1       7.489  -1.263  -0.877  1.00  0.00     0.002 C 
BRANCH   2   3
ATOM      3  C   UNL     1       6.330  -1.234  -1.928  1.00  0.00     0.021 C 
BRANCH   3   4
ATOM      4  C   UNL     1       5.197  -0.274  -1.639  1.00  0.00     0.116 C 
BRANCH   4   5
ATOM      5  N   UNL     1       5.652   1.092  -1.568  1.00  0.00    -0.352 N 
ATOM      6  C   UNL     1       5.085   2.248  -1.973  1.00  0.00     0.251 C 
ATOM      7  O   UNL     1       5.742   3.281  -1.840  1.00  0.00    -0.270 OA
ATOM      8  H   UNL     1       6.536   1.202  -1.148  1.00  0.00     0.163 HD
BRANCH   6   9
ATOM      9  C   UNL     1       3.712   2.264  -2.601  1.00  0.00     0.067 C 
ATOM     10  C   UNL     1       1.181   2.419   0.123  1.00  0.00     0.012 A 
ATOM     11  C   UNL     1       0.898   3.403   1.104  1.00  0.00     0.049 A 
ATOM     12  C   UNL     1       2.091   2.781  -0.906  1.00  0.00     0.027 A 
ATOM     13  Cl  UNL     1      -0.095   3.068   2.489  1.00  0.00    -0.084 Cl
ATOM     14  C   UNL     1       1.409   4.704   1.015  1.00  0.00     0.025 A 
ATOM     15  C   UNL     1       2.491   4.130  -1.046  1.00  0.00     0.128 A 
ATOM     16  C   UNL     1       2.712   1.790  -1.826  1.00  0.00     0.026 C 
ATOM     17  C   UNL     1       2.173   5.077  -0.081  1.00  0.00     0.049 A 
ATOM     18  O   UNL     1       3.204   4.612  -2.119  1.00  0.00    -0.475 OA
ATOM     19  C   UNL     1       3.476   3.654  -3.177  1.00  0.00     0.314 C 
BRANCH  10  20
ATOM     20  C   UNL     1       0.426   1.133   0.107  1.00  0.00    -0.013 A 
ATOM     21  C   UNL     1       2.437  -0.394   0.575  1.00  0.00     0.045 C 
ATOM     22  C   UNL     1       0.983  -0.143   0.317  1.00  0.00    -0.043 A 
ATOM     23  C   UNL     1       0.164  -1.290   0.237  1.00  0.00     0.004 A 
ATOM     24  C   UNL     1      -1.202  -1.191  -0.003  1.00  0.00     0.000 A 
ATOM     25  C   UNL     1      -0.965   1.199  -0.145  1.00  0.00     0.009 A 
ATOM     26  C   UNL     1      -1.771   0.059  -0.185  1.00  0.00     0.001 A 
ENDBRANCH  10  20
BRANCH  19  27
ATOM     27  C   UNL     1       2.393   3.700  -4.263  1.00  0.00     0.429 C 
ATOM     28  F   UNL     1       2.328   4.929  -4.835  1.00  0.00    -0.167 F 
ATOM     29  F   UNL     1       2.652   2.821  -5.261  1.00  0.00    -0.167 F 
ATOM     30  F   UNL     1       1.156   3.419  -3.792  1.00  0.00    -0.167 F 
ENDBRANCH  19  27
ENDBRANCH   6   9
ENDBRANCH   4   5
ENDBRANCH   3   4
ENDBRANCH   2   3
ENDBRANCH   1   2
BRANCH   1  31
ATOM     31  C   UNL     1       7.035  -3.350   1.102  1.00  0.00     0.021 C 
BRANCH  31  32
ATOM     32  C   UNL     1       8.261  -4.390   1.198  1.00  0.00     0.116 C 
BRANCH  32  33
ATOM     33  N   UNL     1       8.184  -5.969   1.533  1.00  0.00    -0.352 N 
ATOM     34  C   UNL     1       8.579  -7.300   1.062  1.00  0.00     0.251 C 
ATOM     35  H   UNL     1       7.681  -6.079   2.372  1.00  0.00     0.163 HD
ATOM     36  O   UNL     1       9.153  -7.958   1.953  1.00  0.00    -0.269 OA
BRANCH  34  37
ATOM     37  C   UNL     1       8.445  -8.132  -0.292  1.00  0.00     0.039 A 
ATOM     38  C   UNL     1       9.536  -8.895  -0.820  1.00  0.00     0.014 A 
ATOM     39  C   UNL     1       7.352  -8.143  -1.145  1.00  0.00     0.014 A 
ATOM     40  C   UNL     1       9.725  -9.032  -2.259  1.00  0.00     0.010 A 
ATOM     41  C   UNL     1       7.537  -8.253  -2.562  1.00  0.00     0.010 A 
ATOM     42  C   UNL     1       8.794  -8.465  -3.146  1.00  0.00    -0.014 A 
BRANCH  42  43
ATOM     43  C   UNL     1       9.120  -7.861  -4.514  1.00  0.00     0.031 A 
ATOM     44  C   UNL     1       8.648  -8.456  -5.762  1.00  0.00     0.074 A 
ATOM     45  C   UNL     1       9.672  -6.638  -4.792  1.00  0.00     0.049 A 
ATOM     46  N   UNL     1       9.409  -8.720  -6.777  1.00  0.00    -0.248 NA
ATOM     47  C   UNL     1       7.224  -8.638  -6.003  1.00  0.00     0.031 C 
ATOM     48  C   UNL     1       9.871  -5.855  -6.027  1.00  0.00     0.029 A 
ATOM     49  N   UNL     1      10.129  -5.705  -3.896  1.00  0.00    -0.354 N 
ATOM     50  C   UNL     1       8.555  -8.791  -7.857  1.00  0.00     0.074 A 
ATOM     51  C   UNL     1       7.225  -8.954  -7.300  1.00  0.00     0.031 C 
ATOM     52  C   UNL     1      10.729  -4.832  -5.794  1.00  0.00     0.029 A 
ATOM     53  C   UNL     1      11.148  -4.911  -4.414  1.00  0.00     0.049 A 
ATOM     54  H   UNL     1       9.774  -5.608  -2.982  1.00  0.00     0.167 HD
ATOM     55  C   UNL     1       8.906  -8.355  -9.105  1.00  0.00     0.037 A 
ATOM     56  C   UNL     1      12.394  -5.012  -3.848  1.00  0.00     0.037 A 
ATOM     57  C   UNL     1      10.125  -7.531  -9.097  1.00  0.00     0.049 A 
ATOM     58  C   UNL     1      13.281  -5.830  -4.766  1.00  0.00     0.074 A 
ATOM     59  C   UNL     1      10.397  -6.194  -9.363  1.00  0.00     0.029 A 
ATOM     60  N   UNL     1      11.264  -8.000  -8.469  1.00  0.00    -0.354 N 
ATOM     61  N   UNL     1      12.963  -6.044  -6.012  1.00  0.00    -0.248 NA
ATOM     62  C   UNL     1      14.528  -6.512  -4.416  1.00  0.00     0.031 C 
ATOM     63  C   UNL     1      11.727  -5.899  -8.945  1.00  0.00     0.029 A 
ATOM     64  C   UNL     1      12.271  -7.054  -8.422  1.00  0.00     0.049 A 
ATOM     65  H   UNL     1      11.349  -8.906  -8.095  1.00  0.00     0.167 HD
ATOM     66  C   UNL     1      13.803  -6.950  -6.584  1.00  0.00     0.074 A 
ATOM     67  C   UNL     1      14.810  -7.172  -5.560  1.00  0.00     0.031 C 
ATOM     68  C   UNL     1      13.551  -7.438  -7.838  1.00  0.00     0.037 A 
BRANCH  55  69
ATOM     69  C   UNL     1       7.950  -8.461 -10.280  1.00  0.00     0.058 A 
ATOM     70  C   UNL     1       8.005  -7.594 -11.388  1.00  0.00     0.135 A 
ATOM     71  C   UNL     1       6.981  -9.488 -10.384  1.00  0.00     0.135 A 
ATOM     72  F   UNL     1       8.938  -6.643 -11.498  1.00  0.00    -0.206 F 
ATOM     73  C   UNL     1       7.114  -7.674 -12.460  1.00  0.00     0.059 A 
ATOM     74  C   UNL     1       6.045  -9.559 -11.421  1.00  0.00     0.059 A 
ATOM     75  F   UNL     1       6.930 -10.487  -9.487  1.00  0.00    -0.206 F 
ATOM     76  C   UNL     1       6.125  -8.647 -12.461  1.00  0.00     0.060 A 
BRANCH  76  77
ATOM     77  S   UNL     1       4.997  -8.731 -13.864  1.00  0.00     0.124 S 
ATOM     78  O   UNL     1       4.476  -7.369 -13.926  1.00  0.00    -0.237 OA
ATOM     79  O   UNL     1       5.894  -9.117 -14.948  1.00  0.00    -0.237 OA
ATOM     80  O   UNL     1       4.027  -9.747 -13.462  1.00  0.00    -0.744 OA
ENDBRANCH  76  77
ENDBRANCH  55  69
BRANCH  56  81
ATOM     81  C   UNL     1      12.357  -5.004  -2.296  1.00  0.00     0.058 A 
ATOM     82  C   UNL     1      11.799  -3.812  -1.777  1.00  0.00     0.135 A 
ATOM     83  C   UNL     1      11.798  -6.141  -1.741  1.00  0.00     0.135 A 
ATOM     84  F   UNL     1      12.505  -2.675  -1.827  1.00  0.00    -0.206 F 
ATOM     85  C   UNL     1      10.446  -3.731  -1.412  1.00  0.00     0.059 A 
ATOM     86  C   UNL     1      10.445  -6.062  -1.382  1.00  0.00     0.059 A 
ATOM     87  F   UNL     1      12.317  -7.351  -2.010  1.00  0.00    -0.206 F 
ATOM     88  C   UNL     1       9.706  -4.899  -1.413  1.00  0.00     0.060 A 
BRANCH  88  89
ATOM     89  S   UNL     1       7.822  -4.914  -1.878  1.00  0.00     0.124 S 
ATOM     90  O   UNL     1       7.553  -3.519  -1.899  1.00  0.00    -0.237 OA
ATOM     91  O   UNL     1       7.729  -5.480  -3.211  1.00  0.00    -0.237 OA
ATOM     92  O   UNL     1       7.086  -5.618  -0.846  1.00  0.00    -0.744 OA
ENDBRANCH  88  89
ENDBRANCH  56  81
BRANCH  68  93
ATOM     93  C   UNL     1      14.450  -8.342  -8.645  1.00  0.00     0.058 A 
ATOM     94  C   UNL     1      15.848  -8.253  -8.608  1.00  0.00     0.135 A 
ATOM     95  C   UNL     1      13.926  -9.231  -9.620  1.00  0.00     0.135 A 
ATOM     96  F   UNL     1      16.463  -7.357  -7.821  1.00  0.00    -0.206 F 
ATOM     97  C   UNL     1      16.665  -9.053  -9.412  1.00  0.00     0.059 A 
ATOM     98  C   UNL     1      14.716 -10.001 -10.459  1.00  0.00     0.059 A 
ATOM     99  F   UNL     1      12.613  -9.409  -9.806  1.00  0.00    -0.206 F 
ATOM    100  C   UNL     1      16.088  -9.934 -10.325  1.00  0.00     0.060 A 
BRANCH 100 101
ATOM    101  S   UNL     1      17.132 -10.988 -11.339  1.00  0.00     0.124 S 
ATOM    102  O   UNL     1      18.148 -10.056 -11.815  1.00  0.00    -0.237 OA
ATOM    103  O   UNL     1      17.583 -11.974 -10.362  1.00  0.00    -0.237 OA
ATOM    104  O   UNL     1      16.223 -11.493 -12.364  1.00  0.00    -0.744 OA
ENDBRANCH 100 101
ENDBRANCH  68  93
ENDBRANCH  42  43
ENDBRANCH  34  37
ENDBRANCH  32  33
ENDBRANCH  31  32
ENDBRANCH   1  31
TORSDOF 18
