REMARK SMILES Cc1ccc(NC(=O)C[C@H]2SC[C@H](C(=O)NCCCCCCNC(=O)c3ccc(-c4c5nc(c(-c6c(F)cc(S(=O)(=O)[O-])cc6F)c6ccc([nH]6)c(-c6c(F)cc(S(=O)(=O)[O-])cc6F)c6nc(c(-c7c(F)cc(S(=O)(=O)[O-])cc7F)c7ccc4[nH]7)C=C6)C=C5)cc3)NC2=O)cc1
REMARK SMILES IDX 19 1 18 2 17 3 16 4 14 5 15 6 13 8 10 9 11 10 93 11 12 12
REMARK SMILES IDX 92 13 94 14 9 16 7 17 6 18 8 20 5 21 1 22 2 23 3 24 96 25
REMARK SMILES IDX 4 26 95 27 20 28 21 29 22 30 23 31 24 32 25 34 26 35 27 36
REMARK SMILES IDX 91 37 28 38 90 39 29 40 30 41 31 42 84 43 32 44 89 45 83 46
REMARK SMILES IDX 85 47 33 48 88 49 82 50 81 51 34 53 68 54 47 55 67 56 48 57
REMARK SMILES IDX 51 58 66 59 86 60 49 61 50 62 65 64 87 65 52 66 35 67 36 68
REMARK SMILES IDX 45 69 37 70 38 71 44 72 46 73 39 74 40 75 41 76 42 77 43 78
REMARK SMILES IDX 69 79 70 80 79 81 71 82 72 83 78 84 80 85 73 86 74 87 75 88
REMARK SMILES IDX 76 89 77 90 53 91 54 92 63 93 55 94 56 95 62 96 64 97 57 98
REMARK SMILES IDX 58 99 59 100 60 101 61 102
REMARK H PARENT 16 7 92 15 6 19 23 33 85 52 51 63
REMARK Flexibility Score: inf
ROOT
ATOM      1  C   UNL     1      -8.870  -3.470  -0.990  1.00  0.00     0.002 C 
ENDROOT
BRANCH   1   2
ATOM      2  C   UNL     1      -7.400  -3.027  -0.920  1.00  0.00     0.021 C 
BRANCH   2   3
ATOM      3  C   UNL     1      -6.380  -4.081  -1.360  1.00  0.00     0.116 C 
BRANCH   3   4
ATOM      4  N   UNL     1      -6.534  -4.414  -2.764  1.00  0.00    -0.354 N 
ATOM      5  C   UNL     1      -5.712  -4.216  -3.830  1.00  0.00     0.243 C 
ATOM      6  O   UNL     1      -6.091  -4.633  -4.929  1.00  0.00    -0.273 OA
ATOM      7  H   UNL     1      -7.383  -4.862  -2.984  1.00  0.00     0.163 HD
BRANCH   5   8
ATOM      8  C   UNL     1      -4.327  -3.566  -3.687  1.00  0.00     0.181 C 
ATOM      9  C   UNL     1      -2.052  -2.714  -1.875  1.00  0.00     0.145 C 
ATOM     10  S   UNL     1      -2.713  -1.420  -3.014  1.00  0.00    -0.145 SA
ATOM     11  C   UNL     1      -2.180  -4.097  -2.528  1.00  0.00     0.234 C 
ATOM     12  C   UNL     1      -4.387  -2.113  -3.224  1.00  0.00     0.105 C 
ATOM     13  N   UNL     1      -3.436  -4.461  -2.951  1.00  0.00    -0.343 N 
ATOM     14  O   UNL     1      -1.286  -4.935  -2.601  1.00  0.00    -0.274 OA
ATOM     15  H   UNL     1      -3.752  -5.372  -2.748  1.00  0.00     0.164 HD
BRANCH   9  16
ATOM     16  C   UNL     1      -0.681  -2.277  -1.344  1.00  0.00     0.124 C 
BRANCH  16  17
ATOM     17  C   UNL     1       0.359  -3.335  -1.040  1.00  0.00     0.226 C 
ATOM     18  N   UNL     1       0.139  -4.398  -0.223  1.00  0.00    -0.326 N 
ATOM     19  H   UNL     1       0.886  -5.040  -0.210  1.00  0.00     0.169 HD
ATOM     20  O   UNL     1       1.481  -3.246  -1.556  1.00  0.00    -0.275 OA
BRANCH  18  21
ATOM     21  C   UNL     1      -0.925  -4.772   0.603  1.00  0.00     0.041 A 
ATOM     22  C   UNL     1      -4.208  -6.232   2.992  1.00  0.00     0.044 C 
ATOM     23  C   UNL     1      -3.046  -5.732   2.186  1.00  0.00    -0.051 A 
ATOM     24  C   UNL     1      -2.839  -4.357   2.023  1.00  0.00     0.005 A 
ATOM     25  C   UNL     1      -2.167  -6.625   1.571  1.00  0.00     0.005 A 
ATOM     26  C   UNL     1      -1.780  -3.879   1.242  1.00  0.00     0.026 A 
ATOM     27  C   UNL     1      -1.105  -6.146   0.802  1.00  0.00     0.026 A 
ENDBRANCH  18  21
ENDBRANCH  16  17
ENDBRANCH   9  16
ENDBRANCH   5   8
ENDBRANCH   3   4
ENDBRANCH   2   3
ENDBRANCH   1   2
BRANCH   1  28
ATOM     28  C   UNL     1      -9.236  -4.761  -0.244  1.00  0.00     0.002 C 
BRANCH  28  29
ATOM     29  C   UNL     1      -8.793  -4.843   1.218  1.00  0.00     0.021 C 
BRANCH  29  30
ATOM     30  C   UNL     1      -9.437  -3.787   2.112  1.00  0.00     0.116 C 
BRANCH  30  31
ATOM     31  N   UNL     1     -10.249  -4.352   3.178  1.00  0.00    -0.352 N 
ATOM     32  C   UNL     1     -10.825  -3.686   4.250  1.00  0.00     0.251 C 
ATOM     33  H   UNL     1     -10.409  -5.322   3.133  1.00  0.00     0.163 HD
ATOM     34  O   UNL     1     -11.330  -4.269   5.185  1.00  0.00    -0.269 OA
BRANCH  32  35
ATOM     35  C   UNL     1     -10.895  -2.211   4.150  1.00  0.00     0.039 A 
ATOM     36  C   UNL     1     -12.153  -1.640   3.932  1.00  0.00     0.014 A 
ATOM     37  C   UNL     1      -9.729  -1.464   4.010  1.00  0.00     0.014 A 
ATOM     38  C   UNL     1     -12.237  -0.352   3.406  1.00  0.00     0.010 A 
ATOM     39  C   UNL     1      -9.811  -0.216   3.419  1.00  0.00     0.010 A 
ATOM     40  C   UNL     1     -11.060   0.323   3.077  1.00  0.00    -0.014 A 
BRANCH  40  41
ATOM     41  C   UNL     1     -11.034   1.543   2.277  1.00  0.00     0.031 A 
ATOM     42  C   UNL     1     -10.738   2.856   2.897  1.00  0.00     0.074 A 
ATOM     43  C   UNL     1     -11.239   1.490   0.942  1.00  0.00     0.049 A 
ATOM     44  N   UNL     1     -11.161   3.984   2.428  1.00  0.00    -0.248 NA
ATOM     45  C   UNL     1      -9.956   2.999   4.122  1.00  0.00     0.031 C 
ATOM     46  C   UNL     1     -10.950   2.542  -0.030  1.00  0.00     0.029 A 
ATOM     47  N   UNL     1     -11.908   0.532   0.198  1.00  0.00    -0.354 N 
ATOM     48  C   UNL     1     -10.488   4.984   3.089  1.00  0.00     0.074 A 
ATOM     49  C   UNL     1      -9.806   4.327   4.182  1.00  0.00     0.031 C 
ATOM     50  C   UNL     1     -11.624   2.290  -1.163  1.00  0.00     0.029 A 
ATOM     51  C   UNL     1     -12.487   1.148  -0.916  1.00  0.00     0.049 A 
ATOM     52  H   UNL     1     -11.966  -0.426   0.417  1.00  0.00     0.167 HD
ATOM     53  C   UNL     1     -10.442   6.243   2.570  1.00  0.00     0.037 A 
ATOM     54  C   UNL     1     -13.836   1.138  -1.134  1.00  0.00     0.037 A 
ATOM     55  C   UNL     1     -11.172   6.347   1.313  1.00  0.00     0.049 A 
ATOM     56  C   UNL     1     -14.470   2.513  -1.151  1.00  0.00     0.074 A 
ATOM     57  C   UNL     1     -10.760   6.278  -0.008  1.00  0.00     0.029 A 
ATOM     58  N   UNL     1     -12.558   6.239   1.297  1.00  0.00    -0.354 N 
ATOM     59  N   UNL     1     -13.890   3.590  -0.701  1.00  0.00    -0.248 NA
ATOM     60  C   UNL     1     -15.819   2.779  -1.647  1.00  0.00     0.031 C 
ATOM     61  C   UNL     1     -11.901   6.092  -0.821  1.00  0.00     0.029 A 
ATOM     62  C   UNL     1     -13.010   6.050   0.004  1.00  0.00     0.049 A 
ATOM     63  H   UNL     1     -13.135   6.290   2.093  1.00  0.00     0.167 HD
ATOM     64  C   UNL     1     -14.758   4.650  -0.775  1.00  0.00     0.074 A 
ATOM     65  C   UNL     1     -15.939   4.098  -1.411  1.00  0.00     0.031 C 
ATOM     66  C   UNL     1     -14.426   5.884  -0.288  1.00  0.00     0.037 A 
BRANCH  53  67
ATOM     67  C   UNL     1      -9.448   7.263   3.067  1.00  0.00     0.058 A 
ATOM     68  C   UNL     1      -8.690   8.047   2.172  1.00  0.00     0.135 A 
ATOM     69  C   UNL     1      -9.159   7.462   4.432  1.00  0.00     0.135 A 
ATOM     70  F   UNL     1      -8.898   8.007   0.851  1.00  0.00    -0.206 F 
ATOM     71  C   UNL     1      -7.655   8.882   2.588  1.00  0.00     0.059 A 
ATOM     72  C   UNL     1      -8.098   8.259   4.872  1.00  0.00     0.059 A 
ATOM     73  F   UNL     1      -9.903   6.870   5.381  1.00  0.00    -0.206 F 
ATOM     74  C   UNL     1      -7.341   8.957   3.938  1.00  0.00     0.060 A 
BRANCH  74  75
ATOM     75  S   UNL     1      -5.910   9.937   4.431  1.00  0.00     0.124 S 
ATOM     76  O   UNL     1      -4.876   9.455   3.518  1.00  0.00    -0.237 OA
ATOM     77  O   UNL     1      -6.378  11.297   4.195  1.00  0.00    -0.237 OA
ATOM     78  O   UNL     1      -5.715   9.570   5.831  1.00  0.00    -0.744 OA
ENDBRANCH  74  75
ENDBRANCH  53  67
BRANCH  54  79
ATOM     79  C   UNL     1     -14.504  -0.098  -0.647  1.00  0.00     0.058 A 
ATOM     80  C   UNL     1     -14.214  -1.305  -1.309  1.00  0.00     0.135 A 
ATOM     81  C   UNL     1     -15.040  -0.175   0.646  1.00  0.00     0.135 A 
ATOM     82  F   UNL     1     -13.710  -1.284  -2.554  1.00  0.00    -0.206 F 
ATOM     83  C   UNL     1     -14.299  -2.530  -0.661  1.00  0.00     0.059 A 
ATOM     84  C   UNL     1     -15.139  -1.397   1.315  1.00  0.00     0.059 A 
ATOM     85  F   UNL     1     -15.340   0.943   1.323  1.00  0.00    -0.206 F 
ATOM     86  C   UNL     1     -14.702  -2.557   0.673  1.00  0.00     0.060 A 
BRANCH  86  87
ATOM     87  S   UNL     1     -14.463  -4.097   1.591  1.00  0.00     0.124 S 
ATOM     88  O   UNL     1     -15.359  -5.009   0.888  1.00  0.00    -0.237 OA
ATOM     89  O   UNL     1     -13.034  -4.339   1.395  1.00  0.00    -0.237 OA
ATOM     90  O   UNL     1     -14.857  -3.741   2.948  1.00  0.00    -0.744 OA
ENDBRANCH  86  87
ENDBRANCH  54  79
BRANCH  66  91
ATOM     91  C   UNL     1     -15.348   7.074  -0.137  1.00  0.00     0.058 A 
ATOM     92  C   UNL     1     -16.735   6.982   0.066  1.00  0.00     0.135 A 
ATOM     93  C   UNL     1     -14.812   8.385  -0.063  1.00  0.00     0.135 A 
ATOM     94  F   UNL     1     -17.353   5.795   0.132  1.00  0.00    -0.206 F 
ATOM     95  C   UNL     1     -17.543   8.107   0.258  1.00  0.00     0.059 A 
ATOM     96  C   UNL     1     -15.590   9.514   0.183  1.00  0.00     0.059 A 
ATOM     97  F   UNL     1     -13.499   8.616  -0.214  1.00  0.00    -0.206 F 
ATOM     98  C   UNL     1     -16.962   9.370   0.315  1.00  0.00     0.060 A 
BRANCH  98  99
ATOM     99  S   UNL     1     -17.984  10.822   0.624  1.00  0.00     0.124 S 
ATOM    100  O   UNL     1     -18.301  11.250  -0.735  1.00  0.00    -0.237 OA
ATOM    101  O   UNL     1     -19.102  10.277   1.389  1.00  0.00    -0.237 OA
ATOM    102  O   UNL     1     -17.092  11.701   1.374  1.00  0.00    -0.744 OA
ENDBRANCH  98  99
ENDBRANCH  66  91
ENDBRANCH  40  41
ENDBRANCH  32  35
ENDBRANCH  30  31
ENDBRANCH  29  30
ENDBRANCH  28  29
ENDBRANCH   1  28
TORSDOF 19
