REMARK SMILES O=C(NCCCCCCNC(=O)c1cc(-c2ccc(F)c(C(F)(F)F)c2)cnc1O)c1ccc(-c2c3nc(c(-c4c(F)cc(S(=O)(=O)[O-])cc4F)c4ccc([nH]4)c(-c4c(F)cc(S(=O)(=O)[O-])cc4F)c4nc(c(-c5c(F)cc(S(=O)(=O)[O-])cc5F)c5ccc2[nH]5)C=C4)C=C3)cc1
REMARK SMILES IDX 6 1 5 2 4 3 3 4 1 5 2 6 31 8 32 9 96 10 33 11 95 12 34 13
REMARK SMILES IDX 35 14 36 15 89 16 37 17 94 18 88 19 90 20 38 21 93 22 87 23
REMARK SMILES IDX 86 24 39 26 73 27 52 28 72 29 53 30 56 31 71 32 91 33 54 34
REMARK SMILES IDX 55 35 70 37 92 38 57 39 40 40 41 41 50 42 42 43 43 44 49 45
REMARK SMILES IDX 51 46 44 47 45 48 46 49 47 50 48 51 74 52 75 53 84 54 76 55
REMARK SMILES IDX 77 56 83 57 85 58 78 59 79 60 80 61 81 62 82 63 58 64 59 65
REMARK SMILES IDX 68 66 60 67 61 68 67 69 69 70 62 71 63 72 64 73 65 74 66 75
REMARK SMILES IDX 7 76 8 77 9 78 10 79 11 80 12 82 13 83 14 84 29 85 15 86
REMARK SMILES IDX 28 87 27 88 30 89 16 91 17 92 26 93 18 94 21 95 19 96 20 97
REMARK SMILES IDX 22 98 23 99 24 100 25 101
REMARK H PARENT 3 7 90 25 56 36 10 81 30 90
REMARK Flexibility Score: inf
ROOT
ATOM      1  C   UNL     1       4.336   3.782  -0.564  1.00  0.00     0.002 C 
ENDROOT
BRANCH   1   2
ATOM      2  C   UNL     1       4.818   2.418  -1.064  1.00  0.00     0.021 C 
BRANCH   2   3
ATOM      3  C   UNL     1       4.541   1.247  -0.128  1.00  0.00     0.116 C 
BRANCH   3   4
ATOM      4  N   UNL     1       3.122   1.043   0.092  1.00  0.00    -0.352 N 
ATOM      5  O   UNL     1       1.148  -0.025   0.019  1.00  0.00    -0.269 OA
ATOM      6  C   UNL     1       2.373  -0.100  -0.032  1.00  0.00     0.251 C 
ATOM      7  H   UNL     1       2.622   1.843   0.373  1.00  0.00     0.163 HD
BRANCH   6   8
ATOM      8  C   UNL     1       3.026  -1.415  -0.234  1.00  0.00     0.039 A 
ATOM      9  C   UNL     1       2.432  -2.329  -1.110  1.00  0.00     0.014 A 
ATOM     10  C   UNL     1       4.173  -1.779   0.479  1.00  0.00     0.014 A 
ATOM     11  C   UNL     1       2.993  -3.598  -1.280  1.00  0.00     0.010 A 
ATOM     12  C   UNL     1       4.771  -3.018   0.255  1.00  0.00     0.010 A 
ATOM     13  C   UNL     1       4.169  -3.952  -0.602  1.00  0.00    -0.014 A 
BRANCH  13  14
ATOM     14  C   UNL     1       4.730  -5.324  -0.703  1.00  0.00     0.031 A 
ATOM     15  C   UNL     1       4.729  -6.215   0.512  1.00  0.00     0.074 A 
ATOM     16  C   UNL     1       5.248  -5.766  -1.865  1.00  0.00     0.049 A 
ATOM     17  N   UNL     1       5.230  -7.415   0.659  1.00  0.00    -0.248 NA
ATOM     18  C   UNL     1       4.100  -5.676   1.731  1.00  0.00     0.031 C 
ATOM     19  C   UNL     1       5.317  -4.996  -3.108  1.00  0.00     0.029 A 
ATOM     20  N   UNL     1       5.814  -6.973  -2.191  1.00  0.00    -0.354 N 
ATOM     21  C   UNL     1       4.988  -7.766   1.983  1.00  0.00     0.074 A 
ATOM     22  C   UNL     1       4.347  -6.634   2.612  1.00  0.00     0.031 C 
ATOM     23  C   UNL     1       5.866  -5.760  -4.068  1.00  0.00     0.029 A 
ATOM     24  C   UNL     1       6.221  -7.058  -3.502  1.00  0.00     0.049 A 
ATOM     25  H   UNL     1       5.920  -7.709  -1.546  1.00  0.00     0.167 HD
ATOM     26  C   UNL     1       5.248  -8.937   2.610  1.00  0.00     0.037 A 
ATOM     27  C   UNL     1       6.815  -8.068  -4.168  1.00  0.00     0.037 A 
ATOM     28  C   UNL     1       5.847 -10.078   1.970  1.00  0.00     0.049 A 
ATOM     29  C   UNL     1       7.113  -9.353  -3.444  1.00  0.00     0.074 A 
ATOM     30  C   UNL     1       6.120 -11.322   2.511  1.00  0.00     0.029 A 
ATOM     31  N   UNL     1       6.254 -10.118   0.645  1.00  0.00    -0.354 N 
ATOM     32  N   UNL     1       6.864  -9.673  -2.196  1.00  0.00    -0.248 NA
ATOM     33  C   UNL     1       7.776 -10.415  -4.215  1.00  0.00     0.031 C 
ATOM     34  C   UNL     1       6.721 -12.106   1.521  1.00  0.00     0.029 A 
ATOM     35  C   UNL     1       6.787 -11.363   0.353  1.00  0.00     0.049 A 
ATOM     36  H   UNL     1       6.176  -9.373   0.007  1.00  0.00     0.167 HD
ATOM     37  C   UNL     1       7.319 -10.978  -2.039  1.00  0.00     0.074 A 
ATOM     38  C   UNL     1       7.848 -11.393  -3.322  1.00  0.00     0.031 C 
ATOM     39  C   UNL     1       7.302 -11.760  -0.932  1.00  0.00     0.037 A 
BRANCH  26  40
ATOM     40  C   UNL     1       4.866  -9.054   4.059  1.00  0.00     0.058 A 
ATOM     41  C   UNL     1       3.523  -9.154   4.456  1.00  0.00     0.135 A 
ATOM     42  C   UNL     1       5.851  -9.117   5.058  1.00  0.00     0.135 A 
ATOM     43  F   UNL     1       2.541  -9.079   3.543  1.00  0.00    -0.206 F 
ATOM     44  C   UNL     1       3.168  -9.293   5.793  1.00  0.00     0.059 A 
ATOM     45  C   UNL     1       5.520  -9.283   6.400  1.00  0.00     0.059 A 
ATOM     46  F   UNL     1       7.150  -9.023   4.733  1.00  0.00    -0.206 F 
ATOM     47  C   UNL     1       4.174  -9.360   6.758  1.00  0.00     0.060 A 
BRANCH  47  48
ATOM     48  S   UNL     1       3.694  -9.562   8.486  1.00  0.00     0.124 S 
ATOM     49  O   UNL     1       3.129  -8.250   8.787  1.00  0.00    -0.237 OA
ATOM     50  O   UNL     1       2.739 -10.663   8.417  1.00  0.00    -0.237 OA
ATOM     51  O   UNL     1       4.954  -9.869   9.156  1.00  0.00    -0.744 OA
ENDBRANCH  47  48
ENDBRANCH  26  40
BRANCH  27  52
ATOM     52  C   UNL     1       7.143  -7.915  -5.611  1.00  0.00     0.058 A 
ATOM     53  C   UNL     1       6.424  -8.618  -6.589  1.00  0.00     0.135 A 
ATOM     54  C   UNL     1       8.167  -7.058  -6.042  1.00  0.00     0.135 A 
ATOM     55  F   UNL     1       5.442  -9.456  -6.225  1.00  0.00    -0.206 F 
ATOM     56  C   UNL     1       6.714  -8.486  -7.943  1.00  0.00     0.059 A 
ATOM     57  C   UNL     1       8.461  -6.892  -7.392  1.00  0.00     0.059 A 
ATOM     58  F   UNL     1       8.877  -6.354  -5.146  1.00  0.00    -0.206 F 
ATOM     59  C   UNL     1       7.734  -7.617  -8.335  1.00  0.00     0.060 A 
BRANCH  59  60
ATOM     60  S   UNL     1       8.066  -7.415 -10.099  1.00  0.00     0.124 S 
ATOM     61  O   UNL     1       8.693  -8.690 -10.427  1.00  0.00    -0.237 OA
ATOM     62  O   UNL     1       6.727  -7.203 -10.640  1.00  0.00    -0.237 OA
ATOM     63  O   UNL     1       8.944  -6.250 -10.144  1.00  0.00    -0.744 OA
ENDBRANCH  59  60
ENDBRANCH  27  52
BRANCH  39  64
ATOM     64  C   UNL     1       7.854 -13.152  -1.055  1.00  0.00     0.058 A 
ATOM     65  C   UNL     1       9.235 -13.389  -1.118  1.00  0.00     0.135 A 
ATOM     66  C   UNL     1       6.996 -14.264  -1.026  1.00  0.00     0.135 A 
ATOM     67  F   UNL     1      10.096 -12.360  -1.154  1.00  0.00    -0.206 F 
ATOM     68  C   UNL     1       9.748 -14.681  -1.159  1.00  0.00     0.059 A 
ATOM     69  C   UNL     1       7.489 -15.565  -1.042  1.00  0.00     0.059 A 
ATOM     70  F   UNL     1       5.667 -14.091  -0.955  1.00  0.00    -0.206 F 
ATOM     71  C   UNL     1       8.867 -15.763  -1.115  1.00  0.00     0.060 A 
BRANCH  71  72
ATOM     72  S   UNL     1       9.552 -17.433  -1.116  1.00  0.00     0.124 S 
ATOM     73  O   UNL     1      10.009 -17.563  -2.495  1.00  0.00    -0.237 OA
ATOM     74  O   UNL     1      10.601 -17.341  -0.106  1.00  0.00    -0.237 OA
ATOM     75  O   UNL     1       8.411 -18.270  -0.752  1.00  0.00    -0.744 OA
ENDBRANCH  71  72
ENDBRANCH  39  64
ENDBRANCH  13  14
ENDBRANCH   6   8
ENDBRANCH   3   4
ENDBRANCH   2   3
ENDBRANCH   1   2
BRANCH   1  76
ATOM     76  C   UNL     1       4.860   4.208   0.810  1.00  0.00     0.002 C 
BRANCH  76  77
ATOM     77  C   UNL     1       6.383   4.182   0.980  1.00  0.00     0.021 C 
BRANCH  77  78
ATOM     78  C   UNL     1       7.170   4.952  -0.079  1.00  0.00     0.116 C 
BRANCH  78  79
ATOM     79  N   UNL     1       6.841   6.371  -0.081  1.00  0.00    -0.352 N 
ATOM     80  C   UNL     1       7.673   7.445   0.088  1.00  0.00     0.256 C 
ATOM     81  H   UNL     1       5.891   6.588  -0.223  1.00  0.00     0.163 HD
ATOM     82  O   UNL     1       7.215   8.571   0.266  1.00  0.00    -0.269 OA
BRANCH  80  83
ATOM     83  C   UNL     1       9.127   7.257   0.036  1.00  0.00     0.102 A 
ATOM     84  C   UNL     1       9.903   7.717   1.105  1.00  0.00     0.029 A 
ATOM     85  C   UNL     1       9.767   6.687  -1.058  1.00  0.00     0.223 A 
ATOM     86  C   UNL     1      11.292   7.559   1.075  1.00  0.00     0.001 A 
ATOM     87  N   UNL     1      11.097   6.493  -1.111  1.00  0.00    -0.221 NA
ATOM     88  C   UNL     1      11.822   6.924  -0.051  1.00  0.00     0.124 A 
BRANCH  85  89
ATOM     89  O   UNL     1       9.114   6.279  -2.185  1.00  0.00    -0.493 OA
ATOM     90  H   UNL     1       8.184   6.372  -2.247  1.00  0.00     0.295 HD
ENDBRANCH  85  89
BRANCH  86  91
ATOM     91  C   UNL     1      12.156   8.061   2.148  1.00  0.00    -0.016 A 
ATOM     92  C   UNL     1      13.175   8.986   1.862  1.00  0.00     0.012 A 
ATOM     93  C   UNL     1      11.995   7.638   3.479  1.00  0.00     0.025 A 
ATOM     94  C   UNL     1      14.010   9.468   2.870  1.00  0.00     0.040 A 
ATOM     95  C   UNL     1      12.835   8.117   4.502  1.00  0.00     0.092 A 
ATOM     96  C   UNL     1      13.835   9.028   4.176  1.00  0.00     0.135 A 
ATOM     97  F   UNL     1      14.651   9.498   5.129  1.00  0.00    -0.206 F 
BRANCH  95  98
ATOM     98  C   UNL     1      12.698   7.666   5.925  1.00  0.00     0.419 C 
ATOM     99  F   UNL     1      13.782   6.970   6.364  1.00  0.00    -0.166 F 
ATOM    100  F   UNL     1      12.527   8.698   6.796  1.00  0.00    -0.166 F 
ATOM    101  F   UNL     1      11.629   6.843   6.122  1.00  0.00    -0.166 F 
ENDBRANCH  95  98
ENDBRANCH  86  91
ENDBRANCH  80  83
ENDBRANCH  78  79
ENDBRANCH  77  78
ENDBRANCH  76  77
ENDBRANCH   1  76
TORSDOF 19
