REMARK SMILES C/C(=C(\C#N)C(=O)NCCCCCCNC(=O)c1ccc(-c2c3nc(c(-c4c(F)cc(S(=O)(=O)[O-])cc4F)c4ccc([nH]4)c(-c4c(F)cc(S(=O)(=O)[O-])cc4F)c4nc(c(-c5c(F)cc(S(=O)(=O)[O-])cc5F)c5ccc2[nH]5)C=C4)C=C3)cc1)c1cccc2ccccc12
REMARK SMILES IDX 12 1 11 2 10 3 9 4 8 5 6 6 7 7 3 9 1 10 2 11 84 12 85 13
REMARK SMILES IDX 93 14 86 15 88 16 92 17 87 18 89 19 91 20 90 21 4 22 5 23
REMARK SMILES IDX 13 24 14 25 15 26 16 27 17 29 18 30 19 31 83 32 20 33 82 34
REMARK SMILES IDX 21 35 22 36 23 37 76 38 24 39 81 40 75 41 77 42 25 43 80 44
REMARK SMILES IDX 74 45 73 46 26 48 60 49 39 50 59 51 40 52 43 53 58 54 78 55
REMARK SMILES IDX 41 56 42 57 57 59 79 60 44 61 27 62 28 63 37 64 29 65 30 66
REMARK SMILES IDX 36 67 38 68 31 69 32 70 33 71 34 72 35 73 61 74 62 75 71 76
REMARK SMILES IDX 63 77 64 78 70 79 72 80 65 81 66 82 67 83 68 84 69 85 45 86
REMARK SMILES IDX 46 87 55 88 47 89 48 90 54 91 56 92 49 93 50 94 51 95 52 96
REMARK SMILES IDX 53 97
REMARK H PARENT 8 8 15 28 77 47 43 58
REMARK Flexibility Score: inf
ROOT
ATOM      1  C   UNL     1      -3.798  -4.095   5.815  1.00  0.00     0.002 C 
ENDROOT
BRANCH   1   2
ATOM      2  C   UNL     1      -4.132  -3.710   4.366  1.00  0.00     0.002 C 
BRANCH   2   3
ATOM      3  C   UNL     1      -3.430  -2.445   3.860  1.00  0.00     0.021 C 
BRANCH   3   4
ATOM      4  C   UNL     1      -1.921  -2.482   4.062  1.00  0.00     0.116 C 
BRANCH   4   5
ATOM      5  N   UNL     1      -1.249  -3.285   3.057  1.00  0.00    -0.351 N 
ATOM      6  C   UNL     1      -0.448  -3.036   1.987  1.00  0.00     0.262 C 
ATOM      7  O   UNL     1       0.108  -4.045   1.546  1.00  0.00    -0.268 OA
ATOM      8  H   UNL     1      -1.414  -4.247   3.181  1.00  0.00     0.163 HD
BRANCH   6   9
ATOM      9  C   UNL     1      -0.196  -1.653   1.399  1.00  0.00     0.120 C 
ATOM     10  C   UNL     1       0.941  -0.103  -0.228  1.00  0.00     0.046 C 
ATOM     11  C   UNL     1       0.451  -1.461   0.207  1.00  0.00    -0.020 C 
BRANCH  11  12
ATOM     12  C   UNL     1       0.685  -2.596  -0.768  1.00  0.00    -0.013 A 
ATOM     13  C   UNL     1      -0.475  -3.325  -1.111  1.00  0.00     0.009 A 
ATOM     14  C   UNL     1       1.950  -3.047  -1.288  1.00  0.00    -0.011 A 
ATOM     15  C   UNL     1      -0.397  -4.575  -1.714  1.00  0.00     0.001 A 
ATOM     16  C   UNL     1       2.007  -4.351  -1.863  1.00  0.00    -0.018 A 
ATOM     17  C   UNL     1       3.169  -2.318  -1.310  1.00  0.00     0.009 A 
ATOM     18  C   UNL     1       0.844  -5.109  -2.025  1.00  0.00     0.009 A 
ATOM     19  C   UNL     1       3.223  -4.904  -2.299  1.00  0.00     0.009 A 
ATOM     20  C   UNL     1       4.355  -2.846  -1.846  1.00  0.00     0.001 A 
ATOM     21  C   UNL     1       4.391  -4.152  -2.307  1.00  0.00     0.001 A 
ENDBRANCH  11  12
BRANCH   9  22
ATOM     22  C   UNL     1      -0.563  -0.495   2.312  1.00  0.00     0.105 C 
ATOM     23  N   UNL     1      -0.868   0.466   3.070  1.00  0.00    -0.192 NA
ENDBRANCH   9  22
ENDBRANCH   6   9
ENDBRANCH   4   5
ENDBRANCH   3   4
ENDBRANCH   2   3
ENDBRANCH   1   2
BRANCH   1  24
ATOM     24  C   UNL     1      -3.949  -2.962   6.836  1.00  0.00     0.021 C 
BRANCH  24  25
ATOM     25  C   UNL     1      -5.359  -2.393   6.925  1.00  0.00     0.116 C 
BRANCH  25  26
ATOM     26  N   UNL     1      -6.312  -3.410   7.339  1.00  0.00    -0.352 N 
ATOM     27  C   UNL     1      -7.140  -3.424   8.432  1.00  0.00     0.251 C 
ATOM     28  H   UNL     1      -6.371  -4.198   6.753  1.00  0.00     0.163 HD
ATOM     29  O   UNL     1      -7.679  -4.468   8.781  1.00  0.00    -0.269 OA
BRANCH  27  30
ATOM     30  C   UNL     1      -7.370  -2.174   9.185  1.00  0.00     0.039 A 
ATOM     31  C   UNL     1      -7.361  -2.210  10.580  1.00  0.00     0.014 A 
ATOM     32  C   UNL     1      -7.606  -0.972   8.509  1.00  0.00     0.014 A 
ATOM     33  C   UNL     1      -7.546  -1.028  11.299  1.00  0.00     0.010 A 
ATOM     34  C   UNL     1      -7.714   0.214   9.226  1.00  0.00     0.010 A 
ATOM     35  C   UNL     1      -7.697   0.197  10.628  1.00  0.00    -0.014 A 
BRANCH  35  36
ATOM     36  C   UNL     1      -7.847   1.469  11.377  1.00  0.00     0.031 A 
ATOM     37  C   UNL     1      -9.119   2.264  11.265  1.00  0.00     0.074 A 
ATOM     38  C   UNL     1      -6.816   1.933  12.109  1.00  0.00     0.049 A 
ATOM     39  N   UNL     1      -9.418   3.421  11.797  1.00  0.00    -0.248 NA
ATOM     40  C   UNL     1     -10.186   1.698  10.424  1.00  0.00     0.031 C 
ATOM     41  C   UNL     1      -5.516   1.272  12.252  1.00  0.00     0.029 A 
ATOM     42  N   UNL     1      -6.693   3.071  12.864  1.00  0.00    -0.354 N 
ATOM     43  C   UNL     1     -10.698   3.725  11.348  1.00  0.00     0.074 A 
ATOM     44  C   UNL     1     -11.096   2.660  10.454  1.00  0.00     0.031 C 
ATOM     45  C   UNL     1      -4.738   2.004  13.065  1.00  0.00     0.029 A 
ATOM     46  C   UNL     1      -5.465   3.204  13.468  1.00  0.00     0.049 A 
ATOM     47  H   UNL     1      -7.416   3.732  12.964  1.00  0.00     0.167 HD
ATOM     48  C   UNL     1     -11.479   4.784  11.670  1.00  0.00     0.037 A 
ATOM     49  C   UNL     1      -4.977   4.185  14.251  1.00  0.00     0.037 A 
ATOM     50  C   UNL     1     -11.079   5.829  12.576  1.00  0.00     0.049 A 
ATOM     51  C   UNL     1      -5.860   5.357  14.588  1.00  0.00     0.074 A 
ATOM     52  C   UNL     1     -11.816   6.915  13.016  1.00  0.00     0.029 A 
ATOM     53  N   UNL     1      -9.832   5.923  13.178  1.00  0.00    -0.354 N 
ATOM     54  N   UNL     1      -7.094   5.594  14.210  1.00  0.00    -0.248 NA
ATOM     55  C   UNL     1      -5.288   6.390  15.461  1.00  0.00     0.031 C 
ATOM     56  C   UNL     1     -10.998   7.692  13.842  1.00  0.00     0.029 A 
ATOM     57  C   UNL     1      -9.769   7.062  13.964  1.00  0.00     0.049 A 
ATOM     58  H   UNL     1      -9.099   5.275  13.063  1.00  0.00     0.167 HD
ATOM     59  C   UNL     1      -7.454   6.791  14.819  1.00  0.00     0.074 A 
ATOM     60  C   UNL     1      -6.313   7.220  15.602  1.00  0.00     0.031 C 
ATOM     61  C   UNL     1      -8.624   7.473  14.739  1.00  0.00     0.037 A 
BRANCH  48  62
ATOM     62  C   UNL     1     -12.843   4.863  11.040  1.00  0.00     0.058 A 
ATOM     63  C   UNL     1     -13.866   3.961  11.378  1.00  0.00     0.135 A 
ATOM     64  C   UNL     1     -13.143   5.870  10.108  1.00  0.00     0.135 A 
ATOM     65  F   UNL     1     -13.633   2.969  12.252  1.00  0.00    -0.206 F 
ATOM     66  C   UNL     1     -15.125   4.034  10.790  1.00  0.00     0.059 A 
ATOM     67  C   UNL     1     -14.405   5.980   9.531  1.00  0.00     0.059 A 
ATOM     68  F   UNL     1     -12.205   6.759   9.748  1.00  0.00    -0.206 F 
ATOM     69  C   UNL     1     -15.385   5.047   9.867  1.00  0.00     0.060 A 
BRANCH  69  70
ATOM     70  S   UNL     1     -17.024   5.127   9.115  1.00  0.00     0.124 S 
ATOM     71  O   UNL     1     -16.988   3.977   8.216  1.00  0.00    -0.237 OA
ATOM     72  O   UNL     1     -17.905   4.999  10.272  1.00  0.00    -0.237 OA
ATOM     73  O   UNL     1     -17.037   6.432   8.462  1.00  0.00    -0.744 OA
ENDBRANCH  69  70
ENDBRANCH  48  62
BRANCH  49  74
ATOM     74  C   UNL     1      -3.593   4.089  14.786  1.00  0.00     0.058 A 
ATOM     75  C   UNL     1      -3.360   3.865  16.151  1.00  0.00     0.135 A 
ATOM     76  C   UNL     1      -2.476   4.198  13.943  1.00  0.00     0.135 A 
ATOM     77  F   UNL     1      -4.395   3.759  16.998  1.00  0.00    -0.206 F 
ATOM     78  C   UNL     1      -2.072   3.768  16.665  1.00  0.00     0.059 A 
ATOM     79  C   UNL     1      -1.177   4.078  14.429  1.00  0.00     0.059 A 
ATOM     80  F   UNL     1      -2.643   4.395  12.626  1.00  0.00    -0.206 F 
ATOM     81  C   UNL     1      -0.986   3.872  15.794  1.00  0.00     0.060 A 
BRANCH  81  82
ATOM     82  S   UNL     1       0.681   3.694  16.465  1.00  0.00     0.124 S 
ATOM     83  O   UNL     1       0.840   4.947  17.194  1.00  0.00    -0.237 OA
ATOM     84  O   UNL     1       0.555   2.491  17.282  1.00  0.00    -0.237 OA
ATOM     85  O   UNL     1       1.510   3.548  15.272  1.00  0.00    -0.744 OA
ENDBRANCH  81  82
ENDBRANCH  49  74
BRANCH  61  86
ATOM     86  C   UNL     1      -8.743   8.741  15.540  1.00  0.00     0.058 A 
ATOM     87  C   UNL     1      -8.056   9.910  15.178  1.00  0.00     0.135 A 
ATOM     88  C   UNL     1      -9.598   8.800  16.653  1.00  0.00     0.135 A 
ATOM     89  F   UNL     1      -7.221   9.906  14.127  1.00  0.00    -0.206 F 
ATOM     90  C   UNL     1      -8.195  11.088  15.905  1.00  0.00     0.059 A 
ATOM     91  C   UNL     1      -9.775   9.976  17.376  1.00  0.00     0.059 A 
ATOM     92  F   UNL     1     -10.286   7.713  17.037  1.00  0.00    -0.206 F 
ATOM     93  C   UNL     1      -9.060  11.112  17.001  1.00  0.00     0.060 A 
BRANCH  93  94
ATOM     94  S   UNL     1      -9.260  12.658  17.911  1.00  0.00     0.124 S 
ATOM     95  O   UNL     1      -7.991  12.743  18.627  1.00  0.00    -0.237 OA
ATOM     96  O   UNL     1      -9.450  13.629  16.839  1.00  0.00    -0.237 OA
ATOM     97  O   UNL     1     -10.434  12.413  18.743  1.00  0.00    -0.744 OA
ENDBRANCH  93  94
ENDBRANCH  61  86
ENDBRANCH  35  36
ENDBRANCH  27  30
ENDBRANCH  25  26
ENDBRANCH  24  25
ENDBRANCH   1  24
TORSDOF 18
