REMARK SMILES O=C(NCCCCCCNC(=O)[C@H](O)Cc1ccc(O)cc1)c1ccc(-c2c3nc(c(-c4c(F)cc(S(=O)(=O)[O-])cc4F)c4ccc([nH]4)c(-c4c(F)cc(S(=O)(=O)[O-])cc4F)c4nc(c(-c5c(F)cc(S(=O)(=O)[O-])cc5F)c5ccc2[nH]5)C=C4)C=C3)cc1
REMARK SMILES IDX 6 1 5 2 4 3 3 4 1 5 2 6 23 8 24 9 88 10 25 11 87 12 26 13
REMARK SMILES IDX 27 14 28 15 81 16 29 17 86 18 80 19 82 20 30 21 85 22 79 23
REMARK SMILES IDX 78 24 31 26 65 27 44 28 64 29 45 30 48 31 63 32 83 33 46 34
REMARK SMILES IDX 47 35 62 37 84 38 49 39 32 40 33 41 42 42 34 43 35 44 41 45
REMARK SMILES IDX 43 46 36 47 37 48 38 49 39 50 40 51 66 52 67 53 76 54 68 55
REMARK SMILES IDX 69 56 75 57 77 58 70 59 71 60 72 61 73 62 74 63 50 64 51 65
REMARK SMILES IDX 60 66 52 67 53 68 59 69 61 70 54 71 55 72 56 73 57 74 58 75
REMARK SMILES IDX 7 76 8 77 9 78 10 79 11 80 12 82 13 83 15 84 16 85 17 86
REMARK SMILES IDX 22 87 18 88 21 89 19 90 20 91 14 93
REMARK H PARENT 3 7 82 25 48 36 10 81 20 92 14 94
REMARK Flexibility Score: inf
ROOT
ATOM      1  C   UNL     1       7.894   8.817  -0.234  1.00  0.00     0.002 C 
ENDROOT
BRANCH   1   2
ATOM      2  C   UNL     1       7.317  10.120  -0.790  1.00  0.00     0.021 C 
BRANCH   2   3
ATOM      3  C   UNL     1       5.848  10.354  -0.464  1.00  0.00     0.116 C 
BRANCH   3   4
ATOM      4  N   UNL     1       5.627  10.611   0.950  1.00  0.00    -0.352 N 
ATOM      5  O   UNL     1       4.987  11.811   2.751  1.00  0.00    -0.269 OA
ATOM      6  C   UNL     1       4.934  11.644   1.536  1.00  0.00     0.251 C 
ATOM      7  H   UNL     1       6.027   9.959   1.569  1.00  0.00     0.163 HD
BRANCH   6   8
ATOM      8  C   UNL     1       4.143  12.564   0.689  1.00  0.00     0.039 A 
ATOM      9  C   UNL     1       3.328  12.061  -0.327  1.00  0.00     0.014 A 
ATOM     10  C   UNL     1       4.216  13.943   0.911  1.00  0.00     0.014 A 
ATOM     11  C   UNL     1       2.700  12.936  -1.204  1.00  0.00     0.010 A 
ATOM     12  C   UNL     1       3.509  14.821   0.082  1.00  0.00     0.010 A 
ATOM     13  C   UNL     1       2.763  14.325  -0.997  1.00  0.00    -0.014 A 
BRANCH  13  14
ATOM     14  C   UNL     1       1.961  15.211  -1.880  1.00  0.00     0.031 A 
ATOM     15  C   UNL     1       2.610  16.193  -2.816  1.00  0.00     0.074 A 
ATOM     16  C   UNL     1       0.620  15.069  -1.866  1.00  0.00     0.049 A 
ATOM     17  N   UNL     1       2.046  16.981  -3.695  1.00  0.00    -0.248 NA
ATOM     18  C   UNL     1       4.075  16.313  -2.757  1.00  0.00     0.031 C 
ATOM     19  C   UNL     1      -0.120  14.168  -0.975  1.00  0.00     0.029 A 
ATOM     20  N   UNL     1      -0.356  15.647  -2.634  1.00  0.00    -0.354 N 
ATOM     21  C   UNL     1       3.079  17.696  -4.290  1.00  0.00     0.074 A 
ATOM     22  C   UNL     1       4.306  17.267  -3.652  1.00  0.00     0.031 C 
ATOM     23  C   UNL     1      -1.422  14.211  -1.287  1.00  0.00     0.029 A 
ATOM     24  C   UNL     1      -1.620  15.181  -2.356  1.00  0.00     0.049 A 
ATOM     25  H   UNL     1      -0.171  16.329  -3.319  1.00  0.00     0.167 HD
ATOM     26  C   UNL     1       3.008  18.616  -5.282  1.00  0.00     0.037 A 
ATOM     27  C   UNL     1      -2.810  15.505  -2.893  1.00  0.00     0.037 A 
ATOM     28  C   UNL     1       1.780  19.031  -5.917  1.00  0.00     0.049 A 
ATOM     29  C   UNL     1      -2.855  16.520  -3.997  1.00  0.00     0.074 A 
ATOM     30  C   UNL     1       1.606  19.952  -6.937  1.00  0.00     0.029 A 
ATOM     31  N   UNL     1       0.519  18.551  -5.596  1.00  0.00    -0.354 N 
ATOM     32  N   UNL     1      -1.863  17.172  -4.554  1.00  0.00    -0.248 NA
ATOM     33  C   UNL     1      -4.178  16.846  -4.542  1.00  0.00     0.031 C 
ATOM     34  C   UNL     1       0.237  20.050  -7.212  1.00  0.00     0.029 A 
ATOM     35  C   UNL     1      -0.439  19.162  -6.391  1.00  0.00     0.049 A 
ATOM     36  H   UNL     1       0.331  17.876  -4.905  1.00  0.00     0.167 HD
ATOM     37  C   UNL     1      -2.443  17.989  -5.516  1.00  0.00     0.074 A 
ATOM     38  C   UNL     1      -3.867  17.720  -5.489  1.00  0.00     0.031 C 
ATOM     39  C   UNL     1      -1.853  18.890  -6.339  1.00  0.00     0.037 A 
BRANCH  26  40
ATOM     40  C   UNL     1       4.291  19.245  -5.755  1.00  0.00     0.058 A 
ATOM     41  C   UNL     1       5.201  18.538  -6.556  1.00  0.00     0.135 A 
ATOM     42  C   UNL     1       4.578  20.590  -5.467  1.00  0.00     0.135 A 
ATOM     43  F   UNL     1       4.984  17.246  -6.848  1.00  0.00    -0.206 F 
ATOM     44  C   UNL     1       6.355  19.139  -7.049  1.00  0.00     0.059 A 
ATOM     45  C   UNL     1       5.717  21.217  -5.967  1.00  0.00     0.059 A 
ATOM     46  F   UNL     1       3.742  21.311  -4.705  1.00  0.00    -0.206 F 
ATOM     47  C   UNL     1       6.603  20.481  -6.751  1.00  0.00     0.060 A 
BRANCH  47  48
ATOM     48  S   UNL     1       8.092  21.252  -7.424  1.00  0.00     0.124 S 
ATOM     49  O   UNL     1       9.131  20.645  -6.598  1.00  0.00    -0.237 OA
ATOM     50  O   UNL     1       8.062  20.824  -8.819  1.00  0.00    -0.237 OA
ATOM     51  O   UNL     1       7.866  22.677  -7.203  1.00  0.00    -0.744 OA
ENDBRANCH  47  48
ENDBRANCH  26  40
BRANCH  27  52
ATOM     52  C   UNL     1      -4.051  14.873  -2.376  1.00  0.00     0.058 A 
ATOM     53  C   UNL     1      -4.781  13.960  -3.150  1.00  0.00     0.135 A 
ATOM     54  C   UNL     1      -4.522  15.162  -1.085  1.00  0.00     0.135 A 
ATOM     55  F   UNL     1      -4.370  13.653  -4.390  1.00  0.00    -0.206 F 
ATOM     56  C   UNL     1      -5.947  13.370  -2.673  1.00  0.00     0.059 A 
ATOM     57  C   UNL     1      -5.668  14.564  -0.575  1.00  0.00     0.059 A 
ATOM     58  F   UNL     1      -3.846  16.012  -0.297  1.00  0.00    -0.206 F 
ATOM     59  C   UNL     1      -6.383  13.681  -1.383  1.00  0.00     0.060 A 
BRANCH  59  60
ATOM     60  S   UNL     1      -7.875  12.886  -0.750  1.00  0.00     0.124 S 
ATOM     61  O   UNL     1      -8.919  13.674  -1.394  1.00  0.00    -0.237 OA
ATOM     62  O   UNL     1      -7.723  11.515  -1.226  1.00  0.00    -0.237 OA
ATOM     63  O   UNL     1      -7.754  13.056   0.695  1.00  0.00    -0.744 OA
ENDBRANCH  59  60
ENDBRANCH  27  52
BRANCH  39  64
ATOM     64  C   UNL     1      -2.757  19.642  -7.273  1.00  0.00     0.058 A 
ATOM     65  C   UNL     1      -3.611  20.654  -6.806  1.00  0.00     0.135 A 
ATOM     66  C   UNL     1      -2.773  19.347  -8.644  1.00  0.00     0.135 A 
ATOM     67  F   UNL     1      -3.637  20.966  -5.500  1.00  0.00    -0.206 F 
ATOM     68  C   UNL     1      -4.479  21.322  -7.662  1.00  0.00     0.059 A 
ATOM     69  C   UNL     1      -3.616  20.020  -9.523  1.00  0.00     0.059 A 
ATOM     70  F   UNL     1      -1.968  18.394  -9.141  1.00  0.00    -0.206 F 
ATOM     71  C   UNL     1      -4.479  20.992  -9.018  1.00  0.00     0.060 A 
BRANCH  71  72
ATOM     72  S   UNL     1      -5.613  21.860 -10.122  1.00  0.00     0.124 S 
ATOM     73  O   UNL     1      -6.876  21.191  -9.828  1.00  0.00    -0.237 OA
ATOM     74  O   UNL     1      -5.505  23.241  -9.664  1.00  0.00    -0.237 OA
ATOM     75  O   UNL     1      -5.058  21.601 -11.447  1.00  0.00    -0.744 OA
ENDBRANCH  71  72
ENDBRANCH  39  64
ENDBRANCH  13  14
ENDBRANCH   6   8
ENDBRANCH   3   4
ENDBRANCH   2   3
ENDBRANCH   1   2
BRANCH   1  76
ATOM     76  C   UNL     1       7.194   7.536  -0.702  1.00  0.00     0.002 C 
BRANCH  76  77
ATOM     77  C   UNL     1       7.028   7.389  -2.220  1.00  0.00     0.021 C 
BRANCH  77  78
ATOM     78  C   UNL     1       8.332   7.489  -3.008  1.00  0.00     0.116 C 
BRANCH  78  79
ATOM     79  N   UNL     1       9.218   6.381  -2.713  1.00  0.00    -0.354 N 
ATOM     80  C   UNL     1       9.486   5.267  -3.462  1.00  0.00     0.249 C 
ATOM     81  H   UNL     1       9.693   6.437  -1.853  1.00  0.00     0.163 HD
ATOM     82  O   UNL     1      10.266   4.432  -3.002  1.00  0.00    -0.272 OA
BRANCH  80  83
ATOM     83  C   UNL     1       8.838   5.143  -4.855  1.00  0.00     0.207 C 
BRANCH  83  84
ATOM     84  C   UNL     1       9.471   3.992  -5.651  1.00  0.00     0.077 C 
BRANCH  84  85
ATOM     85  C   UNL     1       9.093   3.949  -7.122  1.00  0.00    -0.045 A 
ATOM     86  C   UNL     1       9.011   5.108  -7.911  1.00  0.00     0.007 A 
ATOM     87  C   UNL     1       8.873   2.707  -7.737  1.00  0.00     0.007 A 
ATOM     88  C   UNL     1       8.664   5.033  -9.262  1.00  0.00     0.046 A 
ATOM     89  C   UNL     1       8.540   2.629  -9.091  1.00  0.00     0.046 A 
ATOM     90  C   UNL     1       8.428   3.792  -9.840  1.00  0.00     0.115 A 
BRANCH  90  91
ATOM     91  O   UNL     1       8.086   3.676 -11.155  1.00  0.00    -0.508 OA
ATOM     92  H   UNL     1       8.003   4.443 -11.686  1.00  0.00     0.293 HD
ENDBRANCH  90  91
ENDBRANCH  84  85
ENDBRANCH  83  84
BRANCH  83  93
ATOM     93  O   UNL     1       7.431   4.925  -4.763  1.00  0.00    -0.383 OA
ATOM     94  H   UNL     1       7.263   4.087  -4.304  1.00  0.00     0.211 HD
ENDBRANCH  83  93
ENDBRANCH  80  83
ENDBRANCH  78  79
ENDBRANCH  77  78
ENDBRANCH  76  77
ENDBRANCH   1  76
TORSDOF 20
