REMARK SMILES CC(=O)/C=C(/C)NCC(=O)NCCCCCCNC(=O)c1ccc(-c2c3nc(c(-c4c(F)cc(S(=O)(=O)[O-])cc4F)c4ccc([nH]4)c(-c4c(F)cc(S(=O)(=O)[O-])cc4F)c4nc(c(-c5c(F)cc(S(=O)(=O)[O-])cc5F)c5ccc2[nH]5)C=C4)C=C3)cc1
REMARK SMILES IDX 14 1 13 2 12 3 11 4 9 5 10 6 8 8 7 9 5 11 4 12 6 13 2 14
REMARK SMILES IDX 1 15 3 16 15 17 16 18 17 19 18 20 19 21 20 23 21 24 22 25
REMARK SMILES IDX 86 26 23 27 85 28 24 29 25 30 26 31 79 32 27 33 84 34 78 35
REMARK SMILES IDX 80 36 28 37 83 38 77 39 76 40 29 42 63 43 42 44 62 45 43 46
REMARK SMILES IDX 46 47 61 48 81 49 44 50 45 51 60 53 82 54 47 55 30 56 31 57
REMARK SMILES IDX 40 58 32 59 33 60 39 61 41 62 34 63 35 64 36 65 37 66 38 67
REMARK SMILES IDX 64 68 65 69 74 70 66 71 67 72 73 73 75 74 68 75 69 76 70 77
REMARK SMILES IDX 71 78 72 79 48 80 49 81 58 82 50 83 51 84 57 85 59 86 52 87
REMARK SMILES IDX 53 88 54 89 55 90 56 91
REMARK H PARENT 11 7 7 10 18 22 80 41 46 52
REMARK Flexibility Score: inf
ROOT
ATOM      1  C   UNL     1       6.176  -1.058   1.623  1.00  0.00     0.002 C 
ENDROOT
BRANCH   1   2
ATOM      2  C   UNL     1       4.824  -1.670   1.235  1.00  0.00     0.021 C 
BRANCH   2   3
ATOM      3  C   UNL     1       3.719  -0.629   1.074  1.00  0.00     0.116 C 
BRANCH   3   4
ATOM      4  N   UNL     1       3.888   0.141  -0.141  1.00  0.00    -0.355 N 
ATOM      5  C   UNL     1       3.289   0.028  -1.359  1.00  0.00     0.239 C 
ATOM      6  O   UNL     1       3.670   0.809  -2.240  1.00  0.00    -0.273 OA
ATOM      7  H   UNL     1       4.548   0.870  -0.076  1.00  0.00     0.163 HD
BRANCH   5   8
ATOM      8  C   UNL     1       2.131  -0.940  -1.649  1.00  0.00     0.213 C 
BRANCH   8   9
ATOM      9  N   UNL     1       2.206  -2.228  -0.987  1.00  0.00    -0.380 N 
ATOM     10  H   UNL     1       3.026  -2.731  -1.199  1.00  0.00     0.160 HD
BRANCH   9  11
ATOM     11  C   UNL     1       1.361  -2.895  -0.117  1.00  0.00     0.011 C 
ATOM     12  C   UNL     1       0.415  -2.484   0.755  1.00  0.00     0.067 C 
ATOM     13  C   UNL     1       1.653  -4.397  -0.094  1.00  0.00     0.064 C 
BRANCH  12  14
ATOM     14  C   UNL     1      -0.193  -1.216   1.260  1.00  0.00     0.154 C 
ATOM     15  C   UNL     1       0.004   0.110   0.598  1.00  0.00     0.093 C 
ATOM     16  O   UNL     1      -0.907  -1.294   2.265  1.00  0.00    -0.295 OA
ENDBRANCH  12  14
ENDBRANCH   9  11
ENDBRANCH   8   9
ENDBRANCH   5   8
ENDBRANCH   3   4
ENDBRANCH   2   3
ENDBRANCH   1   2
BRANCH   1  17
ATOM     17  C   UNL     1       6.176  -0.287   2.949  1.00  0.00     0.002 C 
BRANCH  17  18
ATOM     18  C   UNL     1       5.718  -1.093   4.169  1.00  0.00     0.021 C 
BRANCH  18  19
ATOM     19  C   UNL     1       6.557  -2.333   4.462  1.00  0.00     0.116 C 
BRANCH  19  20
ATOM     20  N   UNL     1       7.946  -1.999   4.722  1.00  0.00    -0.352 N 
ATOM     21  C   UNL     1       8.771  -2.414   5.735  1.00  0.00     0.251 C 
ATOM     22  H   UNL     1       8.357  -1.382   4.074  1.00  0.00     0.163 HD
ATOM     23  O   UNL     1       9.854  -1.859   5.896  1.00  0.00    -0.269 OA
BRANCH  21  24
ATOM     24  C   UNL     1       8.362  -3.517   6.633  1.00  0.00     0.039 A 
ATOM     25  C   UNL     1       8.677  -3.425   7.992  1.00  0.00     0.014 A 
ATOM     26  C   UNL     1       7.727  -4.660   6.139  1.00  0.00     0.014 A 
ATOM     27  C   UNL     1       8.339  -4.468   8.855  1.00  0.00     0.010 A 
ATOM     28  C   UNL     1       7.326  -5.669   7.014  1.00  0.00     0.010 A 
ATOM     29  C   UNL     1       7.652  -5.596   8.375  1.00  0.00    -0.014 A 
BRANCH  29  30
ATOM     30  C   UNL     1       7.328  -6.729   9.279  1.00  0.00     0.031 A 
ATOM     31  C   UNL     1       7.980  -8.070   9.065  1.00  0.00     0.074 A 
ATOM     32  C   UNL     1       6.443  -6.556  10.281  1.00  0.00     0.049 A 
ATOM     33  N   UNL     1       7.821  -9.184   9.734  1.00  0.00    -0.248 NA
ATOM     34  C   UNL     1       8.916  -8.183   7.934  1.00  0.00     0.031 C 
ATOM     35  C   UNL     1       5.715  -5.316  10.564  1.00  0.00     0.029 A 
ATOM     36  N   UNL     1       6.008  -7.424  11.249  1.00  0.00    -0.354 N 
ATOM     37  C   UNL     1       8.631 -10.123   9.107  1.00  0.00     0.074 A 
ATOM     38  C   UNL     1       9.228  -9.470   7.963  1.00  0.00     0.031 C 
ATOM     39  C   UNL     1       4.950  -5.495  11.653  1.00  0.00     0.029 A 
ATOM     40  C   UNL     1       5.110  -6.865  12.129  1.00  0.00     0.049 A 
ATOM     41  H   UNL     1       6.309  -8.359  11.309  1.00  0.00     0.167 HD
ATOM     42  C   UNL     1       8.884 -11.404   9.469  1.00  0.00     0.037 A 
ATOM     43  C   UNL     1       4.493  -7.399  13.201  1.00  0.00     0.037 A 
ATOM     44  C   UNL     1       8.309 -12.043  10.624  1.00  0.00     0.049 A 
ATOM     45  C   UNL     1       4.792  -8.825  13.581  1.00  0.00     0.074 A 
ATOM     46  C   UNL     1       8.522 -13.326  11.095  1.00  0.00     0.029 A 
ATOM     47  N   UNL     1       7.415 -11.440  11.497  1.00  0.00    -0.354 N 
ATOM     48  N   UNL     1       5.596  -9.685  13.000  1.00  0.00    -0.248 NA
ATOM     49  C   UNL     1       4.108  -9.350  14.770  1.00  0.00     0.031 C 
ATOM     50  C   UNL     1       7.735 -13.510  12.237  1.00  0.00     0.029 A 
ATOM     51  C   UNL     1       7.063 -12.327  12.500  1.00  0.00     0.049 A 
ATOM     52  H   UNL     1       7.081 -10.518  11.415  1.00  0.00     0.167 HD
ATOM     53  C   UNL     1       5.536 -10.841  13.772  1.00  0.00     0.074 A 
ATOM     54  C   UNL     1       4.633 -10.563  14.869  1.00  0.00     0.031 C 
ATOM     55  C   UNL     1       6.169 -12.027  13.590  1.00  0.00     0.037 A 
BRANCH  42  56
ATOM     56  C   UNL     1       9.842 -12.191   8.617  1.00  0.00     0.058 A 
ATOM     57  C   UNL     1      11.217 -11.904   8.606  1.00  0.00     0.135 A 
ATOM     58  C   UNL     1       9.393 -13.263   7.829  1.00  0.00     0.135 A 
ATOM     59  F   UNL     1      11.699 -10.878   9.326  1.00  0.00    -0.206 F 
ATOM     60  C   UNL     1      12.108 -12.632   7.826  1.00  0.00     0.059 A 
ATOM     61  C   UNL     1      10.271 -14.024   7.061  1.00  0.00     0.059 A 
ATOM     62  F   UNL     1       8.089 -13.581   7.799  1.00  0.00    -0.206 F 
ATOM     63  C   UNL     1      11.626 -13.692   7.056  1.00  0.00     0.060 A 
BRANCH  63  64
ATOM     64  S   UNL     1      12.798 -14.634   6.058  1.00  0.00     0.124 S 
ATOM     65  O   UNL     1      13.088 -13.691   4.982  1.00  0.00    -0.237 OA
ATOM     66  O   UNL     1      13.887 -14.876   6.999  1.00  0.00    -0.237 OA
ATOM     67  O   UNL     1      12.037 -15.817   5.667  1.00  0.00    -0.744 OA
ENDBRANCH  63  64
ENDBRANCH  42  56
BRANCH  43  68
ATOM     68  C   UNL     1       3.557  -6.580  14.016  1.00  0.00     0.058 A 
ATOM     69  C   UNL     1       3.890  -6.192  15.323  1.00  0.00     0.135 A 
ATOM     70  C   UNL     1       2.303  -6.193  13.520  1.00  0.00     0.135 A 
ATOM     71  F   UNL     1       5.077  -6.541  15.843  1.00  0.00    -0.206 F 
ATOM     72  C   UNL     1       3.001  -5.483  16.123  1.00  0.00     0.059 A 
ATOM     73  C   UNL     1       1.406  -5.460  14.291  1.00  0.00     0.059 A 
ATOM     74  F   UNL     1       1.943  -6.522  12.269  1.00  0.00    -0.206 F 
ATOM     75  C   UNL     1       1.758  -5.125  15.599  1.00  0.00     0.060 A 
BRANCH  75  76
ATOM     76  S   UNL     1       0.612  -4.197  16.641  1.00  0.00     0.124 S 
ATOM     77  O   UNL     1       0.135  -5.234  17.548  1.00  0.00    -0.237 OA
ATOM     78  O   UNL     1       1.482  -3.183  17.229  1.00  0.00    -0.237 OA
ATOM     79  O   UNL     1      -0.371  -3.690  15.687  1.00  0.00    -0.744 OA
ENDBRANCH  75  76
ENDBRANCH  43  68
BRANCH  55  80
ATOM     80  C   UNL     1       5.933 -13.093  14.623  1.00  0.00     0.058 A 
ATOM     81  C   UNL     1       4.707 -13.769  14.719  1.00  0.00     0.135 A 
ATOM     82  C   UNL     1       6.953 -13.453  15.519  1.00  0.00     0.135 A 
ATOM     83  F   UNL     1       3.698 -13.460  13.889  1.00  0.00    -0.206 F 
ATOM     84  C   UNL     1       4.485 -14.735  15.695  1.00  0.00     0.059 A 
ATOM     85  C   UNL     1       6.763 -14.437  16.483  1.00  0.00     0.059 A 
ATOM     86  F   UNL     1       8.150 -12.848  15.460  1.00  0.00    -0.206 F 
ATOM     87  C   UNL     1       5.518 -15.058  16.576  1.00  0.00     0.060 A 
BRANCH  87  88
ATOM     88  S   UNL     1       5.221 -16.314  17.838  1.00  0.00     0.124 S 
ATOM     89  O   UNL     1       4.416 -15.574  18.805  1.00  0.00    -0.237 OA
ATOM     90  O   UNL     1       4.517 -17.351  17.090  1.00  0.00    -0.237 OA
ATOM     91  O   UNL     1       6.564 -16.674  18.282  1.00  0.00    -0.744 OA
ENDBRANCH  87  88
ENDBRANCH  55  80
ENDBRANCH  29  30
ENDBRANCH  21  24
ENDBRANCH  19  20
ENDBRANCH  18  19
ENDBRANCH  17  18
ENDBRANCH   1  17
TORSDOF 19
