REMARK SMILES O=C(NCCCCCCNC(=O)[C@@H](F)Oc1ccc(F)c(Cl)c1)c1ccc(-c2c3nc(c(-c4c(F)cc(S(=O)(=O)[O-])cc4F)c4ccc([nH]4)c(-c4c(F)cc(S(=O)(=O)[O-])cc4F)c4nc(c(-c5c(F)cc(S(=O)(=O)[O-])cc5F)c5ccc2[nH]5)C=C4)C=C3)cc1
REMARK SMILES IDX 6 1 5 2 4 3 3 4 1 5 2 6 24 8 25 9 89 10 26 11 88 12 27 13
REMARK SMILES IDX 28 14 29 15 82 16 30 17 87 18 81 19 83 20 31 21 86 22 80 23
REMARK SMILES IDX 79 24 32 26 66 27 45 28 65 29 46 30 49 31 64 32 84 33 47 34
REMARK SMILES IDX 48 35 63 37 85 38 50 39 33 40 34 41 43 42 35 43 36 44 42 45
REMARK SMILES IDX 44 46 37 47 38 48 39 49 40 50 41 51 67 52 68 53 77 54 69 55
REMARK SMILES IDX 70 56 76 57 78 58 71 59 72 60 73 61 74 62 75 63 51 64 52 65
REMARK SMILES IDX 61 66 53 67 54 68 60 69 62 70 55 71 56 72 57 73 58 74 59 75
REMARK SMILES IDX 7 76 8 77 9 78 10 79 11 80 12 82 13 83 14 84 15 85 16 86
REMARK SMILES IDX 17 87 23 88 18 89 21 90 19 91 22 92 20 93
REMARK H PARENT 3 7 83 25 49 36 10 81
REMARK Flexibility Score: inf
ROOT
ATOM      1  C   UNL     1       4.242   1.339  -3.809  1.00  0.00     0.002 C 
ENDROOT
BRANCH   1   2
ATOM      2  C   UNL     1       4.740   0.301  -2.806  1.00  0.00     0.021 C 
BRANCH   2   3
ATOM      3  C   UNL     1       4.447   0.588  -1.341  1.00  0.00     0.116 C 
BRANCH   3   4
ATOM      4  N   UNL     1       3.032   0.596  -1.015  1.00  0.00    -0.352 N 
ATOM      5  O   UNL     1       1.165   0.052   0.126  1.00  0.00    -0.269 OA
ATOM      6  C   UNL     1       2.387   0.017   0.058  1.00  0.00     0.251 C 
ATOM      7  H   UNL     1       2.454   1.081  -1.647  1.00  0.00     0.163 HD
BRANCH   6   8
ATOM      8  C   UNL     1       3.173  -0.677   1.109  1.00  0.00     0.039 A 
ATOM      9  C   UNL     1       4.355  -0.126   1.603  1.00  0.00     0.014 A 
ATOM     10  C   UNL     1       2.720  -1.905   1.604  1.00  0.00     0.014 A 
ATOM     11  C   UNL     1       5.160  -0.867   2.461  1.00  0.00     0.010 A 
ATOM     12  C   UNL     1       3.485  -2.607   2.545  1.00  0.00     0.010 A 
ATOM     13  C   UNL     1       4.728  -2.109   2.958  1.00  0.00    -0.014 A 
BRANCH  13  14
ATOM     14  C   UNL     1       5.576  -2.809   3.961  1.00  0.00     0.031 A 
ATOM     15  C   UNL     1       6.213  -4.140   3.667  1.00  0.00     0.074 A 
ATOM     16  C   UNL     1       5.819  -2.186   5.132  1.00  0.00     0.049 A 
ATOM     17  N   UNL     1       7.033  -4.839   4.412  1.00  0.00    -0.248 NA
ATOM     18  C   UNL     1       5.885  -4.777   2.383  1.00  0.00     0.031 C 
ATOM     19  C   UNL     1       5.230  -0.907   5.541  1.00  0.00     0.029 A 
ATOM     20  N   UNL     1       6.642  -2.518   6.177  1.00  0.00    -0.354 N 
ATOM     21  C   UNL     1       7.316  -5.996   3.694  1.00  0.00     0.074 A 
ATOM     22  C   UNL     1       6.551  -5.921   2.467  1.00  0.00     0.031 C 
ATOM     23  C   UNL     1       5.755  -0.535   6.716  1.00  0.00     0.029 A 
ATOM     24  C   UNL     1       6.671  -1.572   7.174  1.00  0.00     0.049 A 
ATOM     25  H   UNL     1       7.163  -3.353   6.209  1.00  0.00     0.167 HD
ATOM     26  C   UNL     1       8.144  -7.017   4.025  1.00  0.00     0.037 A 
ATOM     27  C   UNL     1       7.351  -1.542   8.335  1.00  0.00     0.037 A 
ATOM     28  C   UNL     1       8.909  -7.078   5.246  1.00  0.00     0.049 A 
ATOM     29  C   UNL     1       8.273  -2.678   8.667  1.00  0.00     0.074 A 
ATOM     30  C   UNL     1       9.777  -8.070   5.672  1.00  0.00     0.029 A 
ATOM     31  N   UNL     1       8.904  -6.106   6.236  1.00  0.00    -0.354 N 
ATOM     32  N   UNL     1       8.532  -3.757   7.968  1.00  0.00    -0.248 NA
ATOM     33  C   UNL     1       8.996  -2.594   9.942  1.00  0.00     0.031 C 
ATOM     34  C   UNL     1      10.274  -7.711   6.930  1.00  0.00     0.029 A 
ATOM     35  C   UNL     1       9.747  -6.476   7.272  1.00  0.00     0.049 A 
ATOM     36  H   UNL     1       8.379  -5.274   6.207  1.00  0.00     0.167 HD
ATOM     37  C   UNL     1       9.448  -4.483   8.719  1.00  0.00     0.074 A 
ATOM     38  C   UNL     1       9.724  -3.702   9.908  1.00  0.00     0.031 C 
ATOM     39  C   UNL     1      10.001  -5.692   8.454  1.00  0.00     0.037 A 
BRANCH  26  40
ATOM     40  C   UNL     1       8.272  -8.160   3.053  1.00  0.00     0.058 A 
ATOM     41  C   UNL     1       8.984  -8.025   1.850  1.00  0.00     0.135 A 
ATOM     42  C   UNL     1       7.732  -9.421   3.353  1.00  0.00     0.135 A 
ATOM     43  F   UNL     1       9.510  -6.838   1.507  1.00  0.00    -0.206 F 
ATOM     44  C   UNL     1       9.141  -9.093   0.972  1.00  0.00     0.059 A 
ATOM     45  C   UNL     1       7.896 -10.510   2.500  1.00  0.00     0.059 A 
ATOM     46  F   UNL     1       7.044  -9.608   4.490  1.00  0.00    -0.206 F 
ATOM     47  C   UNL     1       8.594 -10.333   1.306  1.00  0.00     0.060 A 
BRANCH  47  48
ATOM     48  S   UNL     1       8.822 -11.714   0.165  1.00  0.00     0.124 S 
ATOM     49  O   UNL     1       7.902 -11.358  -0.911  1.00  0.00    -0.237 OA
ATOM     50  O   UNL     1      10.242 -11.622  -0.160  1.00  0.00    -0.237 OA
ATOM     51  O   UNL     1       8.439 -12.879   0.958  1.00  0.00    -0.744 OA
ENDBRANCH  47  48
ENDBRANCH  26  40
BRANCH  27  52
ATOM     52  C   UNL     1       7.166  -0.400   9.268  1.00  0.00     0.058 A 
ATOM     53  C   UNL     1       8.187   0.535   9.488  1.00  0.00     0.135 A 
ATOM     54  C   UNL     1       5.947  -0.209   9.937  1.00  0.00     0.135 A 
ATOM     55  F   UNL     1       9.370   0.395   8.871  1.00  0.00    -0.206 F 
ATOM     56  C   UNL     1       8.014   1.611  10.354  1.00  0.00     0.059 A 
ATOM     57  C   UNL     1       5.739   0.873  10.784  1.00  0.00     0.059 A 
ATOM     58  F   UNL     1       4.931  -1.064   9.742  1.00  0.00    -0.206 F 
ATOM     59  C   UNL     1       6.784   1.771  10.997  1.00  0.00     0.060 A 
BRANCH  59  60
ATOM     60  S   UNL     1       6.545   3.194  12.082  1.00  0.00     0.124 S 
ATOM     61  O   UNL     1       7.244   2.763  13.287  1.00  0.00    -0.237 OA
ATOM     62  O   UNL     1       7.179   4.271  11.327  1.00  0.00    -0.237 OA
ATOM     63  O   UNL     1       5.093   3.288  12.192  1.00  0.00    -0.744 OA
ENDBRANCH  59  60
ENDBRANCH  27  52
BRANCH  39  64
ATOM     64  C   UNL     1      10.963  -6.232   9.474  1.00  0.00     0.058 A 
ATOM     65  C   UNL     1      10.517  -6.724  10.712  1.00  0.00     0.135 A 
ATOM     66  C   UNL     1      12.341  -6.260   9.213  1.00  0.00     0.135 A 
ATOM     67  F   UNL     1       9.209  -6.712  11.012  1.00  0.00    -0.206 F 
ATOM     68  C   UNL     1      11.410  -7.190  11.671  1.00  0.00     0.059 A 
ATOM     69  C   UNL     1      13.250  -6.745  10.148  1.00  0.00     0.059 A 
ATOM     70  F   UNL     1      12.817  -5.809   8.041  1.00  0.00    -0.206 F 
ATOM     71  C   UNL     1      12.776  -7.190  11.382  1.00  0.00     0.060 A 
BRANCH  71  72
ATOM     72  S   UNL     1      13.927  -7.793  12.634  1.00  0.00     0.124 S 
ATOM     73  O   UNL     1      13.979  -6.662  13.554  1.00  0.00    -0.237 OA
ATOM     74  O   UNL     1      13.253  -8.987  13.134  1.00  0.00    -0.237 OA
ATOM     75  O   UNL     1      15.150  -8.043  11.877  1.00  0.00    -0.744 OA
ENDBRANCH  71  72
ENDBRANCH  39  64
ENDBRANCH  13  14
ENDBRANCH   6   8
ENDBRANCH   3   4
ENDBRANCH   2   3
ENDBRANCH   1   2
BRANCH   1  76
ATOM     76  C   UNL     1       4.651   2.793  -3.555  1.00  0.00     0.002 C 
BRANCH  76  77
ATOM     77  C   UNL     1       6.143   3.075  -3.335  1.00  0.00     0.021 C 
BRANCH  77  78
ATOM     78  C   UNL     1       7.103   2.507  -4.376  1.00  0.00     0.116 C 
BRANCH  78  79
ATOM     79  N   UNL     1       6.858   2.995  -5.718  1.00  0.00    -0.350 N 
ATOM     80  C   UNL     1       7.676   2.917  -6.813  1.00  0.00     0.294 C 
ATOM     81  H   UNL     1       5.992   3.440  -5.861  1.00  0.00     0.163 HD
ATOM     82  O   UNL     1       7.192   3.252  -7.902  1.00  0.00    -0.267 OA
BRANCH  80  83
ATOM     83  C   UNL     1       9.134   2.398  -6.715  1.00  0.00     0.440 C 
ATOM     84  F   UNL     1       9.736   2.639  -5.513  1.00  0.00    -0.191 F 
BRANCH  83  85
ATOM     85  O   UNL     1       9.331   1.031  -7.088  1.00  0.00    -0.452 OA
BRANCH  85  86
ATOM     86  C   UNL     1       8.990   0.155  -6.098  1.00  0.00     0.125 A 
ATOM     87  C   UNL     1       7.774  -0.522  -6.191  1.00  0.00     0.050 A 
ATOM     88  C   UNL     1       9.874  -0.104  -5.049  1.00  0.00     0.070 A 
ATOM     89  C   UNL     1       7.400  -1.405  -5.177  1.00  0.00     0.044 A 
ATOM     90  C   UNL     1       9.498  -0.989  -4.039  1.00  0.00     0.080 A 
ATOM     91  C   UNL     1       8.258  -1.624  -4.101  1.00  0.00     0.142 A 
ATOM     92  Cl  UNL     1      10.565  -1.265  -2.719  1.00  0.00    -0.081 Cl
ATOM     93  F   UNL     1       7.856  -2.442  -3.118  1.00  0.00    -0.205 F 
ENDBRANCH  85  86
ENDBRANCH  83  85
ENDBRANCH  80  83
ENDBRANCH  78  79
ENDBRANCH  77  78
ENDBRANCH  76  77
ENDBRANCH   1  76
TORSDOF 18
