REMARK SMILES Cc1ccc(S(=O)(=O)n2cc(C(=O)C(=O)NCC(=O)NCCCCCCNC(=O)c3ccc(-c4c5nc(c(-c6c(F)cc(S(=O)(=O)[O-])cc6F)c6ccc([nH]6)c(-c6c(F)cc(S(=O)(=O)[O-])cc6F)c6nc(c(-c7c(F)cc(S(=O)(=O)[O-])cc7F)c7ccc4[nH]7)C=C6)C=C5)cc3)c3ccccc32)cc1
REMARK SMILES IDX 22 1 21 2 20 3 18 4 19 5 17 7 16 8 14 9 15 10 12 12 13 13
REMARK SMILES IDX 11 14 9 15 10 16 101 17 96 18 100 19 97 20 99 21 98 22 6 23
REMARK SMILES IDX 7 24 8 25 5 26 1 27 2 28 3 29 103 30 4 31 102 32 23 33 24 34
REMARK SMILES IDX 25 35 26 36 27 37 28 38 29 40 30 41 31 42 95 43 32 44 94 45
REMARK SMILES IDX 33 46 34 47 35 48 88 49 36 50 93 51 87 52 89 53 37 54 92 55
REMARK SMILES IDX 86 56 85 57 38 59 72 60 51 61 71 62 52 63 55 64 70 65 90 66
REMARK SMILES IDX 53 67 54 68 69 70 91 71 56 72 39 73 40 74 49 75 41 76 42 77
REMARK SMILES IDX 48 78 50 79 43 80 44 81 45 82 46 83 47 84 73 85 74 86 83 87
REMARK SMILES IDX 75 88 76 89 82 90 84 91 77 92 78 93 79 94 80 95 81 96 57 97
REMARK SMILES IDX 58 98 67 99 59 100 60 101 66 102 68 103 61 104 62 105 63 106
REMARK SMILES IDX 64 107 65 108
REMARK H PARENT 20 6 16 11 27 39 89 58 55 69
REMARK Flexibility Score: inf
ROOT
ATOM      1  C   UNL     1     -10.117   3.542   1.290  1.00  0.00     0.021 C 
ENDROOT
BRANCH   1   2
ATOM      2  C   UNL     1      -9.436   4.880   1.010  1.00  0.00     0.116 C 
BRANCH   2   3
ATOM      3  N   UNL     1      -9.915   5.912   1.905  1.00  0.00    -0.355 N 
ATOM      4  C   UNL     1      -9.246   6.594   2.877  1.00  0.00     0.239 C 
ATOM      5  O   UNL     1      -9.835   7.502   3.468  1.00  0.00    -0.273 OA
ATOM      6  H   UNL     1     -10.862   6.158   1.795  1.00  0.00     0.163 HD
BRANCH   4   7
ATOM      7  C   UNL     1      -7.753   6.341   3.112  1.00  0.00     0.216 C 
BRANCH   7   8
ATOM      8  N   UNL     1      -7.411   4.957   3.422  1.00  0.00    -0.340 N 
ATOM      9  C   UNL     1      -6.489   4.101   2.854  1.00  0.00     0.292 C 
ATOM     10  O   UNL     1      -6.335   2.993   3.357  1.00  0.00    -0.265 OA
ATOM     11  H   UNL     1      -7.926   4.566   4.164  1.00  0.00     0.164 HD
BRANCH   9  12
ATOM     12  C   UNL     1      -5.674   4.510   1.597  1.00  0.00     0.252 C 
ATOM     13  O   UNL     1      -5.546   5.707   1.352  1.00  0.00    -0.283 OA
BRANCH  12  14
ATOM     14  C   UNL     1      -5.053   3.510   0.710  1.00  0.00     0.054 A 
ATOM     15  N   UNL     1      -4.175   1.616  -0.094  1.00  0.00    -0.240 N 
ATOM     16  C   UNL     1      -4.852   2.165   0.966  1.00  0.00     0.117 A 
ATOM     17  C   UNL     1      -3.942   2.554  -1.077  1.00  0.00     0.065 A 
ATOM     18  C   UNL     1      -4.486   3.755  -0.596  1.00  0.00     0.012 A 
ATOM     19  C   UNL     1      -3.282   2.479  -2.317  1.00  0.00     0.028 A 
ATOM     20  C   UNL     1      -4.376   4.906  -1.409  1.00  0.00     0.011 A 
ATOM     21  C   UNL     1      -3.168   3.642  -3.081  1.00  0.00     0.002 A 
ATOM     22  C   UNL     1      -3.714   4.840  -2.639  1.00  0.00     0.001 A 
BRANCH  15  23
ATOM     23  S   UNL     1      -3.594   0.013  -0.118  1.00  0.00     0.268 S 
ATOM     24  O   UNL     1      -3.922  -0.486  -1.436  1.00  0.00    -0.201 OA
ATOM     25  O   UNL     1      -4.099  -0.600   1.098  1.00  0.00    -0.201 OA
BRANCH  23  26
ATOM     26  C   UNL     1      -1.824   0.068   0.014  1.00  0.00     0.088 A 
ATOM     27  C   UNL     1       2.478  -0.049   0.027  1.00  0.00     0.044 C 
ATOM     28  C   UNL     1       0.979  -0.002   0.043  1.00  0.00    -0.051 A 
ATOM     29  C   UNL     1       0.243  -1.191  -0.029  1.00  0.00     0.005 A 
ATOM     30  C   UNL     1       0.297   1.218   0.133  1.00  0.00     0.005 A 
ATOM     31  C   UNL     1      -1.152  -1.158  -0.049  1.00  0.00     0.022 A 
ATOM     32  C   UNL     1      -1.101   1.257   0.132  1.00  0.00     0.022 A 
ENDBRANCH  23  26
ENDBRANCH  15  23
ENDBRANCH  12  14
ENDBRANCH   9  12
ENDBRANCH   7   8
ENDBRANCH   4   7
ENDBRANCH   2   3
ENDBRANCH   1   2
BRANCH   1  33
ATOM     33  C   UNL     1     -11.589   3.487   0.854  1.00  0.00     0.002 C 
BRANCH  33  34
ATOM     34  C   UNL     1     -11.873   3.890  -0.602  1.00  0.00     0.002 C 
BRANCH  34  35
ATOM     35  C   UNL     1     -10.980   3.230  -1.650  1.00  0.00     0.021 C 
BRANCH  35  36
ATOM     36  C   UNL     1     -11.264   1.750  -1.849  1.00  0.00     0.116 C 
BRANCH  36  37
ATOM     37  N   UNL     1     -12.069   1.510  -3.040  1.00  0.00    -0.352 N 
ATOM     38  C   UNL     1     -12.023   0.404  -3.873  1.00  0.00     0.251 C 
ATOM     39  H   UNL     1     -12.717   2.212  -3.280  1.00  0.00     0.163 HD
ATOM     40  O   UNL     1     -12.245   0.444  -5.075  1.00  0.00    -0.269 OA
BRANCH  38  41
ATOM     41  C   UNL     1     -11.881  -0.893  -3.187  1.00  0.00     0.039 A 
ATOM     42  C   UNL     1     -13.059  -1.637  -3.019  1.00  0.00     0.014 A 
ATOM     43  C   UNL     1     -10.766  -1.090  -2.385  1.00  0.00     0.014 A 
ATOM     44  C   UNL     1     -13.212  -2.403  -1.879  1.00  0.00     0.010 A 
ATOM     45  C   UNL     1     -10.967  -1.724  -1.191  1.00  0.00     0.010 A 
ATOM     46  C   UNL     1     -12.206  -2.328  -0.929  1.00  0.00    -0.014 A 
BRANCH  46  47
ATOM     47  C   UNL     1     -12.271  -2.936   0.378  1.00  0.00     0.031 A 
ATOM     48  C   UNL     1     -11.575  -4.222   0.513  1.00  0.00     0.074 A 
ATOM     49  C   UNL     1     -12.692  -2.155   1.394  1.00  0.00     0.049 A 
ATOM     50  N   UNL     1     -11.606  -4.968   1.552  1.00  0.00    -0.248 NA
ATOM     51  C   UNL     1     -10.780  -4.793  -0.574  1.00  0.00     0.031 C 
ATOM     52  C   UNL     1     -12.462  -2.308   2.824  1.00  0.00     0.029 A 
ATOM     53  N   UNL     1     -13.635  -1.123   1.306  1.00  0.00    -0.354 N 
ATOM     54  C   UNL     1     -10.602  -5.907   1.415  1.00  0.00     0.074 A 
ATOM     55  C   UNL     1     -10.203  -5.829   0.036  1.00  0.00     0.031 C 
ATOM     56  C   UNL     1     -13.426  -1.644   3.489  1.00  0.00     0.029 A 
ATOM     57  C   UNL     1     -14.389  -1.191   2.495  1.00  0.00     0.049 A 
ATOM     58  H   UNL     1     -13.748  -0.483   0.567  1.00  0.00     0.167 HD
ATOM     59  C   UNL     1     -10.144  -6.503   2.552  1.00  0.00     0.037 A 
ATOM     60  C   UNL     1     -15.684  -1.628   2.429  1.00  0.00     0.037 A 
ATOM     61  C   UNL     1     -11.038  -6.146   3.660  1.00  0.00     0.049 A 
ATOM     62  C   UNL     1     -15.869  -2.963   3.125  1.00  0.00     0.074 A 
ATOM     63  C   UNL     1     -10.970  -5.171   4.642  1.00  0.00     0.029 A 
ATOM     64  N   UNL     1     -12.372  -6.540   3.590  1.00  0.00    -0.354 N 
ATOM     65  N   UNL     1     -14.926  -3.857   3.278  1.00  0.00    -0.248 NA
ATOM     66  C   UNL     1     -17.106  -3.337   3.800  1.00  0.00     0.031 C 
ATOM     67  C   UNL     1     -12.297  -4.906   5.082  1.00  0.00     0.029 A 
ATOM     68  C   UNL     1     -13.165  -5.735   4.387  1.00  0.00     0.049 A 
ATOM     69  H   UNL     1     -12.706  -7.289   3.046  1.00  0.00     0.167 HD
ATOM     70  C   UNL     1     -15.383  -4.880   4.073  1.00  0.00     0.074 A 
ATOM     71  C   UNL     1     -16.752  -4.498   4.377  1.00  0.00     0.031 C 
ATOM     72  C   UNL     1     -14.608  -5.946   4.450  1.00  0.00     0.037 A 
BRANCH  59  73
ATOM     73  C   UNL     1      -8.783  -7.154   2.734  1.00  0.00     0.058 A 
ATOM     74  C   UNL     1      -8.263  -7.333   4.037  1.00  0.00     0.135 A 
ATOM     75  C   UNL     1      -7.903  -7.558   1.706  1.00  0.00     0.135 A 
ATOM     76  F   UNL     1      -8.985  -7.035   5.126  1.00  0.00    -0.206 F 
ATOM     77  C   UNL     1      -6.976  -7.816   4.293  1.00  0.00     0.059 A 
ATOM     78  C   UNL     1      -6.604  -8.024   1.936  1.00  0.00     0.059 A 
ATOM     79  F   UNL     1      -8.259  -7.562   0.421  1.00  0.00    -0.206 F 
ATOM     80  C   UNL     1      -6.144  -8.149   3.235  1.00  0.00     0.060 A 
BRANCH  80  81
ATOM     81  S   UNL     1      -4.492  -8.777   3.580  1.00  0.00     0.124 S 
ATOM     82  O   UNL     1      -3.883  -7.660   4.295  1.00  0.00    -0.237 OA
ATOM     83  O   UNL     1      -4.778  -9.963   4.378  1.00  0.00    -0.237 OA
ATOM     84  O   UNL     1      -3.940  -9.038   2.253  1.00  0.00    -0.744 OA
ENDBRANCH  80  81
ENDBRANCH  59  73
BRANCH  60  85
ATOM     85  C   UNL     1     -16.381  -1.131   1.198  1.00  0.00     0.058 A 
ATOM     86  C   UNL     1     -16.544   0.268   1.082  1.00  0.00     0.135 A 
ATOM     87  C   UNL     1     -16.424  -1.873   0.009  1.00  0.00     0.135 A 
ATOM     88  F   UNL     1     -16.537   1.035   2.186  1.00  0.00    -0.206 F 
ATOM     89  C   UNL     1     -16.553   0.915  -0.152  1.00  0.00     0.059 A 
ATOM     90  C   UNL     1     -16.455  -1.243  -1.244  1.00  0.00     0.059 A 
ATOM     91  F   UNL     1     -16.290  -3.207   0.040  1.00  0.00    -0.206 F 
ATOM     92  C   UNL     1     -16.442   0.153  -1.310  1.00  0.00     0.060 A 
BRANCH  92  93
ATOM     93  S   UNL     1     -16.102   1.022  -2.865  1.00  0.00     0.124 S 
ATOM     94  O   UNL     1     -17.338   1.769  -3.067  1.00  0.00    -0.237 OA
ATOM     95  O   UNL     1     -14.926   1.824  -2.520  1.00  0.00    -0.237 OA
ATOM     96  O   UNL     1     -15.862  -0.062  -3.808  1.00  0.00    -0.744 OA
ENDBRANCH  92  93
ENDBRANCH  60  85
BRANCH  72  97
ATOM     97  C   UNL     1     -15.116  -7.266   5.011  1.00  0.00     0.058 A 
ATOM     98  C   UNL     1     -16.440  -7.723   4.888  1.00  0.00     0.135 A 
ATOM     99  C   UNL     1     -14.215  -8.207   5.581  1.00  0.00     0.135 A 
ATOM    100  F   UNL     1     -17.375  -7.016   4.240  1.00  0.00    -0.206 F 
ATOM    101  C   UNL     1     -16.859  -8.960   5.380  1.00  0.00     0.059 A 
ATOM    102  C   UNL     1     -14.595  -9.480   5.997  1.00  0.00     0.059 A 
ATOM    103  F   UNL     1     -12.912  -7.938   5.742  1.00  0.00    -0.206 F 
ATOM    104  C   UNL     1     -15.930  -9.832   5.933  1.00  0.00     0.060 A 
BRANCH 104 105
ATOM    105  S   UNL     1     -16.473 -11.438   6.530  1.00  0.00     0.124 S 
ATOM    106  O   UNL     1     -16.996 -11.092   7.848  1.00  0.00    -0.237 OA
ATOM    107  O   UNL     1     -17.470 -11.826   5.537  1.00  0.00    -0.237 OA
ATOM    108  O   UNL     1     -15.250 -12.235   6.524  1.00  0.00    -0.744 OA
ENDBRANCH 104 105
ENDBRANCH  72  97
ENDBRANCH  46  47
ENDBRANCH  38  41
ENDBRANCH  36  37
ENDBRANCH  35  36
ENDBRANCH  34  35
ENDBRANCH  33  34
ENDBRANCH   1  33
TORSDOF 21
