REMARK SMILES COC(=O)c1ccc([C@H]2CC(=O)Nc3c(C(=O)NCCCCCCNC(=O)c4ccc(-c5c6nc(c(-c7c(F)cc(S(=O)(=O)[O-])cc7F)c7ccc([nH]7)c(-c7c(F)cc(S(=O)(=O)[O-])cc7F)c7nc(c(-c8c(F)cc(S(=O)(=O)[O-])cc8F)c8ccc5[nH]8)C=C7)C=C6)cc4)cn(-c4ccccc4)c32)cc1
REMARK SMILES IDX 21 1 20 2 19 3 18 4 16 5 17 6 15 8 9 9 10 10 102 11 11 12
REMARK SMILES IDX 14 13 95 14 12 15 13 16 94 17 8 19 5 20 6 21 104 22 7 23
REMARK SMILES IDX 103 24 3 25 4 26 2 27 1 28 96 29 97 30 101 31 98 32 100 33
REMARK SMILES IDX 99 34 22 35 23 36 24 37 25 38 26 39 27 41 28 42 29 43 93 44
REMARK SMILES IDX 30 45 92 46 31 47 32 48 33 49 86 50 34 51 91 52 85 53 87 54
REMARK SMILES IDX 35 55 90 56 84 57 83 58 36 60 70 61 49 62 69 63 50 64 53 65
REMARK SMILES IDX 68 66 88 67 51 68 52 69 67 71 89 72 54 73 37 74 38 75 47 76
REMARK SMILES IDX 39 77 40 78 46 79 48 80 41 81 42 82 43 83 44 84 45 85 71 86
REMARK SMILES IDX 72 87 81 88 73 89 74 90 80 91 82 92 75 93 76 94 77 95 78 96
REMARK SMILES IDX 79 97 55 98 56 99 65 100 57 101 58 102 64 103 66 104 59 105
REMARK SMILES IDX 60 106 61 107 62 108 63 109
REMARK H PARENT 18 7 13 18 25 40 87 59 53 70
REMARK Flexibility Score: inf
ROOT
ATOM      1  C   UNL     1      -7.654   4.200  -8.649  1.00  0.00     0.002 C 
ENDROOT
BRANCH   1   2
ATOM      2  C   UNL     1      -6.220   4.268  -8.119  1.00  0.00     0.021 C 
BRANCH   2   3
ATOM      3  C   UNL     1      -5.694   2.912  -7.631  1.00  0.00     0.116 C 
BRANCH   3   4
ATOM      4  N   UNL     1      -4.958   2.258  -8.678  1.00  0.00    -0.352 N 
ATOM      5  C   UNL     1      -3.630   2.176  -8.978  1.00  0.00     0.254 C 
ATOM      6  O   UNL     1      -3.369   1.458  -9.949  1.00  0.00    -0.269 OA
ATOM      7  H   UNL     1      -5.532   1.766  -9.309  1.00  0.00     0.163 HD
BRANCH   5   8
ATOM      8  C   UNL     1      -2.549   2.816  -8.214  1.00  0.00     0.081 A 
ATOM      9  C   UNL     1      -0.470   5.091  -6.068  1.00  0.00     0.078 C 
ATOM     10  C   UNL     1      -1.534   6.123  -5.671  1.00  0.00     0.115 C 
ATOM     11  C   UNL     1      -1.050   3.998  -6.939  1.00  0.00     0.055 A 
ATOM     12  C   UNL     1      -2.955   5.635  -5.703  1.00  0.00     0.225 C 
ATOM     13  C   UNL     1      -2.389   3.868  -7.258  1.00  0.00     0.076 A 
ATOM     14  N   UNL     1      -0.357   3.000  -7.601  1.00  0.00    -0.317 N 
ATOM     15  O   UNL     1      -3.834   6.124  -4.993  1.00  0.00    -0.275 OA
ATOM     16  N   UNL     1      -3.284   4.708  -6.645  1.00  0.00    -0.324 N 
ATOM     17  C   UNL     1      -1.248   2.366  -8.430  1.00  0.00     0.107 A 
ATOM     18  H   UNL     1      -4.231   4.636  -6.905  1.00  0.00     0.170 HD
BRANCH   9  19
ATOM     19  C   UNL     1       0.710   5.873  -6.651  1.00  0.00    -0.038 A 
ATOM     20  C   UNL     1       2.971   7.253  -7.624  1.00  0.00     0.060 A 
ATOM     21  C   UNL     1       2.626   7.331  -6.271  1.00  0.00     0.016 A 
ATOM     22  C   UNL     1       2.147   6.544  -8.501  1.00  0.00     0.016 A 
ATOM     23  C   UNL     1       1.513   6.639  -5.788  1.00  0.00     0.005 A 
ATOM     24  C   UNL     1       1.006   5.899  -8.023  1.00  0.00     0.005 A 
BRANCH  20  25
ATOM     25  C   UNL     1       4.220   7.909  -8.079  1.00  0.00     0.337 C 
ATOM     26  O   UNL     1       5.085   8.323  -7.313  1.00  0.00    -0.246 OA
BRANCH  25  27
ATOM     27  O   UNL     1       4.264   7.952  -9.429  1.00  0.00    -0.465 OA
ATOM     28  C   UNL     1       5.387   8.645  -9.968  1.00  0.00     0.282 C 
ENDBRANCH  25  27
ENDBRANCH  20  25
ENDBRANCH   9  19
BRANCH  14  29
ATOM     29  C   UNL     1       1.034   2.736  -7.574  1.00  0.00     0.045 A 
ATOM     30  C   UNL     1       1.732   2.733  -6.365  1.00  0.00     0.026 A 
ATOM     31  C   UNL     1       1.719   2.611  -8.791  1.00  0.00     0.026 A 
ATOM     32  C   UNL     1       3.126   2.678  -6.377  1.00  0.00     0.002 A 
ATOM     33  C   UNL     1       3.113   2.592  -8.794  1.00  0.00     0.002 A 
ATOM     34  C   UNL     1       3.814   2.636  -7.590  1.00  0.00     0.000 A 
ENDBRANCH  14  29
ENDBRANCH   5   8
ENDBRANCH   3   4
ENDBRANCH   2   3
ENDBRANCH   1   2
BRANCH   1  35
ATOM     35  C   UNL     1      -8.694   3.722  -7.621  1.00  0.00     0.002 C 
BRANCH  35  36
ATOM     36  C   UNL     1      -8.716   4.473  -6.279  1.00  0.00     0.021 C 
BRANCH  36  37
ATOM     37  C   UNL     1      -9.276   5.881  -6.397  1.00  0.00     0.116 C 
BRANCH  37  38
ATOM     38  N   UNL     1     -10.686   5.861  -6.804  1.00  0.00    -0.352 N 
ATOM     39  C   UNL     1     -11.523   6.905  -7.141  1.00  0.00     0.251 C 
ATOM     40  H   UNL     1     -11.097   4.968  -6.841  1.00  0.00     0.163 HD
ATOM     41  O   UNL     1     -12.740   6.757  -7.121  1.00  0.00    -0.269 OA
BRANCH  39  42
ATOM     42  C   UNL     1     -10.929   8.193  -7.529  1.00  0.00     0.039 A 
ATOM     43  C   UNL     1     -11.518   9.416  -7.195  1.00  0.00     0.014 A 
ATOM     44  C   UNL     1      -9.732   8.152  -8.232  1.00  0.00     0.014 A 
ATOM     45  C   UNL     1     -10.847  10.590  -7.529  1.00  0.00     0.010 A 
ATOM     46  C   UNL     1      -8.971   9.278  -8.335  1.00  0.00     0.010 A 
ATOM     47  C   UNL     1      -9.566  10.505  -8.094  1.00  0.00    -0.014 A 
BRANCH  47  48
ATOM     48  C   UNL     1      -8.770  11.684  -8.395  1.00  0.00     0.031 A 
ATOM     49  C   UNL     1      -8.517  12.557  -7.223  1.00  0.00     0.074 A 
ATOM     50  C   UNL     1      -8.111  11.822  -9.567  1.00  0.00     0.049 A 
ATOM     51  N   UNL     1      -9.010  13.727  -6.988  1.00  0.00    -0.248 NA
ATOM     52  C   UNL     1      -7.766  11.991  -6.089  1.00  0.00     0.031 C 
ATOM     53  C   UNL     1      -7.998  10.864 -10.678  1.00  0.00     0.029 A 
ATOM     54  N   UNL     1      -7.293  12.827  -9.970  1.00  0.00    -0.354 N 
ATOM     55  C   UNL     1      -8.421  14.150  -5.801  1.00  0.00     0.074 A 
ATOM     56  C   UNL     1      -7.871  12.970  -5.188  1.00  0.00     0.031 C 
ATOM     57  C   UNL     1      -6.984  11.228 -11.493  1.00  0.00     0.029 A 
ATOM     58  C   UNL     1      -6.500  12.528 -11.074  1.00  0.00     0.049 A 
ATOM     59  H   UNL     1      -7.263  13.700  -9.517  1.00  0.00     0.167 HD
ATOM     60  C   UNL     1      -8.192  15.472  -5.562  1.00  0.00     0.037 A 
ATOM     61  C   UNL     1      -5.498  13.292 -11.579  1.00  0.00     0.037 A 
ATOM     62  C   UNL     1      -8.940  16.297  -6.483  1.00  0.00     0.049 A 
ATOM     63  C   UNL     1      -5.725  14.673 -11.072  1.00  0.00     0.074 A 
ATOM     64  C   UNL     1     -10.280  16.434  -6.791  1.00  0.00     0.029 A 
ATOM     65  N   UNL     1      -8.258  16.848  -7.543  1.00  0.00    -0.354 N 
ATOM     66  N   UNL     1      -6.761  15.402 -11.395  1.00  0.00    -0.248 NA
ATOM     67  C   UNL     1      -5.066  15.048  -9.830  1.00  0.00     0.031 C 
ATOM     68  C   UNL     1     -10.318  16.589  -8.209  1.00  0.00     0.029 A 
ATOM     69  C   UNL     1      -9.002  16.624  -8.675  1.00  0.00     0.049 A 
ATOM     70  H   UNL     1      -7.393  17.317  -7.499  1.00  0.00     0.167 HD
ATOM     71  C   UNL     1      -7.138  16.034 -10.217  1.00  0.00     0.074 A 
ATOM     72  C   UNL     1      -6.010  15.836  -9.307  1.00  0.00     0.031 C 
ATOM     73  C   UNL     1      -8.434  16.402  -9.990  1.00  0.00     0.037 A 
BRANCH  60  74
ATOM     74  C   UNL     1      -7.019  16.008  -4.773  1.00  0.00     0.058 A 
ATOM     75  C   UNL     1      -6.968  17.386  -4.472  1.00  0.00     0.135 A 
ATOM     76  C   UNL     1      -5.821  15.294  -4.540  1.00  0.00     0.135 A 
ATOM     77  F   UNL     1      -8.046  18.166  -4.656  1.00  0.00    -0.206 F 
ATOM     78  C   UNL     1      -5.797  18.018  -4.053  1.00  0.00     0.059 A 
ATOM     79  C   UNL     1      -4.660  15.894  -4.066  1.00  0.00     0.059 A 
ATOM     80  F   UNL     1      -5.679  14.002  -4.850  1.00  0.00    -0.206 F 
ATOM     81  C   UNL     1      -4.643  17.263  -3.869  1.00  0.00     0.060 A 
BRANCH  81  82
ATOM     82  S   UNL     1      -3.103  18.088  -3.437  1.00  0.00     0.124 S 
ATOM     83  O   UNL     1      -2.813  18.820  -4.664  1.00  0.00    -0.237 OA
ATOM     84  O   UNL     1      -3.506  18.895  -2.289  1.00  0.00    -0.237 OA
ATOM     85  O   UNL     1      -2.203  16.980  -3.132  1.00  0.00    -0.744 OA
ENDBRANCH  81  82
ENDBRANCH  60  74
BRANCH  61  86
ATOM     86  C   UNL     1      -4.195  12.836 -12.139  1.00  0.00     0.058 A 
ATOM     87  C   UNL     1      -3.345  13.722 -12.825  1.00  0.00     0.135 A 
ATOM     88  C   UNL     1      -3.628  11.599 -11.768  1.00  0.00     0.135 A 
ATOM     89  F   UNL     1      -3.794  14.929 -13.201  1.00  0.00    -0.206 F 
ATOM     90  C   UNL     1      -2.001  13.422 -13.083  1.00  0.00     0.059 A 
ATOM     91  C   UNL     1      -2.294  11.275 -12.021  1.00  0.00     0.059 A 
ATOM     92  F   UNL     1      -4.330  10.698 -11.064  1.00  0.00    -0.206 F 
ATOM     93  C   UNL     1      -1.478  12.202 -12.656  1.00  0.00     0.060 A 
BRANCH  93  94
ATOM     94  S   UNL     1       0.296  11.880 -12.826  1.00  0.00     0.124 S 
ATOM     95  O   UNL     1       0.441  11.736 -14.270  1.00  0.00    -0.237 OA
ATOM     96  O   UNL     1       0.886  13.079 -12.242  1.00  0.00    -0.237 OA
ATOM     97  O   UNL     1       0.493  10.654 -12.056  1.00  0.00    -0.744 OA
ENDBRANCH  93  94
ENDBRANCH  61  86
BRANCH  73  98
ATOM     98  C   UNL     1      -9.407  16.369 -11.145  1.00  0.00     0.058 A 
ATOM     99  C   UNL     1      -9.807  15.203 -11.825  1.00  0.00     0.135 A 
ATOM    100  C   UNL     1     -10.090  17.553 -11.464  1.00  0.00     0.135 A 
ATOM    101  F   UNL     1      -9.282  14.010 -11.517  1.00  0.00    -0.206 F 
ATOM    102  C   UNL     1     -10.810  15.221 -12.798  1.00  0.00     0.059 A 
ATOM    103  C   UNL     1     -11.114  17.589 -12.407  1.00  0.00     0.059 A 
ATOM    104  F   UNL     1      -9.801  18.690 -10.809  1.00  0.00    -0.206 F 
ATOM    105  C   UNL     1     -11.461  16.421 -13.080  1.00  0.00     0.060 A 
BRANCH 105 106
ATOM    106  S   UNL     1     -12.810  16.432 -14.282  1.00  0.00     0.124 S 
ATOM    107  O   UNL     1     -12.101  16.228 -15.541  1.00  0.00    -0.237 OA
ATOM    108  O   UNL     1     -13.644  15.320 -13.836  1.00  0.00    -0.237 OA
ATOM    109  O   UNL     1     -13.408  17.755 -14.112  1.00  0.00    -0.744 OA
ENDBRANCH 105 106
ENDBRANCH  73  98
ENDBRANCH  47  48
ENDBRANCH  39  42
ENDBRANCH  37  38
ENDBRANCH  36  37
ENDBRANCH  35  36
ENDBRANCH   1  35
TORSDOF 20
