REMARK SMILES O=C(NCCCCCCNC(=O)[C@@H]1CN(C(=O)[C@H]2CC=CCC2)c2ccccc2O1)c1ccc(-c2c3nc(c(-c4c(F)cc(S(=O)(=O)[O-])cc4F)c4ccc([nH]4)c(-c4c(F)cc(S(=O)(=O)[O-])cc4F)c4nc(c(-c5c(F)cc(S(=O)(=O)[O-])cc5F)c5ccc2[nH]5)C=C4)C=C3)cc1
REMARK SMILES IDX 6 1 5 2 4 3 3 4 1 5 2 6 31 8 32 9 96 10 33 11 95 12 34 13
REMARK SMILES IDX 35 14 36 15 89 16 37 17 94 18 88 19 90 20 38 21 93 22 87 23
REMARK SMILES IDX 86 24 39 26 73 27 52 28 72 29 53 30 56 31 71 32 91 33 54 34
REMARK SMILES IDX 55 35 70 37 92 38 57 39 40 40 41 41 50 42 42 43 43 44 49 45
REMARK SMILES IDX 51 46 44 47 45 48 46 49 47 50 48 51 74 52 75 53 84 54 76 55
REMARK SMILES IDX 77 56 83 57 85 58 78 59 79 60 80 61 81 62 82 63 58 64 59 65
REMARK SMILES IDX 68 66 60 67 61 68 67 69 69 70 62 71 63 72 64 73 65 74 66 75
REMARK SMILES IDX 7 76 8 77 9 78 10 79 11 80 12 82 13 83 14 84 30 85 15 86
REMARK SMILES IDX 29 87 24 88 28 89 25 90 27 91 26 92 16 93 17 94 18 95 19 96
REMARK SMILES IDX 23 97 20 98 22 99 21 100
REMARK H PARENT 3 7 90 25 56 36 10 81
REMARK Flexibility Score: inf
ROOT
ATOM      1  C   UNL     1       3.849  -3.480   1.378  1.00  0.00     0.002 C 
ENDROOT
BRANCH   1   2
ATOM      2  C   UNL     1       4.483  -2.097   1.545  1.00  0.00     0.021 C 
BRANCH   2   3
ATOM      3  C   UNL     1       4.329  -1.177   0.341  1.00  0.00     0.116 C 
BRANCH   3   4
ATOM      4  N   UNL     1       2.934  -0.951   0.003  1.00  0.00    -0.352 N 
ATOM      5  O   UNL     1       1.033   0.241  -0.207  1.00  0.00    -0.269 OA
ATOM      6  C   UNL     1       2.252   0.236  -0.112  1.00  0.00     0.251 C 
ATOM      7  H   UNL     1       2.403  -1.762  -0.169  1.00  0.00     0.163 HD
BRANCH   6   8
ATOM      8  C   UNL     1       3.012   1.504  -0.109  1.00  0.00     0.039 A 
ATOM      9  C   UNL     1       4.171   1.632  -0.878  1.00  0.00     0.014 A 
ATOM     10  C   UNL     1       2.552   2.573   0.663  1.00  0.00     0.014 A 
ATOM     11  C   UNL     1       4.936   2.786  -0.782  1.00  0.00     0.010 A 
ATOM     12  C   UNL     1       3.277   3.767   0.688  1.00  0.00     0.010 A 
ATOM     13  C   UNL     1       4.484   3.876  -0.021  1.00  0.00    -0.014 A 
BRANCH  13  14
ATOM     14  C   UNL     1       5.245   5.149  -0.058  1.00  0.00     0.031 A 
ATOM     15  C   UNL     1       5.901   5.703   1.174  1.00  0.00     0.074 A 
ATOM     16  C   UNL     1       5.345   5.795  -1.237  1.00  0.00     0.049 A 
ATOM     17  N   UNL     1       6.599   6.801   1.308  1.00  0.00    -0.248 NA
ATOM     18  C   UNL     1       5.749   4.933   2.418  1.00  0.00     0.031 C 
ATOM     19  C   UNL     1       4.732   5.351  -2.493  1.00  0.00     0.029 A 
ATOM     20  N   UNL     1       6.003   6.947  -1.580  1.00  0.00    -0.354 N 
ATOM     21  C   UNL     1       6.957   6.866   2.649  1.00  0.00     0.074 A 
ATOM     22  C   UNL     1       6.376   5.707   3.294  1.00  0.00     0.031 C 
ATOM     23  C   UNL     1       5.078   6.194  -3.475  1.00  0.00     0.029 A 
ATOM     24  C   UNL     1       5.876   7.275  -2.909  1.00  0.00     0.049 A 
ATOM     25  H   UNL     1       6.516   7.487  -0.938  1.00  0.00     0.167 HD
ATOM     26  C   UNL     1       7.707   7.804   3.277  1.00  0.00     0.037 A 
ATOM     27  C   UNL     1       6.329   8.340  -3.595  1.00  0.00     0.037 A 
ATOM     28  C   UNL     1       8.283   8.949   2.615  1.00  0.00     0.049 A 
ATOM     29  C   UNL     1       7.132   9.378  -2.868  1.00  0.00     0.074 A 
ATOM     30  C   UNL     1       9.086   9.940   3.154  1.00  0.00     0.029 A 
ATOM     31  N   UNL     1       8.111   9.263   1.274  1.00  0.00    -0.354 N 
ATOM     32  N   UNL     1       7.491   9.405  -1.606  1.00  0.00    -0.248 NA
ATOM     33  C   UNL     1       7.589  10.531  -3.652  1.00  0.00     0.031 C 
ATOM     34  C   UNL     1       9.358  10.877   2.151  1.00  0.00     0.029 A 
ATOM     35  C   UNL     1       8.771  10.444   0.973  1.00  0.00     0.049 A 
ATOM     36  H   UNL     1       7.596   8.725   0.630  1.00  0.00     0.167 HD
ATOM     37  C   UNL     1       8.230  10.570  -1.448  1.00  0.00     0.074 A 
ATOM     38  C   UNL     1       8.283  11.209  -2.748  1.00  0.00     0.031 C 
ATOM     39  C   UNL     1       8.811  11.067  -0.328  1.00  0.00     0.037 A 
BRANCH  26  40
ATOM     40  C   UNL     1       7.933   7.648   4.757  1.00  0.00     0.058 A 
ATOM     41  C   UNL     1       8.764   6.644   5.279  1.00  0.00     0.135 A 
ATOM     42  C   UNL     1       7.345   8.546   5.665  1.00  0.00     0.135 A 
ATOM     43  F   UNL     1       9.341   5.751   4.460  1.00  0.00    -0.206 F 
ATOM     44  C   UNL     1       8.984   6.519   6.648  1.00  0.00     0.059 A 
ATOM     45  C   UNL     1       7.573   8.456   7.036  1.00  0.00     0.059 A 
ATOM     46  F   UNL     1       6.543   9.526   5.223  1.00  0.00    -0.206 F 
ATOM     47  C   UNL     1       8.383   7.430   7.519  1.00  0.00     0.060 A 
BRANCH  47  48
ATOM     48  S   UNL     1       8.683   7.256   9.291  1.00  0.00     0.124 S 
ATOM     49  O   UNL     1       7.900   6.064   9.603  1.00  0.00    -0.237 OA
ATOM     50  O   UNL     1      10.132   7.094   9.348  1.00  0.00    -0.237 OA
ATOM     51  O   UNL     1       8.173   8.505   9.848  1.00  0.00    -0.744 OA
ENDBRANCH  47  48
ENDBRANCH  26  40
BRANCH  27  52
ATOM     52  C   UNL     1       6.020   8.470  -5.043  1.00  0.00     0.058 A 
ATOM     53  C   UNL     1       7.023   8.340  -6.012  1.00  0.00     0.135 A 
ATOM     54  C   UNL     1       4.705   8.690  -5.486  1.00  0.00     0.135 A 
ATOM     55  F   UNL     1       8.295   8.130  -5.638  1.00  0.00    -0.206 F 
ATOM     56  C   UNL     1       6.739   8.436  -7.370  1.00  0.00     0.059 A 
ATOM     57  C   UNL     1       4.391   8.760  -6.838  1.00  0.00     0.059 A 
ATOM     58  F   UNL     1       3.705   8.802  -4.597  1.00  0.00    -0.206 F 
ATOM     59  C   UNL     1       5.418   8.642  -7.773  1.00  0.00     0.060 A 
BRANCH  59  60
ATOM     60  S   UNL     1       5.052   8.713  -9.540  1.00  0.00     0.124 S 
ATOM     61  O   UNL     1       5.592  10.019  -9.898  1.00  0.00    -0.237 OA
ATOM     62  O   UNL     1       5.782   7.557 -10.051  1.00  0.00    -0.237 OA
ATOM     63  O   UNL     1       3.597   8.595  -9.586  1.00  0.00    -0.744 OA
ENDBRANCH  59  60
ENDBRANCH  27  52
BRANCH  39  64
ATOM     64  C   UNL     1       9.576  12.354  -0.468  1.00  0.00     0.058 A 
ATOM     65  C   UNL     1       8.925  13.582  -0.659  1.00  0.00     0.135 A 
ATOM     66  C   UNL     1      10.977  12.360  -0.374  1.00  0.00     0.135 A 
ATOM     67  F   UNL     1       7.588  13.630  -0.766  1.00  0.00    -0.206 F 
ATOM     68  C   UNL     1       9.638  14.771  -0.778  1.00  0.00     0.059 A 
ATOM     69  C   UNL     1      11.709  13.540  -0.461  1.00  0.00     0.059 A 
ATOM     70  F   UNL     1      11.648  11.213  -0.184  1.00  0.00    -0.206 F 
ATOM     71  C   UNL     1      11.030  14.739  -0.676  1.00  0.00     0.060 A 
BRANCH  71  72
ATOM     72  S   UNL     1      11.942  16.291  -0.802  1.00  0.00     0.124 S 
ATOM     73  O   UNL     1      11.845  16.574  -2.231  1.00  0.00    -0.237 OA
ATOM     74  O   UNL     1      11.178  17.175   0.072  1.00  0.00    -0.237 OA
ATOM     75  O   UNL     1      13.276  15.943  -0.321  1.00  0.00    -0.744 OA
ENDBRANCH  71  72
ENDBRANCH  39  64
ENDBRANCH  13  14
ENDBRANCH   6   8
ENDBRANCH   3   4
ENDBRANCH   2   3
ENDBRANCH   1   2
BRANCH   1  76
ATOM     76  C   UNL     1       4.299  -4.271   0.143  1.00  0.00     0.002 C 
BRANCH  76  77
ATOM     77  C   UNL     1       5.809  -4.347  -0.066  1.00  0.00     0.021 C 
BRANCH  77  78
ATOM     78  C   UNL     1       6.564  -4.933   1.116  1.00  0.00     0.116 C 
BRANCH  78  79
ATOM     79  N   UNL     1       6.674  -6.370   1.043  1.00  0.00    -0.353 N 
ATOM     80  C   UNL     1       7.774  -7.167   0.987  1.00  0.00     0.262 C 
ATOM     81  H   UNL     1       5.815  -6.850   1.032  1.00  0.00     0.163 HD
ATOM     82  O   UNL     1       7.564  -8.386   0.918  1.00  0.00    -0.271 OA
BRANCH  80  83
ATOM     83  C   UNL     1       9.235  -6.650   1.116  1.00  0.00     0.281 C 
ATOM     84  C   UNL     1       9.640  -6.590   2.583  1.00  0.00     0.181 C 
ATOM     85  O   UNL     1       9.707  -5.546   0.368  1.00  0.00    -0.477 OA
ATOM     86  N   UNL     1       9.214  -5.352   3.224  1.00  0.00    -0.304 N 
ATOM     87  C   UNL     1       9.852  -4.364   1.058  1.00  0.00     0.144 A 
ATOM     88  C   UNL     1       9.555  -4.195   2.432  1.00  0.00     0.086 A 
ATOM     89  C   UNL     1      10.138  -3.267   0.238  1.00  0.00     0.049 A 
ATOM     90  C   UNL     1       9.539  -2.889   2.937  1.00  0.00     0.030 A 
ATOM     91  C   UNL     1      10.095  -1.979   0.759  1.00  0.00     0.004 A 
ATOM     92  C   UNL     1       9.791  -1.791   2.104  1.00  0.00     0.002 A 
BRANCH  86  93
ATOM     93  C   UNL     1       8.445  -5.278   4.383  1.00  0.00     0.230 C 
ATOM     94  O   UNL     1       7.816  -4.254   4.683  1.00  0.00    -0.274 OA
BRANCH  93  95
ATOM     95  C   UNL     1       8.287  -6.474   5.352  1.00  0.00     0.083 C 
ATOM     96  C   UNL     1       7.393  -7.622   4.861  1.00  0.00     0.040 C 
ATOM     97  C   UNL     1       9.563  -6.911   6.082  1.00  0.00     0.018 C 
ATOM     98  C   UNL     1       8.083  -8.941   4.654  1.00  0.00    -0.030 C 
ATOM     99  C   UNL     1      10.291  -8.115   5.492  1.00  0.00     0.028 C 
ATOM    100  C   UNL     1       9.378  -9.158   4.925  1.00  0.00    -0.031 C 
ENDBRANCH  93  95
ENDBRANCH  86  93
ENDBRANCH  80  83
ENDBRANCH  78  79
ENDBRANCH  77  78
ENDBRANCH  76  77
ENDBRANCH   1  76
TORSDOF 18
