REMARK SMILES CCc1c(C)nc(Nc2cc(Cl)ccc2C)nc1OCC(=O)NCCCCCCNC(=O)c1ccc(-c2c3nc(c(-c4c(F)cc(S(=O)(=O)[O-])cc4F)c4ccc([nH]4)c(-c4c(F)cc(S(=O)(=O)[O-])cc4F)c4nc(c(-c5c(F)cc(S(=O)(=O)[O-])cc5F)c5ccc2[nH]5)C=C4)C=C3)cc1
REMARK SMILES IDX 26 1 25 2 24 3 23 4 21 5 22 6 20 8 19 9 18 10 3 11 4 12 5 13
REMARK SMILES IDX 6 14 17 15 7 16 2 17 1 18 8 19 9 21 10 22 15 23 11 24 14 25
REMARK SMILES IDX 16 26 12 27 13 28 27 29 28 30 29 31 30 32 31 33 32 35 33 36
REMARK SMILES IDX 34 37 98 38 35 39 97 40 36 41 37 42 38 43 91 44 39 45 96 46
REMARK SMILES IDX 90 47 92 48 40 49 95 50 89 51 88 52 41 54 75 55 54 56 74 57
REMARK SMILES IDX 55 58 58 59 73 60 93 61 56 62 57 63 72 65 94 66 59 67 42 68
REMARK SMILES IDX 43 69 52 70 44 71 45 72 51 73 53 74 46 75 47 76 48 77 49 78
REMARK SMILES IDX 50 79 76 80 77 81 86 82 78 83 79 84 85 85 87 86 80 87 81 88
REMARK SMILES IDX 82 89 83 90 84 91 60 92 61 93 70 94 62 95 63 96 69 97 71 98
REMARK SMILES IDX 64 99 65 100 66 101 67 102 68 103
REMARK H PARENT 23 7 8 20 30 34 92 53 58 64
REMARK Flexibility Score: inf
ROOT
ATOM      1  C   UNL     1       4.240   1.630   5.553  1.00  0.00     0.002 C 
ENDROOT
BRANCH   1   2
ATOM      2  C   UNL     1       4.589   1.951   4.093  1.00  0.00     0.021 C 
BRANCH   2   3
ATOM      3  C   UNL     1       4.708   0.738   3.179  1.00  0.00     0.116 C 
BRANCH   3   4
ATOM      4  N   UNL     1       3.504  -0.060   3.186  1.00  0.00    -0.353 N 
ATOM      5  C   UNL     1       2.761  -0.456   2.123  1.00  0.00     0.258 C 
ATOM      6  O   UNL     1       1.894  -1.315   2.307  1.00  0.00    -0.271 OA
ATOM      7  H   UNL     1       3.183  -0.351   4.070  1.00  0.00     0.163 HD
BRANCH   5   8
ATOM      8  C   UNL     1       3.064   0.100   0.725  1.00  0.00     0.331 C 
BRANCH   8   9
ATOM      9  O   UNL     1       3.090   1.476   0.426  1.00  0.00    -0.467 OA
BRANCH   9  10
ATOM     10  C   UNL     1       2.098   2.364   0.691  1.00  0.00     0.222 A 
ATOM     11  C   UNL     1       0.733   2.131   0.839  1.00  0.00     0.035 A 
ATOM     12  C   UNL     1      -0.004   3.260   1.191  1.00  0.00     0.050 A 
ATOM     13  C   UNL     1      -1.470   3.268   1.510  1.00  0.00     0.067 C 
ATOM     14  N   UNL     1       0.530   4.491   1.228  1.00  0.00    -0.218 NA
ATOM     15  N   UNL     1       2.630   3.613   0.720  1.00  0.00    -0.177 NA
ATOM     16  C   UNL     1       1.825   4.647   0.966  1.00  0.00     0.230 A 
BRANCH  11  17
ATOM     17  C   UNL     1       0.037   0.819   0.613  1.00  0.00     0.040 C 
ATOM     18  C   UNL     1       0.122   0.297  -0.816  1.00  0.00     0.009 C 
ENDBRANCH  11  17
BRANCH  16  19
ATOM     19  N   UNL     1       2.344   5.942   0.884  1.00  0.00    -0.324 N 
ATOM     20  H   UNL     1       3.307   6.023   0.692  1.00  0.00     0.170 HD
BRANCH  19  21
ATOM     21  C   UNL     1       1.628   7.143   1.047  1.00  0.00     0.045 A 
ATOM     22  C   UNL     1       1.475   7.998  -0.057  1.00  0.00     0.047 A 
ATOM     23  C   UNL     1       0.946   7.456   2.245  1.00  0.00    -0.027 A 
ATOM     24  C   UNL     1       0.629   9.107   0.014  1.00  0.00     0.043 A 
ATOM     25  C   UNL     1       0.086   8.567   2.292  1.00  0.00     0.007 A 
ATOM     26  C   UNL     1       1.124   6.635   3.496  1.00  0.00     0.046 C 
ATOM     27  Cl  UNL     1       0.422  10.120  -1.364  1.00  0.00    -0.084 Cl
ATOM     28  C   UNL     1      -0.077   9.387   1.179  1.00  0.00     0.021 A 
ENDBRANCH  19  21
ENDBRANCH  16  19
ENDBRANCH   9  10
ENDBRANCH   8   9
ENDBRANCH   5   8
ENDBRANCH   3   4
ENDBRANCH   2   3
ENDBRANCH   1   2
BRANCH   1  29
ATOM     29  C   UNL     1       5.096   0.550   6.223  1.00  0.00     0.002 C 
BRANCH  29  30
ATOM     30  C   UNL     1       6.607   0.764   6.139  1.00  0.00     0.021 C 
BRANCH  30  31
ATOM     31  C   UNL     1       7.090   2.098   6.687  1.00  0.00     0.116 C 
BRANCH  31  32
ATOM     32  N   UNL     1       6.827   2.233   8.109  1.00  0.00    -0.352 N 
ATOM     33  C   UNL     1       7.703   2.540   9.122  1.00  0.00     0.251 C 
ATOM     34  H   UNL     1       5.894   2.083   8.385  1.00  0.00     0.163 HD
ATOM     35  O   UNL     1       7.362   2.417  10.291  1.00  0.00    -0.269 OA
BRANCH  33  36
ATOM     36  C   UNL     1       9.069   2.997   8.783  1.00  0.00     0.039 A 
ATOM     37  C   UNL     1      10.156   2.451   9.468  1.00  0.00     0.014 A 
ATOM     38  C   UNL     1       9.274   3.950   7.780  1.00  0.00     0.014 A 
ATOM     39  C   UNL     1      11.453   2.821   9.108  1.00  0.00     0.010 A 
ATOM     40  C   UNL     1      10.567   4.252   7.367  1.00  0.00     0.010 A 
ATOM     41  C   UNL     1      11.671   3.699   8.032  1.00  0.00    -0.014 A 
BRANCH  41  42
ATOM     42  C   UNL     1      13.044   4.058   7.594  1.00  0.00     0.031 A 
ATOM     43  C   UNL     1      13.512   5.486   7.678  1.00  0.00     0.074 A 
ATOM     44  C   UNL     1      13.845   3.112   7.067  1.00  0.00     0.049 A 
ATOM     45  N   UNL     1      14.650   6.007   7.298  1.00  0.00    -0.248 NA
ATOM     46  C   UNL     1      12.564   6.463   8.239  1.00  0.00     0.031 C 
ATOM     47  C   UNL     1      13.490   1.701   6.897  1.00  0.00     0.029 A 
ATOM     48  N   UNL     1      15.123   3.193   6.572  1.00  0.00    -0.354 N 
ATOM     49  C   UNL     1      14.550   7.368   7.559  1.00  0.00     0.074 A 
ATOM     50  C   UNL     1      13.219   7.602   8.073  1.00  0.00     0.031 C 
ATOM     51  C   UNL     1      14.536   1.044   6.369  1.00  0.00     0.029 A 
ATOM     52  C   UNL     1      15.618   1.992   6.121  1.00  0.00     0.049 A 
ATOM     53  H   UNL     1      15.637   4.032   6.543  1.00  0.00     0.167 HD
ATOM     54  C   UNL     1      15.491   8.332   7.409  1.00  0.00     0.037 A 
ATOM     55  C   UNL     1      16.808   1.690   5.566  1.00  0.00     0.037 A 
ATOM     56  C   UNL     1      16.819   8.086   6.910  1.00  0.00     0.049 A 
ATOM     57  C   UNL     1      17.827   2.782   5.381  1.00  0.00     0.074 A 
ATOM     58  C   UNL     1      17.865   8.980   6.770  1.00  0.00     0.029 A 
ATOM     59  N   UNL     1      17.281   6.857   6.459  1.00  0.00    -0.354 N 
ATOM     60  N   UNL     1      17.742   4.053   5.699  1.00  0.00    -0.248 NA
ATOM     61  C   UNL     1      19.105   2.400   4.765  1.00  0.00     0.031 C 
ATOM     62  C   UNL     1      18.940   8.306   6.181  1.00  0.00     0.029 A 
ATOM     63  C   UNL     1      18.587   6.977   6.012  1.00  0.00     0.049 A 
ATOM     64  H   UNL     1      16.758   6.023   6.457  1.00  0.00     0.167 HD
ATOM     65  C   UNL     1      18.968   4.614   5.354  1.00  0.00     0.074 A 
ATOM     66  C   UNL     1      19.777   3.542   4.812  1.00  0.00     0.031 C 
ATOM     67  C   UNL     1      19.385   5.898   5.481  1.00  0.00     0.037 A 
BRANCH  54  68
ATOM     68  C   UNL     1      15.109   9.741   7.779  1.00  0.00     0.058 A 
ATOM     69  C   UNL     1      14.856  10.116   9.110  1.00  0.00     0.135 A 
ATOM     70  C   UNL     1      15.007  10.736   6.793  1.00  0.00     0.135 A 
ATOM     71  F   UNL     1      14.926   9.206  10.094  1.00  0.00    -0.206 F 
ATOM     72  C   UNL     1      14.472  11.411   9.442  1.00  0.00     0.059 A 
ATOM     73  C   UNL     1      14.658  12.046   7.107  1.00  0.00     0.059 A 
ATOM     74  F   UNL     1      15.240  10.438   5.505  1.00  0.00    -0.206 F 
ATOM     75  C   UNL     1      14.372  12.369   8.432  1.00  0.00     0.060 A 
BRANCH  75  76
ATOM     76  S   UNL     1      13.854  14.039   8.878  1.00  0.00     0.124 S 
ATOM     77  O   UNL     1      12.440  13.835   9.178  1.00  0.00    -0.237 OA
ATOM     78  O   UNL     1      14.708  14.335  10.024  1.00  0.00    -0.237 OA
ATOM     79  O   UNL     1      14.134  14.816   7.674  1.00  0.00    -0.744 OA
ENDBRANCH  75  76
ENDBRANCH  54  68
BRANCH  55  80
ATOM     80  C   UNL     1      17.114   0.286   5.176  1.00  0.00     0.058 A 
ATOM     81  C   UNL     1      18.074  -0.460   5.876  1.00  0.00     0.135 A 
ATOM     82  C   UNL     1      16.450  -0.341   4.111  1.00  0.00     0.135 A 
ATOM     83  F   UNL     1      18.741   0.096   6.898  1.00  0.00    -0.206 F 
ATOM     84  C   UNL     1      18.378  -1.771   5.525  1.00  0.00     0.059 A 
ATOM     85  C   UNL     1      16.716  -1.661   3.758  1.00  0.00     0.059 A 
ATOM     86  F   UNL     1      15.511   0.323   3.418  1.00  0.00    -0.206 F 
ATOM     87  C   UNL     1      17.689  -2.365   4.465  1.00  0.00     0.060 A 
BRANCH  87  88
ATOM     88  S   UNL     1      18.058  -4.083   4.050  1.00  0.00     0.124 S 
ATOM     89  O   UNL     1      19.388  -3.965   3.464  1.00  0.00    -0.237 OA
ATOM     90  O   UNL     1      17.989  -4.733   5.355  1.00  0.00    -0.237 OA
ATOM     91  O   UNL     1      16.989  -4.441   3.123  1.00  0.00    -0.744 OA
ENDBRANCH  87  88
ENDBRANCH  55  80
BRANCH  67  92
ATOM     92  C   UNL     1      20.797   6.213   5.066  1.00  0.00     0.058 A 
ATOM     93  C   UNL     1      21.190   6.228   3.718  1.00  0.00     0.135 A 
ATOM     94  C   UNL     1      21.758   6.560   6.031  1.00  0.00     0.135 A 
ATOM     95  F   UNL     1      20.315   5.897   2.755  1.00  0.00    -0.206 F 
ATOM     96  C   UNL     1      22.490   6.552   3.344  1.00  0.00     0.059 A 
ATOM     97  C   UNL     1      23.054   6.919   5.677  1.00  0.00     0.059 A 
ATOM     98  F   UNL     1      21.434   6.572   7.334  1.00  0.00    -0.206 F 
ATOM     99  C   UNL     1      23.414   6.901   4.331  1.00  0.00     0.060 A 
BRANCH  99 100
ATOM    100  S   UNL     1      25.086   7.358   3.827  1.00  0.00     0.124 S 
ATOM    101  O   UNL     1      25.637   6.067   3.429  1.00  0.00    -0.237 OA
ATOM    102  O   UNL     1      24.837   8.303   2.743  1.00  0.00    -0.237 OA
ATOM    103  O   UNL     1      25.660   7.939   5.037  1.00  0.00    -0.744 OA
ENDBRANCH  99 100
ENDBRANCH  67  92
ENDBRANCH  41  42
ENDBRANCH  33  36
ENDBRANCH  31  32
ENDBRANCH  30  31
ENDBRANCH  29  30
ENDBRANCH   1  29
TORSDOF 21
