REMARK SMILES Cn1ccnc(N[C@H]2C=C[C@H](C(=O)NCCCCCCNC(=O)c3ccc(-c4c5nc(c(-c6c(F)cc(S(=O)(=O)[O-])cc6F)c6ccc([nH]6)c(-c6c(F)cc(S(=O)(=O)[O-])cc6F)c6nc(c(-c7c(F)cc(S(=O)(=O)[O-])cc7F)c7ccc4[nH]7)C=C6)C=C5)cc3)C2)c1=O
REMARK SMILES IDX 18 1 17 2 16 3 15 4 14 5 12 6 13 7 11 9 8 10 9 11 90 12
REMARK SMILES IDX 10 13 7 14 6 16 1 17 2 18 3 19 91 20 4 21 92 22 5 23 19 24
REMARK SMILES IDX 20 25 21 26 22 27 23 29 24 30 25 31 89 32 26 33 88 34 27 35
REMARK SMILES IDX 28 36 29 37 82 38 30 39 87 40 81 41 83 42 31 43 86 44 80 45
REMARK SMILES IDX 79 46 32 48 66 49 45 50 65 51 46 52 49 53 64 54 84 55 47 56
REMARK SMILES IDX 48 57 63 59 85 60 50 61 33 62 34 63 43 64 35 65 36 66 42 67
REMARK SMILES IDX 44 68 37 69 38 70 39 71 40 72 41 73 67 74 68 75 77 76 69 77
REMARK SMILES IDX 70 78 76 79 78 80 71 81 72 82 73 83 74 84 75 85 51 86 52 87
REMARK SMILES IDX 61 88 53 89 54 90 60 91 62 92 55 93 56 94 57 95 58 96 59 97
REMARK H PARENT 14 8 7 15 21 28 83 47 49 58
REMARK Flexibility Score: inf
ROOT
ATOM      1  C   UNL     1      -8.104  -5.314   0.026  1.00  0.00     0.002 C 
ENDROOT
BRANCH   1   2
ATOM      2  C   UNL     1      -7.757  -4.532  -1.244  1.00  0.00     0.002 C 
BRANCH   2   3
ATOM      3  C   UNL     1      -6.824  -3.336  -1.034  1.00  0.00     0.021 C 
BRANCH   3   4
ATOM      4  C   UNL     1      -5.513  -3.672  -0.334  1.00  0.00     0.116 C 
BRANCH   4   5
ATOM      5  N   UNL     1      -4.729  -4.644  -1.078  1.00  0.00    -0.356 N 
ATOM      6  C   UNL     1      -3.376  -4.660  -1.289  1.00  0.00     0.227 C 
ATOM      7  O   UNL     1      -2.882  -5.617  -1.886  1.00  0.00    -0.274 OA
ATOM      8  H   UNL     1      -5.235  -5.385  -1.482  1.00  0.00     0.163 HD
BRANCH   6   9
ATOM      9  C   UNL     1      -2.561  -3.483  -0.766  1.00  0.00     0.103 C 
ATOM     10  C   UNL     1      -0.209  -3.569  -0.076  1.00  0.00     0.104 C 
ATOM     11  C   UNL     1      -1.114  -3.623   1.098  1.00  0.00    -0.006 C 
ATOM     12  C   UNL     1      -1.117  -3.430  -1.298  1.00  0.00     0.046 C 
ATOM     13  C   UNL     1      -2.397  -3.603   0.726  1.00  0.00    -0.016 C 
BRANCH  10  14
ATOM     14  N   UNL     1       0.774  -2.529   0.060  1.00  0.00    -0.359 N 
ATOM     15  H   UNL     1       1.690  -2.870   0.170  1.00  0.00     0.162 HD
BRANCH  14  16
ATOM     16  C   UNL     1       0.699  -1.153   0.069  1.00  0.00     0.193 A 
ATOM     17  C   UNL     1      -1.637   1.898   0.028  1.00  0.00     0.153 C 
ATOM     18  N   UNL     1      -0.455   1.061   0.040  1.00  0.00    -0.314 N 
ATOM     19  C   UNL     1       0.803   1.605   0.027  1.00  0.00     0.109 A 
ATOM     20  C   UNL     1      -0.628  -0.320   0.070  1.00  0.00     0.293 A 
ATOM     21  C   UNL     1       1.884   0.819   0.045  1.00  0.00     0.131 A 
ATOM     22  O   UNL     1      -1.733  -0.844   0.084  1.00  0.00    -0.265 OA
ATOM     23  N   UNL     1       1.868  -0.548   0.066  1.00  0.00    -0.233 NA
ENDBRANCH  14  16
ENDBRANCH  10  14
ENDBRANCH   6   9
ENDBRANCH   4   5
ENDBRANCH   3   4
ENDBRANCH   2   3
ENDBRANCH   1   2
BRANCH   1  24
ATOM     24  C   UNL     1      -8.733  -4.484   1.147  1.00  0.00     0.021 C 
BRANCH  24  25
ATOM     25  C   UNL     1      -9.983  -3.710   0.743  1.00  0.00     0.116 C 
BRANCH  25  26
ATOM     26  N   UNL     1     -11.048  -4.585   0.281  1.00  0.00    -0.352 N 
ATOM     27  C   UNL     1     -12.360  -4.640   0.680  1.00  0.00     0.251 C 
ATOM     28  H   UNL     1     -10.792  -5.230  -0.418  1.00  0.00     0.163 HD
ATOM     29  O   UNL     1     -13.075  -5.567   0.313  1.00  0.00    -0.269 OA
BRANCH  27  30
ATOM     30  C   UNL     1     -12.899  -3.591   1.573  1.00  0.00     0.039 A 
ATOM     31  C   UNL     1     -13.683  -3.970   2.664  1.00  0.00     0.014 A 
ATOM     32  C   UNL     1     -12.626  -2.240   1.337  1.00  0.00     0.014 A 
ATOM     33  C   UNL     1     -14.143  -2.997   3.554  1.00  0.00     0.010 A 
ATOM     34  C   UNL     1     -13.019  -1.282   2.267  1.00  0.00     0.010 A 
ATOM     35  C   UNL     1     -13.785  -1.649   3.384  1.00  0.00    -0.014 A 
BRANCH  35  36
ATOM     36  C   UNL     1     -14.199  -0.613   4.366  1.00  0.00     0.031 A 
ATOM     37  C   UNL     1     -15.097   0.517   3.941  1.00  0.00     0.074 A 
ATOM     38  C   UNL     1     -13.719  -0.660   5.625  1.00  0.00     0.049 A 
ATOM     39  N   UNL     1     -15.516   1.544   4.635  1.00  0.00    -0.248 NA
ATOM     40  C   UNL     1     -15.566   0.507   2.545  1.00  0.00     0.031 C 
ATOM     41  C   UNL     1     -12.804  -1.679   6.144  1.00  0.00     0.029 A 
ATOM     42  N   UNL     1     -13.925   0.174   6.696  1.00  0.00    -0.354 N 
ATOM     43  C   UNL     1     -16.286   2.304   3.762  1.00  0.00     0.074 A 
ATOM     44  C   UNL     1     -16.231   1.652   2.473  1.00  0.00     0.031 C 
ATOM     45  C   UNL     1     -12.547  -1.424   7.437  1.00  0.00     0.029 A 
ATOM     46  C   UNL     1     -13.240  -0.201   7.829  1.00  0.00     0.049 A 
ATOM     47  H   UNL     1     -14.508   0.967   6.657  1.00  0.00     0.167 HD
ATOM     48  C   UNL     1     -16.994   3.431   4.019  1.00  0.00     0.037 A 
ATOM     49  C   UNL     1     -13.168   0.380   9.043  1.00  0.00     0.037 A 
ATOM     50  C   UNL     1     -17.059   4.063   5.311  1.00  0.00     0.049 A 
ATOM     51  C   UNL     1     -13.953   1.639   9.298  1.00  0.00     0.074 A 
ATOM     52  C   UNL     1     -17.793   5.175   5.687  1.00  0.00     0.029 A 
ATOM     53  N   UNL     1     -16.363   3.646   6.437  1.00  0.00    -0.354 N 
ATOM     54  N   UNL     1     -14.730   2.307   8.479  1.00  0.00    -0.248 NA
ATOM     55  C   UNL     1     -13.857   2.221  10.644  1.00  0.00     0.031 C 
ATOM     56  C   UNL     1     -17.497   5.463   7.023  1.00  0.00     0.029 A 
ATOM     57  C   UNL     1     -16.630   4.494   7.500  1.00  0.00     0.049 A 
ATOM     58  H   UNL     1     -15.768   2.862   6.475  1.00  0.00     0.167 HD
ATOM     59  C   UNL     1     -15.240   3.369   9.219  1.00  0.00     0.074 A 
ATOM     60  C   UNL     1     -14.693   3.246  10.554  1.00  0.00     0.031 C 
ATOM     61  C   UNL     1     -16.085   4.355   8.828  1.00  0.00     0.037 A 
BRANCH  48  62
ATOM     62  C   UNL     1     -17.757   4.056   2.882  1.00  0.00     0.058 A 
ATOM     63  C   UNL     1     -18.890   3.440   2.325  1.00  0.00     0.135 A 
ATOM     64  C   UNL     1     -17.383   5.312   2.376  1.00  0.00     0.135 A 
ATOM     65  F   UNL     1     -19.286   2.232   2.758  1.00  0.00    -0.206 F 
ATOM     66  C   UNL     1     -19.609   4.035   1.293  1.00  0.00     0.059 A 
ATOM     67  C   UNL     1     -18.106   5.940   1.366  1.00  0.00     0.059 A 
ATOM     68  F   UNL     1     -16.307   5.946   2.869  1.00  0.00    -0.206 F 
ATOM     69  C   UNL     1     -19.211   5.287   0.822  1.00  0.00     0.060 A 
BRANCH  69  70
ATOM     70  S   UNL     1     -20.167   6.051  -0.504  1.00  0.00     0.124 S 
ATOM     71  O   UNL     1     -19.813   5.207  -1.642  1.00  0.00    -0.237 OA
ATOM     72  O   UNL     1     -21.536   5.917  -0.018  1.00  0.00    -0.237 OA
ATOM     73  O   UNL     1     -19.652   7.416  -0.554  1.00  0.00    -0.744 OA
ENDBRANCH  69  70
ENDBRANCH  48  62
BRANCH  49  74
ATOM     74  C   UNL     1     -12.331  -0.228  10.113  1.00  0.00     0.058 A 
ATOM     75  C   UNL     1     -12.915  -0.801  11.252  1.00  0.00     0.135 A 
ATOM     76  C   UNL     1     -10.930  -0.249  10.018  1.00  0.00     0.135 A 
ATOM     77  F   UNL     1     -14.249  -0.800  11.394  1.00  0.00    -0.206 F 
ATOM     78  C   UNL     1     -12.143  -1.351  12.270  1.00  0.00     0.059 A 
ATOM     79  C   UNL     1     -10.138  -0.821  11.008  1.00  0.00     0.059 A 
ATOM     80  F   UNL     1     -10.320   0.270   8.941  1.00  0.00    -0.206 F 
ATOM     81  C   UNL     1     -10.753  -1.359  12.138  1.00  0.00     0.060 A 
BRANCH  81  82
ATOM     82  S   UNL     1      -9.762  -2.108  13.448  1.00  0.00     0.124 S 
ATOM     83  O   UNL     1      -9.906  -1.131  14.521  1.00  0.00    -0.237 OA
ATOM     84  O   UNL     1     -10.439  -3.385  13.651  1.00  0.00    -0.237 OA
ATOM     85  O   UNL     1      -8.432  -2.200  12.852  1.00  0.00    -0.744 OA
ENDBRANCH  81  82
ENDBRANCH  49  74
BRANCH  61  86
ATOM     86  C   UNL     1     -16.508   5.360   9.865  1.00  0.00     0.058 A 
ATOM     87  C   UNL     1     -15.623   6.327  10.367  1.00  0.00     0.135 A 
ATOM     88  C   UNL     1     -17.836   5.389  10.323  1.00  0.00     0.135 A 
ATOM     89  F   UNL     1     -14.341   6.341   9.968  1.00  0.00    -0.206 F 
ATOM     90  C   UNL     1     -16.032   7.270  11.304  1.00  0.00     0.059 A 
ATOM     91  C   UNL     1     -18.275   6.344  11.234  1.00  0.00     0.059 A 
ATOM     92  F   UNL     1     -18.728   4.495   9.868  1.00  0.00    -0.206 F 
ATOM     93  C   UNL     1     -17.362   7.273  11.729  1.00  0.00     0.060 A 
BRANCH  93  94
ATOM     94  S   UNL     1     -17.887   8.526  12.918  1.00  0.00     0.124 S 
ATOM     95  O   UNL     1     -17.242   8.059  14.141  1.00  0.00    -0.237 OA
ATOM     96  O   UNL     1     -17.340   9.751  12.341  1.00  0.00    -0.237 OA
ATOM     97  O   UNL     1     -19.343   8.426  12.898  1.00  0.00    -0.744 OA
ENDBRANCH  93  94
ENDBRANCH  61  86
ENDBRANCH  35  36
ENDBRANCH  27  30
ENDBRANCH  25  26
ENDBRANCH  24  25
ENDBRANCH   1  24
TORSDOF 18
