REMARK SMILES O=C(COCCNC(=O)Nc1cccc(F)c1)NCCCCCCNC(=O)c1ccc(-c2c3nc(c(-c4c(F)cc(S(=O)(=O)[O-])cc4F)c4ccc([nH]4)c(-c4c(F)cc(S(=O)(=O)[O-])cc4F)c4nc(c(-c5c(F)cc(S(=O)(=O)[O-])cc5F)c5ccc2[nH]5)C=C4)C=C3)cc1
REMARK SMILES IDX 20 1 19 2 18 3 1 4 2 5 3 7 4 8 5 9 6 10 7 11 8 12 9 14 10 15
REMARK SMILES IDX 11 17 12 18 17 19 13 20 15 21 14 22 16 23 21 24 22 25 23 26
REMARK SMILES IDX 24 27 25 28 26 29 27 31 28 32 29 33 93 34 30 35 92 36 31 37
REMARK SMILES IDX 32 38 33 39 86 40 34 41 91 42 85 43 87 44 35 45 90 46 84 47
REMARK SMILES IDX 83 48 36 50 70 51 49 52 69 53 50 54 53 55 68 56 88 57 51 58
REMARK SMILES IDX 52 59 67 61 89 62 54 63 37 64 38 65 47 66 39 67 40 68 46 69
REMARK SMILES IDX 48 70 41 71 42 72 43 73 44 74 45 75 71 76 72 77 81 78 73 79
REMARK SMILES IDX 74 80 80 81 82 82 75 83 76 84 77 85 78 86 79 87 55 88 56 89
REMARK SMILES IDX 65 90 57 91 58 92 64 93 66 94 59 95 60 96 61 97 62 98 63 99
REMARK H PARENT 18 6 7 13 10 16 25 30 87 49 53 60
REMARK Flexibility Score: inf
ROOT
ATOM      1  C   UNL     1       2.641   2.561   2.578  1.00  0.00     0.021 C 
ENDROOT
BRANCH   1   2
ATOM      2  C   UNL     1       2.108   2.286   1.175  1.00  0.00     0.116 C 
BRANCH   2   3
ATOM      3  N   UNL     1       2.795   1.164   0.581  1.00  0.00    -0.354 N 
ATOM      4  O   UNL     1       1.283  -0.453   1.218  1.00  0.00    -0.272 OA
ATOM      5  C   UNL     1       2.325  -0.128   0.662  1.00  0.00     0.245 C 
ATOM      6  H   UNL     1       3.636   1.330   0.098  1.00  0.00     0.163 HD
BRANCH   5   7
ATOM      7  C   UNL     1       3.272  -1.146   0.024  1.00  0.00     0.260 C 
BRANCH   7   8
ATOM      8  O   UNL     1       3.944  -0.736  -1.157  1.00  0.00    -0.370 OA
BRANCH   8   9
ATOM      9  C   UNL     1       3.101  -0.240  -2.197  1.00  0.00     0.182 C 
BRANCH   9  10
ATOM     10  C   UNL     1       2.306  -1.308  -2.948  1.00  0.00     0.146 C 
BRANCH  10  11
ATOM     11  N   UNL     1       1.078  -1.772  -2.303  1.00  0.00    -0.336 N 
ATOM     12  C   UNL     1      -0.237  -1.531  -2.486  1.00  0.00     0.319 C 
ATOM     13  H   UNL     1       1.250  -2.405  -1.569  1.00  0.00     0.165 HD
ATOM     14  O   UNL     1      -1.023  -1.948  -1.632  1.00  0.00    -0.249 OA
ATOM     15  N   UNL     1      -0.718  -0.780  -3.499  1.00  0.00    -0.308 N 
ATOM     16  H   UNL     1      -1.592  -0.365  -3.320  1.00  0.00     0.171 HD
BRANCH  15  17
ATOM     17  C   UNL     1      -0.187  -0.492  -4.757  1.00  0.00     0.045 A 
ATOM     18  C   UNL     1       0.533  -1.440  -5.496  1.00  0.00     0.026 A 
ATOM     19  C   UNL     1      -0.341   0.804  -5.243  1.00  0.00     0.065 A 
ATOM     20  C   UNL     1       1.245  -1.045  -6.630  1.00  0.00     0.005 A 
ATOM     21  C   UNL     1       0.380   1.186  -6.367  1.00  0.00     0.125 A 
ATOM     22  C   UNL     1       1.194   0.284  -7.046  1.00  0.00     0.039 A 
ATOM     23  F   UNL     1       0.333   2.462  -6.772  1.00  0.00    -0.207 F 
ENDBRANCH  15  17
ENDBRANCH  10  11
ENDBRANCH   9  10
ENDBRANCH   8   9
ENDBRANCH   7   8
ENDBRANCH   5   7
ENDBRANCH   2   3
ENDBRANCH   1   2
BRANCH   1  24
ATOM     24  C   UNL     1       4.150   2.841   2.624  1.00  0.00     0.002 C 
BRANCH  24  25
ATOM     25  C   UNL     1       4.617   4.035   1.786  1.00  0.00     0.002 C 
BRANCH  25  26
ATOM     26  C   UNL     1       3.945   5.366   2.127  1.00  0.00     0.021 C 
BRANCH  26  27
ATOM     27  C   UNL     1       4.068   5.790   3.587  1.00  0.00     0.116 C 
BRANCH  27  28
ATOM     28  N   UNL     1       5.451   5.994   3.989  1.00  0.00    -0.352 N 
ATOM     29  C   UNL     1       6.021   7.062   4.638  1.00  0.00     0.251 C 
ATOM     30  H   UNL     1       6.067   5.261   3.762  1.00  0.00     0.163 HD
ATOM     31  O   UNL     1       7.240   7.135   4.739  1.00  0.00    -0.269 OA
BRANCH  29  32
ATOM     32  C   UNL     1       5.162   8.135   5.189  1.00  0.00     0.039 A 
ATOM     33  C   UNL     1       5.533   9.465   4.982  1.00  0.00     0.014 A 
ATOM     34  C   UNL     1       3.999   7.834   5.903  1.00  0.00     0.014 A 
ATOM     35  C   UNL     1       4.703  10.493   5.435  1.00  0.00     0.010 A 
ATOM     36  C   UNL     1       3.135   8.857   6.288  1.00  0.00     0.010 A 
ATOM     37  C   UNL     1       3.477  10.198   6.056  1.00  0.00    -0.014 A 
BRANCH  37  38
ATOM     38  C   UNL     1       2.535  11.282   6.438  1.00  0.00     0.031 A 
ATOM     39  C   UNL     1       2.183  11.522   7.880  1.00  0.00     0.074 A 
ATOM     40  C   UNL     1       1.962  12.027   5.471  1.00  0.00     0.049 A 
ATOM     41  N   UNL     1       1.372  12.411   8.392  1.00  0.00    -0.248 NA
ATOM     42  C   UNL     1       2.805  10.634   8.874  1.00  0.00     0.031 C 
ATOM     43  C   UNL     1       2.187  11.859   4.034  1.00  0.00     0.029 A 
ATOM     44  N   UNL     1       1.078  13.074   5.548  1.00  0.00    -0.354 N 
ATOM     45  C   UNL     1       1.386  12.193   9.765  1.00  0.00     0.074 A 
ATOM     46  C   UNL     1       2.238  11.046   9.999  1.00  0.00     0.031 C 
ATOM     47  C   UNL     1       1.494  12.796   3.368  1.00  0.00     0.029 A 
ATOM     48  C   UNL     1       0.743  13.604   4.324  1.00  0.00     0.049 A 
ATOM     49  H   UNL     1       0.718  13.414   6.399  1.00  0.00     0.167 HD
ATOM     50  C   UNL     1       0.770  12.900  10.742  1.00  0.00     0.037 A 
ATOM     51  C   UNL     1      -0.075  14.626   4.004  1.00  0.00     0.037 A 
ATOM     52  C   UNL     1      -0.070  14.046  10.501  1.00  0.00     0.049 A 
ATOM     53  C   UNL     1      -0.769  15.382   5.101  1.00  0.00     0.074 A 
ATOM     54  C   UNL     1      -0.701  14.858  11.426  1.00  0.00     0.029 A 
ATOM     55  N   UNL     1      -0.402  14.539   9.246  1.00  0.00    -0.354 N 
ATOM     56  N   UNL     1      -0.698  15.198   6.398  1.00  0.00    -0.248 NA
ATOM     57  C   UNL     1      -1.654  16.482   4.696  1.00  0.00     0.031 C 
ATOM     58  C   UNL     1      -1.455  15.810  10.732  1.00  0.00     0.029 A 
ATOM     59  C   UNL     1      -1.252  15.626   9.373  1.00  0.00     0.049 A 
ATOM     60  H   UNL     1      -0.080  14.171   8.392  1.00  0.00     0.167 HD
ATOM     61  C   UNL     1      -1.518  16.167   6.965  1.00  0.00     0.074 A 
ATOM     62  C   UNL     1      -2.059  16.947   5.870  1.00  0.00     0.031 C 
ATOM     63  C   UNL     1      -1.798  16.387   8.274  1.00  0.00     0.037 A 
BRANCH  50  64
ATOM     64  C   UNL     1       0.987  12.460  12.165  1.00  0.00     0.058 A 
ATOM     65  C   UNL     1      -0.068  11.923  12.920  1.00  0.00     0.135 A 
ATOM     66  C   UNL     1       2.232  12.608  12.799  1.00  0.00     0.135 A 
ATOM     67  F   UNL     1      -1.280  11.756  12.367  1.00  0.00    -0.206 F 
ATOM     68  C   UNL     1       0.102  11.553  14.251  1.00  0.00     0.059 A 
ATOM     69  C   UNL     1       2.433  12.217  14.120  1.00  0.00     0.059 A 
ATOM     70  F   UNL     1       3.281  13.099  12.120  1.00  0.00    -0.206 F 
ATOM     71  C   UNL     1       1.358  11.700  14.841  1.00  0.00     0.060 A 
BRANCH  71  72
ATOM     72  S   UNL     1       1.577  11.163  16.551  1.00  0.00     0.124 S 
ATOM     73  O   UNL     1       0.818  12.170  17.282  1.00  0.00    -0.237 OA
ATOM     74  O   UNL     1       0.999   9.822  16.526  1.00  0.00    -0.237 OA
ATOM     75  O   UNL     1       3.025  11.207  16.736  1.00  0.00    -0.744 OA
ENDBRANCH  71  72
ENDBRANCH  50  64
BRANCH  51  76
ATOM     76  C   UNL     1      -0.238  15.008   2.576  1.00  0.00     0.058 A 
ATOM     77  C   UNL     1      -0.908  14.173   1.668  1.00  0.00     0.135 A 
ATOM     78  C   UNL     1       0.342  16.184   2.077  1.00  0.00     0.135 A 
ATOM     79  F   UNL     1      -1.471  13.031   2.093  1.00  0.00    -0.206 F 
ATOM     80  C   UNL     1      -0.962  14.469   0.311  1.00  0.00     0.059 A 
ATOM     81  C   UNL     1       0.279  16.515   0.726  1.00  0.00     0.059 A 
ATOM     82  F   UNL     1       0.981  17.020   2.909  1.00  0.00    -0.206 F 
ATOM     83  C   UNL     1      -0.355  15.637  -0.152  1.00  0.00     0.060 A 
BRANCH  83  84
ATOM     84  S   UNL     1      -0.389  15.973  -1.926  1.00  0.00     0.124 S 
ATOM     85  O   UNL     1       0.466  14.907  -2.440  1.00  0.00    -0.237 OA
ATOM     86  O   UNL     1      -1.810  15.852  -2.233  1.00  0.00    -0.237 OA
ATOM     87  O   UNL     1       0.161  17.321  -2.026  1.00  0.00    -0.744 OA
ENDBRANCH  83  84
ENDBRANCH  51  76
BRANCH  63  88
ATOM     88  C   UNL     1      -2.736  17.515   8.606  1.00  0.00     0.058 A 
ATOM     89  C   UNL     1      -2.266  18.670   9.252  1.00  0.00     0.135 A 
ATOM     90  C   UNL     1      -4.113  17.424   8.347  1.00  0.00     0.135 A 
ATOM     91  F   UNL     1      -0.960  18.808   9.528  1.00  0.00    -0.206 F 
ATOM     92  C   UNL     1      -3.130  19.686   9.646  1.00  0.00     0.059 A 
ATOM     93  C   UNL     1      -4.992  18.442   8.707  1.00  0.00     0.059 A 
ATOM     94  F   UNL     1      -4.612  16.347   7.721  1.00  0.00    -0.206 F 
ATOM     95  C   UNL     1      -4.493  19.562   9.371  1.00  0.00     0.060 A 
BRANCH  95  96
ATOM     96  S   UNL     1      -5.597  20.898   9.875  1.00  0.00     0.124 S 
ATOM     97  O   UNL     1      -5.590  20.761  11.328  1.00  0.00    -0.237 OA
ATOM     98  O   UNL     1      -4.918  22.076   9.345  1.00  0.00    -0.237 OA
ATOM     99  O   UNL     1      -6.858  20.563   9.219  1.00  0.00    -0.744 OA
ENDBRANCH  95  96
ENDBRANCH  63  88
ENDBRANCH  37  38
ENDBRANCH  29  32
ENDBRANCH  27  28
ENDBRANCH  26  27
ENDBRANCH  25  26
ENDBRANCH  24  25
ENDBRANCH   1  24
TORSDOF 21
