REMARK SMILES O=C(CC1(NC(=O)C2(c3ccccc3)CC2)CCC1)NCCCCCCNC(=O)c1ccc(-c2c3nc(c(-c4c(F)cc(S(=O)(=O)[O-])cc4F)c4ccc([nH]4)c(-c4c(F)cc(S(=O)(=O)[O-])cc4F)c4nc(c(-c5c(F)cc(S(=O)(=O)[O-])cc5F)c5ccc2[nH]5)C=C4)C=C3)cc1
REMARK SMILES IDX 23 1 22 2 21 3 20 4 1 5 2 6 3 8 4 9 17 10 19 11 18 12 5 13
REMARK SMILES IDX 6 14 7 16 8 17 15 18 16 19 9 20 10 21 14 22 11 23 13 24
REMARK SMILES IDX 12 25 24 26 25 27 26 28 27 29 28 30 29 32 30 33 31 34 95 35
REMARK SMILES IDX 32 36 94 37 33 38 34 39 35 40 88 41 36 42 93 43 87 44 89 45
REMARK SMILES IDX 37 46 92 47 86 48 85 49 38 51 72 52 51 53 71 54 52 55 55 56
REMARK SMILES IDX 70 57 90 58 53 59 54 60 69 62 91 63 56 64 39 65 40 66 49 67
REMARK SMILES IDX 41 68 42 69 48 70 50 71 43 72 44 73 45 74 46 75 47 76 73 77
REMARK SMILES IDX 74 78 83 79 75 80 76 81 82 82 84 83 77 84 78 85 79 86 80 87
REMARK SMILES IDX 81 88 57 89 58 90 67 91 59 92 60 93 66 94 68 95 61 96 62 97
REMARK SMILES IDX 63 98 64 99 65 100
REMARK H PARENT 20 7 5 15 27 31 89 50 55 61
REMARK Flexibility Score: inf
ROOT
ATOM      1  C   UNL     1       3.281  -1.658   3.416  1.00  0.00     0.002 C 
ENDROOT
BRANCH   1   2
ATOM      2  C   UNL     1       1.787  -1.419   3.162  1.00  0.00     0.021 C 
BRANCH   2   3
ATOM      3  C   UNL     1       1.380  -0.099   2.488  1.00  0.00     0.116 C 
BRANCH   3   4
ATOM      4  N   UNL     1       1.645  -0.033   1.059  1.00  0.00    -0.356 N 
ATOM      5  O   UNL     1       1.241   2.226   0.890  1.00  0.00    -0.275 OA
ATOM      6  C   UNL     1       1.540   1.161   0.360  1.00  0.00     0.222 C 
ATOM      7  H   UNL     1       1.903  -0.852   0.578  1.00  0.00     0.163 HD
BRANCH   6   8
ATOM      8  C   UNL     1       1.859   1.069  -1.127  1.00  0.00     0.128 C 
BRANCH   8   9
ATOM      9  C   UNL     1       3.162   1.746  -1.588  1.00  0.00     0.049 C 
ATOM     10  C   UNL     1       2.897   3.278  -1.853  1.00  0.00     0.029 C 
ATOM     11  C   UNL     1       4.262   2.249  -0.576  1.00  0.00     0.029 C 
ATOM     12  C   UNL     1       4.286   3.601  -1.290  1.00  0.00     0.005 C 
BRANCH   9  13
ATOM     13  N   UNL     1       3.766   1.108  -2.814  1.00  0.00    -0.349 N 
ATOM     14  C   UNL     1       4.206  -0.163  -3.154  1.00  0.00     0.231 C 
ATOM     15  H   UNL     1       3.876   1.750  -3.552  1.00  0.00     0.164 HD
ATOM     16  O   UNL     1       4.824  -0.288  -4.205  1.00  0.00    -0.274 OA
BRANCH  14  17
ATOM     17  C   UNL     1       3.911  -1.402  -2.320  1.00  0.00     0.074 C 
ATOM     18  C   UNL     1       2.496  -1.975  -2.431  1.00  0.00     0.023 C 
ATOM     19  C   UNL     1       3.594  -2.698  -3.113  1.00  0.00     0.023 C 
BRANCH  17  20
ATOM     20  C   UNL     1       4.810  -1.619  -1.091  1.00  0.00    -0.032 A 
ATOM     21  C   UNL     1       4.707  -0.790   0.025  1.00  0.00     0.005 A 
ATOM     22  C   UNL     1       5.852  -2.560  -1.041  1.00  0.00     0.005 A 
ATOM     23  C   UNL     1       5.645  -0.766   1.056  1.00  0.00     0.000 A 
ATOM     24  C   UNL     1       6.747  -2.619   0.039  1.00  0.00     0.000 A 
ATOM     25  C   UNL     1       6.661  -1.699   1.077  1.00  0.00     0.000 A 
ENDBRANCH  17  20
ENDBRANCH  14  17
ENDBRANCH   9  13
ENDBRANCH   8   9
ENDBRANCH   6   8
ENDBRANCH   3   4
ENDBRANCH   2   3
ENDBRANCH   1   2
BRANCH   1  26
ATOM     26  C   UNL     1       4.051  -0.559   4.160  1.00  0.00     0.002 C 
BRANCH  26  27
ATOM     27  C   UNL     1       3.631  -0.319   5.609  1.00  0.00     0.021 C 
BRANCH  27  28
ATOM     28  C   UNL     1       3.918  -1.471   6.569  1.00  0.00     0.116 C 
BRANCH  28  29
ATOM     29  N   UNL     1       5.338  -1.677   6.830  1.00  0.00    -0.352 N 
ATOM     30  C   UNL     1       5.959  -1.970   8.025  1.00  0.00     0.251 C 
ATOM     31  H   UNL     1       5.931  -1.595   6.049  1.00  0.00     0.163 HD
ATOM     32  O   UNL     1       7.184  -2.013   8.091  1.00  0.00    -0.269 OA
BRANCH  30  33
ATOM     33  C   UNL     1       5.141  -2.194   9.241  1.00  0.00     0.039 A 
ATOM     34  C   UNL     1       5.482  -1.532  10.423  1.00  0.00     0.014 A 
ATOM     35  C   UNL     1       4.016  -3.022   9.203  1.00  0.00     0.014 A 
ATOM     36  C   UNL     1       4.646  -1.632  11.540  1.00  0.00     0.010 A 
ATOM     37  C   UNL     1       3.146  -3.059  10.290  1.00  0.00     0.010 A 
ATOM     38  C   UNL     1       3.446  -2.359  11.469  1.00  0.00    -0.014 A 
BRANCH  38  39
ATOM     39  C   UNL     1       2.485  -2.386  12.605  1.00  0.00     0.031 A 
ATOM     40  C   UNL     1       2.152  -3.687  13.286  1.00  0.00     0.074 A 
ATOM     41  C   UNL     1       1.853  -1.253  12.973  1.00  0.00     0.049 A 
ATOM     42  N   UNL     1       1.284  -3.923  14.236  1.00  0.00    -0.248 NA
ATOM     43  C   UNL     1       2.867  -4.884  12.818  1.00  0.00     0.031 C 
ATOM     44  C   UNL     1       2.044   0.062  12.357  1.00  0.00     0.029 A 
ATOM     45  N   UNL     1       0.911  -1.025  13.947  1.00  0.00    -0.354 N 
ATOM     46  C   UNL     1       1.339  -5.292  14.470  1.00  0.00     0.074 A 
ATOM     47  C   UNL     1       2.285  -5.843  13.523  1.00  0.00     0.031 C 
ATOM     48  C   UNL     1       1.262   0.959  12.979  1.00  0.00     0.029 A 
ATOM     49  C   UNL     1       0.484   0.281  14.011  1.00  0.00     0.049 A 
ATOM     50  H   UNL     1       0.572  -1.731  14.543  1.00  0.00     0.167 HD
ATOM     51  C   UNL     1       0.681  -6.021  15.403  1.00  0.00     0.037 A 
ATOM     52  C   UNL     1      -0.436   0.867  14.803  1.00  0.00     0.037 A 
ATOM     53  C   UNL     1      -0.241  -5.465  16.359  1.00  0.00     0.049 A 
ATOM     54  C   UNL     1      -1.153   0.037  15.834  1.00  0.00     0.074 A 
ATOM     55  C   UNL     1      -0.911  -6.111  17.383  1.00  0.00     0.029 A 
ATOM     56  N   UNL     1      -0.626  -4.133  16.409  1.00  0.00    -0.354 N 
ATOM     57  N   UNL     1      -1.037  -1.245  16.085  1.00  0.00    -0.248 NA
ATOM     58  C   UNL     1      -2.120   0.733  16.695  1.00  0.00     0.031 C 
ATOM     59  C   UNL     1      -1.737  -5.180  18.023  1.00  0.00     0.029 A 
ATOM     60  C   UNL     1      -1.540  -3.942  17.432  1.00  0.00     0.049 A 
ATOM     61  H   UNL     1      -0.297  -3.427  15.806  1.00  0.00     0.167 HD
ATOM     62  C   UNL     1      -1.894  -1.504  17.150  1.00  0.00     0.074 A 
ATOM     63  C   UNL     1      -2.512  -0.242  17.503  1.00  0.00     0.031 C 
ATOM     64  C   UNL     1      -2.144  -2.679  17.779  1.00  0.00     0.037 A 
BRANCH  51  65
ATOM     65  C   UNL     1       0.939  -7.504  15.441  1.00  0.00     0.058 A 
ATOM     66  C   UNL     1       2.171  -8.027  15.865  1.00  0.00     0.135 A 
ATOM     67  C   UNL     1      -0.070  -8.415  15.088  1.00  0.00     0.135 A 
ATOM     68  F   UNL     1       3.177  -7.203  16.200  1.00  0.00    -0.206 F 
ATOM     69  C   UNL     1       2.405  -9.398  15.907  1.00  0.00     0.059 A 
ATOM     70  C   UNL     1       0.131  -9.791  15.152  1.00  0.00     0.059 A 
ATOM     71  F   UNL     1      -1.268  -7.971  14.676  1.00  0.00    -0.206 F 
ATOM     72  C   UNL     1       1.378 -10.272  15.549  1.00  0.00     0.060 A 
BRANCH  72  73
ATOM     73  S   UNL     1       1.696 -12.048  15.617  1.00  0.00     0.124 S 
ATOM     74  O   UNL     1       2.580 -12.228  14.469  1.00  0.00    -0.237 OA
ATOM     75  O   UNL     1       2.320 -12.203  16.927  1.00  0.00    -0.237 OA
ATOM     76  O   UNL     1       0.368 -12.637  15.484  1.00  0.00    -0.744 OA
ENDBRANCH  72  73
ENDBRANCH  51  65
BRANCH  52  77
ATOM     77  C   UNL     1      -0.718   2.322  14.666  1.00  0.00     0.058 A 
ATOM     78  C   UNL     1      -0.327   3.231  15.661  1.00  0.00     0.135 A 
ATOM     79  C   UNL     1      -1.371   2.836  13.534  1.00  0.00     0.135 A 
ATOM     80  F   UNL     1       0.293   2.789  16.766  1.00  0.00    -0.206 F 
ATOM     81  C   UNL     1      -0.588   4.593  15.549  1.00  0.00     0.059 A 
ATOM     82  C   UNL     1      -1.619   4.197  13.386  1.00  0.00     0.059 A 
ATOM     83  F   UNL     1      -1.751   2.011  12.545  1.00  0.00    -0.206 F 
ATOM     84  C   UNL     1      -1.232   5.067  14.405  1.00  0.00     0.060 A 
BRANCH  84  85
ATOM     85  S   UNL     1      -1.521   6.843  14.247  1.00  0.00     0.124 S 
ATOM     86  O   UNL     1      -2.594   7.053  15.213  1.00  0.00    -0.237 OA
ATOM     87  O   UNL     1      -0.220   7.398  14.606  1.00  0.00    -0.237 OA
ATOM     88  O   UNL     1      -1.894   6.998  12.844  1.00  0.00    -0.744 OA
ENDBRANCH  84  85
ENDBRANCH  52  77
BRANCH  64  89
ATOM     89  C   UNL     1      -3.101  -2.657  18.939  1.00  0.00     0.058 A 
ATOM     90  C   UNL     1      -4.482  -2.489  18.756  1.00  0.00     0.135 A 
ATOM     91  C   UNL     1      -2.634  -2.861  20.248  1.00  0.00     0.135 A 
ATOM     92  F   UNL     1      -4.981  -2.284  17.526  1.00  0.00    -0.206 F 
ATOM     93  C   UNL     1      -5.365  -2.502  19.831  1.00  0.00     0.059 A 
ATOM     94  C   UNL     1      -3.501  -2.907  21.335  1.00  0.00     0.059 A 
ATOM     95  F   UNL     1      -1.323  -3.038  20.479  1.00  0.00    -0.206 F 
ATOM     96  C   UNL     1      -4.865  -2.715  21.118  1.00  0.00     0.060 A 
BRANCH  96  97
ATOM     97  S   UNL     1      -6.025  -2.765  22.500  1.00  0.00     0.124 S 
ATOM     98  O   UNL     1      -6.378  -1.356  22.639  1.00  0.00    -0.237 OA
ATOM     99  O   UNL     1      -7.080  -3.636  21.991  1.00  0.00    -0.237 OA
ATOM    100  O   UNL     1      -5.231  -3.324  23.590  1.00  0.00    -0.744 OA
ENDBRANCH  96  97
ENDBRANCH  64  89
ENDBRANCH  38  39
ENDBRANCH  30  33
ENDBRANCH  28  29
ENDBRANCH  27  28
ENDBRANCH  26  27
ENDBRANCH   1  26
TORSDOF 20
