REMARK SMILES Cc1ccc(S(=O)(=O)n2cc(C(=O)C(=O)N[C@@H](Cc3c[nH]c4ccccc34)C(=O)NCCCCCCNC(=O)c3ccc(-c4c5nc(c(-c6c(F)cc(S(=O)(=O)[O-])cc6F)c6ccc([nH]6)c(-c6c(F)cc(S(=O)(=O)[O-])cc6F)c6nc(c(-c7c(F)cc(S(=O)(=O)[O-])cc7F)c7ccc4[nH]7)C=C6)C=C5)cc3)c3ccccc32)cc1
REMARK SMILES IDX 32 1 31 2 30 3 28 4 29 5 17 7 16 8 14 9 15 10 12 12 13 13
REMARK SMILES IDX 11 14 9 15 10 16 111 17 106 18 110 19 107 20 109 21 108 22
REMARK SMILES IDX 6 23 7 24 8 25 5 26 1 27 2 28 3 29 113 30 4 31 112 32 18 33
REMARK SMILES IDX 19 34 20 35 27 36 21 37 22 38 26 39 23 41 25 42 24 43 33 44
REMARK SMILES IDX 34 45 35 46 36 47 37 48 38 49 39 51 40 52 41 53 105 54 42 55
REMARK SMILES IDX 104 56 43 57 44 58 45 59 98 60 46 61 103 62 97 63 99 64
REMARK SMILES IDX 47 65 102 66 96 67 95 68 48 70 82 71 61 72 81 73 62 74 65 75
REMARK SMILES IDX 80 76 100 77 63 78 64 79 79 81 101 82 66 83 49 84 50 85
REMARK SMILES IDX 59 86 51 87 52 88 58 89 60 90 53 91 54 92 55 93 56 94 57 95
REMARK SMILES IDX 83 96 84 97 93 98 85 99 86 100 92 101 94 102 87 103 88 104
REMARK SMILES IDX 89 105 90 106 91 107 67 108 68 109 77 110 69 111 70 112
REMARK SMILES IDX 76 113 78 114 71 115 72 116 73 117 74 118 75 119
REMARK H PARENT 30 6 16 11 21 40 37 50 99 69 65 80
REMARK Flexibility Score: inf
ROOT
ATOM      1  C   UNL     1     -12.289   5.428  -2.492  1.00  0.00     0.021 C 
ENDROOT
BRANCH   1   2
ATOM      2  C   UNL     1     -12.312   4.250  -1.526  1.00  0.00     0.116 C 
BRANCH   2   3
ATOM      3  N   UNL     1     -12.089   2.938  -2.090  1.00  0.00    -0.354 N 
ATOM      4  C   UNL     1     -11.619   1.821  -1.450  1.00  0.00     0.242 C 
ATOM      5  O   UNL     1     -12.065   0.733  -1.839  1.00  0.00    -0.273 OA
ATOM      6  H   UNL     1     -12.300   2.834  -3.046  1.00  0.00     0.163 HD
BRANCH   4   7
ATOM      7  C   UNL     1     -10.686   1.860  -0.197  1.00  0.00     0.176 C 
BRANCH   7   8
ATOM      8  N   UNL     1      -9.539   2.793  -0.242  1.00  0.00    -0.337 N 
ATOM      9  C   UNL     1      -8.190   2.552  -0.490  1.00  0.00     0.293 C 
ATOM     10  O   UNL     1      -7.355   3.432  -0.301  1.00  0.00    -0.265 OA
ATOM     11  H   UNL     1      -9.765   3.736  -0.070  1.00  0.00     0.164 HD
BRANCH   9  12
ATOM     12  C   UNL     1      -7.723   1.191  -1.023  1.00  0.00     0.252 C 
ATOM     13  O   UNL     1      -8.406   0.708  -1.926  1.00  0.00    -0.283 OA
BRANCH  12  14
ATOM     14  C   UNL     1      -6.603   0.427  -0.427  1.00  0.00     0.054 A 
ATOM     15  N   UNL     1      -4.650  -0.316   0.466  1.00  0.00    -0.240 N 
ATOM     16  C   UNL     1      -5.296   0.800  -0.073  1.00  0.00     0.117 A 
ATOM     17  C   UNL     1      -5.612  -1.328   0.622  1.00  0.00     0.065 A 
ATOM     18  C   UNL     1      -6.668  -0.987  -0.218  1.00  0.00     0.012 A 
ATOM     19  C   UNL     1      -5.521  -2.610   1.204  1.00  0.00     0.028 A 
ATOM     20  C   UNL     1      -7.545  -2.009  -0.641  1.00  0.00     0.011 A 
ATOM     21  C   UNL     1      -6.362  -3.612   0.725  1.00  0.00     0.002 A 
ATOM     22  C   UNL     1      -7.335  -3.326  -0.221  1.00  0.00     0.001 A 
BRANCH  15  23
ATOM     23  S   UNL     1      -3.104  -0.970  -0.030  1.00  0.00     0.268 S 
ATOM     24  O   UNL     1      -3.350  -1.403  -1.396  1.00  0.00    -0.201 OA
ATOM     25  O   UNL     1      -2.824  -1.944   1.020  1.00  0.00    -0.201 OA
BRANCH  23  26
ATOM     26  C   UNL     1      -1.576  -0.104  -0.089  1.00  0.00     0.088 A 
ATOM     27  C   UNL     1       2.586   1.072  -0.035  1.00  0.00     0.044 C 
ATOM     28  C   UNL     1       1.130   0.705  -0.094  1.00  0.00    -0.051 A 
ATOM     29  C   UNL     1       0.813  -0.617  -0.371  1.00  0.00     0.005 A 
ATOM     30  C   UNL     1       0.083   1.617   0.169  1.00  0.00     0.005 A 
ATOM     31  C   UNL     1      -0.516  -1.004  -0.379  1.00  0.00     0.022 A 
ATOM     32  C   UNL     1      -1.281   1.220   0.179  1.00  0.00     0.022 A 
ENDBRANCH  23  26
ENDBRANCH  15  23
ENDBRANCH  12  14
ENDBRANCH   9  12
ENDBRANCH   7   8
BRANCH   7  33
ATOM     33  C   UNL     1     -11.473   1.893   1.151  1.00  0.00     0.072 C 
BRANCH  33  34
ATOM     34  C   UNL     1     -12.264   3.130   1.498  1.00  0.00    -0.020 A 
ATOM     35  C   UNL     1     -13.646   3.215   1.561  1.00  0.00     0.087 A 
ATOM     36  C   UNL     1     -11.769   4.442   1.815  1.00  0.00     0.003 A 
ATOM     37  N   UNL     1     -13.996   4.522   1.783  1.00  0.00    -0.361 N 
ATOM     38  C   UNL     1     -12.868   5.304   1.854  1.00  0.00     0.046 A 
ATOM     39  C   UNL     1     -10.485   5.002   1.974  1.00  0.00     0.010 A 
ATOM     40  H   UNL     1     -14.919   4.851   1.877  1.00  0.00     0.166 HD
ATOM     41  C   UNL     1     -12.742   6.697   1.931  1.00  0.00     0.026 A 
ATOM     42  C   UNL     1     -10.337   6.392   2.027  1.00  0.00     0.001 A 
ATOM     43  C   UNL     1     -11.450   7.227   1.983  1.00  0.00     0.002 A 
ENDBRANCH  33  34
ENDBRANCH   7  33
ENDBRANCH   4   7
ENDBRANCH   2   3
ENDBRANCH   1   2
BRANCH   1  44
ATOM     44  C   UNL     1     -13.473   5.602  -3.450  1.00  0.00     0.002 C 
BRANCH  44  45
ATOM     45  C   UNL     1     -14.902   5.565  -2.884  1.00  0.00     0.002 C 
BRANCH  45  46
ATOM     46  C   UNL     1     -15.188   6.343  -1.600  1.00  0.00     0.021 C 
BRANCH  46  47
ATOM     47  C   UNL     1     -14.961   7.848  -1.680  1.00  0.00     0.116 C 
BRANCH  47  48
ATOM     48  N   UNL     1     -16.195   8.620  -1.699  1.00  0.00    -0.352 N 
ATOM     49  C   UNL     1     -16.344   9.969  -1.401  1.00  0.00     0.251 C 
ATOM     50  H   UNL     1     -17.013   8.134  -1.951  1.00  0.00     0.163 HD
ATOM     51  O   UNL     1     -17.409  10.472  -1.111  1.00  0.00    -0.269 OA
BRANCH  49  52
ATOM     52  C   UNL     1     -15.141  10.808  -1.599  1.00  0.00     0.039 A 
ATOM     53  C   UNL     1     -15.102  11.599  -2.753  1.00  0.00     0.014 A 
ATOM     54  C   UNL     1     -13.997  10.568  -0.846  1.00  0.00     0.014 A 
ATOM     55  C   UNL     1     -13.872  12.006  -3.260  1.00  0.00     0.010 A 
ATOM     56  C   UNL     1     -12.774  10.896  -1.397  1.00  0.00     0.010 A 
ATOM     57  C   UNL     1     -12.709  11.575  -2.624  1.00  0.00    -0.014 A 
BRANCH  57  58
ATOM     58  C   UNL     1     -11.376  11.710  -3.198  1.00  0.00     0.031 A 
ATOM     59  C   UNL     1     -10.415  12.683  -2.635  1.00  0.00     0.074 A 
ATOM     60  C   UNL     1     -10.963  10.870  -4.172  1.00  0.00     0.049 A 
ATOM     61  N   UNL     1      -9.374  13.116  -3.261  1.00  0.00    -0.248 NA
ATOM     62  C   UNL     1     -10.574  13.277  -1.313  1.00  0.00     0.031 C 
ATOM     63  C   UNL     1      -9.585  10.616  -4.584  1.00  0.00     0.029 A 
ATOM     64  N   UNL     1     -11.737  10.219  -5.132  1.00  0.00    -0.354 N 
ATOM     65  C   UNL     1      -8.584  13.784  -2.356  1.00  0.00     0.074 A 
ATOM     66  C   UNL     1      -9.406  13.911  -1.173  1.00  0.00     0.031 C 
ATOM     67  C   UNL     1      -9.587  10.089  -5.817  1.00  0.00     0.029 A 
ATOM     68  C   UNL     1     -10.954  10.126  -6.298  1.00  0.00     0.049 A 
ATOM     69  H   UNL     1     -12.656   9.887  -5.016  1.00  0.00     0.167 HD
ATOM     70  C   UNL     1      -7.277  14.032  -2.663  1.00  0.00     0.037 A 
ATOM     71  C   UNL     1     -11.344  10.715  -7.465  1.00  0.00     0.037 A 
ATOM     72  C   UNL     1      -6.952  13.578  -4.017  1.00  0.00     0.049 A 
ATOM     73  C   UNL     1     -10.381  11.748  -8.004  1.00  0.00     0.074 A 
ATOM     74  C   UNL     1      -6.301  12.460  -4.513  1.00  0.00     0.029 A 
ATOM     75  N   UNL     1      -7.559  14.185  -5.112  1.00  0.00    -0.354 N 
ATOM     76  N   UNL     1      -9.402  12.282  -7.328  1.00  0.00    -0.248 NA
ATOM     77  C   UNL     1     -10.464  12.271  -9.359  1.00  0.00     0.031 C 
ATOM     78  C   UNL     1      -6.490  12.417  -5.918  1.00  0.00     0.029 A 
ATOM     79  C   UNL     1      -7.266  13.504  -6.279  1.00  0.00     0.049 A 
ATOM     80  H   UNL     1      -8.122  14.992  -5.062  1.00  0.00     0.167 HD
ATOM     81  C   UNL     1      -8.759  13.233  -8.094  1.00  0.00     0.074 A 
ATOM     82  C   UNL     1      -9.446  13.148  -9.370  1.00  0.00     0.031 C 
ATOM     83  C   UNL     1      -7.742  13.996  -7.572  1.00  0.00     0.037 A 
BRANCH  70  84
ATOM     84  C   UNL     1      -6.233  14.423  -1.632  1.00  0.00     0.058 A 
ATOM     85  C   UNL     1      -4.887  14.013  -1.766  1.00  0.00     0.135 A 
ATOM     86  C   UNL     1      -6.503  15.156  -0.460  1.00  0.00     0.135 A 
ATOM     87  F   UNL     1      -4.440  13.410  -2.874  1.00  0.00    -0.206 F 
ATOM     88  C   UNL     1      -3.932  14.191  -0.763  1.00  0.00     0.059 A 
ATOM     89  C   UNL     1      -5.582  15.297   0.585  1.00  0.00     0.059 A 
ATOM     90  F   UNL     1      -7.664  15.807  -0.301  1.00  0.00    -0.206 F 
ATOM     91  C   UNL     1      -4.298  14.794   0.430  1.00  0.00     0.060 A 
BRANCH  91  92
ATOM     92  S   UNL     1      -3.082  14.908   1.756  1.00  0.00     0.124 S 
ATOM     93  O   UNL     1      -2.647  13.521   1.895  1.00  0.00    -0.237 OA
ATOM     94  O   UNL     1      -2.100  15.827   1.191  1.00  0.00    -0.237 OA
ATOM     95  O   UNL     1      -3.854  15.428   2.881  1.00  0.00    -0.744 OA
ENDBRANCH  91  92
ENDBRANCH  70  84
BRANCH  71  96
ATOM     96  C   UNL     1     -12.821  10.731  -7.644  1.00  0.00     0.058 A 
ATOM     97  C   UNL     1     -13.467   9.493  -7.826  1.00  0.00     0.135 A 
ATOM     98  C   UNL     1     -13.593  11.806  -7.183  1.00  0.00     0.135 A 
ATOM     99  F   UNL     1     -12.776   8.437  -8.286  1.00  0.00    -0.206 F 
ATOM    100  C   UNL     1     -14.772   9.281  -7.397  1.00  0.00     0.059 A 
ATOM    101  C   UNL     1     -14.909  11.618  -6.756  1.00  0.00     0.059 A 
ATOM    102  F   UNL     1     -13.033  13.011  -7.000  1.00  0.00    -0.206 F 
ATOM    103  C   UNL     1     -15.458  10.334  -6.796  1.00  0.00     0.060 A 
BRANCH 103 104
ATOM    104  S   UNL     1     -16.989   9.948  -5.914  1.00  0.00     0.124 S 
ATOM    105  O   UNL     1     -17.812   9.370  -6.970  1.00  0.00    -0.237 OA
ATOM    106  O   UNL     1     -16.520   9.009  -4.895  1.00  0.00    -0.237 OA
ATOM    107  O   UNL     1     -17.425  11.247  -5.414  1.00  0.00    -0.744 OA
ENDBRANCH 103 104
ENDBRANCH  71  96
BRANCH  83 108
ATOM    108  C   UNL     1      -7.025  15.217  -8.173  1.00  0.00     0.058 A 
ATOM    109  C   UNL     1      -7.320  15.836  -9.399  1.00  0.00     0.135 A 
ATOM    110  C   UNL     1      -5.987  15.870  -7.442  1.00  0.00     0.135 A 
ATOM    111  F   UNL     1      -8.294  15.406 -10.202  1.00  0.00    -0.206 F 
ATOM    112  C   UNL     1      -6.643  16.969  -9.872  1.00  0.00     0.059 A 
ATOM    113  C   UNL     1      -5.326  17.021  -7.874  1.00  0.00     0.059 A 
ATOM    114  F   UNL     1      -5.566  15.426  -6.250  1.00  0.00    -0.206 F 
ATOM    115  C   UNL     1      -5.650  17.559  -9.103  1.00  0.00     0.060 A 
BRANCH 115 116
ATOM    116  S   UNL     1      -4.835  19.048  -9.701  1.00  0.00     0.124 S 
ATOM    117  O   UNL     1      -3.940  18.505 -10.718  1.00  0.00    -0.237 OA
ATOM    118  O   UNL     1      -5.957  19.836 -10.204  1.00  0.00    -0.237 OA
ATOM    119  O   UNL     1      -4.185  19.586  -8.511  1.00  0.00    -0.744 OA
ENDBRANCH 115 116
ENDBRANCH  83 108
ENDBRANCH  57  58
ENDBRANCH  49  52
ENDBRANCH  47  48
ENDBRANCH  46  47
ENDBRANCH  45  46
ENDBRANCH  44  45
ENDBRANCH   1  44
TORSDOF 23
