REMARK SMILES O=C(NCCCCCCNC(=O)[C@H]1CCO[C@H]1Cc1ccccc1)c1ccc(-c2c3nc(c(-c4c(F)cc(S(=O)(=O)[O-])cc4F)c4ccc([nH]4)c(-c4c(F)cc(S(=O)(=O)[O-])cc4F)c4nc(c(-c5c(F)cc(S(=O)(=O)[O-])cc5F)c5ccc2[nH]5)C=C4)C=C3)cc1
REMARK SMILES IDX 6 1 5 2 4 3 3 4 1 5 2 6 25 8 26 9 90 10 27 11 89 12 28 13
REMARK SMILES IDX 29 14 30 15 83 16 31 17 88 18 82 19 84 20 32 21 87 22 81 23
REMARK SMILES IDX 80 24 33 26 67 27 46 28 66 29 47 30 50 31 65 32 85 33 48 34
REMARK SMILES IDX 49 35 64 37 86 38 51 39 34 40 35 41 44 42 36 43 37 44 43 45
REMARK SMILES IDX 45 46 38 47 39 48 40 49 41 50 42 51 68 52 69 53 78 54 70 55
REMARK SMILES IDX 71 56 77 57 79 58 72 59 73 60 74 61 75 62 76 63 52 64 53 65
REMARK SMILES IDX 62 66 54 67 55 68 61 69 63 70 56 71 57 72 58 73 59 74 60 75
REMARK SMILES IDX 7 76 8 77 9 78 10 79 11 80 12 82 13 83 14 84 17 85 15 86
REMARK SMILES IDX 16 87 18 88 19 89 20 90 24 91 21 92 23 93 22 94
REMARK H PARENT 3 7 84 25 50 36 10 81
REMARK Flexibility Score: inf
ROOT
ATOM      1  C   UNL     1       7.516  -6.170  -1.780  1.00  0.00     0.002 C 
ENDROOT
BRANCH   1   2
ATOM      2  C   UNL     1       7.138  -7.578  -2.241  1.00  0.00     0.021 C 
BRANCH   2   3
ATOM      3  C   UNL     1       5.663  -7.769  -2.573  1.00  0.00     0.116 C 
BRANCH   3   4
ATOM      4  N   UNL     1       5.252  -6.992  -3.728  1.00  0.00    -0.352 N 
ATOM      5  O   UNL     1       4.510  -6.658  -5.832  1.00  0.00    -0.269 OA
ATOM      6  C   UNL     1       4.635  -7.422  -4.876  1.00  0.00     0.251 C 
ATOM      7  H   UNL     1       5.441  -6.027  -3.682  1.00  0.00     0.163 HD
BRANCH   6   8
ATOM      8  C   UNL     1       4.145  -8.814  -4.967  1.00  0.00     0.039 A 
ATOM      9  C   UNL     1       3.398  -9.379  -3.928  1.00  0.00     0.014 A 
ATOM     10  C   UNL     1       4.439  -9.562  -6.110  1.00  0.00     0.014 A 
ATOM     11  C   UNL     1       3.045 -10.725  -3.982  1.00  0.00     0.010 A 
ATOM     12  C   UNL     1       4.023 -10.893  -6.192  1.00  0.00     0.010 A 
ATOM     13  C   UNL     1       3.345 -11.492  -5.119  1.00  0.00    -0.014 A 
BRANCH  13  14
ATOM     14  C   UNL     1       2.896 -12.904  -5.200  1.00  0.00     0.031 A 
ATOM     15  C   UNL     1       3.891 -14.030  -5.238  1.00  0.00     0.074 A 
ATOM     16  C   UNL     1       1.575 -13.164  -5.253  1.00  0.00     0.049 A 
ATOM     17  N   UNL     1       3.676 -15.315  -5.360  1.00  0.00    -0.248 NA
ATOM     18  C   UNL     1       5.312 -13.666  -5.134  1.00  0.00     0.031 C 
ATOM     19  C   UNL     1       0.517 -12.152  -5.231  1.00  0.00     0.029 A 
ATOM     20  N   UNL     1       0.897 -14.352  -5.337  1.00  0.00    -0.354 N 
ATOM     21  C   UNL     1       4.931 -15.913  -5.370  1.00  0.00     0.074 A 
ATOM     22  C   UNL     1       5.904 -14.846  -5.261  1.00  0.00     0.031 C 
ATOM     23  C   UNL     1      -0.676 -12.762  -5.280  1.00  0.00     0.029 A 
ATOM     24  C   UNL     1      -0.468 -14.201  -5.391  1.00  0.00     0.049 A 
ATOM     25  H   UNL     1       1.345 -15.229  -5.357  1.00  0.00     0.167 HD
ATOM     26  C   UNL     1       5.239 -17.230  -5.459  1.00  0.00     0.037 A 
ATOM     27  C   UNL     1      -1.445 -15.116  -5.539  1.00  0.00     0.037 A 
ATOM     28  C   UNL     1       4.262 -18.284  -5.558  1.00  0.00     0.049 A 
ATOM     29  C   UNL     1      -1.079 -16.566  -5.651  1.00  0.00     0.074 A 
ATOM     30  C   UNL     1       4.473 -19.651  -5.623  1.00  0.00     0.029 A 
ATOM     31  N   UNL     1       2.889 -18.091  -5.610  1.00  0.00    -0.354 N 
ATOM     32  N   UNL     1       0.112 -17.116  -5.635  1.00  0.00    -0.248 NA
ATOM     33  C   UNL     1      -2.184 -17.521  -5.801  1.00  0.00     0.031 C 
ATOM     34  C   UNL     1       3.230 -20.281  -5.750  1.00  0.00     0.029 A 
ATOM     35  C   UNL     1       2.241 -19.310  -5.723  1.00  0.00     0.049 A 
ATOM     36  H   UNL     1       2.441 -17.215  -5.573  1.00  0.00     0.167 HD
ATOM     37  C   UNL     1      -0.100 -18.484  -5.756  1.00  0.00     0.074 A 
ATOM     38  C   UNL     1      -1.534 -18.678  -5.835  1.00  0.00     0.031 C 
ATOM     39  C   UNL     1       0.811 -19.486  -5.796  1.00  0.00     0.037 A 
BRANCH  26  40
ATOM     40  C   UNL     1       6.697 -17.601  -5.478  1.00  0.00     0.058 A 
ATOM     41  C   UNL     1       7.495 -17.518  -4.326  1.00  0.00     0.135 A 
ATOM     42  C   UNL     1       7.300 -18.061  -6.660  1.00  0.00     0.135 A 
ATOM     43  F   UNL     1       6.974 -17.071  -3.173  1.00  0.00    -0.206 F 
ATOM     44  C   UNL     1       8.848 -17.844  -4.354  1.00  0.00     0.059 A 
ATOM     45  C   UNL     1       8.645 -18.415  -6.705  1.00  0.00     0.059 A 
ATOM     46  F   UNL     1       6.582 -18.163  -7.789  1.00  0.00    -0.206 F 
ATOM     47  C   UNL     1       9.416 -18.284  -5.551  1.00  0.00     0.060 A 
BRANCH  47  48
ATOM     48  S   UNL     1      11.178 -18.677  -5.580  1.00  0.00     0.124 S 
ATOM     49  O   UNL     1      11.771 -17.343  -5.585  1.00  0.00    -0.237 OA
ATOM     50  O   UNL     1      11.351 -19.440  -4.348  1.00  0.00    -0.237 OA
ATOM     51  O   UNL     1      11.336 -19.441  -6.814  1.00  0.00    -0.744 OA
ENDBRANCH  47  48
ENDBRANCH  26  40
BRANCH  27  52
ATOM     52  C   UNL     1      -2.859 -14.665  -5.587  1.00  0.00     0.058 A 
ATOM     53  C   UNL     1      -3.719 -14.877  -4.501  1.00  0.00     0.135 A 
ATOM     54  C   UNL     1      -3.356 -13.956  -6.691  1.00  0.00     0.135 A 
ATOM     55  F   UNL     1      -3.288 -15.554  -3.425  1.00  0.00    -0.206 F 
ATOM     56  C   UNL     1      -5.025 -14.399  -4.505  1.00  0.00     0.059 A 
ATOM     57  C   UNL     1      -4.650 -13.448  -6.709  1.00  0.00     0.059 A 
ATOM     58  F   UNL     1      -2.563 -13.712  -7.746  1.00  0.00    -0.206 F 
ATOM     59  C   UNL     1      -5.479 -13.678  -5.612  1.00  0.00     0.060 A 
BRANCH  59  60
ATOM     60  S   UNL     1      -7.146 -12.986  -5.572  1.00  0.00     0.124 S 
ATOM     61  O   UNL     1      -7.960 -14.172  -5.814  1.00  0.00    -0.237 OA
ATOM     62  O   UNL     1      -7.216 -12.428  -4.225  1.00  0.00    -0.237 OA
ATOM     63  O   UNL     1      -7.126 -12.002  -6.649  1.00  0.00    -0.744 OA
ENDBRANCH  59  60
ENDBRANCH  27  52
BRANCH  39  64
ATOM     64  C   UNL     1       0.285 -20.889  -5.900  1.00  0.00     0.058 A 
ATOM     65  C   UNL     1      -0.216 -21.400  -7.107  1.00  0.00     0.135 A 
ATOM     66  C   UNL     1       0.333 -21.748  -4.791  1.00  0.00     0.135 A 
ATOM     67  F   UNL     1      -0.291 -20.615  -8.193  1.00  0.00    -0.206 F 
ATOM     68  C   UNL     1      -0.666 -22.712  -7.207  1.00  0.00     0.059 A 
ATOM     69  C   UNL     1      -0.091 -23.070  -4.874  1.00  0.00     0.059 A 
ATOM     70  F   UNL     1       0.811 -21.308  -3.615  1.00  0.00    -0.206 F 
ATOM     71  C   UNL     1      -0.598 -23.541  -6.085  1.00  0.00     0.060 A 
BRANCH  71  72
ATOM     72  S   UNL     1      -1.143 -25.255  -6.236  1.00  0.00     0.124 S 
ATOM     73  O   UNL     1      -2.594 -25.104  -6.217  1.00  0.00    -0.237 OA
ATOM     74  O   UNL     1      -0.564 -25.658  -7.514  1.00  0.00    -0.237 OA
ATOM     75  O   UNL     1      -0.563 -25.900  -5.062  1.00  0.00    -0.744 OA
ENDBRANCH  71  72
ENDBRANCH  39  64
ENDBRANCH  13  14
ENDBRANCH   6   8
ENDBRANCH   3   4
ENDBRANCH   2   3
ENDBRANCH   1   2
BRANCH   1  76
ATOM     76  C   UNL     1       6.705  -5.631  -0.598  1.00  0.00     0.002 C 
BRANCH  76  77
ATOM     77  C   UNL     1       6.625  -6.556   0.624  1.00  0.00     0.021 C 
BRANCH  77  78
ATOM     78  C   UNL     1       7.979  -6.995   1.190  1.00  0.00     0.116 C 
BRANCH  78  79
ATOM     79  N   UNL     1       8.727  -5.850   1.666  1.00  0.00    -0.356 N 
ATOM     80  C   UNL     1       8.582  -5.349   2.925  1.00  0.00     0.225 C 
ATOM     81  H   UNL     1       9.366  -5.417   1.056  1.00  0.00     0.163 HD
ATOM     82  O   UNL     1       8.173  -4.196   3.043  1.00  0.00    -0.275 OA
BRANCH  80  83
ATOM     83  C   UNL     1       8.793  -6.262   4.111  1.00  0.00     0.110 C 
ATOM     84  C   UNL     1       9.708  -7.460   3.965  1.00  0.00     0.044 C 
ATOM     85  C   UNL     1       9.415  -5.566   5.328  1.00  0.00     0.135 C 
ATOM     86  C   UNL     1       9.923  -7.855   5.413  1.00  0.00     0.161 C 
ATOM     87  O   UNL     1       9.749  -6.673   6.213  1.00  0.00    -0.377 OA
BRANCH  85  88
ATOM     88  C   UNL     1      10.741  -4.782   5.137  1.00  0.00     0.068 C 
BRANCH  88  89
ATOM     89  C   UNL     1      10.671  -3.480   4.383  1.00  0.00    -0.045 A 
ATOM     90  C   UNL     1      11.374  -3.317   3.180  1.00  0.00     0.004 A 
ATOM     91  C   UNL     1       9.877  -2.423   4.850  1.00  0.00     0.004 A 
ATOM     92  C   UNL     1      11.247  -2.142   2.437  1.00  0.00     0.000 A 
ATOM     93  C   UNL     1       9.745  -1.252   4.102  1.00  0.00     0.000 A 
ATOM     94  C   UNL     1      10.424  -1.114   2.893  1.00  0.00     0.000 A 
ENDBRANCH  88  89
ENDBRANCH  85  88
ENDBRANCH  80  83
ENDBRANCH  78  79
ENDBRANCH  77  78
ENDBRANCH  76  77
ENDBRANCH   1  76
TORSDOF 18
