REMARK SMILES CC1=C(C)C[C@@H](C(=O)NCCCCCCNC(=O)c2ccc(-c3c4nc(c(-c5c(F)cc(S(=O)(=O)[O-])cc5F)c5ccc([nH]5)c(-c5c(F)cc(S(=O)(=O)[O-])cc5F)c5nc(c(-c6c(F)cc(S(=O)(=O)[O-])cc6F)c6ccc3[nH]6)C=C5)C=C4)cc2)[C@@H](C(=O)NCC[NH+]2CCOCC2)C1
REMARK SMILES IDX 12 1 11 2 10 3 9 4 7 5 8 6 6 8 1 9 2 10 3 11 97 12 4 13 5 14
REMARK SMILES IDX 85 15 86 16 87 17 88 18 89 20 90 21 91 22 92 23 96 24 93 26
REMARK SMILES IDX 95 27 94 28 13 29 14 30 15 31 16 32 17 33 18 35 19 36 20 37
REMARK SMILES IDX 84 38 21 39 83 40 22 41 23 42 24 43 77 44 25 45 82 46 76 47
REMARK SMILES IDX 78 48 26 49 81 50 75 51 74 52 27 54 61 55 40 56 60 57 41 58
REMARK SMILES IDX 44 59 59 60 79 61 42 62 43 63 58 65 80 66 45 67 28 68 29 69
REMARK SMILES IDX 38 70 30 71 31 72 37 73 39 74 32 75 33 76 34 77 35 78 36 79
REMARK SMILES IDX 62 80 63 81 72 82 64 83 65 84 71 85 73 86 66 87 67 88 68 89
REMARK SMILES IDX 69 90 70 91 46 92 47 93 56 94 48 95 49 96 55 97 57 98 50 99
REMARK SMILES IDX 51 100 52 101 53 102 54 103
REMARK H PARENT 9 7 88 19 91 25 16 34 78 53 44 64
REMARK Flexibility Score: inf
ROOT
ATOM      1  C   UNL     1      -3.332  -1.550   2.629  1.00  0.00     0.002 C 
ENDROOT
BRANCH   1   2
ATOM      2  C   UNL     1      -2.209  -1.217   1.649  1.00  0.00     0.021 C 
BRANCH   2   3
ATOM      3  C   UNL     1      -0.885  -1.950   1.843  1.00  0.00     0.116 C 
BRANCH   3   4
ATOM      4  N   UNL     1      -0.917  -3.386   1.706  1.00  0.00    -0.356 N 
ATOM      5  C   UNL     1      -0.110  -4.191   0.969  1.00  0.00     0.224 C 
ATOM      6  O   UNL     1       0.288  -5.227   1.518  1.00  0.00    -0.275 OA
ATOM      7  H   UNL     1      -1.621  -3.846   2.218  1.00  0.00     0.163 HD
BRANCH   5   8
ATOM      8  C   UNL     1       0.258  -3.956  -0.488  1.00  0.00     0.095 C 
ATOM      9  C   UNL     1       0.911   0.326  -0.610  1.00  0.00     0.039 C 
ATOM     10  C   UNL     1       0.888  -1.166  -0.849  1.00  0.00    -0.074 C 
ATOM     11  C   UNL     1       1.830  -2.006  -0.369  1.00  0.00    -0.074 C 
ATOM     12  C   UNL     1      -0.382  -1.690  -1.522  1.00  0.00     0.045 C 
ATOM     13  C   UNL     1       2.973  -1.636   0.539  1.00  0.00     0.039 C 
ATOM     14  C   UNL     1       1.700  -3.477  -0.621  1.00  0.00     0.045 C 
ATOM     15  C   UNL     1      -0.711  -3.222  -1.407  1.00  0.00     0.095 C 
BRANCH  15  16
ATOM     16  C   UNL     1      -2.225  -3.469  -1.215  1.00  0.00     0.224 C 
ATOM     17  O   UNL     1      -3.033  -2.576  -1.508  1.00  0.00    -0.275 OA
ATOM     18  N   UNL     1      -2.818  -4.644  -0.876  1.00  0.00    -0.350 N 
ATOM     19  H   UNL     1      -3.797  -4.555  -0.834  1.00  0.00     0.163 HD
BRANCH  18  20
ATOM     20  C   UNL     1      -2.388  -6.008  -0.556  1.00  0.00     0.177 C 
BRANCH  20  21
ATOM     21  C   UNL     1      -2.482  -6.376   0.952  1.00  0.00     0.283 C 
BRANCH  21  22
ATOM     22  N   UNL     1      -3.714  -6.876   1.595  1.00  0.00    -0.330 N 
ATOM     23  C   UNL     1      -5.000  -6.457   1.026  1.00  0.00     0.291 C 
ATOM     24  C   UNL     1      -3.711  -6.544   3.050  1.00  0.00     0.291 C 
ATOM     25  H   UNL     1      -3.667  -7.879   1.415  1.00  0.00     0.348 HD
ATOM     26  C   UNL     1      -5.440  -5.030   1.383  1.00  0.00     0.221 C 
ATOM     27  C   UNL     1      -4.160  -5.103   3.350  1.00  0.00     0.221 C 
ATOM     28  O   UNL     1      -5.452  -4.830   2.800  1.00  0.00    -0.370 OA
ENDBRANCH  21  22
ENDBRANCH  20  21
ENDBRANCH  18  20
ENDBRANCH  15  16
ENDBRANCH   5   8
ENDBRANCH   3   4
ENDBRANCH   2   3
ENDBRANCH   1   2
BRANCH   1  29
ATOM     29  C   UNL     1      -2.897  -1.770   4.078  1.00  0.00     0.002 C 
BRANCH  29  30
ATOM     30  C   UNL     1      -2.192  -0.574   4.716  1.00  0.00     0.021 C 
BRANCH  30  31
ATOM     31  C   UNL     1      -3.067   0.660   4.842  1.00  0.00     0.116 C 
BRANCH  31  32
ATOM     32  N   UNL     1      -4.197   0.437   5.726  1.00  0.00    -0.352 N 
ATOM     33  C   UNL     1      -4.719   1.301   6.662  1.00  0.00     0.251 C 
ATOM     34  H   UNL     1      -4.644  -0.436   5.647  1.00  0.00     0.163 HD
ATOM     35  O   UNL     1      -5.554   0.930   7.463  1.00  0.00    -0.269 OA
BRANCH  33  36
ATOM     36  C   UNL     1      -4.206   2.687   6.680  1.00  0.00     0.039 A 
ATOM     37  C   UNL     1      -3.738   3.219   7.881  1.00  0.00     0.014 A 
ATOM     38  C   UNL     1      -4.131   3.420   5.492  1.00  0.00     0.014 A 
ATOM     39  C   UNL     1      -3.145   4.481   7.881  1.00  0.00     0.010 A 
ATOM     40  C   UNL     1      -3.469   4.641   5.481  1.00  0.00     0.010 A 
ATOM     41  C   UNL     1      -2.980   5.187   6.677  1.00  0.00    -0.014 A 
BRANCH  41  42
ATOM     42  C   UNL     1      -2.315   6.511   6.652  1.00  0.00     0.031 A 
ATOM     43  C   UNL     1      -3.095   7.729   6.239  1.00  0.00     0.074 A 
ATOM     44  C   UNL     1      -1.004   6.604   6.947  1.00  0.00     0.049 A 
ATOM     45  N   UNL     1      -2.686   8.964   6.104  1.00  0.00    -0.248 NA
ATOM     46  C   UNL     1      -4.515   7.528   5.904  1.00  0.00     0.031 C 
ATOM     47  C   UNL     1      -0.136   5.481   7.309  1.00  0.00     0.029 A 
ATOM     48  N   UNL     1      -0.169   7.692   6.984  1.00  0.00    -0.354 N 
ATOM     49  C   UNL     1      -3.792   9.681   5.663  1.00  0.00     0.074 A 
ATOM     50  C   UNL     1      -4.870   8.734   5.489  1.00  0.00     0.031 C 
ATOM     51  C   UNL     1       1.101   5.942   7.559  1.00  0.00     0.029 A 
ATOM     52  C   UNL     1       1.124   7.385   7.339  1.00  0.00     0.049 A 
ATOM     53  H   UNL     1      -0.467   8.607   6.775  1.00  0.00     0.167 HD
ATOM     54  C   UNL     1      -3.905  11.013   5.450  1.00  0.00     0.037 A 
ATOM     55  C   UNL     1       2.204   8.179   7.468  1.00  0.00     0.037 A 
ATOM     56  C   UNL     1      -2.830  11.949   5.649  1.00  0.00     0.049 A 
ATOM     57  C   UNL     1       2.054   9.656   7.221  1.00  0.00     0.074 A 
ATOM     58  C   UNL     1      -2.852  13.325   5.516  1.00  0.00     0.029 A 
ATOM     59  N   UNL     1      -1.539  11.603   6.024  1.00  0.00    -0.354 N 
ATOM     60  N   UNL     1       0.984  10.329   6.869  1.00  0.00    -0.248 NA
ATOM     61  C   UNL     1       3.255  10.484   7.395  1.00  0.00     0.031 C 
ATOM     62  C   UNL     1      -1.563  13.808   5.765  1.00  0.00     0.029 A 
ATOM     63  C   UNL     1      -0.750  12.738   6.106  1.00  0.00     0.049 A 
ATOM     64  H   UNL     1      -1.230  10.686   6.206  1.00  0.00     0.167 HD
ATOM     65  C   UNL     1       1.376  11.661   6.806  1.00  0.00     0.074 A 
ATOM     66  C   UNL     1       2.778  11.700   7.170  1.00  0.00     0.031 C 
ATOM     67  C   UNL     1       0.643  12.754   6.477  1.00  0.00     0.037 A 
BRANCH  54  68
ATOM     68  C   UNL     1      -5.237  11.534   4.987  1.00  0.00     0.058 A 
ATOM     69  C   UNL     1      -6.360  11.540   5.831  1.00  0.00     0.135 A 
ATOM     70  C   UNL     1      -5.389  12.062   3.694  1.00  0.00     0.135 A 
ATOM     71  F   UNL     1      -6.277  11.031   7.070  1.00  0.00    -0.206 F 
ATOM     72  C   UNL     1      -7.592  12.022   5.401  1.00  0.00     0.059 A 
ATOM     73  C   UNL     1      -6.605  12.578   3.254  1.00  0.00     0.059 A 
ATOM     74  F   UNL     1      -4.351  12.079   2.844  1.00  0.00    -0.206 F 
ATOM     75  C   UNL     1      -7.704  12.541   4.110  1.00  0.00     0.060 A 
BRANCH  75  76
ATOM     76  S   UNL     1      -9.307  13.172   3.574  1.00  0.00     0.124 S 
ATOM     77  O   UNL     1     -10.066  11.937   3.407  1.00  0.00    -0.237 OA
ATOM     78  O   UNL     1      -9.704  14.012   4.699  1.00  0.00    -0.237 OA
ATOM     79  O   UNL     1      -8.996  13.888   2.340  1.00  0.00    -0.744 OA
ENDBRANCH  75  76
ENDBRANCH  54  68
BRANCH  55  80
ATOM     80  C   UNL     1       3.513   7.598   7.873  1.00  0.00     0.058 A 
ATOM     81  C   UNL     1       4.065   7.871   9.133  1.00  0.00     0.135 A 
ATOM     82  C   UNL     1       4.234   6.754   7.013  1.00  0.00     0.135 A 
ATOM     83  F   UNL     1       3.417   8.675   9.989  1.00  0.00    -0.206 F 
ATOM     84  C   UNL     1       5.294   7.347   9.520  1.00  0.00     0.059 A 
ATOM     85  C   UNL     1       5.452   6.196   7.388  1.00  0.00     0.059 A 
ATOM     86  F   UNL     1       3.741   6.446   5.803  1.00  0.00    -0.206 F 
ATOM     87  C   UNL     1       5.980   6.508   8.640  1.00  0.00     0.060 A 
BRANCH  87  88
ATOM     88  S   UNL     1       7.556   5.801   9.168  1.00  0.00     0.124 S 
ATOM     89  O   UNL     1       8.434   6.963   9.106  1.00  0.00    -0.237 OA
ATOM     90  O   UNL     1       7.239   5.309  10.505  1.00  0.00    -0.237 OA
ATOM     91  O   UNL     1       7.809   4.765   8.171  1.00  0.00    -0.744 OA
ENDBRANCH  87  88
ENDBRANCH  55  80
BRANCH  67  92
ATOM     92  C   UNL     1       1.334  14.089   6.525  1.00  0.00     0.058 A 
ATOM     93  C   UNL     1       2.286  14.462   5.564  1.00  0.00     0.135 A 
ATOM     94  C   UNL     1       0.997  15.027   7.515  1.00  0.00     0.135 A 
ATOM     95  F   UNL     1       2.648  13.601   4.600  1.00  0.00    -0.206 F 
ATOM     96  C   UNL     1       2.899  15.711   5.597  1.00  0.00     0.059 A 
ATOM     97  C   UNL     1       1.575  16.291   7.549  1.00  0.00     0.059 A 
ATOM     98  F   UNL     1       0.084  14.723   8.452  1.00  0.00    -0.206 F 
ATOM     99  C   UNL     1       2.534  16.619   6.592  1.00  0.00     0.060 A 
BRANCH  99 100
ATOM    100  S   UNL     1       3.311  18.248   6.602  1.00  0.00     0.124 S 
ATOM    101  O   UNL     1       4.653  17.931   7.081  1.00  0.00    -0.237 OA
ATOM    102  O   UNL     1       3.216  18.648   5.201  1.00  0.00    -0.237 OA
ATOM    103  O   UNL     1       2.480  19.017   7.524  1.00  0.00    -0.744 OA
ENDBRANCH  99 100
ENDBRANCH  67  92
ENDBRANCH  41  42
ENDBRANCH  33  36
ENDBRANCH  31  32
ENDBRANCH  30  31
ENDBRANCH  29  30
ENDBRANCH   1  29
TORSDOF 20
