REMARK SMILES CC1=C[C@@H]([C@@H]2N=N[C@H](S)N2/N=C/c2ccc(C(=O)NCCCCCCNC(=O)c3ccc(-c4c5nc(c(-c6c(F)cc(S(=O)(=O)[O-])cc6F)c6ccc([nH]6)c(-c6c(F)cc(S(=O)(=O)[O-])cc6F)c6nc(c(-c7c(F)cc(S(=O)(=O)[O-])cc7F)c7ccc4[nH]7)C=C6)C=C5)cc3)cc2)N=N1
REMARK SMILES IDX 22 1 21 2 20 3 19 4 17 5 18 6 16 8 13 9 14 10 96 11 15 12
REMARK SMILES IDX 95 13 12 14 11 15 10 16 5 17 6 18 7 19 8 20 4 21 1 22 2 23
REMARK SMILES IDX 3 24 98 25 97 26 9 27 23 29 24 30 25 31 26 32 27 33 28 35
REMARK SMILES IDX 29 36 30 37 94 38 31 39 93 40 32 41 33 42 34 43 87 44 35 45
REMARK SMILES IDX 92 46 86 47 88 48 36 49 91 50 85 51 84 52 37 54 71 55 50 56
REMARK SMILES IDX 70 57 51 58 54 59 69 60 89 61 52 62 53 63 68 65 90 66 55 67
REMARK SMILES IDX 38 68 39 69 48 70 40 71 41 72 47 73 49 74 42 75 43 76 44 77
REMARK SMILES IDX 45 78 46 79 72 80 73 81 82 82 74 83 75 84 81 85 83 86 76 87
REMARK SMILES IDX 77 88 78 89 79 90 80 91 56 92 57 93 66 94 58 95 59 96 65 97
REMARK SMILES IDX 67 98 60 99 61 100 62 101 63 102 64 103
REMARK H PARENT 19 7 9 28 26 34 88 53 54 64
REMARK Flexibility Score: inf
ROOT
ATOM      1  C   UNL     1      -6.513  -6.334   2.971  1.00  0.00     0.002 C 
ENDROOT
BRANCH   1   2
ATOM      2  C   UNL     1      -6.067  -5.262   1.970  1.00  0.00     0.021 C 
BRANCH   2   3
ATOM      3  C   UNL     1      -5.862  -5.813   0.557  1.00  0.00     0.116 C 
BRANCH   3   4
ATOM      4  N   UNL     1      -7.131  -5.896  -0.135  1.00  0.00    -0.352 N 
ATOM      5  C   UNL     1      -7.694  -5.128  -1.119  1.00  0.00     0.251 C 
ATOM      6  O   UNL     1      -8.801  -5.464  -1.541  1.00  0.00    -0.269 OA
ATOM      7  H   UNL     1      -7.697  -6.646   0.158  1.00  0.00     0.163 HD
BRANCH   5   8
ATOM      8  C   UNL     1      -7.005  -3.961  -1.737  1.00  0.00     0.039 A 
ATOM      9  C   UNL     1      -5.803  -1.813  -3.058  1.00  0.00    -0.005 A 
ATOM     10  C   UNL     1      -6.811  -2.536  -3.698  1.00  0.00     0.010 A 
ATOM     11  C   UNL     1      -5.400  -2.130  -1.768  1.00  0.00     0.010 A 
ATOM     12  C   UNL     1      -7.393  -3.622  -3.044  1.00  0.00     0.014 A 
ATOM     13  C   UNL     1      -6.044  -3.168  -1.094  1.00  0.00     0.014 A 
BRANCH   9  14
ATOM     14  C   UNL     1      -5.317  -0.582  -3.679  1.00  0.00     0.141 C 
ATOM     15  N   UNL     1      -4.061  -0.333  -3.882  1.00  0.00    -0.180 NA
BRANCH  15  16
ATOM     16  N   UNL     1      -3.776   0.865  -4.518  1.00  0.00    -0.233 NA
ATOM     17  C   UNL     1      -2.464   0.931  -5.216  1.00  0.00     0.274 C 
ATOM     18  N   UNL     1      -2.740   1.057  -6.677  1.00  0.00    -0.161 NA
ATOM     19  N   UNL     1      -3.910   1.461  -6.859  1.00  0.00    -0.153 NA
ATOM     20  C   UNL     1      -4.663   1.371  -5.596  1.00  0.00     0.298 C 
BRANCH  17  21
ATOM     21  C   UNL     1      -1.521   2.118  -4.780  1.00  0.00     0.201 C 
ATOM     22  C   UNL     1      -2.355   5.059  -6.803  1.00  0.00     0.068 C 
ATOM     23  C   UNL     1      -1.711   3.971  -6.024  1.00  0.00     0.058 C 
ATOM     24  C   UNL     1      -2.157   3.463  -4.875  1.00  0.00     0.031 C 
ATOM     25  N   UNL     1      -0.655   3.258  -6.533  1.00  0.00    -0.160 NA
ATOM     26  N   UNL     1      -0.430   2.245  -5.805  1.00  0.00    -0.177 NA
ENDBRANCH  17  21
BRANCH  20  27
ATOM     27  S   UNL     1      -5.544   2.859  -5.022  1.00  0.00    -0.128 SA
ATOM     28  H   UNL     1      -4.641   3.820  -4.687  1.00  0.00     0.106 HD
ENDBRANCH  20  27
ENDBRANCH  15  16
ENDBRANCH   9  14
ENDBRANCH   5   8
ENDBRANCH   3   4
ENDBRANCH   2   3
ENDBRANCH   1   2
BRANCH   1  29
ATOM     29  C   UNL     1      -5.557  -7.529   3.112  1.00  0.00     0.002 C 
BRANCH  29  30
ATOM     30  C   UNL     1      -4.083  -7.177   3.361  1.00  0.00     0.021 C 
BRANCH  30  31
ATOM     31  C   UNL     1      -3.837  -6.552   4.727  1.00  0.00     0.116 C 
BRANCH  31  32
ATOM     32  N   UNL     1      -4.091  -7.508   5.799  1.00  0.00    -0.352 N 
ATOM     33  C   UNL     1      -4.079  -7.309   7.164  1.00  0.00     0.251 C 
ATOM     34  H   UNL     1      -4.299  -8.425   5.508  1.00  0.00     0.163 HD
ATOM     35  O   UNL     1      -3.941  -8.255   7.922  1.00  0.00    -0.269 OA
BRANCH  33  36
ATOM     36  C   UNL     1      -4.232  -5.940   7.689  1.00  0.00     0.039 A 
ATOM     37  C   UNL     1      -3.484  -5.520   8.791  1.00  0.00     0.014 A 
ATOM     38  C   UNL     1      -5.131  -5.077   7.066  1.00  0.00     0.014 A 
ATOM     39  C   UNL     1      -3.591  -4.197   9.212  1.00  0.00     0.010 A 
ATOM     40  C   UNL     1      -5.143  -3.744   7.400  1.00  0.00     0.010 A 
ATOM     41  C   UNL     1      -4.406  -3.306   8.496  1.00  0.00    -0.014 A 
BRANCH  41  42
ATOM     42  C   UNL     1      -4.380  -1.878   8.800  1.00  0.00     0.031 A 
ATOM     43  C   UNL     1      -3.022  -1.270   8.752  1.00  0.00     0.074 A 
ATOM     44  C   UNL     1      -5.492  -1.117   8.888  1.00  0.00     0.049 A 
ATOM     45  N   UNL     1      -2.330  -0.805   9.739  1.00  0.00    -0.248 NA
ATOM     46  C   UNL     1      -2.275  -1.328   7.484  1.00  0.00     0.031 C 
ATOM     47  C   UNL     1      -6.883  -1.519   8.650  1.00  0.00     0.029 A 
ATOM     48  N   UNL     1      -5.605   0.224   9.097  1.00  0.00    -0.354 N 
ATOM     49  C   UNL     1      -1.169  -0.281   9.177  1.00  0.00     0.074 A 
ATOM     50  C   UNL     1      -1.093  -0.824   7.847  1.00  0.00     0.031 C 
ATOM     51  C   UNL     1      -7.651  -0.420   8.489  1.00  0.00     0.029 A 
ATOM     52  C   UNL     1      -6.849   0.757   8.771  1.00  0.00     0.049 A 
ATOM     53  H   UNL     1      -4.867   0.772   9.449  1.00  0.00     0.167 HD
ATOM     54  C   UNL     1      -0.516   0.764   9.761  1.00  0.00     0.037 A 
ATOM     55  C   UNL     1      -7.187   2.071   8.707  1.00  0.00     0.037 A 
ATOM     56  C   UNL     1      -0.957   0.948  11.124  1.00  0.00     0.049 A 
ATOM     57  C   UNL     1      -6.181   2.815   9.508  1.00  0.00     0.074 A 
ATOM     58  C   UNL     1      -1.012   0.141  12.246  1.00  0.00     0.029 A 
ATOM     59  N   UNL     1      -1.804   2.000  11.383  1.00  0.00    -0.354 N 
ATOM     60  N   UNL     1      -6.069   2.713  10.804  1.00  0.00    -0.248 NA
ATOM     61  C   UNL     1      -5.001   3.320   8.822  1.00  0.00     0.031 C 
ATOM     62  C   UNL     1      -2.243   0.478  12.883  1.00  0.00     0.029 A 
ATOM     63  C   UNL     1      -2.824   1.524  12.165  1.00  0.00     0.049 A 
ATOM     64  H   UNL     1      -1.697   2.925  11.065  1.00  0.00     0.167 HD
ATOM     65  C   UNL     1      -4.703   2.697  11.040  1.00  0.00     0.074 A 
ATOM     66  C   UNL     1      -4.100   3.178   9.798  1.00  0.00     0.031 C 
ATOM     67  C   UNL     1      -4.180   2.023  12.107  1.00  0.00     0.037 A 
BRANCH  54  68
ATOM     68  C   UNL     1       0.210   1.859   9.004  1.00  0.00     0.058 A 
ATOM     69  C   UNL     1       0.920   2.837   9.734  1.00  0.00     0.135 A 
ATOM     70  C   UNL     1      -0.002   2.161   7.641  1.00  0.00     0.135 A 
ATOM     71  F   UNL     1       1.189   2.658  11.037  1.00  0.00    -0.206 F 
ATOM     72  C   UNL     1       1.297   4.061   9.179  1.00  0.00     0.059 A 
ATOM     73  C   UNL     1       0.415   3.350   7.054  1.00  0.00     0.059 A 
ATOM     74  F   UNL     1      -0.708   1.369   6.826  1.00  0.00    -0.206 F 
ATOM     75  C   UNL     1       1.020   4.314   7.840  1.00  0.00     0.060 A 
BRANCH  75  76
ATOM     76  S   UNL     1       1.397   5.932   7.147  1.00  0.00     0.124 S 
ATOM     77  O   UNL     1       0.417   6.772   7.825  1.00  0.00    -0.237 OA
ATOM     78  O   UNL     1       2.788   6.115   7.549  1.00  0.00    -0.237 OA
ATOM     79  O   UNL     1       1.184   5.739   5.715  1.00  0.00    -0.744 OA
ENDBRANCH  75  76
ENDBRANCH  54  68
BRANCH  55  80
ATOM     80  C   UNL     1      -8.139   2.752   7.786  1.00  0.00     0.058 A 
ATOM     81  C   UNL     1      -8.511   4.095   7.990  1.00  0.00     0.135 A 
ATOM     82  C   UNL     1      -8.474   2.203   6.532  1.00  0.00     0.135 A 
ATOM     83  F   UNL     1      -8.226   4.706   9.149  1.00  0.00    -0.206 F 
ATOM     84  C   UNL     1      -9.112   4.866   6.987  1.00  0.00     0.059 A 
ATOM     85  C   UNL     1      -9.085   2.947   5.524  1.00  0.00     0.059 A 
ATOM     86  F   UNL     1      -8.128   0.948   6.209  1.00  0.00    -0.206 F 
ATOM     87  C   UNL     1      -9.371   4.289   5.745  1.00  0.00     0.060 A 
BRANCH  87  88
ATOM     88  S   UNL     1      -9.943   5.328   4.379  1.00  0.00     0.124 S 
ATOM     89  O   UNL     1     -11.316   5.620   4.774  1.00  0.00    -0.237 OA
ATOM     90  O   UNL     1      -9.010   6.449   4.431  1.00  0.00    -0.237 OA
ATOM     91  O   UNL     1      -9.800   4.460   3.212  1.00  0.00    -0.744 OA
ENDBRANCH  87  88
ENDBRANCH  55  80
BRANCH  67  92
ATOM     92  C   UNL     1      -5.117   1.582  13.203  1.00  0.00     0.058 A 
ATOM     93  C   UNL     1      -6.190   0.687  13.036  1.00  0.00     0.135 A 
ATOM     94  C   UNL     1      -4.831   1.996  14.513  1.00  0.00     0.135 A 
ATOM     95  F   UNL     1      -6.464   0.151  11.839  1.00  0.00    -0.206 F 
ATOM     96  C   UNL     1      -6.977   0.273  14.112  1.00  0.00     0.059 A 
ATOM     97  C   UNL     1      -5.580   1.568  15.605  1.00  0.00     0.059 A 
ATOM     98  F   UNL     1      -3.780   2.798  14.751  1.00  0.00    -0.206 F 
ATOM     99  C   UNL     1      -6.666   0.723  15.395  1.00  0.00     0.060 A 
BRANCH  99 100
ATOM    100  S   UNL     1      -7.657   0.157  16.793  1.00  0.00     0.124 S 
ATOM    101  O   UNL     1      -8.912   0.874  16.589  1.00  0.00    -0.237 OA
ATOM    102  O   UNL     1      -7.711  -1.287  16.582  1.00  0.00    -0.237 OA
ATOM    103  O   UNL     1      -6.880   0.579  17.956  1.00  0.00    -0.744 OA
ENDBRANCH  99 100
ENDBRANCH  67  92
ENDBRANCH  41  42
ENDBRANCH  33  36
ENDBRANCH  31  32
ENDBRANCH  30  31
ENDBRANCH  29  30
ENDBRANCH   1  29
TORSDOF 20
