REMARK SMILES CN(C)C(=O)C[NH+]1CCN(c2cc(C(=O)NCCCCCCNC(=O)c3ccc(-c4c5nc(c(-c6c(F)cc(S(=O)(=O)[O-])cc6F)c6ccc([nH]6)c(-c6c(F)cc(S(=O)(=O)[O-])cc6F)c6nc(c(-c7c(F)cc(S(=O)(=O)[O-])cc7F)c7ccc4[nH]7)C=C6)C=C5)cc3)c3cc(NC(=O)c4cccc(Cl)c4)ccc3n2)CC1
REMARK SMILES IDX 19 1 18 2 17 3 16 4 14 5 15 6 13 8 11 9 12 10 108 11 107 12
REMARK SMILES IDX 92 13 106 14 93 15 105 16 94 17 10 18 7 19 8 20 110 21 9 23
REMARK SMILES IDX 109 24 6 25 4 26 1 27 2 28 3 29 5 30 95 31 96 32 97 34 98 35
REMARK SMILES IDX 99 36 104 37 100 38 102 39 101 40 103 41 20 42 21 43 22 44
REMARK SMILES IDX 23 45 24 46 25 48 26 49 27 50 91 51 28 52 90 53 29 54 30 55
REMARK SMILES IDX 31 56 84 57 32 58 89 59 83 60 85 61 33 62 88 63 82 64 81 65
REMARK SMILES IDX 34 67 68 68 47 69 67 70 48 71 51 72 66 73 86 74 49 75 50 76
REMARK SMILES IDX 65 78 87 79 52 80 35 81 36 82 45 83 37 84 38 85 44 86 46 87
REMARK SMILES IDX 39 88 40 89 41 90 42 91 43 92 69 93 70 94 79 95 71 96 72 97
REMARK SMILES IDX 78 98 80 99 73 100 74 101 75 102 76 103 77 104 53 105 54 106
REMARK SMILES IDX 63 107 55 108 56 109 62 110 64 111 57 112 58 113 59 114
REMARK SMILES IDX 60 115 61 116
REMARK H PARENT 16 7 7 22 95 33 23 47 85 66 51 77
REMARK Flexibility Score: inf
ROOT
ATOM      1  C   UNL     1       3.274  12.375  10.260  1.00  0.00     0.002 C 
ENDROOT
BRANCH   1   2
ATOM      2  C   UNL     1       3.451  11.994   8.779  1.00  0.00     0.021 C 
BRANCH   2   3
ATOM      3  C   UNL     1       3.756  10.536   8.410  1.00  0.00     0.116 C 
BRANCH   3   4
ATOM      4  N   UNL     1       2.716   9.562   8.725  1.00  0.00    -0.352 N 
ATOM      5  C   UNL     1       2.346   8.326   8.218  1.00  0.00     0.252 C 
ATOM      6  O   UNL     1       1.407   7.779   8.807  1.00  0.00    -0.269 OA
ATOM      7  H   UNL     1       2.144   9.849   9.472  1.00  0.00     0.163 HD
BRANCH   5   8
ATOM      8  C   UNL     1       2.921   7.605   7.020  1.00  0.00     0.052 A 
ATOM      9  C   UNL     1       2.488   5.913   5.317  1.00  0.00     0.130 A 
ATOM     10  C   UNL     1       2.041   6.722   6.361  1.00  0.00     0.061 A 
ATOM     11  N   UNL     1       3.722   6.080   4.809  1.00  0.00    -0.231 NA
ATOM     12  C   UNL     1       4.595   6.874   5.437  1.00  0.00     0.074 A 
ATOM     13  C   UNL     1       4.267   7.576   6.609  1.00  0.00     0.015 A 
ATOM     14  C   UNL     1       5.900   6.927   4.957  1.00  0.00     0.031 A 
ATOM     15  C   UNL     1       5.331   8.087   7.357  1.00  0.00     0.037 A 
ATOM     16  C   UNL     1       6.934   7.526   5.686  1.00  0.00     0.028 A 
ATOM     17  C   UNL     1       6.661   8.022   6.950  1.00  0.00     0.042 A 
BRANCH   9  18
ATOM     18  N   UNL     1       1.737   4.846   4.865  1.00  0.00    -0.345 N 
ATOM     19  N   UNL     1       0.883   3.648   2.299  1.00  0.00    -0.324 N 
ATOM     20  C   UNL     1       0.276   4.878   2.871  1.00  0.00     0.284 C 
ATOM     21  C   UNL     1       2.284   3.558   2.803  1.00  0.00     0.284 C 
ATOM     22  H   UNL     1       0.891   3.693   1.280  1.00  0.00     0.348 HD
ATOM     23  C   UNL     1       0.360   5.024   4.415  1.00  0.00     0.179 C 
ATOM     24  C   UNL     1       2.437   3.662   4.338  1.00  0.00     0.179 C 
BRANCH  19  25
ATOM     25  C   UNL     1       0.087   2.449   2.651  1.00  0.00     0.363 C 
BRANCH  25  26
ATOM     26  C   UNL     1       0.598   1.190   1.929  1.00  0.00     0.277 C 
ATOM     27  C   UNL     1       0.978  -0.058  -0.127  1.00  0.00     0.146 C 
ATOM     28  N   UNL     1       0.347   1.053   0.565  1.00  0.00    -0.344 N 
ATOM     29  C   UNL     1      -0.224   2.108  -0.256  1.00  0.00     0.146 C 
ATOM     30  O   UNL     1       1.215   0.329   2.567  1.00  0.00    -0.268 OA
ENDBRANCH  25  26
ENDBRANCH  19  25
ENDBRANCH   9  18
BRANCH  17  31
ATOM     31  N   UNL     1       7.717   8.436   7.783  1.00  0.00    -0.322 N 
ATOM     32  C   UNL     1       7.742   8.590   9.161  1.00  0.00     0.255 C 
ATOM     33  H   UNL     1       8.560   8.648   7.321  1.00  0.00     0.170 HD
ATOM     34  O   UNL     1       8.592   9.291   9.700  1.00  0.00    -0.269 OA
BRANCH  32  35
ATOM     35  C   UNL     1       6.743   7.893  10.016  1.00  0.00     0.041 A 
ATOM     36  C   UNL     1       6.042   8.645  10.965  1.00  0.00     0.014 A 
ATOM     37  C   UNL     1       6.411   6.550   9.808  1.00  0.00     0.034 A 
ATOM     38  C   UNL     1       4.929   8.103  11.609  1.00  0.00     0.002 A 
ATOM     39  C   UNL     1       5.305   6.012  10.464  1.00  0.00     0.041 A 
ATOM     40  C   UNL     1       4.548   6.789  11.341  1.00  0.00     0.020 A 
ATOM     41  Cl  UNL     1       4.833   4.389  10.146  1.00  0.00    -0.084 Cl
ENDBRANCH  32  35
ENDBRANCH  17  31
ENDBRANCH   5   8
ENDBRANCH   3   4
ENDBRANCH   2   3
ENDBRANCH   1   2
BRANCH   1  42
ATOM     42  C   UNL     1       4.393  12.113  11.280  1.00  0.00     0.002 C 
BRANCH  42  43
ATOM     43  C   UNL     1       5.849  12.332  10.869  1.00  0.00     0.021 C 
BRANCH  43  44
ATOM     44  C   UNL     1       6.259  13.737  10.448  1.00  0.00     0.116 C 
BRANCH  44  45
ATOM     45  N   UNL     1       6.391  14.658  11.564  1.00  0.00    -0.352 N 
ATOM     46  C   UNL     1       7.476  15.392  11.991  1.00  0.00     0.251 C 
ATOM     47  H   UNL     1       5.575  14.775  12.101  1.00  0.00     0.163 HD
ATOM     48  O   UNL     1       7.396  15.997  13.059  1.00  0.00    -0.269 OA
BRANCH  46  49
ATOM     49  C   UNL     1       8.735  15.471  11.201  1.00  0.00     0.039 A 
ATOM     50  C   UNL     1       9.958  15.546  11.884  1.00  0.00     0.014 A 
ATOM     51  C   UNL     1       8.730  15.559   9.807  1.00  0.00     0.014 A 
ATOM     52  C   UNL     1      11.160  15.678  11.176  1.00  0.00     0.010 A 
ATOM     53  C   UNL     1       9.932  15.613   9.098  1.00  0.00     0.010 A 
ATOM     54  C   UNL     1      11.158  15.706   9.774  1.00  0.00    -0.014 A 
BRANCH  54  55
ATOM     55  C   UNL     1      12.403  15.934   8.992  1.00  0.00     0.031 A 
ATOM     56  C   UNL     1      12.549  17.205   8.192  1.00  0.00     0.074 A 
ATOM     57  C   UNL     1      13.372  14.998   8.952  1.00  0.00     0.049 A 
ATOM     58  N   UNL     1      13.489  17.557   7.353  1.00  0.00    -0.248 NA
ATOM     59  C   UNL     1      11.474  18.202   8.336  1.00  0.00     0.031 C 
ATOM     60  C   UNL     1      13.342  13.716   9.658  1.00  0.00     0.029 A 
ATOM     61  N   UNL     1      14.567  14.976   8.276  1.00  0.00    -0.354 N 
ATOM     62  C   UNL     1      13.109  18.800   6.856  1.00  0.00     0.074 A 
ATOM     63  C   UNL     1      11.828  19.117   7.447  1.00  0.00     0.031 C 
ATOM     64  C   UNL     1      14.472  13.040   9.389  1.00  0.00     0.029 A 
ATOM     65  C   UNL     1      15.292  13.823   8.469  1.00  0.00     0.049 A 
ATOM     66  H   UNL     1      14.877  15.717   7.707  1.00  0.00     0.167 HD
ATOM     67  C   UNL     1      13.776  19.616   6.005  1.00  0.00     0.037 A 
ATOM     68  C   UNL     1      16.478  13.441   7.956  1.00  0.00     0.037 A 
ATOM     69  C   UNL     1      15.069  19.315   5.450  1.00  0.00     0.049 A 
ATOM     70  C   UNL     1      17.207  14.368   7.018  1.00  0.00     0.074 A 
ATOM     71  C   UNL     1      15.847  20.087   4.605  1.00  0.00     0.029 A 
ATOM     72  N   UNL     1      15.783  18.152   5.700  1.00  0.00    -0.354 N 
ATOM     73  N   UNL     1      16.842  15.549   6.577  1.00  0.00    -0.248 NA
ATOM     74  C   UNL     1      18.510  13.914   6.511  1.00  0.00     0.031 C 
ATOM     75  C   UNL     1      17.022  19.381   4.325  1.00  0.00     0.029 A 
ATOM     76  C   UNL     1      16.991  18.184   5.023  1.00  0.00     0.049 A 
ATOM     77  H   UNL     1      15.476  17.413   6.273  1.00  0.00     0.167 HD
ATOM     78  C   UNL     1      17.882  15.990   5.766  1.00  0.00     0.074 A 
ATOM     79  C   UNL     1      18.894  14.954   5.783  1.00  0.00     0.031 C 
ATOM     80  C   UNL     1      17.991  17.148   5.070  1.00  0.00     0.037 A 
BRANCH  67  81
ATOM     81  C   UNL     1      13.122  20.919   5.635  1.00  0.00     0.058 A 
ATOM     82  C   UNL     1      13.005  21.969   6.560  1.00  0.00     0.135 A 
ATOM     83  C   UNL     1      12.622  21.131   4.340  1.00  0.00     0.135 A 
ATOM     84  F   UNL     1      13.451  21.815   7.817  1.00  0.00    -0.206 F 
ATOM     85  C   UNL     1      12.386  23.169   6.226  1.00  0.00     0.059 A 
ATOM     86  C   UNL     1      12.023  22.334   3.976  1.00  0.00     0.059 A 
ATOM     87  F   UNL     1      12.707  20.161   3.416  1.00  0.00    -0.206 F 
ATOM     88  C   UNL     1      11.894  23.341   4.931  1.00  0.00     0.060 A 
BRANCH  88  89
ATOM     89  S   UNL     1      11.088  24.902   4.514  1.00  0.00     0.124 S 
ATOM     90  O   UNL     1       9.796  24.747   5.173  1.00  0.00    -0.237 OA
ATOM     91  O   UNL     1      11.987  25.888   5.104  1.00  0.00    -0.237 OA
ATOM     92  O   UNL     1      11.054  24.885   3.054  1.00  0.00    -0.744 OA
ENDBRANCH  88  89
ENDBRANCH  67  81
BRANCH  68  93
ATOM     93  C   UNL     1      17.070  12.129   8.334  1.00  0.00     0.058 A 
ATOM     94  C   UNL     1      18.195  12.063   9.169  1.00  0.00     0.135 A 
ATOM     95  C   UNL     1      16.531  10.921   7.868  1.00  0.00     0.135 A 
ATOM     96  F   UNL     1      18.753  13.192   9.633  1.00  0.00    -0.206 F 
ATOM     97  C   UNL     1      18.779  10.848   9.514  1.00  0.00     0.059 A 
ATOM     98  C   UNL     1      17.082   9.691   8.217  1.00  0.00     0.059 A 
ATOM     99  F   UNL     1      15.447  10.928   7.076  1.00  0.00    -0.206 F 
ATOM    100  C   UNL     1      18.215   9.666   9.030  1.00  0.00     0.060 A 
BRANCH 100 101
ATOM    101  S   UNL     1      18.958   8.090   9.508  1.00  0.00     0.124 S 
ATOM    102  O   UNL     1      20.141   8.054   8.656  1.00  0.00    -0.237 OA
ATOM    103  O   UNL     1      19.204   8.283  10.934  1.00  0.00    -0.237 OA
ATOM    104  O   UNL     1      17.917   7.119   9.186  1.00  0.00    -0.744 OA
ENDBRANCH 100 101
ENDBRANCH  68  93
BRANCH  80 105
ATOM    105  C   UNL     1      19.262  17.376   4.302  1.00  0.00     0.058 A 
ATOM    106  C   UNL     1      19.517  16.715   3.091  1.00  0.00     0.135 A 
ATOM    107  C   UNL     1      20.207  18.309   4.756  1.00  0.00     0.135 A 
ATOM    108  F   UNL     1      18.646  15.810   2.618  1.00  0.00    -0.206 F 
ATOM    109  C   UNL     1      20.677  16.959   2.364  1.00  0.00     0.059 A 
ATOM    110  C   UNL     1      21.363  18.585   4.034  1.00  0.00     0.059 A 
ATOM    111  F   UNL     1      20.003  18.974   5.904  1.00  0.00    -0.206 F 
ATOM    112  C   UNL     1      21.594  17.898   2.843  1.00  0.00     0.060 A 
BRANCH 112 113
ATOM    113  S   UNL     1      23.077  18.237   1.870  1.00  0.00     0.124 S 
ATOM    114  O   UNL     1      23.898  17.068   2.169  1.00  0.00    -0.237 OA
ATOM    115  O   UNL     1      22.551  18.311   0.511  1.00  0.00    -0.237 OA
ATOM    116  O   UNL     1      23.560  19.501   2.418  1.00  0.00    -0.744 OA
ENDBRANCH 112 113
ENDBRANCH  80 105
ENDBRANCH  54  55
ENDBRANCH  46  49
ENDBRANCH  44  45
ENDBRANCH  43  44
ENDBRANCH  42  43
ENDBRANCH   1  42
TORSDOF 21
