REMARK SMILES Cc1cccc(Cl)c1Nc1ccccc1CC(=O)NCCCCCCNC(=O)c1ccc(-c2c3nc(c(-c4c(F)cc(S(=O)(=O)[O-])cc4F)c4ccc([nH]4)c(-c4c(F)cc(S(=O)(=O)[O-])cc4F)c4nc(c(-c5c(F)cc(S(=O)(=O)[O-])cc5F)c5ccc2[nH]5)C=C4)C=C3)cc1
REMARK SMILES IDX 22 1 21 2 20 3 19 4 17 5 18 6 16 8 15 9 10 10 11 11 12 12
REMARK SMILES IDX 14 13 13 14 9 15 8 17 1 18 2 19 3 20 4 21 6 22 5 23 7 24
REMARK SMILES IDX 23 25 24 26 25 27 26 28 27 29 28 31 29 32 30 33 94 34 31 35
REMARK SMILES IDX 93 36 32 37 33 38 34 39 87 40 35 41 92 42 86 43 88 44 36 45
REMARK SMILES IDX 91 46 85 47 84 48 37 50 71 51 50 52 70 53 51 54 54 55 69 56
REMARK SMILES IDX 89 57 52 58 53 59 68 61 90 62 55 63 38 64 39 65 48 66 40 67
REMARK SMILES IDX 41 68 47 69 49 70 42 71 43 72 44 73 45 74 46 75 72 76 73 77
REMARK SMILES IDX 82 78 74 79 75 80 81 81 83 82 76 83 77 84 78 85 79 86 80 87
REMARK SMILES IDX 56 88 57 89 66 90 58 91 59 92 65 93 67 94 60 95 61 96 62 97
REMARK SMILES IDX 63 98 64 99
REMARK H PARENT 19 7 9 16 26 30 88 49 54 60
REMARK Flexibility Score: inf
ROOT
ATOM      1  C   UNL     1       0.644   6.114  -3.624  1.00  0.00     0.002 C 
ENDROOT
BRANCH   1   2
ATOM      2  C   UNL     1       0.697   5.123  -2.455  1.00  0.00     0.021 C 
BRANCH   2   3
ATOM      3  C   UNL     1       0.129   3.746  -2.798  1.00  0.00     0.116 C 
BRANCH   3   4
ATOM      4  N   UNL     1       1.011   3.034  -3.702  1.00  0.00    -0.356 N 
ATOM      5  C   UNL     1       1.893   2.034  -3.406  1.00  0.00     0.224 C 
ATOM      6  O   UNL     1       2.670   1.655  -4.286  1.00  0.00    -0.275 OA
ATOM      7  H   UNL     1       0.969   3.305  -4.647  1.00  0.00     0.163 HD
BRANCH   5   8
ATOM      8  C   UNL     1       1.852   1.372  -2.039  1.00  0.00     0.137 C 
BRANCH   8   9
ATOM      9  C   UNL     1       2.356   2.236  -0.900  1.00  0.00    -0.015 A 
ATOM     10  C   UNL     1       1.589   2.521   0.252  1.00  0.00     0.042 A 
ATOM     11  C   UNL     1       2.112   3.416   1.204  1.00  0.00     0.026 A 
ATOM     12  C   UNL     1       3.372   3.992   1.049  1.00  0.00     0.002 A 
ATOM     13  C   UNL     1       3.641   2.804  -1.026  1.00  0.00     0.006 A 
ATOM     14  C   UNL     1       4.143   3.675  -0.061  1.00  0.00     0.000 A 
BRANCH  10  15
ATOM     15  N   UNL     1       0.340   1.936   0.551  1.00  0.00    -0.354 N 
ATOM     16  H   UNL     1      -0.318   2.574   0.910  1.00  0.00     0.167 HD
BRANCH  15  17
ATOM     17  C   UNL     1      -0.154   0.614   0.439  1.00  0.00     0.060 A 
ATOM     18  C   UNL     1      -2.477   1.608   0.014  1.00  0.00     0.046 C 
ATOM     19  C   UNL     1      -1.533   0.438   0.143  1.00  0.00    -0.026 A 
ATOM     20  C   UNL     1      -2.050  -0.852  -0.077  1.00  0.00     0.005 A 
ATOM     21  C   UNL     1      -1.229  -1.972  -0.000  1.00  0.00     0.002 A 
ATOM     22  C   UNL     1       0.651  -0.544   0.542  1.00  0.00     0.064 A 
ATOM     23  C   UNL     1       0.115  -1.818   0.316  1.00  0.00     0.023 A 
ATOM     24  Cl  UNL     1       2.306  -0.507   1.056  1.00  0.00    -0.082 Cl
ENDBRANCH  15  17
ENDBRANCH  10  15
ENDBRANCH   8   9
ENDBRANCH   5   8
ENDBRANCH   3   4
ENDBRANCH   2   3
ENDBRANCH   1   2
BRANCH   1  25
ATOM     25  C   UNL     1      -0.761   6.386  -4.171  1.00  0.00     0.002 C 
BRANCH  25  26
ATOM     26  C   UNL     1      -1.770   6.889  -3.135  1.00  0.00     0.021 C 
BRANCH  26  27
ATOM     27  C   UNL     1      -1.385   8.206  -2.465  1.00  0.00     0.116 C 
BRANCH  27  28
ATOM     28  N   UNL     1      -1.288   9.293  -3.428  1.00  0.00    -0.352 N 
ATOM     29  C   UNL     1      -1.907  10.513  -3.426  1.00  0.00     0.251 C 
ATOM     30  H   UNL     1      -0.690   9.126  -4.192  1.00  0.00     0.163 HD
ATOM     31  O   UNL     1      -1.877  11.214  -4.442  1.00  0.00    -0.269 OA
BRANCH  29  32
ATOM     32  C   UNL     1      -2.620  10.989  -2.223  1.00  0.00     0.039 A 
ATOM     33  C   UNL     1      -3.854  11.624  -2.374  1.00  0.00     0.014 A 
ATOM     34  C   UNL     1      -2.062  10.834  -0.949  1.00  0.00     0.014 A 
ATOM     35  C   UNL     1      -4.551  12.061  -1.246  1.00  0.00     0.010 A 
ATOM     36  C   UNL     1      -2.790  11.207   0.178  1.00  0.00     0.010 A 
ATOM     37  C   UNL     1      -4.038  11.832   0.041  1.00  0.00    -0.014 A 
BRANCH  37  38
ATOM     38  C   UNL     1      -4.801  12.241   1.248  1.00  0.00     0.031 A 
ATOM     39  C   UNL     1      -4.256  13.294   2.175  1.00  0.00     0.074 A 
ATOM     40  C   UNL     1      -5.966  11.626   1.533  1.00  0.00     0.049 A 
ATOM     41  N   UNL     1      -4.770  13.764   3.283  1.00  0.00    -0.248 NA
ATOM     42  C   UNL     1      -2.951  13.877   1.827  1.00  0.00     0.031 C 
ATOM     43  C   UNL     1      -6.567  10.548   0.744  1.00  0.00     0.029 A 
ATOM     44  N   UNL     1      -6.851  11.814   2.564  1.00  0.00    -0.354 N 
ATOM     45  C   UNL     1      -3.850  14.686   3.768  1.00  0.00     0.074 A 
ATOM     46  C   UNL     1      -2.721  14.669   2.864  1.00  0.00     0.031 C 
ATOM     47  C   UNL     1      -7.733  10.189   1.305  1.00  0.00     0.029 A 
ATOM     48  C   UNL     1      -7.948  10.986   2.509  1.00  0.00     0.049 A 
ATOM     49  H   UNL     1      -6.715  12.479   3.277  1.00  0.00     0.167 HD
ATOM     50  C   UNL     1      -3.948  15.489   4.855  1.00  0.00     0.037 A 
ATOM     51  C   UNL     1      -9.007  10.881   3.334  1.00  0.00     0.037 A 
ATOM     52  C   UNL     1      -5.087  15.517   5.737  1.00  0.00     0.049 A 
ATOM     53  C   UNL     1      -9.104  11.799   4.521  1.00  0.00     0.074 A 
ATOM     54  C   UNL     1      -5.312  16.341   6.826  1.00  0.00     0.029 A 
ATOM     55  N   UNL     1      -6.191  14.682   5.633  1.00  0.00    -0.354 N 
ATOM     56  N   UNL     1      -8.258  12.718   4.923  1.00  0.00    -0.248 NA
ATOM     57  C   UNL     1     -10.304  11.676   5.359  1.00  0.00     0.031 C 
ATOM     58  C   UNL     1      -6.531  15.974   7.408  1.00  0.00     0.029 A 
ATOM     59  C   UNL     1      -7.090  14.956   6.651  1.00  0.00     0.049 A 
ATOM     60  H   UNL     1      -6.316  13.996   4.939  1.00  0.00     0.167 HD
ATOM     61  C   UNL     1      -8.834  13.298   6.048  1.00  0.00     0.074 A 
ATOM     62  C   UNL     1     -10.108  12.638   6.250  1.00  0.00     0.031 C 
ATOM     63  C   UNL     1      -8.353  14.287   6.842  1.00  0.00     0.037 A 
BRANCH  50  64
ATOM     64  C   UNL     1      -2.794  16.410   5.149  1.00  0.00     0.058 A 
ATOM     65  C   UNL     1      -2.502  17.513   4.330  1.00  0.00     0.135 A 
ATOM     66  C   UNL     1      -1.988  16.206   6.280  1.00  0.00     0.135 A 
ATOM     67  F   UNL     1      -3.231  17.748   3.227  1.00  0.00    -0.206 F 
ATOM     68  C   UNL     1      -1.435  18.363   4.605  1.00  0.00     0.059 A 
ATOM     69  C   UNL     1      -0.933  17.060   6.591  1.00  0.00     0.059 A 
ATOM     70  F   UNL     1      -2.220  15.167   7.098  1.00  0.00    -0.206 F 
ATOM     71  C   UNL     1      -0.655  18.127   5.738  1.00  0.00     0.060 A 
BRANCH  71  72
ATOM     72  S   UNL     1       0.724  19.240   6.082  1.00  0.00     0.124 S 
ATOM     73  O   UNL     1       1.685  18.837   5.060  1.00  0.00    -0.237 OA
ATOM     74  O   UNL     1       0.118  20.555   5.899  1.00  0.00    -0.237 OA
ATOM     75  O   UNL     1       1.093  18.910   7.455  1.00  0.00    -0.744 OA
ENDBRANCH  71  72
ENDBRANCH  50  64
BRANCH  51  76
ATOM     76  C   UNL     1     -10.073   9.884   3.046  1.00  0.00     0.058 A 
ATOM     77  C   UNL     1     -11.342  10.289   2.607  1.00  0.00     0.135 A 
ATOM     78  C   UNL     1      -9.837   8.508   3.183  1.00  0.00     0.135 A 
ATOM     79  F   UNL     1     -11.617  11.595   2.464  1.00  0.00    -0.206 F 
ATOM     80  C   UNL     1     -12.346   9.367   2.329  1.00  0.00     0.059 A 
ATOM     81  C   UNL     1     -10.816   7.565   2.887  1.00  0.00     0.059 A 
ATOM     82  F   UNL     1      -8.633   8.068   3.582  1.00  0.00    -0.206 F 
ATOM     83  C   UNL     1     -12.071   8.005   2.469  1.00  0.00     0.060 A 
BRANCH  83  84
ATOM     84  S   UNL     1     -13.362   6.813   2.052  1.00  0.00     0.124 S 
ATOM     85  O   UNL     1     -14.268   6.953   3.185  1.00  0.00    -0.237 OA
ATOM     86  O   UNL     1     -13.850   7.323   0.775  1.00  0.00    -0.237 OA
ATOM     87  O   UNL     1     -12.636   5.548   1.976  1.00  0.00    -0.744 OA
ENDBRANCH  83  84
ENDBRANCH  51  76
BRANCH  63  88
ATOM     88  C   UNL     1      -9.220  14.732   7.988  1.00  0.00     0.058 A 
ATOM     89  C   UNL     1      -9.419  13.925   9.119  1.00  0.00     0.135 A 
ATOM     90  C   UNL     1      -9.840  15.992   7.963  1.00  0.00     0.135 A 
ATOM     91  F   UNL     1      -8.854  12.710   9.191  1.00  0.00    -0.206 F 
ATOM     92  C   UNL     1     -10.231  14.337  10.171  1.00  0.00     0.059 A 
ATOM     93  C   UNL     1     -10.632  16.436   9.017  1.00  0.00     0.059 A 
ATOM     94  F   UNL     1      -9.673  16.808   6.911  1.00  0.00    -0.206 F 
ATOM     95  C   UNL     1     -10.836  15.594  10.109  1.00  0.00     0.060 A 
BRANCH  95  96
ATOM     96  S   UNL     1     -11.881  16.121  11.483  1.00  0.00     0.124 S 
ATOM     97  O   UNL     1     -13.084  15.326  11.258  1.00  0.00    -0.237 OA
ATOM     98  O   UNL     1     -11.082  15.747  12.646  1.00  0.00    -0.237 OA
ATOM     99  O   UNL     1     -12.028  17.557  11.267  1.00  0.00    -0.744 OA
ENDBRANCH  95  96
ENDBRANCH  63  88
ENDBRANCH  37  38
ENDBRANCH  29  32
ENDBRANCH  27  28
ENDBRANCH  26  27
ENDBRANCH  25  26
ENDBRANCH   1  25
TORSDOF 19
