REMARK SMILES C[C@]([NH3+])(C(=O)N1[C@@H](C(=O)NCCCCCCNC(=O)c2ccc(-c3c4nc(c(-c5c(F)cc(S(=O)(=O)[O-])cc5F)c5ccc([nH]5)c(-c5c(F)cc(S(=O)(=O)[O-])cc5F)c5nc(c(-c6c(F)cc(S(=O)(=O)[O-])cc6F)c6ccc3[nH]6)C=C5)C=C4)cc2)C[C@H]2CCCC[C@@H]21)C(F)(F)F
REMARK SMILES IDX 13 1 12 2 11 3 10 4 8 5 9 6 7 8 6 9 92 10 86 11 87 12 91 13
REMARK SMILES IDX 88 14 90 15 89 16 4 17 5 18 2 19 1 20 93 21 94 22 95 23
REMARK SMILES IDX 96 24 3 25 14 29 15 30 16 31 17 32 18 33 19 35 20 36 21 37
REMARK SMILES IDX 85 38 22 39 84 40 23 41 24 42 25 43 78 44 26 45 83 46 77 47
REMARK SMILES IDX 79 48 27 49 82 50 76 51 75 52 28 54 62 55 41 56 61 57 42 58
REMARK SMILES IDX 45 59 60 60 80 61 43 62 44 63 59 65 81 66 46 67 29 68 30 69
REMARK SMILES IDX 39 70 31 71 32 72 38 73 40 74 33 75 34 76 35 77 36 78 37 79
REMARK SMILES IDX 63 80 64 81 73 82 65 83 66 84 72 85 74 86 67 87 68 88 69 89
REMARK SMILES IDX 70 90 71 91 47 92 48 93 57 94 49 95 50 96 56 97 58 98 51 99
REMARK SMILES IDX 52 100 53 101 54 102 55 103
REMARK H PARENT 10 7 3 26 3 27 3 28 17 34 79 53 45 64
REMARK Flexibility Score: inf
ROOT
ATOM      1  C   UNL     1      -0.976  -3.926  -0.256  1.00  0.00     0.002 C 
ENDROOT
BRANCH   1   2
ATOM      2  C   UNL     1      -0.503  -2.469  -0.232  1.00  0.00     0.021 C 
BRANCH   2   3
ATOM      3  C   UNL     1      -0.498  -1.813  -1.613  1.00  0.00     0.116 C 
BRANCH   3   4
ATOM      4  N   UNL     1      -1.815  -1.310  -1.933  1.00  0.00    -0.354 N 
ATOM      5  C   UNL     1      -2.303  -0.040  -1.885  1.00  0.00     0.242 C 
ATOM      6  O   UNL     1      -3.527   0.089  -1.985  1.00  0.00    -0.273 OA
ATOM      7  H   UNL     1      -2.459  -1.992  -2.231  1.00  0.00     0.163 HD
BRANCH   5   8
ATOM      8  C   UNL     1      -1.350   1.182  -1.695  1.00  0.00     0.175 C 
ATOM      9  N   UNL     1      -1.420   1.766  -0.339  1.00  0.00    -0.322 N 
ATOM     10  C   UNL     1      -2.584   2.632  -0.309  1.00  0.00     0.089 C 
ATOM     11  C   UNL     1      -1.901   2.320  -2.601  1.00  0.00     0.041 C 
ATOM     12  C   UNL     1      -2.377   3.392  -1.618  1.00  0.00     0.014 C 
ATOM     13  C   UNL     1      -2.759   3.632   0.831  1.00  0.00     0.025 C 
ATOM     14  C   UNL     1      -3.612   4.196  -1.977  1.00  0.00     0.006 C 
ATOM     15  C   UNL     1      -3.960   4.544   0.535  1.00  0.00     0.002 C 
ATOM     16  C   UNL     1      -3.891   5.202  -0.852  1.00  0.00     0.000 C 
BRANCH   9  17
ATOM     17  C   UNL     1      -0.937   1.161   0.808  1.00  0.00     0.294 C 
ATOM     18  O   UNL     1      -1.726   0.649   1.601  1.00  0.00    -0.267 OA
BRANCH  17  19
ATOM     19  C   UNL     1       0.589   1.318   1.113  1.00  0.00     0.267 C 
ATOM     20  C   UNL     1       1.012   2.800   1.081  1.00  0.00     0.100 C 
BRANCH  19  21
ATOM     21  C   UNL     1       0.805   0.757   2.548  1.00  0.00     0.453 C 
ATOM     22  F   UNL     1       0.489  -0.558   2.627  1.00  0.00    -0.164 F 
ATOM     23  F   UNL     1       2.114   0.855   2.904  1.00  0.00    -0.164 F 
ATOM     24  F   UNL     1       0.102   1.431   3.485  1.00  0.00    -0.164 F 
ENDBRANCH  19  21
BRANCH  19  25
ATOM     25  N   UNL     1       1.429   0.611   0.096  1.00  0.00    -0.337 N 
ATOM     26  H   UNL     1       1.183  -0.379   0.081  1.00  0.00     0.345 HD
ATOM     27  H   UNL     1       2.414   0.712   0.339  1.00  0.00     0.345 HD
ATOM     28  H   UNL     1       1.262   1.016  -0.824  1.00  0.00     0.345 HD
ENDBRANCH  19  25
ENDBRANCH  17  19
ENDBRANCH   9  17
ENDBRANCH   5   8
ENDBRANCH   3   4
ENDBRANCH   2   3
ENDBRANCH   1   2
BRANCH   1  29
ATOM     29  C   UNL     1      -0.034  -4.888  -0.992  1.00  0.00     0.002 C 
BRANCH  29  30
ATOM     30  C   UNL     1       1.408  -4.916  -0.472  1.00  0.00     0.021 C 
BRANCH  30  31
ATOM     31  C   UNL     1       1.550  -5.311   0.997  1.00  0.00     0.116 C 
BRANCH  31  32
ATOM     32  N   UNL     1       1.062  -6.660   1.235  1.00  0.00    -0.352 N 
ATOM     33  C   UNL     1       1.722  -7.757   1.730  1.00  0.00     0.251 C 
ATOM     34  H   UNL     1       0.116  -6.808   1.008  1.00  0.00     0.163 HD
ATOM     35  O   UNL     1       1.214  -8.869   1.620  1.00  0.00    -0.269 OA
BRANCH  33  36
ATOM     36  C   UNL     1       3.040  -7.606   2.384  1.00  0.00     0.039 A 
ATOM     37  C   UNL     1       4.035  -8.551   2.118  1.00  0.00     0.014 A 
ATOM     38  C   UNL     1       3.285  -6.569   3.290  1.00  0.00     0.014 A 
ATOM     39  C   UNL     1       5.289  -8.427   2.720  1.00  0.00     0.010 A 
ATOM     40  C   UNL     1       4.556  -6.411   3.841  1.00  0.00     0.010 A 
ATOM     41  C   UNL     1       5.568  -7.341   3.566  1.00  0.00    -0.014 A 
BRANCH  41  42
ATOM     42  C   UNL     1       6.923  -7.164   4.149  1.00  0.00     0.031 A 
ATOM     43  C   UNL     1       7.142  -7.275   5.633  1.00  0.00     0.074 A 
ATOM     44  C   UNL     1       7.952  -6.859   3.335  1.00  0.00     0.049 A 
ATOM     45  N   UNL     1       8.254  -7.158   6.313  1.00  0.00    -0.248 NA
ATOM     46  C   UNL     1       5.954  -7.528   6.463  1.00  0.00     0.031 C 
ATOM     47  C   UNL     1       7.854  -6.665   1.887  1.00  0.00     0.029 A 
ATOM     48  N   UNL     1       9.282  -6.660   3.607  1.00  0.00    -0.354 N 
ATOM     49  C   UNL     1       7.901  -7.315   7.648  1.00  0.00     0.074 A 
ATOM     50  C   UNL     1       6.464  -7.484   7.686  1.00  0.00     0.031 C 
ATOM     51  C   UNL     1       9.075  -6.404   1.394  1.00  0.00     0.029 A 
ATOM     52  C   UNL     1      10.037  -6.386   2.491  1.00  0.00     0.049 A 
ATOM     53  H   UNL     1       9.660  -6.707   4.514  1.00  0.00     0.167 HD
ATOM     54  C   UNL     1       8.704  -7.337   8.740  1.00  0.00     0.037 A 
ATOM     55  C   UNL     1      11.357  -6.153   2.364  1.00  0.00     0.037 A 
ATOM     56  C   UNL     1      10.135  -7.184   8.694  1.00  0.00     0.049 A 
ATOM     57  C   UNL     1      12.231  -6.201   3.586  1.00  0.00     0.074 A 
ATOM     58  C   UNL     1      11.045  -7.257   9.734  1.00  0.00     0.029 A 
ATOM     59  N   UNL     1      10.866  -6.919   7.544  1.00  0.00    -0.354 N 
ATOM     60  N   UNL     1      11.891  -6.426   4.833  1.00  0.00    -0.248 NA
ATOM     61  C   UNL     1      13.667  -5.972   3.383  1.00  0.00     0.031 C 
ATOM     62  C   UNL     1      12.321  -6.998   9.220  1.00  0.00     0.029 A 
ATOM     63  C   UNL     1      12.213  -6.805   7.852  1.00  0.00     0.049 A 
ATOM     64  H   UNL     1      10.484  -6.827   6.641  1.00  0.00     0.167 HD
ATOM     65  C   UNL     1      13.073  -6.382   5.562  1.00  0.00     0.074 A 
ATOM     66  C   UNL     1      14.138  -6.127   4.613  1.00  0.00     0.031 C 
ATOM     67  C   UNL     1      13.260  -6.537   6.897  1.00  0.00     0.037 A 
BRANCH  54  68
ATOM     68  C   UNL     1       8.045  -7.538  10.079  1.00  0.00     0.058 A 
ATOM     69  C   UNL     1       7.483  -8.772  10.444  1.00  0.00     0.135 A 
ATOM     70  C   UNL     1       7.989  -6.492  11.014  1.00  0.00     0.135 A 
ATOM     71  F   UNL     1       7.498  -9.803   9.584  1.00  0.00    -0.206 F 
ATOM     72  C   UNL     1       6.854  -8.952  11.672  1.00  0.00     0.059 A 
ATOM     73  C   UNL     1       7.388  -6.657  12.259  1.00  0.00     0.059 A 
ATOM     74  F   UNL     1       8.513  -5.293  10.719  1.00  0.00    -0.206 F 
ATOM     75  C   UNL     1       6.806  -7.886  12.572  1.00  0.00     0.060 A 
BRANCH  75  76
ATOM     76  S   UNL     1       5.976  -8.128  14.157  1.00  0.00     0.124 S 
ATOM     77  O   UNL     1       4.573  -8.095  13.757  1.00  0.00    -0.237 OA
ATOM     78  O   UNL     1       6.482  -9.430  14.581  1.00  0.00    -0.237 OA
ATOM     79  O   UNL     1       6.429  -6.994  14.955  1.00  0.00    -0.744 OA
ENDBRANCH  75  76
ENDBRANCH  54  68
BRANCH  55  80
ATOM     80  C   UNL     1      11.932  -5.897   1.018  1.00  0.00     0.058 A 
ATOM     81  C   UNL     1      12.705  -6.871   0.370  1.00  0.00     0.135 A 
ATOM     82  C   UNL     1      11.684  -4.696   0.336  1.00  0.00     0.135 A 
ATOM     83  F   UNL     1      12.972  -8.033   0.985  1.00  0.00    -0.206 F 
ATOM     84  C   UNL     1      13.217  -6.663  -0.906  1.00  0.00     0.059 A 
ATOM     85  C   UNL     1      12.168  -4.473  -0.949  1.00  0.00     0.059 A 
ATOM     86  F   UNL     1      10.935  -3.740   0.908  1.00  0.00    -0.206 F 
ATOM     87  C   UNL     1      12.938  -5.462  -1.560  1.00  0.00     0.060 A 
BRANCH  87  88
ATOM     88  S   UNL     1      13.543  -5.232  -3.247  1.00  0.00     0.124 S 
ATOM     89  O   UNL     1      14.961  -4.981  -3.019  1.00  0.00    -0.237 OA
ATOM     90  O   UNL     1      13.212  -6.510  -3.869  1.00  0.00    -0.237 OA
ATOM     91  O   UNL     1      12.768  -4.092  -3.727  1.00  0.00    -0.744 OA
ENDBRANCH  87  88
ENDBRANCH  55  80
BRANCH  67  92
ATOM     92  C   UNL     1      14.672  -6.444   7.404  1.00  0.00     0.058 A 
ATOM     93  C   UNL     1      15.346  -5.214   7.475  1.00  0.00     0.135 A 
ATOM     94  C   UNL     1      15.351  -7.591   7.843  1.00  0.00     0.135 A 
ATOM     95  F   UNL     1      14.744  -4.088   7.061  1.00  0.00    -0.206 F 
ATOM     96  C   UNL     1      16.657  -5.131   7.934  1.00  0.00     0.059 A 
ATOM     97  C   UNL     1      16.653  -7.527   8.329  1.00  0.00     0.059 A 
ATOM     98  F   UNL     1      14.747  -8.790   7.806  1.00  0.00    -0.206 F 
ATOM     99  C   UNL     1      17.303  -6.294   8.355  1.00  0.00     0.060 A 
BRANCH  99 100
ATOM    100  S   UNL     1      19.002  -6.174   8.956  1.00  0.00     0.124 S 
ATOM    101  O   UNL     1      19.745  -6.031   7.709  1.00  0.00    -0.237 OA
ATOM    102  O   UNL     1      18.952  -4.986   9.804  1.00  0.00    -0.237 OA
ATOM    103  O   UNL     1      19.200  -7.434   9.666  1.00  0.00    -0.744 OA
ENDBRANCH  99 100
ENDBRANCH  67  92
ENDBRANCH  41  42
ENDBRANCH  33  36
ENDBRANCH  31  32
ENDBRANCH  30  31
ENDBRANCH  29  30
ENDBRANCH   1  29
TORSDOF 20
