REMARK SMILES CC[C@@H](C(=O)Nc1ccc(OC(C)=O)cc1C(=O)NCCCCCCNC(=O)c1ccc(-c2c3nc(c(-c4c(F)cc(S(=O)(=O)[O-])cc4F)c4ccc([nH]4)c(-c4c(F)cc(S(=O)(=O)[O-])cc4F)c4nc(c(-c5c(F)cc(S(=O)(=O)[O-])cc5F)c5ccc2[nH]5)C=C4)C=C3)cc1)c1ccccc1
REMARK SMILES IDX 22 1 21 2 20 3 19 4 17 5 18 6 16 8 7 9 8 10 9 11 15 12 10 13
REMARK SMILES IDX 6 14 4 15 5 16 3 18 2 19 1 20 95 21 96 22 100 23 97 24 99 25
REMARK SMILES IDX 98 26 11 27 12 28 13 29 14 30 23 31 24 32 25 33 26 34 27 35
REMARK SMILES IDX 28 37 29 38 30 39 94 40 31 41 93 42 32 43 33 44 34 45 87 46
REMARK SMILES IDX 35 47 92 48 86 49 88 50 36 51 91 52 85 53 84 54 37 56 71 57
REMARK SMILES IDX 50 58 70 59 51 60 54 61 69 62 89 63 52 64 53 65 68 67 90 68
REMARK SMILES IDX 55 69 38 70 39 71 48 72 40 73 41 74 47 75 49 76 42 77 43 78
REMARK SMILES IDX 44 79 45 80 46 81 72 82 73 83 82 84 74 85 75 86 81 87 83 88
REMARK SMILES IDX 76 89 77 90 78 91 79 92 80 93 56 94 57 95 66 96 58 97 59 98
REMARK SMILES IDX 65 99 67 100 60 101 61 102 62 103 63 104 64 105
REMARK H PARENT 19 7 6 17 26 36 88 55 54 66
REMARK Flexibility Score: inf
ROOT
ATOM      1  C   UNL     1      -3.086  -3.118  -2.152  1.00  0.00     0.002 C 
ENDROOT
BRANCH   1   2
ATOM      2  C   UNL     1      -2.480  -3.342  -0.759  1.00  0.00     0.021 C 
BRANCH   2   3
ATOM      3  C   UNL     1      -1.160  -2.624  -0.505  1.00  0.00     0.116 C 
BRANCH   3   4
ATOM      4  N   UNL     1      -1.299  -1.196  -0.325  1.00  0.00    -0.352 N 
ATOM      5  C   UNL     1      -0.479  -0.277   0.274  1.00  0.00     0.253 C 
ATOM      6  O   UNL     1      -0.878   0.891   0.309  1.00  0.00    -0.269 OA
ATOM      7  H   UNL     1      -2.128  -0.819  -0.697  1.00  0.00     0.163 HD
BRANCH   5   8
ATOM      8  C   UNL     1       0.837  -0.584   0.912  1.00  0.00     0.067 A 
ATOM      9  C   UNL     1       1.764  -1.584   0.584  1.00  0.00     0.054 A 
ATOM     10  C   UNL     1       2.848  -1.831   1.461  1.00  0.00     0.031 A 
ATOM     11  C   UNL     1       3.163  -0.950   2.491  1.00  0.00     0.049 A 
ATOM     12  C   UNL     1       1.159   0.287   1.985  1.00  0.00     0.063 A 
ATOM     13  C   UNL     1       2.353   0.154   2.688  1.00  0.00     0.131 A 
BRANCH   9  14
ATOM     14  N   UNL     1       1.801  -2.417  -0.537  1.00  0.00    -0.325 N 
ATOM     15  C   UNL     1       1.810  -2.304  -1.887  1.00  0.00     0.231 C 
ATOM     16  O   UNL     1       1.900  -3.437  -2.397  1.00  0.00    -0.274 OA
ATOM     17  H   UNL     1       1.827  -3.363  -0.267  1.00  0.00     0.169 HD
BRANCH  15  18
ATOM     18  C   UNL     1       1.887  -1.040  -2.808  1.00  0.00     0.108 C 
BRANCH  18  19
ATOM     19  C   UNL     1       1.743   0.353  -2.178  1.00  0.00     0.015 C 
ATOM     20  C   UNL     1       2.874   0.825  -1.288  1.00  0.00     0.005 C 
ENDBRANCH  18  19
BRANCH  18  21
ATOM     21  C   UNL     1       1.010  -1.179  -4.099  1.00  0.00    -0.036 A 
ATOM     22  C   UNL     1       0.231  -0.123  -4.617  1.00  0.00     0.004 A 
ATOM     23  C   UNL     1       1.029  -2.361  -4.867  1.00  0.00     0.004 A 
ATOM     24  C   UNL     1      -0.491  -0.246  -5.812  1.00  0.00     0.000 A 
ATOM     25  C   UNL     1       0.264  -2.505  -6.033  1.00  0.00     0.000 A 
ATOM     26  C   UNL     1      -0.491  -1.444  -6.510  1.00  0.00     0.000 A 
ENDBRANCH  18  21
ENDBRANCH  15  18
ENDBRANCH   9  14
BRANCH  13  27
ATOM     27  O   UNL     1       2.757   1.088   3.662  1.00  0.00    -0.427 OA
BRANCH  27  28
ATOM     28  C   UNL     1       3.244   2.355   3.329  1.00  0.00     0.308 C 
ATOM     29  C   UNL     1       2.653   3.007   2.113  1.00  0.00     0.139 C 
ATOM     30  O   UNL     1       4.047   2.939   4.051  1.00  0.00    -0.252 OA
ENDBRANCH  27  28
ENDBRANCH  13  27
ENDBRANCH   5   8
ENDBRANCH   3   4
ENDBRANCH   2   3
ENDBRANCH   1   2
BRANCH   1  31
ATOM     31  C   UNL     1      -2.186  -3.442  -3.350  1.00  0.00     0.002 C 
BRANCH  31  32
ATOM     32  C   UNL     1      -1.519  -4.820  -3.361  1.00  0.00     0.021 C 
BRANCH  32  33
ATOM     33  C   UNL     1      -2.458  -6.006  -3.180  1.00  0.00     0.116 C 
BRANCH  33  34
ATOM     34  N   UNL     1      -3.541  -6.026  -4.148  1.00  0.00    -0.352 N 
ATOM     35  C   UNL     1      -4.108  -7.090  -4.797  1.00  0.00     0.251 C 
ATOM     36  H   UNL     1      -3.923  -5.146  -4.370  1.00  0.00     0.163 HD
ATOM     37  O   UNL     1      -4.943  -6.889  -5.681  1.00  0.00    -0.269 OA
BRANCH  35  38
ATOM     38  C   UNL     1      -3.700  -8.473  -4.466  1.00  0.00     0.039 A 
ATOM     39  C   UNL     1      -3.498  -9.377  -5.512  1.00  0.00     0.014 A 
ATOM     40  C   UNL     1      -3.523  -8.884  -3.142  1.00  0.00     0.014 A 
ATOM     41  C   UNL     1      -3.067 -10.674  -5.232  1.00  0.00     0.010 A 
ATOM     42  C   UNL     1      -3.018 -10.153  -2.869  1.00  0.00     0.010 A 
ATOM     43  C   UNL     1      -2.791 -11.064  -3.911  1.00  0.00    -0.014 A 
BRANCH  43  44
ATOM     44  C   UNL     1      -2.251 -12.416  -3.616  1.00  0.00     0.031 A 
ATOM     45  C   UNL     1      -3.045 -13.391  -2.790  1.00  0.00     0.074 A 
ATOM     46  C   UNL     1      -1.023 -12.746  -4.063  1.00  0.00     0.049 A 
ATOM     47  N   UNL     1      -2.735 -14.610  -2.429  1.00  0.00    -0.248 NA
ATOM     48  C   UNL     1      -4.347 -12.930  -2.281  1.00  0.00     0.031 C 
ATOM     49  C   UNL     1      -0.135 -11.860  -4.821  1.00  0.00     0.029 A 
ATOM     50  N   UNL     1      -0.307 -13.910  -3.947  1.00  0.00    -0.354 N 
ATOM     51  C   UNL     1      -3.794 -15.057  -1.648  1.00  0.00     0.074 A 
ATOM     52  C   UNL     1      -4.728 -13.958  -1.537  1.00  0.00     0.031 C 
ATOM     53  C   UNL     1       0.989 -12.523  -5.131  1.00  0.00     0.029 A 
ATOM     54  C   UNL     1       0.922 -13.866  -4.563  1.00  0.00     0.049 A 
ATOM     55  H   UNL     1      -0.641 -14.702  -3.468  1.00  0.00     0.167 HD
ATOM     56  C   UNL     1      -3.982 -16.280  -1.096  1.00  0.00     0.037 A 
ATOM     57  C   UNL     1       1.887 -14.801  -4.660  1.00  0.00     0.037 A 
ATOM     58  C   UNL     1      -3.051 -17.371  -1.229  1.00  0.00     0.049 A 
ATOM     59  C   UNL     1       1.653 -16.153  -4.043  1.00  0.00     0.074 A 
ATOM     60  C   UNL     1      -3.174 -18.668  -0.761  1.00  0.00     0.029 A 
ATOM     61  N   UNL     1      -1.823 -17.293  -1.870  1.00  0.00    -0.354 N 
ATOM     62  N   UNL     1       0.610 -16.584  -3.374  1.00  0.00    -0.248 NA
ATOM     63  C   UNL     1       2.722 -17.148  -4.199  1.00  0.00     0.031 C 
ATOM     64  C   UNL     1      -1.997 -19.358  -1.073  1.00  0.00     0.029 A 
ATOM     65  C   UNL     1      -1.165 -18.509  -1.787  1.00  0.00     0.049 A 
ATOM     66  H   UNL     1      -1.470 -16.490  -2.318  1.00  0.00     0.167 HD
ATOM     67  C   UNL     1       0.886 -17.908  -3.050  1.00  0.00     0.074 A 
ATOM     68  C   UNL     1       2.187 -18.210  -3.613  1.00  0.00     0.031 C 
ATOM     69  C   UNL     1       0.132 -18.793  -2.351  1.00  0.00     0.037 A 
BRANCH  56  70
ATOM     70  C   UNL     1      -5.240 -16.503  -0.299  1.00  0.00     0.058 A 
ATOM     71  C   UNL     1      -6.505 -16.543  -0.910  1.00  0.00     0.135 A 
ATOM     72  C   UNL     1      -5.180 -16.714   1.088  1.00  0.00     0.135 A 
ATOM     73  F   UNL     1      -6.625 -16.334  -2.231  1.00  0.00    -0.206 F 
ATOM     74  C   UNL     1      -7.665 -16.752  -0.172  1.00  0.00     0.059 A 
ATOM     75  C   UNL     1      -6.325 -16.956   1.842  1.00  0.00     0.059 A 
ATOM     76  F   UNL     1      -4.000 -16.687   1.726  1.00  0.00    -0.206 F 
ATOM     77  C   UNL     1      -7.565 -16.957   1.205  1.00  0.00     0.060 A 
BRANCH  77  78
ATOM     78  S   UNL     1      -9.081 -17.230   2.147  1.00  0.00     0.124 S 
ATOM     79  O   UNL     1      -9.678 -15.898   2.131  1.00  0.00    -0.237 OA
ATOM     80  O   UNL     1      -9.766 -18.241   1.349  1.00  0.00    -0.237 OA
ATOM     81  O   UNL     1      -8.597 -17.684   3.448  1.00  0.00    -0.744 OA
ENDBRANCH  77  78
ENDBRANCH  56  70
BRANCH  57  82
ATOM     82  C   UNL     1       3.146 -14.495  -5.391  1.00  0.00     0.058 A 
ATOM     83  C   UNL     1       3.436 -15.104  -6.621  1.00  0.00     0.135 A 
ATOM     84  C   UNL     1       4.073 -13.569  -4.887  1.00  0.00     0.135 A 
ATOM     85  F   UNL     1       2.584 -16.000  -7.143  1.00  0.00    -0.206 F 
ATOM     86  C   UNL     1       4.605 -14.819  -7.318  1.00  0.00     0.059 A 
ATOM     87  C   UNL     1       5.236 -13.246  -5.579  1.00  0.00     0.059 A 
ATOM     88  F   UNL     1       3.835 -12.944  -3.723  1.00  0.00    -0.206 F 
ATOM     89  C   UNL     1       5.498 -13.884  -6.790  1.00  0.00     0.060 A 
BRANCH  89  90
ATOM     90  S   UNL     1       6.988 -13.484  -7.729  1.00  0.00     0.124 S 
ATOM     91  O   UNL     1       7.780 -14.696  -7.555  1.00  0.00    -0.237 OA
ATOM     92  O   UNL     1       6.454 -13.255  -9.068  1.00  0.00    -0.237 OA
ATOM     93  O   UNL     1       7.499 -12.293  -7.055  1.00  0.00    -0.744 OA
ENDBRANCH  89  90
ENDBRANCH  57  82
BRANCH  69  94
ATOM     94  C   UNL     1       0.684 -20.181  -2.175  1.00  0.00     0.058 A 
ATOM     95  C   UNL     1       1.773 -20.442  -1.329  1.00  0.00     0.135 A 
ATOM     96  C   UNL     1       0.087 -21.271  -2.829  1.00  0.00     0.135 A 
ATOM     97  F   UNL     1       2.385 -19.435  -0.684  1.00  0.00    -0.206 F 
ATOM     98  C   UNL     1       2.270 -21.730  -1.160  1.00  0.00     0.059 A 
ATOM     99  C   UNL     1       0.547 -22.572  -2.651  1.00  0.00     0.059 A 
ATOM    100  F   UNL     1      -0.965 -21.079  -3.641  1.00  0.00    -0.206 F 
ATOM    101  C   UNL     1       1.648 -22.789  -1.825  1.00  0.00     0.060 A 
BRANCH 101 102
ATOM    102  S   UNL     1       2.287 -24.459  -1.577  1.00  0.00     0.124 S 
ATOM    103  O   UNL     1       3.531 -24.414  -2.338  1.00  0.00    -0.237 OA
ATOM    104  O   UNL     1       2.434 -24.524  -0.126  1.00  0.00    -0.237 OA
ATOM    105  O   UNL     1       1.240 -25.310  -2.134  1.00  0.00    -0.744 OA
ENDBRANCH 101 102
ENDBRANCH  69  94
ENDBRANCH  43  44
ENDBRANCH  35  38
ENDBRANCH  33  34
ENDBRANCH  32  33
ENDBRANCH  31  32
ENDBRANCH   1  31
TORSDOF 22
