REMARK SMILES O=C(CCN1C(=O)/C(=C/c2cc(Br)cc(Br)c2O)SC1=S)NCCCCCCNC(=O)c1ccc(-c2c3nc(c(-c4c(F)cc(S(=O)(=O)[O-])cc4F)c4ccc([nH]4)c(-c4c(F)cc(S(=O)(=O)[O-])cc4F)c4nc(c(-c5c(F)cc(S(=O)(=O)[O-])cc5F)c5ccc2[nH]5)C=C4)C=C3)cc1
REMARK SMILES IDX 25 1 24 2 23 3 22 4 1 5 2 6 3 8 4 9 5 10 6 11 20 12 7 13
REMARK SMILES IDX 8 14 19 15 21 16 9 17 10 18 11 19 17 20 12 21 15 22 13 23
REMARK SMILES IDX 14 24 16 25 18 26 26 28 27 29 28 30 29 31 30 32 31 34 32 35
REMARK SMILES IDX 33 36 97 37 34 38 96 39 35 40 36 41 37 42 90 43 38 44 95 45
REMARK SMILES IDX 89 46 91 47 39 48 94 49 88 50 87 51 40 53 74 54 53 55 73 56
REMARK SMILES IDX 54 57 57 58 72 59 92 60 55 61 56 62 71 64 93 65 58 66 41 67
REMARK SMILES IDX 42 68 51 69 43 70 44 71 50 72 52 73 45 74 46 75 47 76 48 77
REMARK SMILES IDX 49 78 75 79 76 80 85 81 77 82 78 83 84 84 86 85 79 86 80 87
REMARK SMILES IDX 81 88 82 89 83 90 59 91 60 92 69 93 61 94 62 95 68 96 70 97
REMARK SMILES IDX 63 98 64 99 65 100 66 101 67 102
REMARK H PARENT 22 7 18 27 29 33 91 52 57 63
REMARK Flexibility Score: inf
ROOT
ATOM      1  C   UNL     1       3.958  -3.163   1.770  1.00  0.00     0.002 C 
ENDROOT
BRANCH   1   2
ATOM      2  C   UNL     1       2.454  -2.919   1.586  1.00  0.00     0.021 C 
BRANCH   2   3
ATOM      3  C   UNL     1       1.990  -1.482   1.841  1.00  0.00     0.116 C 
BRANCH   3   4
ATOM      4  N   UNL     1       2.668  -0.538   0.969  1.00  0.00    -0.356 N 
ATOM      5  O   UNL     1       0.780   0.467   0.160  1.00  0.00    -0.275 OA
ATOM      6  C   UNL     1       2.001   0.342   0.156  1.00  0.00     0.221 C 
ATOM      7  H   UNL     1       3.653  -0.530   0.962  1.00  0.00     0.163 HD
BRANCH   6   8
ATOM      8  C   UNL     1       2.850   1.063  -0.873  1.00  0.00     0.122 C 
BRANCH   8   9
ATOM      9  C   UNL     1       4.085   1.819  -0.379  1.00  0.00     0.137 C 
BRANCH   9  10
ATOM     10  N   UNL     1       5.195   1.054   0.214  1.00  0.00    -0.292 N 
ATOM     11  C   UNL     1       5.842   1.603   1.315  1.00  0.00     0.266 C 
ATOM     12  C   UNL     1       5.820  -0.049  -0.330  1.00  0.00     0.148 C 
ATOM     13  O   UNL     1       5.624   2.703   1.812  1.00  0.00    -0.268 OA
ATOM     14  C   UNL     1       6.882   0.674   1.836  1.00  0.00     0.081 C 
ATOM     15  S   UNL     1       6.930  -0.726   0.850  1.00  0.00    -0.054 SA
ATOM     16  S   UNL     1       5.637  -0.735  -1.835  1.00  0.00    -0.052 S 
ATOM     17  C   UNL     1       7.582   0.951   2.949  1.00  0.00     0.033 C 
BRANCH  17  18
ATOM     18  C   UNL     1       8.434   0.021   3.724  1.00  0.00     0.020 A 
ATOM     19  C   UNL     1       9.348  -0.831   3.083  1.00  0.00     0.027 A 
ATOM     20  C   UNL     1       8.313  -0.078   5.127  1.00  0.00     0.137 A 
ATOM     21  C   UNL     1      10.015  -1.831   3.793  1.00  0.00     0.019 A 
ATOM     22  C   UNL     1       9.013  -1.069   5.834  1.00  0.00     0.061 A 
ATOM     23  Br  UNL     1      11.133  -3.043   2.866  1.00  0.00    -0.051 Br
ATOM     24  C   UNL     1       9.842  -1.966   5.164  1.00  0.00     0.035 A 
ATOM     25  Br  UNL     1       8.841  -1.253   7.717  1.00  0.00    -0.047 Br
BRANCH  20  26
ATOM     26  O   UNL     1       7.501   0.755   5.856  1.00  0.00    -0.506 OA
ATOM     27  H   UNL     1       7.015   1.430   5.425  1.00  0.00     0.293 HD
ENDBRANCH  20  26
ENDBRANCH  17  18
ENDBRANCH   9  10
ENDBRANCH   8   9
ENDBRANCH   6   8
ENDBRANCH   3   4
ENDBRANCH   2   3
ENDBRANCH   1   2
BRANCH   1  28
ATOM     28  C   UNL     1       4.536  -2.749   3.126  1.00  0.00     0.002 C 
BRANCH  28  29
ATOM     29  C   UNL     1       3.925  -3.459   4.335  1.00  0.00     0.021 C 
BRANCH  29  30
ATOM     30  C   UNL     1       4.089  -4.976   4.341  1.00  0.00     0.116 C 
BRANCH  30  31
ATOM     31  N   UNL     1       5.480  -5.389   4.435  1.00  0.00    -0.352 N 
ATOM     32  C   UNL     1       6.043  -6.366   5.224  1.00  0.00     0.251 C 
ATOM     33  H   UNL     1       6.106  -4.902   3.853  1.00  0.00     0.163 HD
ATOM     34  O   UNL     1       7.261  -6.473   5.283  1.00  0.00    -0.269 OA
BRANCH  32  35
ATOM     35  C   UNL     1       5.175  -7.267   6.019  1.00  0.00     0.039 A 
ATOM     36  C   UNL     1       5.527  -7.549   7.342  1.00  0.00     0.014 A 
ATOM     37  C   UNL     1       4.028  -7.842   5.464  1.00  0.00     0.014 A 
ATOM     38  C   UNL     1       4.700  -8.362   8.123  1.00  0.00     0.010 A 
ATOM     39  C   UNL     1       3.169  -8.594   6.264  1.00  0.00     0.010 A 
ATOM     40  C   UNL     1       3.500  -8.870   7.599  1.00  0.00    -0.014 A 
BRANCH  40  41
ATOM     41  C   UNL     1       2.595  -9.717   8.421  1.00  0.00     0.031 A 
ATOM     42  C   UNL     1       2.347 -11.151   8.029  1.00  0.00     0.074 A 
ATOM     43  C   UNL     1       1.958  -9.189   9.486  1.00  0.00     0.049 A 
ATOM     44  N   UNL     1       1.530 -12.024   8.560  1.00  0.00    -0.248 NA
ATOM     45  C   UNL     1       3.099 -11.661   6.870  1.00  0.00     0.031 C 
ATOM     46  C   UNL     1       2.075  -7.801   9.942  1.00  0.00     0.029 A 
ATOM     47  N   UNL     1       1.075  -9.753  10.372  1.00  0.00    -0.354 N 
ATOM     48  C   UNL     1       1.665 -13.181   7.800  1.00  0.00     0.074 A 
ATOM     49  C   UNL     1       2.595 -12.879   6.733  1.00  0.00     0.031 C 
ATOM     50  C   UNL     1       1.303  -7.627  11.027  1.00  0.00     0.029 A 
ATOM     51  C   UNL     1       0.614  -8.878  11.328  1.00  0.00     0.049 A 
ATOM     52  H   UNL     1       0.797 -10.697  10.327  1.00  0.00     0.167 HD
ATOM     53  C   UNL     1       1.093 -14.394   7.989  1.00  0.00     0.037 A 
ATOM     54  C   UNL     1      -0.269  -9.062  12.330  1.00  0.00     0.037 A 
ATOM     55  C   UNL     1       0.187 -14.700   9.066  1.00  0.00     0.049 A 
ATOM     56  C   UNL     1      -0.878 -10.426  12.530  1.00  0.00     0.074 A 
ATOM     57  C   UNL     1      -0.441 -15.900   9.350  1.00  0.00     0.029 A 
ATOM     58  N   UNL     1      -0.206 -13.802  10.047  1.00  0.00    -0.354 N 
ATOM     59  N   UNL     1      -0.716 -11.514  11.816  1.00  0.00    -0.248 NA
ATOM     60  C   UNL     1      -1.776 -10.591  13.681  1.00  0.00     0.031 C 
ATOM     61  C   UNL     1      -1.228 -15.724  10.493  1.00  0.00     0.029 A 
ATOM     62  C   UNL     1      -1.059 -14.425  10.943  1.00  0.00     0.049 A 
ATOM     63  H   UNL     1       0.079 -12.862  10.099  1.00  0.00     0.167 HD
ATOM     64  C   UNL     1      -1.460 -12.501  12.454  1.00  0.00     0.074 A 
ATOM     65  C   UNL     1      -2.065 -11.883  13.615  1.00  0.00     0.031 C 
ATOM     66  C   UNL     1      -1.627 -13.802  12.111  1.00  0.00     0.037 A 
BRANCH  53  67
ATOM     67  C   UNL     1       1.453 -15.492   7.027  1.00  0.00     0.058 A 
ATOM     68  C   UNL     1       2.728 -16.081   7.040  1.00  0.00     0.135 A 
ATOM     69  C   UNL     1       0.510 -15.993   6.116  1.00  0.00     0.135 A 
ATOM     70  F   UNL     1       3.674 -15.628   7.879  1.00  0.00    -0.206 F 
ATOM     71  C   UNL     1       3.062 -17.113   6.171  1.00  0.00     0.059 A 
ATOM     72  C   UNL     1       0.814 -17.044   5.255  1.00  0.00     0.059 A 
ATOM     73  F   UNL     1      -0.723 -15.466   6.060  1.00  0.00    -0.206 F 
ATOM     74  C   UNL     1       2.097 -17.589   5.282  1.00  0.00     0.060 A 
BRANCH  74  75
ATOM     75  S   UNL     1       2.542 -18.944   4.175  1.00  0.00     0.124 S 
ATOM     76  O   UNL     1       3.407 -18.264   3.216  1.00  0.00    -0.237 OA
ATOM     77  O   UNL     1       3.209 -19.879   5.076  1.00  0.00    -0.237 OA
ATOM     78  O   UNL     1       1.255 -19.392   3.652  1.00  0.00    -0.744 OA
ENDBRANCH  74  75
ENDBRANCH  53  67
BRANCH  54  79
ATOM     79  C   UNL     1      -0.623  -7.937  13.236  1.00  0.00     0.058 A 
ATOM     80  C   UNL     1      -0.216  -7.932  14.579  1.00  0.00     0.135 A 
ATOM     81  C   UNL     1      -1.400  -6.859  12.787  1.00  0.00     0.135 A 
ATOM     82  F   UNL     1       0.527  -8.942  15.058  1.00  0.00    -0.206 F 
ATOM     83  C   UNL     1      -0.599  -6.921  15.455  1.00  0.00     0.059 A 
ATOM     84  C   UNL     1      -1.773  -5.822  13.636  1.00  0.00     0.059 A 
ATOM     85  F   UNL     1      -1.798  -6.804  11.506  1.00  0.00    -0.206 F 
ATOM     86  C   UNL     1      -1.384  -5.872  14.974  1.00  0.00     0.060 A 
BRANCH  86  87
ATOM     87  S   UNL     1      -1.874  -4.559  16.113  1.00  0.00     0.124 S 
ATOM     88  O   UNL     1      -2.933  -5.213  16.873  1.00  0.00    -0.237 OA
ATOM     89  O   UNL     1      -0.634  -4.300  16.838  1.00  0.00    -0.237 OA
ATOM     90  O   UNL     1      -2.305  -3.487  15.221  1.00  0.00    -0.744 OA
ENDBRANCH  86  87
ENDBRANCH  54  79
BRANCH  66  91
ATOM     91  C   UNL     1      -2.442 -14.662  13.036  1.00  0.00     0.058 A 
ATOM     92  C   UNL     1      -3.838 -14.547  13.120  1.00  0.00     0.135 A 
ATOM     93  C   UNL     1      -1.815 -15.643  13.822  1.00  0.00     0.135 A 
ATOM     94  F   UNL     1      -4.485 -13.623  12.392  1.00  0.00    -0.206 F 
ATOM     95  C   UNL     1      -4.582 -15.352  13.977  1.00  0.00     0.059 A 
ATOM     96  C   UNL     1      -2.542 -16.477  14.666  1.00  0.00     0.059 A 
ATOM     97  F   UNL     1      -0.483 -15.802  13.769  1.00  0.00    -0.206 F 
ATOM     98  C   UNL     1      -3.924 -16.313  14.748  1.00  0.00     0.060 A 
BRANCH  98  99
ATOM     99  S   UNL     1      -4.900 -17.366  15.842  1.00  0.00     0.124 S 
ATOM    100  O   UNL     1      -5.192 -16.453  16.943  1.00  0.00    -0.237 OA
ATOM    101  O   UNL     1      -6.037 -17.726  15.000  1.00  0.00    -0.237 OA
ATOM    102  O   UNL     1      -3.990 -18.462  16.159  1.00  0.00    -0.744 OA
ENDBRANCH  98  99
ENDBRANCH  66  91
ENDBRANCH  40  41
ENDBRANCH  32  35
ENDBRANCH  30  31
ENDBRANCH  29  30
ENDBRANCH  28  29
ENDBRANCH   1  28
TORSDOF 20
