REMARK SMILES C[N@@H+](CCCCC(=O)NCCCCCCNC(=O)c1ccc(-c2c3nc(c(-c4c(F)cc(S(=O)(=O)[O-])cc4F)c4ccc([nH]4)c(-c4c(F)cc(S(=O)(=O)[O-])cc4F)c4nc(c(-c5c(F)cc(S(=O)(=O)[O-])cc5F)c5ccc2[nH]5)C=C4)C=C3)cc1)CC(C)(C)O
REMARK SMILES IDX 10 1 9 2 7 3 8 4 6 6 5 7 4 8 3 9 2 10 1 11 85 13 86 14 87 15
REMARK SMILES IDX 88 16 89 17 11 19 12 20 13 21 14 22 15 23 16 24 17 25 18 27
REMARK SMILES IDX 19 28 20 29 84 30 21 31 83 32 22 33 23 34 24 35 77 36 25 37
REMARK SMILES IDX 82 38 76 39 78 40 26 41 81 42 75 43 74 44 27 46 61 47 40 48
REMARK SMILES IDX 60 49 41 50 44 51 59 52 79 53 42 54 43 55 58 57 80 58 45 59
REMARK SMILES IDX 28 60 29 61 38 62 30 63 31 64 37 65 39 66 32 67 33 68 34 69
REMARK SMILES IDX 35 70 36 71 62 72 63 73 72 74 64 75 65 76 71 77 73 78 66 79
REMARK SMILES IDX 67 80 68 81 69 82 70 83 46 84 47 85 56 86 48 87 49 88 55 89
REMARK SMILES IDX 57 90 50 91 51 92 52 93 53 94 54 95
REMARK H PARENT 9 5 2 12 89 18 16 26 78 45 44 56
REMARK Flexibility Score: inf
ROOT
ATOM      1  C   UNL     1      -4.304   0.194  -2.152  1.00  0.00     0.116 C 
ENDROOT
BRANCH   1   2
ATOM      2  N   UNL     1      -4.669   1.510  -2.636  1.00  0.00    -0.356 N 
ATOM      3  C   UNL     1      -3.868   2.550  -2.992  1.00  0.00     0.219 C 
ATOM      4  O   UNL     1      -4.394   3.622  -3.298  1.00  0.00    -0.275 OA
ATOM      5  H   UNL     1      -5.636   1.675  -2.720  1.00  0.00     0.163 HD
BRANCH   3   6
ATOM      6  C   UNL     1      -2.362   2.377  -3.029  1.00  0.00     0.100 C 
BRANCH   6   7
ATOM      7  C   UNL     1      -1.675   2.690  -1.697  1.00  0.00     0.016 C 
BRANCH   7   8
ATOM      8  C   UNL     1      -1.400   1.493  -0.774  1.00  0.00     0.062 C 
BRANCH   8   9
ATOM      9  C   UNL     1      -0.474   0.402  -1.329  1.00  0.00     0.262 C 
BRANCH   9  10
ATOM     10  N   UNL     1       0.950   0.470  -1.003  1.00  0.00    -0.335 N 
ATOM     11  C   UNL     1       1.264  -0.003   0.330  1.00  0.00     0.332 C 
ATOM     12  H   UNL     1       1.381  -0.231  -1.606  1.00  0.00     0.347 HD
BRANCH  10  13
ATOM     13  C   UNL     1       1.662   1.664  -1.469  1.00  0.00     0.296 C 
BRANCH  13  14
ATOM     14  C   UNL     1       1.895   2.939  -0.581  1.00  0.00     0.108 C 
ATOM     15  C   UNL     1       2.981   2.746   0.480  1.00  0.00     0.048 C 
ATOM     16  C   UNL     1       2.294   4.099  -1.508  1.00  0.00     0.048 C 
BRANCH  14  17
ATOM     17  O   UNL     1       0.707   3.350   0.093  1.00  0.00    -0.385 OA
ATOM     18  H   UNL     1       0.415   2.646   0.693  1.00  0.00     0.211 HD
ENDBRANCH  14  17
ENDBRANCH  13  14
ENDBRANCH  10  13
ENDBRANCH   9  10
ENDBRANCH   8   9
ENDBRANCH   7   8
ENDBRANCH   6   7
ENDBRANCH   3   6
ENDBRANCH   1   2
BRANCH   1  19
ATOM     19  C   UNL     1      -4.623   0.067  -0.660  1.00  0.00     0.021 C 
BRANCH  19  20
ATOM     20  C   UNL     1      -6.025  -0.461  -0.370  1.00  0.00     0.002 C 
BRANCH  20  21
ATOM     21  C   UNL     1      -6.252  -1.911  -0.809  1.00  0.00     0.002 C 
BRANCH  21  22
ATOM     22  C   UNL     1      -5.251  -2.930  -0.251  1.00  0.00     0.021 C 
BRANCH  22  23
ATOM     23  C   UNL     1      -5.109  -2.923   1.270  1.00  0.00     0.116 C 
BRANCH  23  24
ATOM     24  N   UNL     1      -6.397  -3.086   1.926  1.00  0.00    -0.352 N 
ATOM     25  C   UNL     1      -6.899  -4.156   2.617  1.00  0.00     0.251 C 
ATOM     26  H   UNL     1      -6.998  -2.309   1.863  1.00  0.00     0.163 HD
ATOM     27  O   UNL     1      -8.105  -4.229   2.835  1.00  0.00    -0.269 OA
BRANCH  25  28
ATOM     28  C   UNL     1      -5.992  -5.215   3.103  1.00  0.00     0.039 A 
ATOM     29  C   UNL     1      -6.383  -6.550   2.980  1.00  0.00     0.014 A 
ATOM     30  C   UNL     1      -4.781  -4.890   3.723  1.00  0.00     0.014 A 
ATOM     31  C   UNL     1      -5.539  -7.562   3.439  1.00  0.00     0.010 A 
ATOM     32  C   UNL     1      -3.912  -5.901   4.120  1.00  0.00     0.010 A 
ATOM     33  C   UNL     1      -4.286  -7.246   3.991  1.00  0.00    -0.014 A 
BRANCH  33  34
ATOM     34  C   UNL     1      -3.357  -8.316   4.430  1.00  0.00     0.031 A 
ATOM     35  C   UNL     1      -3.004  -8.471   5.883  1.00  0.00     0.074 A 
ATOM     36  C   UNL     1      -2.795  -9.117   3.505  1.00  0.00     0.049 A 
ATOM     37  N   UNL     1      -2.206  -9.340   6.450  1.00  0.00    -0.248 NA
ATOM     38  C   UNL     1      -3.604  -7.508   6.819  1.00  0.00     0.031 C 
ATOM     39  C   UNL     1      -3.018  -9.023   2.060  1.00  0.00     0.029 A 
ATOM     40  N   UNL     1      -1.920 -10.164   3.638  1.00  0.00    -0.354 N 
ATOM     41  C   UNL     1      -2.198  -9.022   7.803  1.00  0.00     0.074 A 
ATOM     42  C   UNL     1      -3.031  -7.849   7.964  1.00  0.00     0.031 C 
ATOM     43  C   UNL     1      -2.325  -9.994   1.445  1.00  0.00     0.029 A 
ATOM     44  C   UNL     1      -1.585 -10.758   2.445  1.00  0.00     0.049 A 
ATOM     45  H   UNL     1      -1.565 -10.463   4.507  1.00  0.00     0.167 HD
ATOM     46  C   UNL     1      -1.572  -9.662   8.820  1.00  0.00     0.037 A 
ATOM     47  C   UNL     1      -0.778 -11.804   2.186  1.00  0.00     0.037 A 
ATOM     48  C   UNL     1      -0.763 -10.842   8.650  1.00  0.00     0.049 A 
ATOM     49  C   UNL     1      -0.104 -12.507   3.330  1.00  0.00     0.074 A 
ATOM     50  C   UNL     1      -0.146 -11.611   9.621  1.00  0.00     0.029 A 
ATOM     51  N   UNL     1      -0.452 -11.419   7.427  1.00  0.00    -0.354 N 
ATOM     52  N   UNL     1      -0.171 -12.243   4.614  1.00  0.00    -0.248 NA
ATOM     53  C   UNL     1       0.748 -13.655   2.993  1.00  0.00     0.031 C 
ATOM     54  C   UNL     1       0.574 -12.627   8.982  1.00  0.00     0.029 A 
ATOM     55  C   UNL     1       0.369 -12.519   7.615  1.00  0.00     0.049 A 
ATOM     56  H   UNL     1      -0.769 -11.095   6.553  1.00  0.00     0.167 HD
ATOM     57  C   UNL     1       0.617 -13.202   5.240  1.00  0.00     0.074 A 
ATOM     58  C   UNL     1       1.135 -14.062   4.195  1.00  0.00     0.031 C 
ATOM     59  C   UNL     1       0.886 -13.357   6.561  1.00  0.00     0.037 A 
BRANCH  46  60
ATOM     60  C   UNL     1      -1.738  -9.094  10.203  1.00  0.00     0.058 A 
ATOM     61  C   UNL     1      -2.965  -9.154  10.885  1.00  0.00     0.135 A 
ATOM     62  C   UNL     1      -0.655  -8.488  10.861  1.00  0.00     0.135 A 
ATOM     63  F   UNL     1      -4.037  -9.711  10.299  1.00  0.00    -0.206 F 
ATOM     64  C   UNL     1      -3.124  -8.597  12.150  1.00  0.00     0.059 A 
ATOM     65  C   UNL     1      -0.784  -7.949  12.139  1.00  0.00     0.059 A 
ATOM     66  F   UNL     1       0.541  -8.404  10.259  1.00  0.00    -0.206 F 
ATOM     67  C   UNL     1      -2.028  -7.990  12.766  1.00  0.00     0.060 A 
BRANCH  67  68
ATOM     68  S   UNL     1      -2.254  -7.253  14.399  1.00  0.00     0.124 S 
ATOM     69  O   UNL     1      -2.987  -6.035  14.068  1.00  0.00    -0.237 OA
ATOM     70  O   UNL     1      -3.016  -8.278  15.104  1.00  0.00    -0.237 OA
ATOM     71  O   UNL     1      -0.888  -7.054  14.873  1.00  0.00    -0.744 OA
ENDBRANCH  67  68
ENDBRANCH  46  60
BRANCH  47  72
ATOM     72  C   UNL     1      -0.604 -12.270   0.786  1.00  0.00     0.058 A 
ATOM     73  C   UNL     1      -1.196 -13.463   0.349  1.00  0.00     0.135 A 
ATOM     74  C   UNL     1       0.115 -11.513  -0.152  1.00  0.00     0.135 A 
ATOM     75  F   UNL     1      -1.889 -14.223   1.211  1.00  0.00    -0.206 F 
ATOM     76  C   UNL     1      -1.079 -13.895  -0.968  1.00  0.00     0.059 A 
ATOM     77  C   UNL     1       0.228 -11.913  -1.480  1.00  0.00     0.059 A 
ATOM     78  F   UNL     1       0.685 -10.354   0.213  1.00  0.00    -0.206 F 
ATOM     79  C   UNL     1      -0.369 -13.109  -1.877  1.00  0.00     0.060 A 
BRANCH  79  80
ATOM     80  S   UNL     1      -0.286 -13.642  -3.601  1.00  0.00     0.124 S 
ATOM     81  O   UNL     1       0.656 -14.751  -3.521  1.00  0.00    -0.237 OA
ATOM     82  O   UNL     1      -1.674 -14.000  -3.878  1.00  0.00    -0.237 OA
ATOM     83  O   UNL     1       0.196 -12.452  -4.296  1.00  0.00    -0.744 OA
ENDBRANCH  79  80
ENDBRANCH  47  72
BRANCH  59  84
ATOM     84  C   UNL     1       1.773 -14.508   6.947  1.00  0.00     0.058 A 
ATOM     85  C   UNL     1       3.152 -14.491   6.688  1.00  0.00     0.135 A 
ATOM     86  C   UNL     1       1.243 -15.627   7.608  1.00  0.00     0.135 A 
ATOM     87  F   UNL     1       3.708 -13.447   6.052  1.00  0.00    -0.206 F 
ATOM     88  C   UNL     1       3.971 -15.557   7.045  1.00  0.00     0.059 A 
ATOM     89  C   UNL     1       2.047 -16.693   7.997  1.00  0.00     0.059 A 
ATOM     90  F   UNL     1      -0.069 -15.689   7.888  1.00  0.00    -0.206 F 
ATOM     91  C   UNL     1       3.408 -16.655   7.697  1.00  0.00     0.060 A 
BRANCH  91  92
ATOM     92  S   UNL     1       4.483 -18.027   8.170  1.00  0.00     0.124 S 
ATOM     93  O   UNL     1       4.698 -18.687   6.886  1.00  0.00    -0.237 OA
ATOM     94  O   UNL     1       5.642 -17.339   8.731  1.00  0.00    -0.237 OA
ATOM     95  O   UNL     1       3.678 -18.772   9.133  1.00  0.00    -0.744 OA
ENDBRANCH  91  92
ENDBRANCH  59  84
ENDBRANCH  33  34
ENDBRANCH  25  28
ENDBRANCH  23  24
ENDBRANCH  22  23
ENDBRANCH  21  22
ENDBRANCH  20  21
ENDBRANCH  19  20
ENDBRANCH   1  19
TORSDOF 23
