REMARK SMILES CCC[C@@H](Oc1ccc(-c2ccccc2)cc1)C(=O)NCCCCCCNC(=O)c1ccc(-c2c3nc(c(-c4c(F)cc(S(=O)(=O)[O-])cc4F)c4ccc([nH]4)c(-c4c(F)cc(S(=O)(=O)[O-])cc4F)c4nc(c(-c5c(F)cc(S(=O)(=O)[O-])cc5F)c5ccc2[nH]5)C=C4)C=C3)cc1
REMARK SMILES IDX 23 1 22 2 21 3 20 4 18 5 19 6 4 8 3 9 2 10 1 11 5 12 6 13
REMARK SMILES IDX 7 14 17 15 8 16 16 17 9 18 10 19 11 20 15 21 12 22 14 23
REMARK SMILES IDX 13 24 24 25 25 26 26 27 27 28 28 29 29 31 30 32 31 33 95 34
REMARK SMILES IDX 32 35 94 36 33 37 34 38 35 39 88 40 36 41 93 42 87 43 89 44
REMARK SMILES IDX 37 45 92 46 86 47 85 48 38 50 72 51 51 52 71 53 52 54 55 55
REMARK SMILES IDX 70 56 90 57 53 58 54 59 69 61 91 62 56 63 39 64 40 65 49 66
REMARK SMILES IDX 41 67 42 68 48 69 50 70 43 71 44 72 45 73 46 74 47 75 73 76
REMARK SMILES IDX 74 77 83 78 75 79 76 80 82 81 84 82 77 83 78 84 79 85 80 86
REMARK SMILES IDX 81 87 57 88 58 89 67 90 59 91 60 92 66 93 68 94 61 95 62 96
REMARK SMILES IDX 63 97 64 98 65 99
REMARK H PARENT 20 7 27 30 89 49 55 60
REMARK Flexibility Score: inf
ROOT
ATOM      1  C   UNL     1       1.095  -6.534  -3.474  1.00  0.00     0.002 C 
ENDROOT
BRANCH   1   2
ATOM      2  C   UNL     1       0.749  -5.060  -3.258  1.00  0.00     0.021 C 
BRANCH   2   3
ATOM      3  C   UNL     1      -0.104  -4.800  -2.021  1.00  0.00     0.116 C 
BRANCH   3   4
ATOM      4  N   UNL     1       0.661  -4.978  -0.795  1.00  0.00    -0.353 N 
ATOM      5  C   UNL     1       0.913  -4.079   0.208  1.00  0.00     0.261 C 
ATOM      6  O   UNL     1       1.591  -4.454   1.171  1.00  0.00    -0.271 OA
ATOM      7  H   UNL     1       1.054  -5.872  -0.669  1.00  0.00     0.163 HD
BRANCH   5   8
ATOM      8  C   UNL     1       0.423  -2.623   0.093  1.00  0.00     0.261 C 
BRANCH   8   9
ATOM      9  C   UNL     1       1.310  -1.930  -0.971  1.00  0.00     0.055 C 
BRANCH   9  10
ATOM     10  C   UNL     1       1.401  -0.398  -0.984  1.00  0.00     0.001 C 
ATOM     11  C   UNL     1       1.620   0.260   0.364  1.00  0.00     0.004 C 
ENDBRANCH   9  10
ENDBRANCH   8   9
BRANCH   8  12
ATOM     12  O   UNL     1      -0.979  -2.777  -0.183  1.00  0.00    -0.481 OA
BRANCH  12  13
ATOM     13  C   UNL     1      -1.708  -1.635  -0.175  1.00  0.00     0.120 A 
ATOM     14  C   UNL     1      -2.471  -1.304   0.935  1.00  0.00     0.047 A 
ATOM     15  C   UNL     1      -1.807  -0.892  -1.339  1.00  0.00     0.047 A 
ATOM     16  C   UNL     1      -3.256  -0.146   0.907  1.00  0.00     0.012 A 
ATOM     17  C   UNL     1      -2.539   0.291  -1.345  1.00  0.00     0.012 A 
ATOM     18  C   UNL     1      -3.274   0.701  -0.218  1.00  0.00    -0.018 A 
BRANCH  18  19
ATOM     19  C   UNL     1      -4.020   1.978  -0.232  1.00  0.00    -0.018 A 
ATOM     20  C   UNL     1      -4.142   2.769   0.924  1.00  0.00     0.009 A 
ATOM     21  C   UNL     1      -4.602   2.472  -1.415  1.00  0.00     0.009 A 
ATOM     22  C   UNL     1      -4.809   3.998   0.897  1.00  0.00     0.001 A 
ATOM     23  C   UNL     1      -5.255   3.706  -1.448  1.00  0.00     0.001 A 
ATOM     24  C   UNL     1      -5.359   4.468  -0.291  1.00  0.00     0.000 A 
ENDBRANCH  18  19
ENDBRANCH  12  13
ENDBRANCH   8  12
ENDBRANCH   5   8
ENDBRANCH   3   4
ENDBRANCH   2   3
ENDBRANCH   1   2
BRANCH   1  25
ATOM     25  C   UNL     1      -0.115  -7.466  -3.606  1.00  0.00     0.002 C 
BRANCH  25  26
ATOM     26  C   UNL     1      -1.129  -7.069  -4.683  1.00  0.00     0.021 C 
BRANCH  26  27
ATOM     27  C   UNL     1      -0.552  -6.971  -6.092  1.00  0.00     0.116 C 
BRANCH  27  28
ATOM     28  N   UNL     1      -0.040  -8.249  -6.561  1.00  0.00    -0.352 N 
ATOM     29  C   UNL     1      -0.387  -8.971  -7.678  1.00  0.00     0.251 C 
ATOM     30  H   UNL     1       0.656  -8.656  -5.996  1.00  0.00     0.163 HD
ATOM     31  O   UNL     1      -0.001 -10.125  -7.808  1.00  0.00    -0.269 OA
BRANCH  29  32
ATOM     32  C   UNL     1      -1.246  -8.350  -8.710  1.00  0.00     0.039 A 
ATOM     33  C   UNL     1      -2.333  -9.071  -9.207  1.00  0.00     0.014 A 
ATOM     34  C   UNL     1      -0.986  -7.056  -9.171  1.00  0.00     0.014 A 
ATOM     35  C   UNL     1      -3.208  -8.463 -10.111  1.00  0.00     0.010 A 
ATOM     36  C   UNL     1      -1.897  -6.428 -10.017  1.00  0.00     0.010 A 
ATOM     37  C   UNL     1      -3.024  -7.121 -10.486  1.00  0.00    -0.014 A 
BRANCH  37  38
ATOM     38  C   UNL     1      -4.022  -6.413 -11.329  1.00  0.00     0.031 A 
ATOM     39  C   UNL     1      -3.640  -5.888 -12.685  1.00  0.00     0.074 A 
ATOM     40  C   UNL     1      -5.254  -6.176 -10.834  1.00  0.00     0.049 A 
ATOM     41  N   UNL     1      -4.350  -5.179 -13.524  1.00  0.00    -0.248 NA
ATOM     42  C   UNL     1      -2.275  -6.179 -13.150  1.00  0.00     0.031 C 
ATOM     43  C   UNL     1      -5.728  -6.595  -9.512  1.00  0.00     0.029 A 
ATOM     44  N   UNL     1      -6.328  -5.514 -11.374  1.00  0.00    -0.354 N 
ATOM     45  C   UNL     1      -3.519  -4.932 -14.611  1.00  0.00     0.074 A 
ATOM     46  C   UNL     1      -2.235  -5.524 -14.302  1.00  0.00     0.031 C 
ATOM     47  C   UNL     1      -7.000  -6.197  -9.353  1.00  0.00     0.029 A 
ATOM     48  C   UNL     1      -7.418  -5.454 -10.538  1.00  0.00     0.049 A 
ATOM     49  H   UNL     1      -6.319  -5.119 -12.276  1.00  0.00     0.167 HD
ATOM     50  C   UNL     1      -3.808  -4.287 -15.767  1.00  0.00     0.037 A 
ATOM     51  C   UNL     1      -8.615  -4.855 -10.696  1.00  0.00     0.037 A 
ATOM     52  C   UNL     1      -5.093  -3.712 -16.070  1.00  0.00     0.049 A 
ATOM     53  C   UNL     1      -8.900  -4.119 -11.978  1.00  0.00     0.074 A 
ATOM     54  C   UNL     1      -5.503  -3.092 -17.238  1.00  0.00     0.029 A 
ATOM     55  N   UNL     1      -6.173  -3.674 -15.199  1.00  0.00    -0.354 N 
ATOM     56  N   UNL     1      -8.127  -3.959 -13.025  1.00  0.00    -0.248 NA
ATOM     57  C   UNL     1     -10.219  -3.482 -12.100  1.00  0.00     0.031 C 
ATOM     58  C   UNL     1      -6.809  -2.629 -17.053  1.00  0.00     0.029 A 
ATOM     59  C   UNL     1      -7.236  -3.011 -15.791  1.00  0.00     0.049 A 
ATOM     60  H   UNL     1      -6.183  -4.062 -14.294  1.00  0.00     0.167 HD
ATOM     61  C   UNL     1      -8.873  -3.221 -13.938  1.00  0.00     0.074 A 
ATOM     62  C   UNL     1     -10.164  -2.983 -13.327  1.00  0.00     0.031 C 
ATOM     63  C   UNL     1      -8.518  -2.780 -15.171  1.00  0.00     0.037 A 
BRANCH  50  64
ATOM     64  C   UNL     1      -2.714  -4.165 -16.794  1.00  0.00     0.058 A 
ATOM     65  C   UNL     1      -2.244  -5.280 -17.508  1.00  0.00     0.135 A 
ATOM     66  C   UNL     1      -2.162  -2.912 -17.105  1.00  0.00     0.135 A 
ATOM     67  F   UNL     1      -2.726  -6.505 -17.244  1.00  0.00    -0.206 F 
ATOM     68  C   UNL     1      -1.248  -5.160 -18.472  1.00  0.00     0.059 A 
ATOM     69  C   UNL     1      -1.187  -2.764 -18.087  1.00  0.00     0.059 A 
ATOM     70  F   UNL     1      -2.574  -1.812 -16.454  1.00  0.00    -0.206 F 
ATOM     71  C   UNL     1      -0.727  -3.897 -18.756  1.00  0.00     0.060 A 
BRANCH  71  72
ATOM     72  S   UNL     1       0.558  -3.760 -20.016  1.00  0.00     0.124 S 
ATOM     73  O   UNL     1       1.696  -4.374 -19.339  1.00  0.00    -0.237 OA
ATOM     74  O   UNL     1      -0.009  -4.525 -21.122  1.00  0.00    -0.237 OA
ATOM     75  O   UNL     1       0.664  -2.322 -20.241  1.00  0.00    -0.744 OA
ENDBRANCH  71  72
ENDBRANCH  50  64
BRANCH  51  76
ATOM     76  C   UNL     1      -9.633  -4.927  -9.613  1.00  0.00     0.058 A 
ATOM     77  C   UNL     1     -10.812  -5.668  -9.779  1.00  0.00     0.135 A 
ATOM     78  C   UNL     1      -9.443  -4.268  -8.388  1.00  0.00     0.135 A 
ATOM     79  F   UNL     1     -11.045  -6.309 -10.934  1.00  0.00    -0.206 F 
ATOM     80  C   UNL     1     -11.775  -5.740  -8.777  1.00  0.00     0.059 A 
ATOM     81  C   UNL     1     -10.377  -4.349  -7.361  1.00  0.00     0.059 A 
ATOM     82  F   UNL     1      -8.324  -3.558  -8.172  1.00  0.00    -0.206 F 
ATOM     83  C   UNL     1     -11.546  -5.079  -7.569  1.00  0.00     0.060 A 
BRANCH  83  84
ATOM     84  S   UNL     1     -12.781  -5.217  -6.259  1.00  0.00     0.124 S 
ATOM     85  O   UNL     1     -13.863  -4.395  -6.788  1.00  0.00    -0.237 OA
ATOM     86  O   UNL     1     -13.030  -6.655  -6.225  1.00  0.00    -0.237 OA
ATOM     87  O   UNL     1     -12.092  -4.679  -5.090  1.00  0.00    -0.744 OA
ENDBRANCH  83  84
ENDBRANCH  51  76
BRANCH  63  88
ATOM     88  C   UNL     1      -9.544  -2.006 -15.953  1.00  0.00     0.058 A 
ATOM     89  C   UNL     1      -9.901  -0.694 -15.604  1.00  0.00     0.135 A 
ATOM     90  C   UNL     1     -10.131  -2.561 -17.103  1.00  0.00     0.135 A 
ATOM     91  F   UNL     1      -9.378  -0.120 -14.510  1.00  0.00    -0.206 F 
ATOM     92  C   UNL     1     -10.815   0.035 -16.358  1.00  0.00     0.059 A 
ATOM     93  C   UNL     1     -11.024  -1.839 -17.888  1.00  0.00     0.059 A 
ATOM     94  F   UNL     1      -9.819  -3.809 -17.486  1.00  0.00    -0.206 F 
ATOM     95  C   UNL     1     -11.367  -0.544 -17.503  1.00  0.00     0.060 A 
BRANCH  95  96
ATOM     96  S   UNL     1     -12.513   0.433 -18.497  1.00  0.00     0.124 S 
ATOM     97  O   UNL     1     -13.695   0.463 -17.642  1.00  0.00    -0.237 OA
ATOM     98  O   UNL     1     -11.801   1.700 -18.638  1.00  0.00    -0.237 OA
ATOM     99  O   UNL     1     -12.647  -0.344 -19.726  1.00  0.00    -0.744 OA
ENDBRANCH  95  96
ENDBRANCH  63  88
ENDBRANCH  37  38
ENDBRANCH  29  32
ENDBRANCH  27  28
ENDBRANCH  26  27
ENDBRANCH  25  26
ENDBRANCH   1  25
TORSDOF 21
