REMARK SMILES Cc1c(Cl)cccc1NC(=O)C[C@](C)(C(=O)NCCCCCCNC(=O)c1ccc(-c2c3nc(c(-c4c(F)cc(S(=O)(=O)[O-])cc4F)c4ccc([nH]4)c(-c4c(F)cc(S(=O)(=O)[O-])cc4F)c4nc(c(-c5c(F)cc(S(=O)(=O)[O-])cc5F)c5ccc2[nH]5)C=C4)C=C3)cc1)c1ccccc1
REMARK SMILES IDX 20 1 19 2 18 3 17 4 15 5 16 6 13 8 14 9 12 10 10 11 9 12
REMARK SMILES IDX 11 14 8 15 1 16 2 17 3 18 4 19 5 20 7 21 6 22 93 23 94 24
REMARK SMILES IDX 98 25 95 26 97 27 96 28 21 29 22 30 23 31 24 32 25 33 26 35
REMARK SMILES IDX 27 36 28 37 92 38 29 39 91 40 30 41 31 42 32 43 85 44 33 45
REMARK SMILES IDX 90 46 84 47 86 48 34 49 89 50 83 51 82 52 35 54 69 55 48 56
REMARK SMILES IDX 68 57 49 58 52 59 67 60 87 61 50 62 51 63 66 65 88 66 53 67
REMARK SMILES IDX 36 68 37 69 46 70 38 71 39 72 45 73 47 74 40 75 41 76 42 77
REMARK SMILES IDX 43 78 44 79 70 80 71 81 80 82 72 83 73 84 79 85 81 86 74 87
REMARK SMILES IDX 75 88 76 89 77 90 78 91 54 92 55 93 64 94 56 95 57 96 63 97
REMARK SMILES IDX 65 98 58 99 59 100 60 101 61 102 62 103
REMARK H PARENT 17 7 9 13 24 34 86 53 52 64
REMARK Flexibility Score: inf
ROOT
ATOM      1  C   UNL     1      -5.753  -3.541   3.511  1.00  0.00     0.002 C 
ENDROOT
BRANCH   1   2
ATOM      2  C   UNL     1      -5.198  -2.169   3.118  1.00  0.00     0.021 C 
BRANCH   2   3
ATOM      3  C   UNL     1      -4.518  -2.142   1.560  1.00  0.00     0.116 C 
BRANCH   3   4
ATOM      4  N   UNL     1      -5.223  -1.392  -0.259  1.00  0.00    -0.355 N 
ATOM      5  C   UNL     1      -5.188  -0.527  -1.389  1.00  0.00     0.230 C 
ATOM      6  O   UNL     1      -6.142  -0.823  -2.135  1.00  0.00    -0.274 OA
ATOM      7  H   UNL     1      -6.021  -1.942  -0.429  1.00  0.00     0.163 HD
BRANCH   5   8
ATOM      8  C   UNL     1      -4.223   0.712  -1.770  1.00  0.00     0.080 C 
ATOM      9  C   UNL     1      -4.549   1.891  -0.777  1.00  0.00     0.027 C 
BRANCH   8  10
ATOM     10  C   UNL     1      -2.686   0.402  -1.839  1.00  0.00     0.121 C 
BRANCH  10  11
ATOM     11  C   UNL     1      -2.220  -1.011  -2.130  1.00  0.00     0.225 C 
ATOM     12  N   UNL     1      -2.329  -1.988  -1.185  1.00  0.00    -0.326 N 
ATOM     13  H   UNL     1      -1.699  -2.744  -1.215  1.00  0.00     0.169 HD
ATOM     14  O   UNL     1      -1.695  -1.298  -3.209  1.00  0.00    -0.275 OA
BRANCH  12  15
ATOM     15  C   UNL     1      -3.294  -1.964  -0.180  1.00  0.00     0.045 A 
ATOM     16  C   UNL     1      -4.016  -4.702  -0.695  1.00  0.00     0.048 C 
ATOM     17  C   UNL     1      -4.482  -3.330  -0.288  1.00  0.00    -0.009 A 
ATOM     18  C   UNL     1      -6.101  -3.155   0.474  1.00  0.00     0.046 A 
ATOM     19  Cl  UNL     1      -7.256  -4.429   0.365  1.00  0.00    -0.084 Cl
ATOM     20  C   UNL     1      -6.597  -1.594   1.231  1.00  0.00     0.021 A 
ATOM     21  C   UNL     1      -3.726  -0.413   0.694  1.00  0.00     0.026 A 
ATOM     22  C   UNL     1      -5.399  -0.238   1.393  1.00  0.00     0.004 A 
ENDBRANCH  12  15
ENDBRANCH  10  11
ENDBRANCH   8  10
BRANCH   8  23
ATOM     23  C   UNL     1      -4.527   1.403  -3.163  1.00  0.00    -0.032 A 
ATOM     24  C   UNL     1      -4.052   2.729  -3.372  1.00  0.00     0.005 A 
ATOM     25  C   UNL     1      -5.257   0.829  -4.207  1.00  0.00     0.005 A 
ATOM     26  C   UNL     1      -4.417   3.486  -4.480  1.00  0.00     0.000 A 
ATOM     27  C   UNL     1      -5.616   1.587  -5.330  1.00  0.00     0.000 A 
ATOM     28  C   UNL     1      -5.223   2.919  -5.453  1.00  0.00     0.000 A 
ENDBRANCH   8  23
ENDBRANCH   5   8
ENDBRANCH   3   4
ENDBRANCH   2   3
ENDBRANCH   1   2
BRANCH   1  29
ATOM     29  C   UNL     1      -4.748  -4.693   3.329  1.00  0.00     0.002 C 
BRANCH  29  30
ATOM     30  C   UNL     1      -3.481  -4.495   4.160  1.00  0.00     0.021 C 
BRANCH  30  31
ATOM     31  C   UNL     1      -3.826  -4.261   5.620  1.00  0.00     0.116 C 
BRANCH  31  32
ATOM     32  N   UNL     1      -4.874  -5.193   6.050  1.00  0.00    -0.352 N 
ATOM     33  C   UNL     1      -4.959  -5.886   7.216  1.00  0.00     0.251 C 
ATOM     34  H   UNL     1      -5.610  -5.335   5.412  1.00  0.00     0.163 HD
ATOM     35  O   UNL     1      -5.730  -6.820   7.369  1.00  0.00    -0.269 OA
BRANCH  33  36
ATOM     36  C   UNL     1      -4.074  -5.412   8.269  1.00  0.00     0.039 A 
ATOM     37  C   UNL     1      -3.115  -6.272   8.784  1.00  0.00     0.014 A 
ATOM     38  C   UNL     1      -4.095  -4.039   8.543  1.00  0.00     0.014 A 
ATOM     39  C   UNL     1      -2.151  -5.734   9.617  1.00  0.00     0.010 A 
ATOM     40  C   UNL     1      -3.049  -3.491   9.245  1.00  0.00     0.010 A 
ATOM     41  C   UNL     1      -2.111  -4.344   9.838  1.00  0.00    -0.014 A 
BRANCH  41  42
ATOM     42  C   UNL     1      -1.145  -3.769  10.783  1.00  0.00     0.031 A 
ATOM     43  C   UNL     1      -1.668  -3.084  12.012  1.00  0.00     0.074 A 
ATOM     44  C   UNL     1       0.168  -3.870  10.521  1.00  0.00     0.049 A 
ATOM     45  N   UNL     1      -1.002  -2.526  12.985  1.00  0.00    -0.248 NA
ATOM     46  C   UNL     1      -3.133  -2.973  12.152  1.00  0.00     0.031 C 
ATOM     47  C   UNL     1       0.751  -4.473   9.318  1.00  0.00     0.029 A 
ATOM     48  N   UNL     1       1.251  -3.486  11.260  1.00  0.00    -0.354 N 
ATOM     49  C   UNL     1      -1.964  -2.000  13.837  1.00  0.00     0.074 A 
ATOM     50  C   UNL     1      -3.251  -2.208  13.223  1.00  0.00     0.031 C 
ATOM     51  C   UNL     1       2.087  -4.474   9.433  1.00  0.00     0.029 A 
ATOM     52  C   UNL     1       2.451  -3.830  10.691  1.00  0.00     0.049 A 
ATOM     53  H   UNL     1       1.177  -3.010  12.118  1.00  0.00     0.167 HD
ATOM     54  C   UNL     1      -1.787  -1.436  15.051  1.00  0.00     0.037 A 
ATOM     55  C   UNL     1       3.702  -3.646  11.148  1.00  0.00     0.037 A 
ATOM     56  C   UNL     1      -0.493  -1.265  15.649  1.00  0.00     0.049 A 
ATOM     57  C   UNL     1       3.875  -2.998  12.495  1.00  0.00     0.074 A 
ATOM     58  C   UNL     1      -0.181  -0.743  16.888  1.00  0.00     0.029 A 
ATOM     59  N   UNL     1       0.706  -1.614  15.041  1.00  0.00    -0.354 N 
ATOM     60  N   UNL     1       2.956  -2.560  13.325  1.00  0.00    -0.248 NA
ATOM     61  C   UNL     1       5.251  -2.829  12.972  1.00  0.00     0.031 C 
ATOM     62  C   UNL     1       1.212  -0.712  17.002  1.00  0.00     0.029 A 
ATOM     63  C   UNL     1       1.765  -1.289  15.868  1.00  0.00     0.049 A 
ATOM     64  H   UNL     1       0.790  -2.030  14.153  1.00  0.00     0.167 HD
ATOM     65  C   UNL     1       3.642  -2.093  14.440  1.00  0.00     0.074 A 
ATOM     66  C   UNL     1       5.051  -2.319  14.179  1.00  0.00     0.031 C 
ATOM     67  C   UNL     1       3.157  -1.532  15.577  1.00  0.00     0.037 A 
BRANCH  54  68
ATOM     68  C   UNL     1      -3.013  -0.970  15.786  1.00  0.00     0.058 A 
ATOM     69  C   UNL     1      -3.990  -1.868  16.252  1.00  0.00     0.135 A 
ATOM     70  C   UNL     1      -3.217   0.397  16.026  1.00  0.00     0.135 A 
ATOM     71  F   UNL     1      -3.863  -3.186  16.025  1.00  0.00    -0.206 F 
ATOM     72  C   UNL     1      -5.138  -1.425  16.897  1.00  0.00     0.059 A 
ATOM     73  C   UNL     1      -4.340   0.860  16.704  1.00  0.00     0.059 A 
ATOM     74  F   UNL     1      -2.326   1.301  15.591  1.00  0.00    -0.206 F 
ATOM     75  C   UNL     1      -5.302  -0.058  17.123  1.00  0.00     0.060 A 
BRANCH  75  76
ATOM     76  S   UNL     1      -6.792   0.499  17.974  1.00  0.00     0.124 S 
ATOM     77  O   UNL     1      -7.817   0.242  16.967  1.00  0.00    -0.237 OA
ATOM     78  O   UNL     1      -6.821  -0.370  19.146  1.00  0.00    -0.237 OA
ATOM     79  O   UNL     1      -6.522   1.907  18.247  1.00  0.00    -0.744 OA
ENDBRANCH  75  76
ENDBRANCH  54  68
BRANCH  55  80
ATOM     80  C   UNL     1       4.863  -4.109  10.345  1.00  0.00     0.058 A 
ATOM     81  C   UNL     1       5.671  -5.169  10.782  1.00  0.00     0.135 A 
ATOM     82  C   UNL     1       5.174  -3.516   9.112  1.00  0.00     0.135 A 
ATOM     83  F   UNL     1       5.414  -5.772  11.952  1.00  0.00    -0.206 F 
ATOM     84  C   UNL     1       6.761  -5.609  10.037  1.00  0.00     0.059 A 
ATOM     85  C   UNL     1       6.238  -3.959   8.334  1.00  0.00     0.059 A 
ATOM     86  F   UNL     1       4.418  -2.514   8.636  1.00  0.00    -0.206 F 
ATOM     87  C   UNL     1       7.033  -5.000   8.811  1.00  0.00     0.060 A 
BRANCH  87  88
ATOM     88  S   UNL     1       8.423  -5.607   7.833  1.00  0.00     0.124 S 
ATOM     89  O   UNL     1       9.559  -5.178   8.639  1.00  0.00    -0.237 OA
ATOM     90  O   UNL     1       8.166  -7.044   7.802  1.00  0.00    -0.237 OA
ATOM     91  O   UNL     1       8.260  -4.920   6.555  1.00  0.00    -0.744 OA
ENDBRANCH  87  88
ENDBRANCH  55  80
BRANCH  67  92
ATOM     92  C   UNL     1       4.155  -1.169  16.641  1.00  0.00     0.058 A 
ATOM     93  C   UNL     1       5.068  -0.116  16.476  1.00  0.00     0.135 A 
ATOM     94  C   UNL     1       4.160  -1.859  17.864  1.00  0.00     0.135 A 
ATOM     95  F   UNL     1       5.105   0.574  15.324  1.00  0.00    -0.206 F 
ATOM     96  C   UNL     1       5.979   0.215  17.472  1.00  0.00     0.059 A 
ATOM     97  C   UNL     1       5.034  -1.518  18.890  1.00  0.00     0.059 A 
ATOM     98  F   UNL     1       3.296  -2.864  18.080  1.00  0.00    -0.206 F 
ATOM     99  C   UNL     1       5.951  -0.491  18.677  1.00  0.00     0.060 A 
BRANCH  99 100
ATOM    100  S   UNL     1       7.125  -0.036  19.968  1.00  0.00     0.124 S 
ATOM    101  O   UNL     1       8.383  -0.512  19.401  1.00  0.00    -0.237 OA
ATOM    102  O   UNL     1       6.966   1.413  20.034  1.00  0.00    -0.237 OA
ATOM    103  O   UNL     1       6.646  -0.768  21.137  1.00  0.00    -0.744 OA
ENDBRANCH  99 100
ENDBRANCH  67  92
ENDBRANCH  41  42
ENDBRANCH  33  36
ENDBRANCH  31  32
ENDBRANCH  30  31
ENDBRANCH  29  30
ENDBRANCH   1  29
TORSDOF 20
