REMARK SMILES CC(C)Cc1ccc([C@@H]2CC[NH2+][C@H]2C(=O)NCCCCCCNC(=O)c2ccc(-c3c4nc(c(-c5c(F)cc(S(=O)(=O)[O-])cc5F)c5ccc([nH]5)c(-c5c(F)cc(S(=O)(=O)[O-])cc5F)c5nc(c(-c6c(F)cc(S(=O)(=O)[O-])cc6F)c6ccc3[nH]6)C=C5)C=C4)cc2)cc1
REMARK SMILES IDX 19 1 18 2 17 3 16 4 14 5 15 6 13 8 9 9 10 10 11 11 12 12
REMARK SMILES IDX 8 15 5 16 6 17 93 18 7 19 92 20 4 21 2 22 1 23 3 24 20 25
REMARK SMILES IDX 21 26 22 27 23 28 24 29 25 31 26 32 27 33 91 34 28 35 90 36
REMARK SMILES IDX 29 37 30 38 31 39 84 40 32 41 89 42 83 43 85 44 33 45 88 46
REMARK SMILES IDX 82 47 81 48 34 50 68 51 47 52 67 53 48 54 51 55 66 56 86 57
REMARK SMILES IDX 49 58 50 59 65 61 87 62 52 63 35 64 36 65 45 66 37 67 38 68
REMARK SMILES IDX 44 69 46 70 39 71 40 72 41 73 42 74 43 75 69 76 70 77 79 78
REMARK SMILES IDX 71 79 72 80 78 81 80 82 73 83 74 84 75 85 76 86 77 87 53 88
REMARK SMILES IDX 54 89 63 90 55 91 56 92 62 93 64 94 57 95 58 96 59 97 60 98
REMARK SMILES IDX 61 99
REMARK H PARENT 16 7 12 13 12 14 23 30 85 49 51 60
REMARK Flexibility Score: inf
ROOT
ATOM      1  C   UNL     1      -2.949   4.981  -8.075  1.00  0.00     0.002 C 
ENDROOT
BRANCH   1   2
ATOM      2  C   UNL     1      -3.448   3.889  -7.125  1.00  0.00     0.021 C 
BRANCH   2   3
ATOM      3  C   UNL     1      -3.401   2.491  -7.735  1.00  0.00     0.116 C 
BRANCH   3   4
ATOM      4  N   UNL     1      -2.058   1.956  -7.723  1.00  0.00    -0.351 N 
ATOM      5  C   UNL     1      -1.499   0.951  -6.990  1.00  0.00     0.278 C 
ATOM      6  O   UNL     1      -0.280   0.789  -7.108  1.00  0.00    -0.268 OA
ATOM      7  H   UNL     1      -1.440   2.392  -8.354  1.00  0.00     0.163 HD
BRANCH   5   8
ATOM      8  C   UNL     1      -2.333   0.048  -6.056  1.00  0.00     0.280 C 
ATOM      9  C   UNL     1      -2.912   0.773  -4.829  1.00  0.00     0.093 C 
ATOM     10  C   UNL     1      -4.426   0.597  -4.937  1.00  0.00     0.076 C 
ATOM     11  C   UNL     1      -4.628  -0.547  -5.916  1.00  0.00     0.262 C 
ATOM     12  N   UNL     1      -3.452  -0.603  -6.785  1.00  0.00    -0.335 N 
ATOM     13  H   UNL     1      -3.638  -0.106  -7.656  1.00  0.00     0.346 HD
ATOM     14  H   UNL     1      -3.220  -1.569  -7.017  1.00  0.00     0.346 HD
BRANCH   9  15
ATOM     15  C   UNL     1      -2.412   0.216  -3.506  1.00  0.00    -0.038 A 
ATOM     16  C   UNL     1      -1.482  -0.787  -1.040  1.00  0.00    -0.048 A 
ATOM     17  C   UNL     1      -1.497   0.590  -1.291  1.00  0.00     0.004 A 
ATOM     18  C   UNL     1      -1.968  -1.658  -2.019  1.00  0.00     0.004 A 
ATOM     19  C   UNL     1      -1.947   1.087  -2.514  1.00  0.00     0.004 A 
ATOM     20  C   UNL     1      -2.437  -1.161  -3.233  1.00  0.00     0.004 A 
BRANCH  16  21
ATOM     21  C   UNL     1      -0.913  -1.332   0.245  1.00  0.00     0.038 C 
BRANCH  21  22
ATOM     22  C   UNL     1       0.617  -1.528   0.199  1.00  0.00    -0.013 C 
ATOM     23  C   UNL     1       1.377  -0.201   0.105  1.00  0.00     0.008 C 
ATOM     24  C   UNL     1       1.074  -2.290   1.443  1.00  0.00     0.008 C 
ENDBRANCH  21  22
ENDBRANCH  16  21
ENDBRANCH   9  15
ENDBRANCH   5   8
ENDBRANCH   3   4
ENDBRANCH   2   3
ENDBRANCH   1   2
BRANCH   1  25
ATOM     25  C   UNL     1      -3.696   5.057  -9.412  1.00  0.00     0.002 C 
BRANCH  25  26
ATOM     26  C   UNL     1      -5.219   5.168  -9.294  1.00  0.00     0.021 C 
BRANCH  26  27
ATOM     27  C   UNL     1      -5.698   6.400  -8.535  1.00  0.00     0.116 C 
BRANCH  27  28
ATOM     28  N   UNL     1      -5.292   7.628  -9.201  1.00  0.00    -0.352 N 
ATOM     29  C   UNL     1      -6.068   8.659  -9.662  1.00  0.00     0.251 C 
ATOM     30  H   UNL     1      -4.323   7.733  -9.340  1.00  0.00     0.163 HD
ATOM     31  O   UNL     1      -5.585   9.499 -10.420  1.00  0.00    -0.269 OA
BRANCH  29  32
ATOM     32  C   UNL     1      -7.484   8.751  -9.253  1.00  0.00     0.039 A 
ATOM     33  C   UNL     1      -8.449   9.070 -10.211  1.00  0.00     0.014 A 
ATOM     34  C   UNL     1      -7.855   8.531  -7.923  1.00  0.00     0.014 A 
ATOM     35  C   UNL     1      -9.794   9.119  -9.843  1.00  0.00     0.010 A 
ATOM     36  C   UNL     1      -9.202   8.503  -7.577  1.00  0.00     0.010 A 
ATOM     37  C   UNL     1     -10.184   8.807  -8.530  1.00  0.00    -0.014 A 
BRANCH  37  38
ATOM     38  C   UNL     1     -11.616   8.794  -8.137  1.00  0.00     0.031 A 
ATOM     39  C   UNL     1     -12.123   9.751  -7.094  1.00  0.00     0.074 A 
ATOM     40  C   UNL     1     -12.442   7.874  -8.670  1.00  0.00     0.049 A 
ATOM     41  N   UNL     1     -13.321   9.852  -6.578  1.00  0.00    -0.248 NA
ATOM     42  C   UNL     1     -11.148  10.700  -6.536  1.00  0.00     0.031 C 
ATOM     43  C   UNL     1     -12.051   6.853  -9.644  1.00  0.00     0.029 A 
ATOM     44  N   UNL     1     -13.776   7.636  -8.456  1.00  0.00    -0.354 N 
ATOM     45  C   UNL     1     -13.241  10.866  -5.631  1.00  0.00     0.074 A 
ATOM     46  C   UNL     1     -11.862  11.301  -5.596  1.00  0.00     0.031 C 
ATOM     47  C   UNL     1     -13.123   6.107  -9.953  1.00  0.00     0.029 A 
ATOM     48  C   UNL     1     -14.267   6.570  -9.172  1.00  0.00     0.049 A 
ATOM     49  H   UNL     1     -14.329   8.178  -7.848  1.00  0.00     0.167 HD
ATOM     50  C   UNL     1     -14.232  11.403  -4.877  1.00  0.00     0.037 A 
ATOM     51  C   UNL     1     -15.495   6.017  -9.188  1.00  0.00     0.037 A 
ATOM     52  C   UNL     1     -15.602  10.963  -4.922  1.00  0.00     0.049 A 
ATOM     53  C   UNL     1     -16.582   6.623  -8.346  1.00  0.00     0.074 A 
ATOM     54  C   UNL     1     -16.693  11.472  -4.241  1.00  0.00     0.029 A 
ATOM     55  N   UNL     1     -16.069   9.899  -5.683  1.00  0.00    -0.354 N 
ATOM     56  N   UNL     1     -16.509   7.633  -7.511  1.00  0.00    -0.248 NA
ATOM     57  C   UNL     1     -17.920   6.028  -8.456  1.00  0.00     0.031 C 
ATOM     58  C   UNL     1     -17.808  10.684  -4.548  1.00  0.00     0.029 A 
ATOM     59  C   UNL     1     -17.426   9.719  -5.468  1.00  0.00     0.049 A 
ATOM     60  H   UNL     1     -15.516   9.353  -6.287  1.00  0.00     0.167 HD
ATOM     61  C   UNL     1     -17.794   7.806  -7.008  1.00  0.00     0.074 A 
ATOM     62  C   UNL     1     -18.627   6.805  -7.646  1.00  0.00     0.031 C 
ATOM     63  C   UNL     1     -18.242   8.712  -6.104  1.00  0.00     0.037 A 
BRANCH  50  64
ATOM     64  C   UNL     1     -13.854  12.517  -3.936  1.00  0.00     0.058 A 
ATOM     65  C   UNL     1     -13.424  13.770  -4.407  1.00  0.00     0.135 A 
ATOM     66  C   UNL     1     -13.908  12.330  -2.545  1.00  0.00     0.135 A 
ATOM     67  F   UNL     1     -13.342  14.005  -5.726  1.00  0.00    -0.206 F 
ATOM     68  C   UNL     1     -13.007  14.773  -3.537  1.00  0.00     0.059 A 
ATOM     69  C   UNL     1     -13.529  13.332  -1.656  1.00  0.00     0.059 A 
ATOM     70  F   UNL     1     -14.317  11.157  -2.036  1.00  0.00    -0.206 F 
ATOM     71  C   UNL     1     -13.054  14.540  -2.163  1.00  0.00     0.060 A 
BRANCH  71  72
ATOM     72  S   UNL     1     -12.468  15.834  -1.049  1.00  0.00     0.124 S 
ATOM     73  O   UNL     1     -11.024  15.756  -1.250  1.00  0.00    -0.237 OA
ATOM     74  O   UNL     1     -13.118  17.026  -1.584  1.00  0.00    -0.237 OA
ATOM     75  O   UNL     1     -12.943  15.398   0.260  1.00  0.00    -0.744 OA
ENDBRANCH  71  72
ENDBRANCH  50  64
BRANCH  51  76
ATOM     76  C   UNL     1     -15.746   4.832 -10.050  1.00  0.00     0.058 A 
ATOM     77  C   UNL     1     -16.506   4.934 -11.223  1.00  0.00     0.135 A 
ATOM     78  C   UNL     1     -15.170   3.587  -9.750  1.00  0.00     0.135 A 
ATOM     79  F   UNL     1     -17.083   6.101 -11.549  1.00  0.00    -0.206 F 
ATOM     80  C   UNL     1     -16.683   3.846 -12.073  1.00  0.00     0.059 A 
ATOM     81  C   UNL     1     -15.311   2.492 -10.596  1.00  0.00     0.059 A 
ATOM     82  F   UNL     1     -14.418   3.442  -8.647  1.00  0.00    -0.206 F 
ATOM     83  C   UNL     1     -16.071   2.632 -11.756  1.00  0.00     0.060 A 
BRANCH  83  84
ATOM     84  S   UNL     1     -16.227   1.255 -12.915  1.00  0.00     0.124 S 
ATOM     85  O   UNL     1     -17.623   0.875 -12.734  1.00  0.00    -0.237 OA
ATOM     86  O   UNL     1     -15.896   1.889 -14.187  1.00  0.00    -0.237 OA
ATOM     87  O   UNL     1     -15.242   0.294 -12.428  1.00  0.00    -0.744 OA
ENDBRANCH  83  84
ENDBRANCH  51  76
BRANCH  63  88
ATOM     88  C   UNL     1     -19.708   8.682  -5.760  1.00  0.00     0.058 A 
ATOM     89  C   UNL     1     -20.266   7.651  -4.989  1.00  0.00     0.135 A 
ATOM     90  C   UNL     1     -20.553   9.729  -6.164  1.00  0.00     0.135 A 
ATOM     91  F   UNL     1     -19.505   6.622  -4.582  1.00  0.00    -0.206 F 
ATOM     92  C   UNL     1     -21.615   7.646  -4.649  1.00  0.00     0.059 A 
ATOM     93  C   UNL     1     -21.898   9.760  -5.810  1.00  0.00     0.059 A 
ATOM     94  F   UNL     1     -20.069  10.745  -6.896  1.00  0.00    -0.206 F 
ATOM     95  C   UNL     1     -22.423   8.708  -5.061  1.00  0.00     0.060 A 
BRANCH  95  96
ATOM     96  S   UNL     1     -24.164   8.707  -4.583  1.00  0.00     0.124 S 
ATOM     97  O   UNL     1     -24.703   7.656  -5.439  1.00  0.00    -0.237 OA
ATOM     98  O   UNL     1     -24.096   8.393  -3.159  1.00  0.00    -0.237 OA
ATOM     99  O   UNL     1     -24.605  10.063  -4.900  1.00  0.00    -0.744 OA
ENDBRANCH  95  96
ENDBRANCH  63  88
ENDBRANCH  37  38
ENDBRANCH  29  32
ENDBRANCH  27  28
ENDBRANCH  26  27
ENDBRANCH  25  26
ENDBRANCH   1  25
TORSDOF 19
