REMARK SMILES C[C@@H]1[C@H](C(=O)NCCCCCCNC(=O)c2ccc(-c3c4nc(c(-c5c(F)cc(S(=O)(=O)[O-])cc5F)c5ccc([nH]5)c(-c5c(F)cc(S(=O)(=O)[O-])cc5F)c5nc(c(-c6c(F)cc(S(=O)(=O)[O-])cc6F)c6ccc3[nH]6)C=C5)C=C4)cc2)CC[N@@H+]1CCOc1c(Cl)cccc1Cl
REMARK SMILES IDX 9 1 8 2 7 3 6 4 4 5 5 6 3 8 1 9 2 10 84 11 82 12 83 13 85 15
REMARK SMILES IDX 86 16 87 17 88 18 89 19 94 20 90 21 91 22 93 23 95 24 92 25
REMARK SMILES IDX 10 26 11 27 12 28 13 29 14 30 15 32 16 33 17 34 81 35 18 36
REMARK SMILES IDX 80 37 19 38 20 39 21 40 74 41 22 42 79 43 73 44 75 45 23 46
REMARK SMILES IDX 78 47 72 48 71 49 24 51 58 52 37 53 57 54 38 55 41 56 56 57
REMARK SMILES IDX 76 58 39 59 40 60 55 62 77 63 42 64 25 65 26 66 35 67 27 68
REMARK SMILES IDX 28 69 34 70 36 71 29 72 30 73 31 74 32 75 33 76 59 77 60 78
REMARK SMILES IDX 69 79 61 80 62 81 68 82 70 83 63 84 64 85 65 86 66 87 67 88
REMARK SMILES IDX 43 89 44 90 53 91 45 92 46 93 52 94 54 95 47 96 48 97 49 98
REMARK SMILES IDX 50 99 51 100
REMARK H PARENT 6 7 84 14 13 31 75 50 41 61
REMARK Flexibility Score: inf
ROOT
ATOM      1  C   UNL     1       3.689   2.940   3.219  1.00  0.00     0.002 C 
ENDROOT
BRANCH   1   2
ATOM      2  C   UNL     1       3.089   1.762   2.453  1.00  0.00     0.021 C 
BRANCH   2   3
ATOM      3  C   UNL     1       1.703   2.028   1.869  1.00  0.00     0.116 C 
BRANCH   3   4
ATOM      4  N   UNL     1       1.792   2.759   0.629  1.00  0.00    -0.356 N 
ATOM      5  C   UNL     1       1.572   2.379  -0.652  1.00  0.00     0.229 C 
ATOM      6  O   UNL     1       1.868   3.214  -1.517  1.00  0.00    -0.275 OA
ATOM      7  H   UNL     1       2.061   3.700   0.732  1.00  0.00     0.163 HD
BRANCH   5   8
ATOM      8  C   UNL     1       0.912   1.072  -1.079  1.00  0.00     0.142 C 
ATOM      9  C   UNL     1       2.752  -0.513  -0.018  1.00  0.00     0.076 C 
ATOM     10  C   UNL     1       1.510  -0.337  -0.870  1.00  0.00     0.193 C 
ATOM     11  N   UNL     1       0.360  -1.239  -0.630  1.00  0.00    -0.329 N 
ATOM     12  C   UNL     1      -0.547   0.932  -0.675  1.00  0.00     0.081 C 
ATOM     13  C   UNL     1      -0.833  -0.514  -1.042  1.00  0.00     0.263 C 
ATOM     14  H   UNL     1       0.554  -2.062  -1.202  1.00  0.00     0.348 HD
BRANCH  11  15
ATOM     15  C   UNL     1       0.232  -2.058   0.587  1.00  0.00     0.304 C 
BRANCH  15  16
ATOM     16  C   UNL     1      -0.260  -1.440   1.921  1.00  0.00     0.291 C 
BRANCH  16  17
ATOM     17  O   UNL     1      -1.661  -1.650   2.187  1.00  0.00    -0.485 OA
BRANCH  17  18
ATOM     18  C   UNL     1      -2.466  -0.548   2.027  1.00  0.00     0.156 A 
ATOM     19  C   UNL     1      -2.273   0.681   2.676  1.00  0.00     0.084 A 
ATOM     20  C   UNL     1      -3.559  -0.672   1.154  1.00  0.00     0.084 A 
ATOM     21  Cl  UNL     1      -1.168   0.881   3.992  1.00  0.00    -0.080 Cl
ATOM     22  C   UNL     1      -3.019   1.804   2.296  1.00  0.00     0.024 A 
ATOM     23  C   UNL     1      -4.299   0.451   0.771  1.00  0.00     0.024 A 
ATOM     24  Cl  UNL     1      -4.001  -2.200   0.467  1.00  0.00    -0.080 Cl
ATOM     25  C   UNL     1      -4.004   1.698   1.314  1.00  0.00     0.003 A 
ENDBRANCH  17  18
ENDBRANCH  16  17
ENDBRANCH  15  16
ENDBRANCH  11  15
ENDBRANCH   5   8
ENDBRANCH   3   4
ENDBRANCH   2   3
ENDBRANCH   1   2
BRANCH   1  26
ATOM     26  C   UNL     1       2.996   3.273   4.543  1.00  0.00     0.002 C 
BRANCH  26  27
ATOM     27  C   UNL     1       2.842   2.110   5.528  1.00  0.00     0.021 C 
BRANCH  27  28
ATOM     28  C   UNL     1       4.110   1.308   5.817  1.00  0.00     0.116 C 
BRANCH  28  29
ATOM     29  N   UNL     1       5.199   2.140   6.297  1.00  0.00    -0.352 N 
ATOM     30  C   UNL     1       5.979   2.004   7.415  1.00  0.00     0.251 C 
ATOM     31  H   UNL     1       5.409   2.919   5.734  1.00  0.00     0.163 HD
ATOM     32  O   UNL     1       6.755   2.909   7.724  1.00  0.00    -0.269 OA
BRANCH  30  33
ATOM     33  C   UNL     1       5.883   0.795   8.260  1.00  0.00     0.039 A 
ATOM     34  C   UNL     1       5.855   0.954   9.649  1.00  0.00     0.014 A 
ATOM     35  C   UNL     1       5.859  -0.487   7.701  1.00  0.00     0.014 A 
ATOM     36  C   UNL     1       5.764  -0.168  10.474  1.00  0.00     0.010 A 
ATOM     37  C   UNL     1       5.708  -1.602   8.524  1.00  0.00     0.010 A 
ATOM     38  C   UNL     1       5.670  -1.455   9.919  1.00  0.00    -0.014 A 
BRANCH  38  39
ATOM     39  C   UNL     1       5.551  -2.650  10.793  1.00  0.00     0.031 A 
ATOM     40  C   UNL     1       6.669  -3.655  10.856  1.00  0.00     0.074 A 
ATOM     41  C   UNL     1       4.425  -2.844  11.506  1.00  0.00     0.049 A 
ATOM     42  N   UNL     1       6.743  -4.764  11.547  1.00  0.00    -0.248 NA
ATOM     43  C   UNL     1       7.848  -3.392  10.017  1.00  0.00     0.031 C 
ATOM     44  C   UNL     1       3.253  -1.965  11.491  1.00  0.00     0.029 A 
ATOM     45  N   UNL     1       4.078  -3.843  12.380  1.00  0.00    -0.354 N 
ATOM     46  C   UNL     1       7.968  -5.335  11.219  1.00  0.00     0.074 A 
ATOM     47  C   UNL     1       8.582  -4.476  10.230  1.00  0.00     0.031 C 
ATOM     48  C   UNL     1       2.328  -2.452  12.334  1.00  0.00     0.029 A 
ATOM     49  C   UNL     1       2.827  -3.688  12.928  1.00  0.00     0.049 A 
ATOM     50  H   UNL     1       4.669  -4.601  12.593  1.00  0.00     0.167 HD
ATOM     51  C   UNL     1       8.539  -6.459  11.714  1.00  0.00     0.037 A 
ATOM     52  C   UNL     1       2.159  -4.454  13.812  1.00  0.00     0.037 A 
ATOM     53  C   UNL     1       7.936  -7.295  12.720  1.00  0.00     0.049 A 
ATOM     54  C   UNL     1       2.821  -5.689  14.360  1.00  0.00     0.074 A 
ATOM     55  C   UNL     1       8.460  -8.421  13.330  1.00  0.00     0.029 A 
ATOM     56  N   UNL     1       6.677  -7.094  13.265  1.00  0.00    -0.354 N 
ATOM     57  N   UNL     1       4.007  -6.178  14.086  1.00  0.00    -0.248 NA
ATOM     58  C   UNL     1       2.059  -6.471  15.344  1.00  0.00     0.031 C 
ATOM     59  C   UNL     1       7.502  -8.921  14.220  1.00  0.00     0.029 A 
ATOM     60  C   UNL     1       6.398  -8.085  14.192  1.00  0.00     0.049 A 
ATOM     61  H   UNL     1       6.070  -6.356  13.027  1.00  0.00     0.167 HD
ATOM     62  C   UNL     1       4.141  -7.314  14.877  1.00  0.00     0.074 A 
ATOM     63  C   UNL     1       2.922  -7.430  15.651  1.00  0.00     0.031 C 
ATOM     64  C   UNL     1       5.179  -8.183  14.955  1.00  0.00     0.037 A 
BRANCH  51  65
ATOM     65  C   UNL     1       9.891  -6.844  11.180  1.00  0.00     0.058 A 
ATOM     66  C   UNL     1      11.045  -6.115  11.511  1.00  0.00     0.135 A 
ATOM     67  C   UNL     1      10.041  -7.968  10.353  1.00  0.00     0.135 A 
ATOM     68  F   UNL     1      10.957  -5.023  12.286  1.00  0.00    -0.206 F 
ATOM     69  C   UNL     1      12.296  -6.469  11.014  1.00  0.00     0.059 A 
ATOM     70  C   UNL     1      11.287  -8.355   9.865  1.00  0.00     0.059 A 
ATOM     71  F   UNL     1       8.971  -8.700  10.006  1.00  0.00    -0.206 F 
ATOM     72  C   UNL     1      12.406  -7.589  10.189  1.00  0.00     0.060 A 
BRANCH  72  73
ATOM     73  S   UNL     1      14.035  -8.035   9.551  1.00  0.00     0.124 S 
ATOM     74  O   UNL     1      14.226  -7.025   8.514  1.00  0.00    -0.237 OA
ATOM     75  O   UNL     1      14.883  -7.899  10.731  1.00  0.00    -0.237 OA
ATOM     76  O   UNL     1      13.849  -9.400   9.070  1.00  0.00    -0.744 OA
ENDBRANCH  72  73
ENDBRANCH  51  65
BRANCH  52  77
ATOM     77  C   UNL     1       0.798  -4.057  14.258  1.00  0.00     0.058 A 
ATOM     78  C   UNL     1       0.580  -3.561  15.551  1.00  0.00     0.135 A 
ATOM     79  C   UNL     1      -0.306  -4.151  13.397  1.00  0.00     0.135 A 
ATOM     80  F   UNL     1       1.604  -3.459  16.412  1.00  0.00    -0.206 F 
ATOM     81  C   UNL     1      -0.688  -3.185  15.983  1.00  0.00     0.059 A 
ATOM     82  C   UNL     1      -1.580  -3.760  13.798  1.00  0.00     0.059 A 
ATOM     83  F   UNL     1      -0.146  -4.603  12.144  1.00  0.00    -0.206 F 
ATOM     84  C   UNL     1      -1.762  -3.287  15.098  1.00  0.00     0.060 A 
BRANCH  84  85
ATOM     85  S   UNL     1      -3.396  -2.748  15.649  1.00  0.00     0.124 S 
ATOM     86  O   UNL     1      -3.794  -3.854  16.511  1.00  0.00    -0.237 OA
ATOM     87  O   UNL     1      -3.094  -1.489  16.323  1.00  0.00    -0.237 OA
ATOM     88  O   UNL     1      -4.142  -2.616  14.401  1.00  0.00    -0.744 OA
ENDBRANCH  84  85
ENDBRANCH  52  77
BRANCH  64  89
ATOM     89  C   UNL     1       5.050  -9.323  15.924  1.00  0.00     0.058 A 
ATOM     90  C   UNL     1       4.216 -10.421  15.659  1.00  0.00     0.135 A 
ATOM     91  C   UNL     1       5.800  -9.339  17.111  1.00  0.00     0.135 A 
ATOM     92  F   UNL     1       3.474 -10.451  14.541  1.00  0.00    -0.206 F 
ATOM     93  C   UNL     1       4.113 -11.485  16.548  1.00  0.00     0.059 A 
ATOM     94  C   UNL     1       5.730 -10.403  18.003  1.00  0.00     0.059 A 
ATOM     95  F   UNL     1       6.619  -8.317  17.406  1.00  0.00    -0.206 F 
ATOM     96  C   UNL     1       4.874 -11.467  17.719  1.00  0.00     0.060 A 
BRANCH  96  97
ATOM     97  S   UNL     1       4.755 -12.867  18.853  1.00  0.00     0.124 S 
ATOM     98  O   UNL     1       3.476 -12.608  19.505  1.00  0.00    -0.237 OA
ATOM     99  O   UNL     1       4.784 -14.010  17.945  1.00  0.00    -0.237 OA
ATOM    100  O   UNL     1       5.935 -12.718  19.699  1.00  0.00    -0.744 OA
ENDBRANCH  96  97
ENDBRANCH  64  89
ENDBRANCH  38  39
ENDBRANCH  30  33
ENDBRANCH  28  29
ENDBRANCH  27  28
ENDBRANCH  26  27
ENDBRANCH   1  26
TORSDOF 20
