REMARK SMILES CCCC[C@@H](Sc1nc(OCCC2CCCCC2)cc(OCCC2CCCCC2)n1)C(=O)NCCCCCCNC(=O)c1ccc(-c2c3nc(c(-c4c(F)cc(S(=O)(=O)[O-])cc4F)c4ccc([nH]4)c(-c4c(F)cc(S(=O)(=O)[O-])cc4F)c4nc(c(-c5c(F)cc(S(=O)(=O)[O-])cc5F)c5ccc2[nH]5)C=C4)C=C3)cc1
REMARK SMILES IDX 35 1 34 2 33 3 31 4 32 5 5 7 4 8 3 9 2 10 1 11 6 12 7 13
REMARK SMILES IDX 8 14 30 15 9 16 20 17 19 18 10 19 11 20 12 21 13 22 14 23
REMARK SMILES IDX 18 24 15 25 17 26 16 27 21 28 22 29 23 30 24 31 25 32 29 33
REMARK SMILES IDX 26 34 28 35 27 36 36 37 37 38 38 39 39 40 40 41 41 42 42 44
REMARK SMILES IDX 43 45 44 46 108 47 45 48 107 49 46 50 47 51 48 52 101 53
REMARK SMILES IDX 49 54 106 55 100 56 102 57 50 58 105 59 99 60 98 61 51 63
REMARK SMILES IDX 85 64 64 65 84 66 65 67 68 68 83 69 103 70 66 71 67 72 82 74
REMARK SMILES IDX 104 75 69 76 52 77 53 78 62 79 54 80 55 81 61 82 63 83 56 84
REMARK SMILES IDX 57 85 58 86 59 87 60 88 86 89 87 90 96 91 88 92 89 93 95 94
REMARK SMILES IDX 97 95 90 96 91 97 92 98 93 99 94 100 70 101 71 102 80 103
REMARK SMILES IDX 72 104 73 105 79 106 81 107 74 108 75 109 76 110 77 111
REMARK SMILES IDX 78 112
REMARK H PARENT 33 6 40 43 102 62 68 73
REMARK Flexibility Score: inf
ROOT
ATOM      1  C   UNL     1       0.716   2.636   5.944  1.00  0.00     0.021 C 
ENDROOT
BRANCH   1   2
ATOM      2  C   UNL     1      -0.557   1.879   5.576  1.00  0.00     0.116 C 
BRANCH   2   3
ATOM      3  N   UNL     1      -1.276   2.575   4.516  1.00  0.00    -0.355 N 
ATOM      4  C   UNL     1      -1.502   2.202   3.216  1.00  0.00     0.233 C 
ATOM      5  O   UNL     1      -2.103   2.987   2.479  1.00  0.00    -0.274 OA
ATOM      6  H   UNL     1      -1.658   3.445   4.773  1.00  0.00     0.163 HD
BRANCH   4   7
ATOM      7  C   UNL     1      -1.011   0.829   2.700  1.00  0.00     0.144 C 
BRANCH   7   8
ATOM      8  C   UNL     1       0.539   0.888   2.688  1.00  0.00     0.025 C 
BRANCH   8   9
ATOM      9  C   UNL     1       1.399  -0.074   1.862  1.00  0.00     0.001 C 
BRANCH   9  10
ATOM     10  C   UNL     1       0.843  -0.566   0.533  1.00  0.00    -0.003 C 
ATOM     11  C   UNL     1       1.016   0.466  -0.568  1.00  0.00     0.004 C 
ENDBRANCH   9  10
ENDBRANCH   8   9
ENDBRANCH   7   8
BRANCH   7  12
ATOM     12  S   UNL     1      -2.096  -0.344   3.663  1.00  0.00    -0.073 SA
BRANCH  12  13
ATOM     13  C   UNL     1      -1.426  -1.935   3.415  1.00  0.00     0.195 A 
ATOM     14  N   UNL     1      -0.106  -2.079   3.421  1.00  0.00    -0.187 NA
ATOM     15  N   UNL     1      -2.305  -2.940   3.366  1.00  0.00    -0.187 NA
ATOM     16  C   UNL     1       0.374  -3.306   3.214  1.00  0.00     0.221 A 
ATOM     17  C   UNL     1      -1.807  -4.168   3.220  1.00  0.00     0.221 A 
ATOM     18  C   UNL     1      -0.463  -4.380   3.050  1.00  0.00     0.136 A 
BRANCH  16  19
ATOM     19  O   UNL     1       1.732  -3.354   3.335  1.00  0.00    -0.477 OA
BRANCH  19  20
ATOM     20  C   UNL     1       2.543  -4.232   2.566  1.00  0.00     0.231 C 
BRANCH  20  21
ATOM     21  C   UNL     1       3.013  -5.534   3.258  1.00  0.00     0.045 C 
BRANCH  21  22
ATOM     22  C   UNL     1       2.089  -6.087   4.341  1.00  0.00    -0.008 C 
ATOM     23  C   UNL     1       2.314  -7.553   4.723  1.00  0.00     0.004 C 
ATOM     24  C   UNL     1       2.072  -5.241   5.619  1.00  0.00     0.004 C 
ATOM     25  C   UNL     1       1.140  -8.018   5.603  1.00  0.00     0.000 C 
ATOM     26  C   UNL     1       0.854  -5.624   6.447  1.00  0.00     0.000 C 
ATOM     27  C   UNL     1       0.894  -7.105   6.810  1.00  0.00     0.000 C 
ENDBRANCH  21  22
ENDBRANCH  20  21
ENDBRANCH  19  20
ENDBRANCH  16  19
BRANCH  17  28
ATOM     28  O   UNL     1      -2.777  -5.125   3.196  1.00  0.00    -0.477 OA
BRANCH  28  29
ATOM     29  C   UNL     1      -2.447  -6.510   3.220  1.00  0.00     0.231 C 
BRANCH  29  30
ATOM     30  C   UNL     1      -2.886  -7.212   1.923  1.00  0.00     0.045 C 
BRANCH  30  31
ATOM     31  C   UNL     1      -2.099  -6.903   0.621  1.00  0.00    -0.008 C 
ATOM     32  C   UNL     1      -2.305  -5.460   0.117  1.00  0.00     0.004 C 
ATOM     33  C   UNL     1      -0.658  -7.431   0.696  1.00  0.00     0.004 C 
ATOM     34  C   UNL     1      -1.126  -4.725  -0.516  1.00  0.00     0.000 C 
ATOM     35  C   UNL     1       0.274  -6.811  -0.333  1.00  0.00     0.000 C 
ATOM     36  C   UNL     1       0.239  -5.305  -0.217  1.00  0.00     0.000 C 
ENDBRANCH  30  31
ENDBRANCH  29  30
ENDBRANCH  28  29
ENDBRANCH  17  28
ENDBRANCH  12  13
ENDBRANCH   7  12
ENDBRANCH   4   7
ENDBRANCH   2   3
ENDBRANCH   1   2
BRANCH   1  37
ATOM     37  C   UNL     1       0.435   3.932   6.706  1.00  0.00     0.002 C 
BRANCH  37  38
ATOM     38  C   UNL     1      -0.315   3.733   8.027  1.00  0.00     0.002 C 
BRANCH  38  39
ATOM     39  C   UNL     1       0.371   2.784   9.015  1.00  0.00     0.021 C 
BRANCH  39  40
ATOM     40  C   UNL     1       1.794   3.190   9.389  1.00  0.00     0.116 C 
BRANCH  40  41
ATOM     41  N   UNL     1       1.837   4.527   9.957  1.00  0.00    -0.352 N 
ATOM     42  C   UNL     1       2.359   4.955  11.149  1.00  0.00     0.251 C 
ATOM     43  H   UNL     1       1.431   5.231   9.401  1.00  0.00     0.163 HD
ATOM     44  O   UNL     1       2.090   6.077  11.565  1.00  0.00    -0.269 OA
BRANCH  42  45
ATOM     45  C   UNL     1       3.235   4.060  11.934  1.00  0.00     0.039 A 
ATOM     46  C   UNL     1       3.069   4.006  13.319  1.00  0.00     0.014 A 
ATOM     47  C   UNL     1       4.231   3.299  11.313  1.00  0.00     0.014 A 
ATOM     48  C   UNL     1       3.873   3.154  14.076  1.00  0.00     0.010 A 
ATOM     49  C   UNL     1       4.982   2.396  12.061  1.00  0.00     0.010 A 
ATOM     50  C   UNL     1       4.815   2.318  13.450  1.00  0.00    -0.014 A 
BRANCH  50  51
ATOM     51  C   UNL     1       5.607   1.349  14.249  1.00  0.00     0.031 A 
ATOM     52  C   UNL     1       7.102   1.481  14.357  1.00  0.00     0.074 A 
ATOM     53  C   UNL     1       4.970   0.328  14.855  1.00  0.00     0.049 A 
ATOM     54  N   UNL     1       7.947   0.741  15.029  1.00  0.00    -0.248 NA
ATOM     55  C   UNL     1       7.734   2.568  13.593  1.00  0.00     0.031 C 
ATOM     56  C   UNL     1       3.532   0.059  14.767  1.00  0.00     0.029 A 
ATOM     57  N   UNL     1       5.444  -0.671  15.666  1.00  0.00    -0.354 N 
ATOM     58  C   UNL     1       9.206   1.269  14.768  1.00  0.00     0.074 A 
ATOM     59  C   UNL     1       9.021   2.356  13.831  1.00  0.00     0.031 C 
ATOM     60  C   UNL     1       3.237  -1.011  15.522  1.00  0.00     0.029 A 
ATOM     61  C   UNL     1       4.465  -1.523  16.120  1.00  0.00     0.049 A 
ATOM     62  H   UNL     1       6.396  -0.770  15.900  1.00  0.00     0.167 HD
ATOM     63  C   UNL     1      10.403   0.896  15.282  1.00  0.00     0.037 A 
ATOM     64  C   UNL     1       4.547  -2.595  16.931  1.00  0.00     0.037 A 
ATOM     65  C   UNL     1      10.575  -0.179  16.227  1.00  0.00     0.049 A 
ATOM     66  C   UNL     1       5.885  -2.977  17.502  1.00  0.00     0.074 A 
ATOM     67  C   UNL     1      11.736  -0.595  16.856  1.00  0.00     0.029 A 
ATOM     68  N   UNL     1       9.559  -1.012  16.675  1.00  0.00    -0.354 N 
ATOM     69  N   UNL     1       7.055  -2.417  17.307  1.00  0.00    -0.248 NA
ATOM     70  C   UNL     1       5.911  -4.129  18.411  1.00  0.00     0.031 C 
ATOM     71  C   UNL     1      11.432  -1.711  17.644  1.00  0.00     0.029 A 
ATOM     72  C   UNL     1      10.071  -1.957  17.551  1.00  0.00     0.049 A 
ATOM     73  H   UNL     1       8.614  -0.943  16.409  1.00  0.00     0.167 HD
ATOM     74  C   UNL     1       7.955  -3.137  18.084  1.00  0.00     0.074 A 
ATOM     75  C   UNL     1       7.186  -4.156  18.772  1.00  0.00     0.031 C 
ATOM     76  C   UNL     1       9.295  -2.974  18.216  1.00  0.00     0.037 A 
BRANCH  63  77
ATOM     77  C   UNL     1      11.623   1.658  14.837  1.00  0.00     0.058 A 
ATOM     78  C   UNL     1      11.845   2.990  15.224  1.00  0.00     0.135 A 
ATOM     79  C   UNL     1      12.607   1.036  14.050  1.00  0.00     0.135 A 
ATOM     80  F   UNL     1      10.932   3.640  15.964  1.00  0.00    -0.206 F 
ATOM     81  C   UNL     1      12.981   3.687  14.825  1.00  0.00     0.059 A 
ATOM     82  C   UNL     1      13.766   1.704  13.664  1.00  0.00     0.059 A 
ATOM     83  F   UNL     1      12.449  -0.235  13.650  1.00  0.00    -0.206 F 
ATOM     84  C   UNL     1      13.938   3.034  14.045  1.00  0.00     0.060 A 
BRANCH  84  85
ATOM     85  S   UNL     1      15.413   3.948  13.547  1.00  0.00     0.124 S 
ATOM     86  O   UNL     1      14.865   4.864  12.551  1.00  0.00    -0.237 OA
ATOM     87  O   UNL     1      15.840   4.558  14.802  1.00  0.00    -0.237 OA
ATOM     88  O   UNL     1      16.296   2.910  13.025  1.00  0.00    -0.744 OA
ENDBRANCH  84  85
ENDBRANCH  63  77
BRANCH  64  89
ATOM     89  C   UNL     1       3.320  -3.364  17.270  1.00  0.00     0.058 A 
ATOM     90  C   UNL     1       2.778  -3.332  18.564  1.00  0.00     0.135 A 
ATOM     91  C   UNL     1       2.656  -4.135  16.303  1.00  0.00     0.135 A 
ATOM     92  F   UNL     1       3.378  -2.613  19.524  1.00  0.00    -0.206 F 
ATOM     93  C   UNL     1       1.634  -4.053  18.893  1.00  0.00     0.059 A 
ATOM     94  C   UNL     1       1.495  -4.841  16.600  1.00  0.00     0.059 A 
ATOM     95  F   UNL     1       3.123  -4.184  15.045  1.00  0.00    -0.206 F 
ATOM     96  C   UNL     1       0.999  -4.803  17.902  1.00  0.00     0.060 A 
BRANCH  96  97
ATOM     97  S   UNL     1      -0.510  -5.699  18.328  1.00  0.00     0.124 S 
ATOM     98  O   UNL     1       0.017  -6.798  19.128  1.00  0.00    -0.237 OA
ATOM     99  O   UNL     1      -1.273  -4.689  19.054  1.00  0.00    -0.237 OA
ATOM    100  O   UNL     1      -1.057  -6.072  17.026  1.00  0.00    -0.744 OA
ENDBRANCH  96  97
ENDBRANCH  64  89
BRANCH  76 101
ATOM    101  C   UNL     1      10.008  -3.914  19.151  1.00  0.00     0.058 A 
ATOM    102  C   UNL     1      10.174  -5.274  18.845  1.00  0.00     0.135 A 
ATOM    103  C   UNL     1      10.534  -3.448  20.367  1.00  0.00     0.135 A 
ATOM    104  F   UNL     1       9.686  -5.774  17.698  1.00  0.00    -0.206 F 
ATOM    105  C   UNL     1      10.792  -6.149  19.732  1.00  0.00     0.059 A 
ATOM    106  C   UNL     1      11.186  -4.298  21.254  1.00  0.00     0.059 A 
ATOM    107  F   UNL     1      10.418  -2.153  20.703  1.00  0.00    -0.206 F 
ATOM    108  C   UNL     1      11.290  -5.652  20.938  1.00  0.00     0.060 A 
BRANCH 108 109
ATOM    109  S   UNL     1      12.081  -6.798  22.086  1.00  0.00     0.124 S 
ATOM    110  O   UNL     1      10.928  -7.509  22.631  1.00  0.00    -0.237 OA
ATOM    111  O   UNL     1      12.947  -7.576  21.206  1.00  0.00    -0.237 OA
ATOM    112  O   UNL     1      12.775  -5.918  23.021  1.00  0.00    -0.744 OA
ENDBRANCH 108 109
ENDBRANCH  76 101
ENDBRANCH  50  51
ENDBRANCH  42  45
ENDBRANCH  40  41
ENDBRANCH  39  40
ENDBRANCH  38  39
ENDBRANCH  37  38
ENDBRANCH   1  37
TORSDOF 29
