REMARK SMILES O=C(NCCCCCCNC(=O)c1cc(F)c(F)cc1NS(=O)(=O)c1ccc2c(c1)CCC2)c1ccc(-c2c3nc(c(-c4c(F)cc(S(=O)(=O)[O-])cc4F)c4ccc([nH]4)c(-c4c(F)cc(S(=O)(=O)[O-])cc4F)c4nc(c(-c5c(F)cc(S(=O)(=O)[O-])cc5F)c5ccc2[nH]5)C=C4)C=C3)cc1
REMARK SMILES IDX 6 1 5 2 4 3 3 4 1 5 2 6 34 8 35 9 99 10 36 11 98 12 37 13
REMARK SMILES IDX 38 14 39 15 92 16 40 17 97 18 91 19 93 20 41 21 96 22 90 23
REMARK SMILES IDX 89 24 42 26 76 27 55 28 75 29 56 30 59 31 74 32 94 33 57 34
REMARK SMILES IDX 58 35 73 37 95 38 60 39 43 40 44 41 53 42 45 43 46 44 52 45
REMARK SMILES IDX 54 46 47 47 48 48 49 49 50 50 51 51 77 52 78 53 87 54 79 55
REMARK SMILES IDX 80 56 86 57 88 58 81 59 82 60 83 61 84 62 85 63 61 64 62 65
REMARK SMILES IDX 71 66 63 67 64 68 70 69 72 70 65 71 66 72 67 73 68 74 69 75
REMARK SMILES IDX 7 76 8 77 9 78 10 79 11 80 12 82 13 83 14 84 20 85 15 86
REMARK SMILES IDX 19 87 16 88 17 89 18 90 21 91 22 93 23 94 24 95 25 96 26 97
REMARK SMILES IDX 30 98 27 99 29 100 28 101 31 102 33 103 32 104
REMARK H PARENT 3 7 93 25 59 36 10 81 21 92
REMARK Flexibility Score: inf
ROOT
ATOM      1  C   UNL     1       4.124  -3.186  -2.263  1.00  0.00     0.002 C 
ENDROOT
BRANCH   1   2
ATOM      2  C   UNL     1       4.585  -2.541  -0.956  1.00  0.00     0.021 C 
BRANCH   2   3
ATOM      3  C   UNL     1       4.357  -1.038  -0.864  1.00  0.00     0.116 C 
BRANCH   3   4
ATOM      4  N   UNL     1       2.949  -0.676  -0.873  1.00  0.00    -0.352 N 
ATOM      5  O   UNL     1       1.019   0.168  -0.064  1.00  0.00    -0.269 OA
ATOM      6  C   UNL     1       2.240   0.084   0.029  1.00  0.00     0.251 C 
ATOM      7  H   UNL     1       2.428  -1.024  -1.632  1.00  0.00     0.163 HD
BRANCH   6   8
ATOM      8  C   UNL     1       2.953   0.771   1.130  1.00  0.00     0.039 A 
ATOM      9  C   UNL     1       4.141   1.460   0.886  1.00  0.00     0.014 A 
ATOM     10  C   UNL     1       2.437   0.703   2.428  1.00  0.00     0.014 A 
ATOM     11  C   UNL     1       4.900   1.925   1.954  1.00  0.00     0.010 A 
ATOM     12  C   UNL     1       3.155   1.261   3.491  1.00  0.00     0.010 A 
ATOM     13  C   UNL     1       4.415   1.837   3.270  1.00  0.00    -0.014 A 
BRANCH  13  14
ATOM     14  C   UNL     1       5.236   2.388   4.381  1.00  0.00     0.031 A 
ATOM     15  C   UNL     1       5.774   1.500   5.473  1.00  0.00     0.074 A 
ATOM     16  C   UNL     1       5.535   3.703   4.374  1.00  0.00     0.049 A 
ATOM     17  N   UNL     1       6.550   1.812   6.480  1.00  0.00    -0.248 NA
ATOM     18  C   UNL     1       5.386   0.081   5.437  1.00  0.00     0.031 C 
ATOM     19  C   UNL     1       5.060   4.668   3.378  1.00  0.00     0.029 A 
ATOM     20  N   UNL     1       6.326   4.452   5.207  1.00  0.00    -0.354 N 
ATOM     21  C   UNL     1       6.722   0.641   7.211  1.00  0.00     0.074 A 
ATOM     22  C   UNL     1       5.950  -0.385   6.543  1.00  0.00     0.031 C 
ATOM     23  C   UNL     1       5.616   5.863   3.621  1.00  0.00     0.029 A 
ATOM     24  C   UNL     1       6.434   5.768   4.824  1.00  0.00     0.049 A 
ATOM     25  H   UNL     1       6.773   4.082   6.003  1.00  0.00     0.167 HD
ATOM     26  C   UNL     1       7.460   0.441   8.331  1.00  0.00     0.037 A 
ATOM     27  C   UNL     1       7.109   6.790   5.382  1.00  0.00     0.037 A 
ATOM     28  C   UNL     1       8.245   1.464   8.976  1.00  0.00     0.049 A 
ATOM     29  C   UNL     1       7.915   6.541   6.624  1.00  0.00     0.074 A 
ATOM     30  C   UNL     1       9.064   1.349  10.086  1.00  0.00     0.029 A 
ATOM     31  N   UNL     1       8.305   2.792   8.576  1.00  0.00    -0.354 N 
ATOM     32  N   UNL     1       8.097   5.418   7.276  1.00  0.00    -0.248 NA
ATOM     33  C   UNL     1       8.606   7.698   7.207  1.00  0.00     0.031 C 
ATOM     34  C   UNL     1       9.581   2.615  10.385  1.00  0.00     0.029 A 
ATOM     35  C   UNL     1       9.127   3.510   9.430  1.00  0.00     0.049 A 
ATOM     36  H   UNL     1       7.832   3.169   7.799  1.00  0.00     0.167 HD
ATOM     37  C   UNL     1       8.943   5.728   8.334  1.00  0.00     0.074 A 
ATOM     38  C   UNL     1       9.248   7.140   8.224  1.00  0.00     0.031 C 
ATOM     39  C   UNL     1       9.425   4.915   9.307  1.00  0.00     0.037 A 
BRANCH  26  40
ATOM     40  C   UNL     1       7.440  -0.932   8.950  1.00  0.00     0.058 A 
ATOM     41  C   UNL     1       8.077  -2.030   8.350  1.00  0.00     0.135 A 
ATOM     42  C   UNL     1       6.806  -1.143  10.186  1.00  0.00     0.135 A 
ATOM     43  F   UNL     1       8.688  -1.890   7.162  1.00  0.00    -0.206 F 
ATOM     44  C   UNL     1       8.062  -3.292   8.936  1.00  0.00     0.059 A 
ATOM     45  C   UNL     1       6.801  -2.391  10.804  1.00  0.00     0.059 A 
ATOM     46  F   UNL     1       6.184  -0.130  10.808  1.00  0.00    -0.206 F 
ATOM     47  C   UNL     1       7.418  -3.463  10.163  1.00  0.00     0.060 A 
BRANCH  47  48
ATOM     48  S   UNL     1       7.400  -5.109  10.908  1.00  0.00     0.124 S 
ATOM     49  O   UNL     1       6.444  -5.804  10.051  1.00  0.00    -0.237 OA
ATOM     50  O   UNL     1       8.791  -5.528  10.773  1.00  0.00    -0.237 OA
ATOM     51  O   UNL     1       6.952  -4.860  12.274  1.00  0.00    -0.744 OA
ENDBRANCH  47  48
ENDBRANCH  26  40
BRANCH  27  52
ATOM     52  C   UNL     1       7.057   8.138   4.756  1.00  0.00     0.058 A 
ATOM     53  C   UNL     1       8.185   8.687   4.130  1.00  0.00     0.135 A 
ATOM     54  C   UNL     1       5.872   8.890   4.748  1.00  0.00     0.135 A 
ATOM     55  F   UNL     1       9.341   8.006   4.114  1.00  0.00    -0.206 F 
ATOM     56  C   UNL     1       8.146   9.940   3.529  1.00  0.00     0.059 A 
ATOM     57  C   UNL     1       5.800  10.133   4.129  1.00  0.00     0.059 A 
ATOM     58  F   UNL     1       4.760   8.400   5.318  1.00  0.00    -0.206 F 
ATOM     59  C   UNL     1       6.946  10.654   3.531  1.00  0.00     0.060 A 
BRANCH  59  60
ATOM     60  S   UNL     1       6.890  12.257   2.702  1.00  0.00     0.124 S 
ATOM     61  O   UNL     1       7.622  13.098   3.642  1.00  0.00    -0.237 OA
ATOM     62  O   UNL     1       7.564  11.973   1.439  1.00  0.00    -0.237 OA
ATOM     63  O   UNL     1       5.460  12.528   2.593  1.00  0.00    -0.744 OA
ENDBRANCH  59  60
ENDBRANCH  27  52
BRANCH  39  64
ATOM     64  C   UNL     1      10.365   5.529  10.308  1.00  0.00     0.058 A 
ATOM     65  C   UNL     1       9.919   6.425  11.292  1.00  0.00     0.135 A 
ATOM     66  C   UNL     1      11.730   5.198  10.292  1.00  0.00     0.135 A 
ATOM     67  F   UNL     1       8.625   6.780  11.346  1.00  0.00    -0.206 F 
ATOM     68  C   UNL     1      10.799   6.998  12.204  1.00  0.00     0.059 A 
ATOM     69  C   UNL     1      12.622   5.737  11.213  1.00  0.00     0.059 A 
ATOM     70  F   UNL     1      12.207   4.339   9.378  1.00  0.00    -0.206 F 
ATOM     71  C   UNL     1      12.150   6.650  12.155  1.00  0.00     0.060 A 
BRANCH  71  72
ATOM     72  S   UNL     1      13.281   7.390  13.351  1.00  0.00     0.124 S 
ATOM     73  O   UNL     1      13.428   8.741  12.818  1.00  0.00    -0.237 OA
ATOM     74  O   UNL     1      12.535   7.279  14.600  1.00  0.00    -0.237 OA
ATOM     75  O   UNL     1      14.469   6.547  13.260  1.00  0.00    -0.744 OA
ENDBRANCH  71  72
ENDBRANCH  39  64
ENDBRANCH  13  14
ENDBRANCH   6   8
ENDBRANCH   3   4
ENDBRANCH   2   3
ENDBRANCH   1   2
BRANCH   1  76
ATOM     76  C   UNL     1       4.712  -2.578  -3.539  1.00  0.00     0.002 C 
BRANCH  76  77
ATOM     77  C   UNL     1       6.241  -2.485  -3.584  1.00  0.00     0.021 C 
BRANCH  77  78
ATOM     78  C   UNL     1       6.970  -3.813  -3.389  1.00  0.00     0.116 C 
BRANCH  78  79
ATOM     79  N   UNL     1       6.699  -4.735  -4.484  1.00  0.00    -0.352 N 
ATOM     80  C   UNL     1       7.589  -5.306  -5.356  1.00  0.00     0.253 C 
ATOM     81  H   UNL     1       5.754  -4.978  -4.615  1.00  0.00     0.163 HD
ATOM     82  O   UNL     1       7.212  -5.809  -6.407  1.00  0.00    -0.269 OA
BRANCH  80  83
ATOM     83  C   UNL     1       9.027  -5.266  -5.042  1.00  0.00     0.067 A 
ATOM     84  C   UNL     1       9.443  -5.812  -3.814  1.00  0.00     0.058 A 
ATOM     85  C   UNL     1       9.938  -4.644  -5.919  1.00  0.00     0.065 A 
ATOM     86  C   UNL     1      10.761  -5.663  -3.416  1.00  0.00     0.159 A 
ATOM     87  C   UNL     1      11.240  -4.455  -5.447  1.00  0.00     0.070 A 
ATOM     88  F   UNL     1      11.151  -6.136  -2.226  1.00  0.00    -0.204 F 
ATOM     89  C   UNL     1      11.650  -4.974  -4.221  1.00  0.00     0.160 A 
ATOM     90  F   UNL     1      12.909  -4.764  -3.814  1.00  0.00    -0.204 F 
BRANCH  85  91
ATOM     91  N   UNL     1       9.500  -4.018  -7.154  1.00  0.00    -0.279 N 
ATOM     92  H   UNL     1       8.798  -3.328  -7.126  1.00  0.00     0.180 HD
BRANCH  91  93
ATOM     93  S   UNL     1      10.190  -4.462  -8.658  1.00  0.00     0.261 S 
ATOM     94  O   UNL     1       9.948  -5.884  -8.837  1.00  0.00    -0.201 OA
ATOM     95  O   UNL     1       9.718  -3.508  -9.630  1.00  0.00    -0.201 OA
BRANCH  93  96
ATOM     96  C   UNL     1      11.939  -4.225  -8.486  1.00  0.00     0.088 A 
ATOM     97  C   UNL     1      12.768  -5.359  -8.375  1.00  0.00     0.022 A 
ATOM     98  C   UNL     1      12.444  -2.926  -8.333  1.00  0.00     0.026 A 
ATOM     99  C   UNL     1      14.103  -5.213  -8.003  1.00  0.00     0.005 A 
ATOM    100  C   UNL     1      13.771  -2.802  -7.954  1.00  0.00    -0.043 A 
ATOM    101  C   UNL     1      14.580  -3.933  -7.770  1.00  0.00    -0.045 A 
ATOM    102  C   UNL     1      14.501  -1.560  -7.545  1.00  0.00     0.036 C 
ATOM    103  C   UNL     1      15.911  -3.551  -7.199  1.00  0.00     0.036 C 
ATOM    104  C   UNL     1      15.956  -2.053  -7.520  1.00  0.00     0.010 C 
ENDBRANCH  93  96
ENDBRANCH  91  93
ENDBRANCH  85  91
ENDBRANCH  80  83
ENDBRANCH  78  79
ENDBRANCH  77  78
ENDBRANCH  76  77
ENDBRANCH   1  76
TORSDOF 19
