REMARK SMILES O=C(C[C@H](NC(=O)[C@]12C[C@H]3C[C@H](C[C@H](C3)C1)C2)c1ccc(Cl)cc1Cl)NCCCCCCNC(=O)c1ccc(-c2c3nc(c(-c4c(F)cc(S(=O)(=O)[O-])cc4F)c4ccc([nH]4)c(-c4c(F)cc(S(=O)(=O)[O-])cc4F)c4nc(c(-c5c(F)cc(S(=O)(=O)[O-])cc5F)c5ccc2[nH]5)C=C4)C=C3)cc1
REMARK SMILES IDX 29 1 28 2 27 3 26 4 1 5 2 6 3 8 4 9 18 10 19 11 24 12 20 13
REMARK SMILES IDX 23 14 25 15 21 16 22 17 5 18 6 19 7 21 8 22 9 23 16 24 17 25
REMARK SMILES IDX 10 26 14 27 12 28 11 29 15 30 13 31 30 32 31 33 32 34 33 35
REMARK SMILES IDX 34 36 35 38 36 39 37 40 101 41 38 42 100 43 39 44 40 45
REMARK SMILES IDX 41 46 94 47 42 48 99 49 93 50 95 51 43 52 98 53 92 54 91 55
REMARK SMILES IDX 44 57 78 58 57 59 77 60 58 61 61 62 76 63 96 64 59 65 60 66
REMARK SMILES IDX 75 68 97 69 62 70 45 71 46 72 55 73 47 74 48 75 54 76 56 77
REMARK SMILES IDX 49 78 50 79 51 80 52 81 53 82 79 83 80 84 89 85 81 86 82 87
REMARK SMILES IDX 88 88 90 89 83 90 84 91 85 92 86 93 87 94 63 95 64 96 73 97
REMARK SMILES IDX 65 98 66 99 72 100 74 101 67 102 68 103 69 104 70 105 71 106
REMARK H PARENT 26 7 5 20 33 37 95 56 61 67
REMARK Flexibility Score: inf
ROOT
ATOM      1  C   UNL     1       8.176   4.050  -0.895  1.00  0.00     0.002 C 
ENDROOT
BRANCH   1   2
ATOM      2  C   UNL     1       9.101   3.219   0.010  1.00  0.00     0.021 C 
BRANCH   2   3
ATOM      3  C   UNL     1       8.444   2.666   1.269  1.00  0.00     0.116 C 
BRANCH   3   4
ATOM      4  N   UNL     1       7.195   2.023   0.947  1.00  0.00    -0.356 N 
ATOM      5  O   UNL     1       7.591  -0.005   1.951  1.00  0.00    -0.275 OA
ATOM      6  C   UNL     1       6.846   0.769   1.364  1.00  0.00     0.222 C 
ATOM      7  H   UNL     1       6.551   2.519   0.391  1.00  0.00     0.163 HD
BRANCH   6   8
ATOM      8  C   UNL     1       5.439   0.405   0.968  1.00  0.00     0.129 C 
BRANCH   8   9
ATOM      9  C   UNL     1       4.271   1.147   1.665  1.00  0.00     0.123 C 
BRANCH   9  10
ATOM     10  C   UNL     1       4.556   2.539   2.247  1.00  0.00    -0.006 A 
ATOM     11  C   UNL     1       4.137   3.729   1.623  1.00  0.00     0.009 A 
ATOM     12  C   UNL     1       5.283   2.668   3.459  1.00  0.00     0.047 A 
ATOM     13  C   UNL     1       4.482   4.981   2.150  1.00  0.00     0.021 A 
ATOM     14  C   UNL     1       5.670   3.917   3.953  1.00  0.00     0.041 A 
ATOM     15  Cl  UNL     1       5.734   1.297   4.419  1.00  0.00    -0.084 Cl
ATOM     16  C   UNL     1       5.275   5.069   3.288  1.00  0.00     0.042 A 
ATOM     17  Cl  UNL     1       5.779   6.607   3.864  1.00  0.00    -0.084 Cl
ENDBRANCH   9  10
BRANCH   9  18
ATOM     18  N   UNL     1       3.115   1.122   0.752  1.00  0.00    -0.348 N 
ATOM     19  C   UNL     1       2.222   0.166   0.399  1.00  0.00     0.226 C 
ATOM     20  H   UNL     1       2.957   1.984   0.304  1.00  0.00     0.164 HD
ATOM     21  O   UNL     1       1.435   0.505  -0.495  1.00  0.00    -0.274 OA
BRANCH  19  22
ATOM     22  C   UNL     1       2.203  -1.279   0.939  1.00  0.00     0.050 C 
ATOM     23  C   UNL     1       2.785  -1.501   2.349  1.00  0.00     0.020 C 
ATOM     24  C   UNL     1       2.933  -2.198  -0.073  1.00  0.00     0.020 C 
ATOM     25  C   UNL     1       0.717  -1.750   0.984  1.00  0.00     0.020 C 
ATOM     26  C   UNL     1       2.700  -2.963   2.786  1.00  0.00    -0.010 C 
ATOM     27  C   UNL     1       2.853  -3.670   0.373  1.00  0.00    -0.010 C 
ATOM     28  C   UNL     1       0.611  -3.218   1.435  1.00  0.00    -0.010 C 
ATOM     29  C   UNL     1       1.230  -3.375   2.830  1.00  0.00     0.007 C 
ATOM     30  C   UNL     1       3.479  -3.815   1.768  1.00  0.00     0.007 C 
ATOM     31  C   UNL     1       1.380  -4.107   0.443  1.00  0.00     0.007 C 
ENDBRANCH  19  22
ENDBRANCH   9  18
ENDBRANCH   8   9
ENDBRANCH   6   8
ENDBRANCH   3   4
ENDBRANCH   2   3
ENDBRANCH   1   2
BRANCH   1  32
ATOM     32  C   UNL     1       7.397   5.173  -0.205  1.00  0.00     0.002 C 
BRANCH  32  33
ATOM     33  C   UNL     1       8.238   6.171   0.585  1.00  0.00     0.021 C 
BRANCH  33  34
ATOM     34  C   UNL     1       9.392   6.771  -0.200  1.00  0.00     0.116 C 
BRANCH  34  35
ATOM     35  N   UNL     1       8.947   7.488  -1.381  1.00  0.00    -0.352 N 
ATOM     36  C   UNL     1       9.419   8.680  -1.879  1.00  0.00     0.251 C 
ATOM     37  H   UNL     1       8.215   7.069  -1.889  1.00  0.00     0.163 HD
ATOM     38  O   UNL     1       8.845   9.238  -2.800  1.00  0.00    -0.269 OA
BRANCH  36  39
ATOM     39  C   UNL     1      10.616   9.282  -1.253  1.00  0.00     0.039 A 
ATOM     40  C   UNL     1      10.586  10.632  -0.903  1.00  0.00     0.014 A 
ATOM     41  C   UNL     1      11.742   8.501  -0.975  1.00  0.00     0.014 A 
ATOM     42  C   UNL     1      11.672  11.188  -0.225  1.00  0.00     0.010 A 
ATOM     43  C   UNL     1      12.782   9.034  -0.224  1.00  0.00     0.010 A 
ATOM     44  C   UNL     1      12.764  10.387   0.146  1.00  0.00    -0.014 A 
BRANCH  44  45
ATOM     45  C   UNL     1      13.912  10.948   0.901  1.00  0.00     0.031 A 
ATOM     46  C   UNL     1      15.283  10.953   0.280  1.00  0.00     0.074 A 
ATOM     47  C   UNL     1      13.732  11.395   2.160  1.00  0.00     0.049 A 
ATOM     48  N   UNL     1      16.423  11.327   0.798  1.00  0.00    -0.248 NA
ATOM     49  C   UNL     1      15.391  10.442  -1.098  1.00  0.00     0.031 C 
ATOM     50  C   UNL     1      12.459  11.396   2.885  1.00  0.00     0.029 A 
ATOM     51  N   UNL     1      14.624  11.925   3.058  1.00  0.00    -0.354 N 
ATOM     52  C   UNL     1      17.381  11.083  -0.179  1.00  0.00     0.074 A 
ATOM     53  C   UNL     1      16.699  10.474  -1.299  1.00  0.00     0.031 C 
ATOM     54  C   UNL     1      12.648  11.923   4.106  1.00  0.00     0.029 A 
ATOM     55  C   UNL     1      14.059  12.258   4.268  1.00  0.00     0.049 A 
ATOM     56  H   UNL     1      15.578  12.055   2.856  1.00  0.00     0.167 HD
ATOM     57  C   UNL     1      18.705  11.366  -0.155  1.00  0.00     0.037 A 
ATOM     58  C   UNL     1      14.618  12.766   5.383  1.00  0.00     0.037 A 
ATOM     59  C   UNL     1      19.369  11.999   0.954  1.00  0.00     0.049 A 
ATOM     60  C   UNL     1      16.094  13.068   5.386  1.00  0.00     0.074 A 
ATOM     61  C   UNL     1      20.694  12.382   1.057  1.00  0.00     0.029 A 
ATOM     62  N   UNL     1      18.758  12.343   2.151  1.00  0.00    -0.354 N 
ATOM     63  N   UNL     1      16.974  12.890   4.429  1.00  0.00    -0.248 NA
ATOM     64  C   UNL     1      16.652  13.647   6.616  1.00  0.00     0.031 C 
ATOM     65  C   UNL     1      20.897  12.911   2.335  1.00  0.00     0.029 A 
ATOM     66  C   UNL     1      19.685  12.914   3.007  1.00  0.00     0.049 A 
ATOM     67  H   UNL     1      17.807  12.202   2.361  1.00  0.00     0.167 HD
ATOM     68  C   UNL     1      18.181  13.366   4.929  1.00  0.00     0.074 A 
ATOM     69  C   UNL     1      17.916  13.848   6.269  1.00  0.00     0.031 C 
ATOM     70  C   UNL     1      19.399  13.403   4.333  1.00  0.00     0.037 A 
BRANCH  57  71
ATOM     71  C   UNL     1      19.523  11.000  -1.364  1.00  0.00     0.058 A 
ATOM     72  C   UNL     1      19.372  11.672  -2.589  1.00  0.00     0.135 A 
ATOM     73  C   UNL     1      20.500   9.994  -1.287  1.00  0.00     0.135 A 
ATOM     74  F   UNL     1      18.442  12.630  -2.725  1.00  0.00    -0.206 F 
ATOM     75  C   UNL     1      20.142  11.342  -3.699  1.00  0.00     0.059 A 
ATOM     76  C   UNL     1      21.303   9.669  -2.377  1.00  0.00     0.059 A 
ATOM     77  F   UNL     1      20.684   9.317  -0.143  1.00  0.00    -0.206 F 
ATOM     78  C   UNL     1      21.108  10.341  -3.582  1.00  0.00     0.060 A 
BRANCH  78  79
ATOM     79  S   UNL     1      22.110   9.940  -5.029  1.00  0.00     0.124 S 
ATOM     80  O   UNL     1      21.136   9.262  -5.879  1.00  0.00    -0.237 OA
ATOM     81  O   UNL     1      22.540  11.258  -5.484  1.00  0.00    -0.237 OA
ATOM     82  O   UNL     1      23.167   9.092  -4.487  1.00  0.00    -0.744 OA
ENDBRANCH  78  79
ENDBRANCH  57  71
BRANCH  58  83
ATOM     83  C   UNL     1      13.781  13.037   6.583  1.00  0.00     0.058 A 
ATOM     84  C   UNL     1      13.526  14.351   7.006  1.00  0.00     0.135 A 
ATOM     85  C   UNL     1      13.217  11.992   7.331  1.00  0.00     0.135 A 
ATOM     86  F   UNL     1      14.046  15.386   6.328  1.00  0.00    -0.206 F 
ATOM     87  C   UNL     1      12.766  14.618   8.140  1.00  0.00     0.059 A 
ATOM     88  C   UNL     1      12.430  12.234   8.452  1.00  0.00     0.059 A 
ATOM     89  F   UNL     1      13.414  10.717   6.960  1.00  0.00    -0.206 F 
ATOM     90  C   UNL     1      12.221  13.552   8.857  1.00  0.00     0.060 A 
BRANCH  90  91
ATOM     91  S   UNL     1      11.210  13.912  10.309  1.00  0.00     0.124 S 
ATOM     92  O   UNL     1      12.217  14.354  11.266  1.00  0.00    -0.237 OA
ATOM     93  O   UNL     1      10.309  14.944   9.806  1.00  0.00    -0.237 OA
ATOM     94  O   UNL     1      10.578  12.629  10.604  1.00  0.00    -0.744 OA
ENDBRANCH  90  91
ENDBRANCH  58  83
BRANCH  70  95
ATOM     95  C   UNL     1      20.531  14.028   5.101  1.00  0.00     0.058 A 
ATOM     96  C   UNL     1      21.118  13.392   6.206  1.00  0.00     0.135 A 
ATOM     97  C   UNL     1      21.076  15.254   4.683  1.00  0.00     0.135 A 
ATOM     98  F   UNL     1      20.631  12.223   6.650  1.00  0.00    -0.206 F 
ATOM     99  C   UNL     1      22.192  13.960   6.883  1.00  0.00     0.059 A 
ATOM    100  C   UNL     1      22.169  15.824   5.327  1.00  0.00     0.059 A 
ATOM    101  F   UNL     1      20.559  15.898   3.625  1.00  0.00    -0.206 F 
ATOM    102  C   UNL     1      22.713  15.175   6.433  1.00  0.00     0.060 A 
BRANCH 102 103
ATOM    103  S   UNL     1      24.133  15.879   7.297  1.00  0.00     0.124 S 
ATOM    104  O   UNL     1      23.523  16.340   8.539  1.00  0.00    -0.237 OA
ATOM    105  O   UNL     1      25.026  14.731   7.417  1.00  0.00    -0.237 OA
ATOM    106  O   UNL     1      24.592  16.932   6.395  1.00  0.00    -0.744 OA
ENDBRANCH 102 103
ENDBRANCH  70  95
ENDBRANCH  44  45
ENDBRANCH  36  39
ENDBRANCH  34  35
ENDBRANCH  33  34
ENDBRANCH  32  33
ENDBRANCH   1  32
TORSDOF 20
