REMARK SMILES C[C@H]1[C@H](C)CC[C@@]2(C(=O)NCCCCCCNC(=O)c3ccc(-c4c5nc(c(-c6c(F)cc(S(=O)(=O)[O-])cc6F)c6ccc([nH]6)c(-c6c(F)cc(S(=O)(=O)[O-])cc6F)c6nc(c(-c7c(F)cc(S(=O)(=O)[O-])cc7F)c7ccc4[nH]7)C=C6)C=C5)cc3)CC[C@@]3(C)C(=CC[C@@H]4[C@@]5(C)CC[C@H](O)C(C)(C)[C@@H]5CC[C@]43C)[C@H]12
REMARK SMILES IDX 14 1 13 2 12 3 11 4 10 5 8 6 9 7 7 9 1 10 2 11 3 12 108 13
REMARK SMILES IDX 4 14 5 15 90 16 6 17 86 18 88 19 91 20 87 21 89 22 106 23
REMARK SMILES IDX 92 24 93 25 105 26 107 27 94 28 104 29 95 30 96 31 103 32
REMARK SMILES IDX 97 33 100 34 98 35 101 36 102 37 99 38 15 40 16 41 17 42
REMARK SMILES IDX 18 43 19 45 20 46 21 47 85 48 22 49 84 50 23 51 24 52 25 53
REMARK SMILES IDX 78 54 26 55 83 56 77 57 79 58 27 59 82 60 76 61 75 62 28 64
REMARK SMILES IDX 62 65 41 66 61 67 42 68 45 69 60 70 80 71 43 72 44 73 59 75
REMARK SMILES IDX 81 76 46 77 29 78 30 79 39 80 31 81 32 82 38 83 40 84 33 85
REMARK SMILES IDX 34 86 35 87 36 88 37 89 63 90 64 91 73 92 65 93 66 94 72 95
REMARK SMILES IDX 74 96 67 97 68 98 69 99 70 100 71 101 47 102 48 103 57 104
REMARK SMILES IDX 49 105 50 106 56 107 58 108 51 109 52 110 53 111 54 112
REMARK SMILES IDX 55 113
REMARK H PARENT 10 8 99 39 17 44 79 63 45 74
REMARK Flexibility Score: inf
ROOT
ATOM      1  C   UNL     1       0.803  -2.293  -1.723  1.00  0.00     0.002 C 
ENDROOT
BRANCH   1   2
ATOM      2  C   UNL     1       1.375  -1.745  -3.035  1.00  0.00     0.002 C 
BRANCH   2   3
ATOM      3  C   UNL     1       0.562  -0.709  -3.825  1.00  0.00     0.021 C 
BRANCH   3   4
ATOM      4  C   UNL     1       0.220   0.611  -3.127  1.00  0.00     0.116 C 
BRANCH   4   5
ATOM      5  N   UNL     1       1.339   1.520  -2.965  1.00  0.00    -0.356 N 
ATOM      6  C   UNL     1       1.425   2.785  -2.455  1.00  0.00     0.226 C 
ATOM      7  O   UNL     1       2.308   3.473  -2.989  1.00  0.00    -0.274 OA
ATOM      8  H   UNL     1       2.198   1.157  -3.282  1.00  0.00     0.163 HD
BRANCH   6   9
ATOM      9  C   UNL     1       0.569   3.366  -1.262  1.00  0.00     0.056 C 
ATOM     10  C   UNL     1       0.353   0.713   1.667  1.00  0.00     0.008 C 
ATOM     11  C   UNL     1       0.085   1.327   0.282  1.00  0.00    -0.003 C 
ATOM     12  C   UNL     1      -1.446   1.566   0.081  1.00  0.00    -0.011 C 
ATOM     13  C   UNL     1       0.846   2.663   0.099  1.00  0.00     0.034 C 
ATOM     14  C   UNL     1      -2.291   0.286   0.131  1.00  0.00     0.008 C 
ATOM     15  C   UNL     1      -1.822   2.299  -1.216  1.00  0.00     0.005 C 
ATOM     16  C   UNL     1       2.374   2.729   0.281  1.00  0.00    -0.063 C 
ATOM     17  C   UNL     1      -0.925   3.449  -1.630  1.00  0.00     0.018 C 
ATOM     18  C   UNL     1       1.000   4.871  -1.028  1.00  0.00     0.018 C 
ATOM     19  C   UNL     1       2.933   4.134   0.638  1.00  0.00    -0.006 C 
ATOM     20  C   UNL     1       3.172   1.722  -0.133  1.00  0.00    -0.027 C 
ATOM     21  C   UNL     1       2.404   5.132  -0.451  1.00  0.00     0.013 C 
ATOM     22  C   UNL     1       2.373   4.586   2.014  1.00  0.00     0.017 C 
ATOM     23  C   UNL     1       4.561   4.133   0.689  1.00  0.00    -0.020 C 
ATOM     24  C   UNL     1       4.628   1.891  -0.487  1.00  0.00     0.032 C 
ATOM     25  C   UNL     1       5.030   3.384  -0.615  1.00  0.00     0.006 C 
ATOM     26  C   UNL     1       5.144   5.569   0.768  1.00  0.00     0.008 C 
ATOM     27  C   UNL     1       5.068   3.404   1.973  1.00  0.00     0.012 C 
ATOM     28  C   UNL     1       6.479   3.673  -1.197  1.00  0.00    -0.025 C 
ATOM     29  C   UNL     1       6.637   5.640   0.440  1.00  0.00     0.005 C 
ATOM     30  C   UNL     1       7.499   2.689  -0.593  1.00  0.00     0.012 C 
ATOM     31  C   UNL     1       6.430   3.445  -2.744  1.00  0.00     0.010 C 
ATOM     32  C   UNL     1       6.849   5.191  -1.011  1.00  0.00     0.003 C 
ATOM     33  C   UNL     1       7.704   3.856  -3.482  1.00  0.00     0.033 C 
ATOM     34  C   UNL     1       8.198   5.664  -1.673  1.00  0.00    -0.006 C 
ATOM     35  C   UNL     1       8.140   5.293  -3.187  1.00  0.00     0.120 C 
ATOM     36  C   UNL     1       9.472   5.122  -0.991  1.00  0.00     0.014 C 
ATOM     37  C   UNL     1       8.319   7.214  -1.590  1.00  0.00     0.014 C 
BRANCH  35  38
ATOM     38  O   UNL     1       9.393   5.538  -3.829  1.00  0.00    -0.393 OA
ATOM     39  H   UNL     1      10.068   4.950  -3.457  1.00  0.00     0.210 HD
ENDBRANCH  35  38
ENDBRANCH   6   9
ENDBRANCH   4   5
ENDBRANCH   3   4
ENDBRANCH   2   3
ENDBRANCH   1   2
BRANCH   1  40
ATOM     40  C   UNL     1      -0.655  -2.746  -1.702  1.00  0.00     0.021 C 
BRANCH  40  41
ATOM     41  C   UNL     1      -1.130  -3.710  -2.780  1.00  0.00     0.116 C 
BRANCH  41  42
ATOM     42  N   UNL     1      -0.453  -4.989  -2.787  1.00  0.00    -0.352 N 
ATOM     43  C   UNL     1      -0.977  -6.253  -2.964  1.00  0.00     0.251 C 
ATOM     44  H   UNL     1       0.520  -4.952  -2.646  1.00  0.00     0.163 HD
ATOM     45  O   UNL     1      -0.234  -7.224  -2.904  1.00  0.00    -0.269 OA
BRANCH  43  46
ATOM     46  C   UNL     1      -2.436  -6.451  -3.180  1.00  0.00     0.039 A 
ATOM     47  C   UNL     1      -3.070  -7.499  -2.504  1.00  0.00     0.014 A 
ATOM     48  C   UNL     1      -3.182  -5.637  -4.037  1.00  0.00     0.014 A 
ATOM     49  C   UNL     1      -4.450  -7.688  -2.635  1.00  0.00     0.010 A 
ATOM     50  C   UNL     1      -4.569  -5.779  -4.109  1.00  0.00     0.010 A 
ATOM     51  C   UNL     1      -5.220  -6.808  -3.412  1.00  0.00    -0.014 A 
BRANCH  51  52
ATOM     52  C   UNL     1      -6.697  -6.963  -3.520  1.00  0.00     0.031 A 
ATOM     53  C   UNL     1      -7.330  -7.279  -4.851  1.00  0.00     0.074 A 
ATOM     54  C   UNL     1      -7.476  -6.771  -2.435  1.00  0.00     0.049 A 
ATOM     55  N   UNL     1      -8.597  -7.382  -5.161  1.00  0.00    -0.248 NA
ATOM     56  C   UNL     1      -6.418  -7.479  -5.989  1.00  0.00     0.031 C 
ATOM     57  C   UNL     1      -6.994  -6.414  -1.099  1.00  0.00     0.029 A 
ATOM     58  N   UNL     1      -8.839  -6.839  -2.285  1.00  0.00    -0.354 N 
ATOM     59  C   UNL     1      -8.635  -7.643  -6.526  1.00  0.00     0.074 A 
ATOM     60  C   UNL     1      -7.267  -7.632  -6.995  1.00  0.00     0.031 C 
ATOM     61  C   UNL     1      -8.041  -6.312  -0.264  1.00  0.00     0.029 A 
ATOM     62  C   UNL     1      -9.271  -6.564  -1.008  1.00  0.00     0.049 A 
ATOM     63  H   UNL     1      -9.451  -7.063  -3.023  1.00  0.00     0.167 HD
ATOM     64  C   UNL     1      -9.709  -7.895  -7.314  1.00  0.00     0.037 A 
ATOM     65  C   UNL     1     -10.517  -6.516  -0.494  1.00  0.00     0.037 A 
ATOM     66  C   UNL     1     -11.067  -7.943  -6.838  1.00  0.00     0.049 A 
ATOM     67  C   UNL     1     -11.692  -6.817  -1.385  1.00  0.00     0.074 A 
ATOM     68  C   UNL     1     -12.217  -8.240  -7.547  1.00  0.00     0.029 A 
ATOM     69  N   UNL     1     -11.457  -7.696  -5.530  1.00  0.00    -0.354 N 
ATOM     70  N   UNL     1     -11.702  -7.112  -2.664  1.00  0.00    -0.248 NA
ATOM     71  C   UNL     1     -13.024  -6.789  -0.765  1.00  0.00     0.031 C 
ATOM     72  C   UNL     1     -13.307  -8.143  -6.676  1.00  0.00     0.029 A 
ATOM     73  C   UNL     1     -12.831  -7.825  -5.414  1.00  0.00     0.049 A 
ATOM     74  H   UNL     1     -10.847  -7.463  -4.793  1.00  0.00     0.167 HD
ATOM     75  C   UNL     1     -13.036  -7.329  -2.993  1.00  0.00     0.074 A 
ATOM     76  C   UNL     1     -13.802  -7.144  -1.778  1.00  0.00     0.031 C 
ATOM     77  C   UNL     1     -13.577  -7.652  -4.193  1.00  0.00     0.037 A 
BRANCH  64  78
ATOM     78  C   UNL     1      -9.459  -8.157  -8.774  1.00  0.00     0.058 A 
ATOM     79  C   UNL     1      -8.862  -9.350  -9.212  1.00  0.00     0.135 A 
ATOM     80  C   UNL     1      -9.860  -7.229  -9.748  1.00  0.00     0.135 A 
ATOM     81  F   UNL     1      -8.445 -10.264  -8.322  1.00  0.00    -0.206 F 
ATOM     82  C   UNL     1      -8.648  -9.602 -10.563  1.00  0.00     0.059 A 
ATOM     83  C   UNL     1      -9.681  -7.473 -11.107  1.00  0.00     0.059 A 
ATOM     84  F   UNL     1     -10.436  -6.072  -9.384  1.00  0.00    -0.206 F 
ATOM     85  C   UNL     1      -9.062  -8.658 -11.504  1.00  0.00     0.060 A 
BRANCH  85  86
ATOM     86  S   UNL     1      -8.790  -9.008 -13.254  1.00  0.00     0.124 S 
ATOM     87  O   UNL     1      -7.349  -8.800 -13.371  1.00  0.00    -0.237 OA
ATOM     88  O   UNL     1      -9.242 -10.390 -13.371  1.00  0.00    -0.237 OA
ATOM     89  O   UNL     1      -9.623  -8.019 -13.932  1.00  0.00    -0.744 OA
ENDBRANCH  85  86
ENDBRANCH  64  78
BRANCH  65  90
ATOM     90  C   UNL     1     -10.721  -6.186   0.942  1.00  0.00     0.058 A 
ATOM     91  C   UNL     1     -11.150  -7.162   1.855  1.00  0.00     0.135 A 
ATOM     92  C   UNL     1     -10.498  -4.889   1.431  1.00  0.00     0.135 A 
ATOM     93  F   UNL     1     -11.383  -8.415   1.435  1.00  0.00    -0.206 F 
ATOM     94  C   UNL     1     -11.374  -6.861   3.194  1.00  0.00     0.059 A 
ATOM     95  C   UNL     1     -10.691  -4.569   2.771  1.00  0.00     0.059 A 
ATOM     96  F   UNL     1     -10.071  -3.923   0.603  1.00  0.00    -0.206 F 
ATOM     97  C   UNL     1     -11.142  -5.560   3.643  1.00  0.00     0.060 A 
BRANCH  97  98
ATOM     98  S   UNL     1     -11.402  -5.184   5.391  1.00  0.00     0.124 S 
ATOM     99  O   UNL     1     -12.857  -5.129   5.466  1.00  0.00    -0.237 OA
ATOM    100  O   UNL     1     -10.770  -6.324   6.048  1.00  0.00    -0.237 OA
ATOM    101  O   UNL     1     -10.710  -3.910   5.564  1.00  0.00    -0.744 OA
ENDBRANCH  97  98
ENDBRANCH  65  90
BRANCH  77 102
ATOM    102  C   UNL     1     -15.064  -7.862  -4.249  1.00  0.00     0.058 A 
ATOM    103  C   UNL     1     -15.962  -6.786  -4.194  1.00  0.00     0.135 A 
ATOM    104  C   UNL     1     -15.593  -9.153  -4.414  1.00  0.00     0.135 A 
ATOM    105  F   UNL     1     -15.508  -5.534  -4.032  1.00  0.00    -0.206 F 
ATOM    106  C   UNL     1     -17.337  -6.983  -4.281  1.00  0.00     0.059 A 
ATOM    107  C   UNL     1     -16.962  -9.371  -4.527  1.00  0.00     0.059 A 
ATOM    108  F   UNL     1     -14.774 -10.215  -4.482  1.00  0.00    -0.206 F 
ATOM    109  C   UNL     1     -17.827  -8.280  -4.449  1.00  0.00     0.060 A 
BRANCH 109 110
ATOM    110  S   UNL     1     -19.610  -8.520  -4.598  1.00  0.00     0.124 S 
ATOM    111  O   UNL     1     -20.045  -8.356  -3.214  1.00  0.00    -0.237 OA
ATOM    112  O   UNL     1     -19.995  -7.452  -5.514  1.00  0.00    -0.237 OA
ATOM    113  O   UNL     1     -19.727  -9.872  -5.137  1.00  0.00    -0.744 OA
ENDBRANCH 109 110
ENDBRANCH  77 102
ENDBRANCH  51  52
ENDBRANCH  43  46
ENDBRANCH  41  42
ENDBRANCH  40  41
ENDBRANCH   1  40
TORSDOF 17
