REMARK SMILES CCOc1cc(OCC)cc(-c2ccc([C@@H](C)C(=O)NCCCCCCNC(=O)c3ccc(-c4c5nc(c(-c6c(F)cc(S(=O)(=O)[O-])cc6F)c6ccc([nH]6)c(-c6c(F)cc(S(=O)(=O)[O-])cc6F)c6nc(c(-c7c(F)cc(S(=O)(=O)[O-])cc7F)c7ccc4[nH]7)C=C6)C=C5)cc3)cc2F)c1
REMARK SMILES IDX 23 1 22 2 21 3 20 4 18 5 19 6 16 8 17 9 15 10 12 11 13 12
REMARK SMILES IDX 97 13 14 14 96 15 98 16 11 17 4 18 5 19 99 20 6 21 10 22
REMARK SMILES IDX 3 23 2 24 1 25 7 26 8 27 9 28 24 29 25 30 26 31 27 32 28 33
REMARK SMILES IDX 29 35 30 36 31 37 95 38 32 39 94 40 33 41 34 42 35 43 88 44
REMARK SMILES IDX 36 45 93 46 87 47 89 48 37 49 92 50 86 51 85 52 38 54 72 55
REMARK SMILES IDX 51 56 71 57 52 58 55 59 70 60 90 61 53 62 54 63 69 65 91 66
REMARK SMILES IDX 56 67 39 68 40 69 49 70 41 71 42 72 48 73 50 74 43 75 44 76
REMARK SMILES IDX 45 77 46 78 47 79 73 80 74 81 83 82 75 83 76 84 82 85 84 86
REMARK SMILES IDX 77 87 78 88 79 89 80 90 81 91 57 92 58 93 67 94 59 95 60 96
REMARK SMILES IDX 66 97 68 98 61 99 62 100 63 101 64 102 65 103
REMARK H PARENT 20 7 27 34 89 53 55 64
REMARK Flexibility Score: inf
ROOT
ATOM      1  C   UNL     1       8.584  -2.756  -2.229  1.00  0.00     0.002 C 
ENDROOT
BRANCH   1   2
ATOM      2  C   UNL     1       8.464  -1.306  -1.748  1.00  0.00     0.021 C 
BRANCH   2   3
ATOM      3  C   UNL     1       9.282  -0.310  -2.573  1.00  0.00     0.116 C 
BRANCH   3   4
ATOM      4  N   UNL     1       8.534   0.192  -3.707  1.00  0.00    -0.356 N 
ATOM      5  C   UNL     1       7.909   1.380  -3.928  1.00  0.00     0.227 C 
ATOM      6  O   UNL     1       7.275   1.480  -4.986  1.00  0.00    -0.274 OA
ATOM      7  H   UNL     1       8.464  -0.443  -4.455  1.00  0.00     0.163 HD
BRANCH   5   8
ATOM      8  C   UNL     1       7.956   2.568  -2.954  1.00  0.00     0.105 C 
ATOM      9  C   UNL     1       9.361   3.102  -2.675  1.00  0.00     0.023 C 
BRANCH   8  10
ATOM     10  C   UNL     1       7.070   2.383  -1.735  1.00  0.00    -0.033 A 
ATOM     11  C   UNL     1       5.297   1.922   0.460  1.00  0.00     0.018 A 
ATOM     12  C   UNL     1       6.641   1.513   0.493  1.00  0.00     0.012 A 
ATOM     13  C   UNL     1       4.876   2.594  -0.695  1.00  0.00     0.131 A 
ATOM     14  C   UNL     1       7.517   1.774  -0.562  1.00  0.00     0.005 A 
ATOM     15  C   UNL     1       5.733   2.804  -1.780  1.00  0.00     0.044 A 
ATOM     16  F   UNL     1       3.623   3.063  -0.798  1.00  0.00    -0.206 F 
BRANCH  11  17
ATOM     17  C   UNL     1       4.402   1.612   1.595  1.00  0.00    -0.008 A 
ATOM     18  C   UNL     1       2.255   0.885   2.482  1.00  0.00     0.123 A 
ATOM     19  C   UNL     1       2.780   0.850   3.773  1.00  0.00     0.092 A 
ATOM     20  C   UNL     1       3.055   1.278   1.409  1.00  0.00     0.055 A 
ATOM     21  C   UNL     1       4.110   1.207   3.997  1.00  0.00     0.123 A 
ATOM     22  C   UNL     1       4.898   1.597   2.913  1.00  0.00     0.055 A 
BRANCH  18  23
ATOM     23  O   UNL     1       0.917   0.649   2.315  1.00  0.00    -0.494 OA
BRANCH  23  24
ATOM     24  C   UNL     1       0.623  -0.531   1.557  1.00  0.00     0.226 C 
ATOM     25  C   UNL     1       0.502  -0.248   0.066  1.00  0.00     0.049 C 
ENDBRANCH  23  24
ENDBRANCH  18  23
BRANCH  21  26
ATOM     26  O   UNL     1       4.544   1.117   5.292  1.00  0.00    -0.494 OA
BRANCH  26  27
ATOM     27  C   UNL     1       5.809   1.698   5.626  1.00  0.00     0.226 C 
ATOM     28  C   UNL     1       6.958   0.724   5.408  1.00  0.00     0.049 C 
ENDBRANCH  26  27
ENDBRANCH  21  26
ENDBRANCH  11  17
ENDBRANCH   8  10
ENDBRANCH   5   8
ENDBRANCH   3   4
ENDBRANCH   2   3
ENDBRANCH   1   2
BRANCH   1  29
ATOM     29  C   UNL     1       9.994  -3.354  -2.146  1.00  0.00     0.002 C 
BRANCH  29  30
ATOM     30  C   UNL     1      10.654  -3.300  -0.764  1.00  0.00     0.021 C 
BRANCH  30  31
ATOM     31  C   UNL     1       9.901  -4.050   0.333  1.00  0.00     0.116 C 
BRANCH  31  32
ATOM     32  N   UNL     1       9.802  -5.471   0.042  1.00  0.00    -0.352 N 
ATOM     33  C   UNL     1      10.267  -6.548   0.755  1.00  0.00     0.251 C 
ATOM     34  H   UNL     1       9.329  -5.695  -0.793  1.00  0.00     0.163 HD
ATOM     35  O   UNL     1      10.306  -7.654   0.226  1.00  0.00    -0.269 OA
BRANCH  33  36
ATOM     36  C   UNL     1      10.721  -6.378   2.152  1.00  0.00     0.039 A 
ATOM     37  C   UNL     1      11.871  -7.049   2.576  1.00  0.00     0.014 A 
ATOM     38  C   UNL     1       9.993  -5.597   3.056  1.00  0.00     0.014 A 
ATOM     39  C   UNL     1      12.315  -6.902   3.893  1.00  0.00     0.010 A 
ATOM     40  C   UNL     1      10.474  -5.397   4.348  1.00  0.00     0.010 A 
ATOM     41  C   UNL     1      11.634  -6.056   4.783  1.00  0.00    -0.014 A 
BRANCH  41  42
ATOM     42  C   UNL     1      12.114  -5.859   6.175  1.00  0.00     0.031 A 
ATOM     43  C   UNL     1      11.275  -6.314   7.338  1.00  0.00     0.074 A 
ATOM     44  C   UNL     1      13.280  -5.218   6.391  1.00  0.00     0.049 A 
ATOM     45  N   UNL     1      11.499  -6.181   8.620  1.00  0.00    -0.248 NA
ATOM     46  C   UNL     1      10.002  -6.980   7.019  1.00  0.00     0.031 C 
ATOM     47  C   UNL     1      14.156  -4.683   5.347  1.00  0.00     0.029 A 
ATOM     48  N   UNL     1      13.923  -4.897   7.560  1.00  0.00    -0.354 N 
ATOM     49  C   UNL     1      10.393  -6.731   9.258  1.00  0.00     0.074 A 
ATOM     50  C   UNL     1       9.476  -7.153   8.222  1.00  0.00     0.031 C 
ATOM     51  C   UNL     1      15.230  -4.117   5.921  1.00  0.00     0.029 A 
ATOM     52  C   UNL     1      15.105  -4.220   7.372  1.00  0.00     0.049 A 
ATOM     53  H   UNL     1      13.572  -5.129   8.449  1.00  0.00     0.167 HD
ATOM     54  C   UNL     1      10.172  -6.890  10.586  1.00  0.00     0.037 A 
ATOM     55  C   UNL     1      15.986  -3.731   8.266  1.00  0.00     0.037 A 
ATOM     56  C   UNL     1      11.104  -6.494  11.610  1.00  0.00     0.049 A 
ATOM     57  C   UNL     1      15.729  -3.937   9.734  1.00  0.00     0.074 A 
ATOM     58  C   UNL     1      11.005  -6.672  12.979  1.00  0.00     0.029 A 
ATOM     59  N   UNL     1      12.305  -5.839  11.378  1.00  0.00    -0.354 N 
ATOM     60  N   UNL     1      14.710  -4.521  10.318  1.00  0.00    -0.248 NA
ATOM     61  C   UNL     1      16.745  -3.427  10.665  1.00  0.00     0.031 C 
ATOM     62  C   UNL     1      12.126  -6.087  13.578  1.00  0.00     0.029 A 
ATOM     63  C   UNL     1      12.948  -5.588  12.580  1.00  0.00     0.049 A 
ATOM     64  H   UNL     1      12.650  -5.590  10.491  1.00  0.00     0.167 HD
ATOM     65  C   UNL     1      14.974  -4.471  11.682  1.00  0.00     0.074 A 
ATOM     66  C   UNL     1      16.254  -3.811  11.835  1.00  0.00     0.031 C 
ATOM     67  C   UNL     1      14.224  -4.931  12.715  1.00  0.00     0.037 A 
BRANCH  54  68
ATOM     68  C   UNL     1       8.873  -7.522  11.006  1.00  0.00     0.058 A 
ATOM     69  C   UNL     1       8.607  -8.883  10.780  1.00  0.00     0.135 A 
ATOM     70  C   UNL     1       7.892  -6.766  11.669  1.00  0.00     0.135 A 
ATOM     71  F   UNL     1       9.503  -9.649  10.139  1.00  0.00    -0.206 F 
ATOM     72  C   UNL     1       7.403  -9.463  11.166  1.00  0.00     0.059 A 
ATOM     73  C   UNL     1       6.692  -7.333  12.090  1.00  0.00     0.059 A 
ATOM     74  F   UNL     1       8.093  -5.462  11.912  1.00  0.00    -0.206 F 
ATOM     75  C   UNL     1       6.450  -8.679  11.819  1.00  0.00     0.060 A 
BRANCH  75  76
ATOM     76  S   UNL     1       4.893  -9.448  12.312  1.00  0.00     0.124 S 
ATOM     77  O   UNL     1       4.215  -9.581  11.027  1.00  0.00    -0.237 OA
ATOM     78  O   UNL     1       5.340 -10.695  12.925  1.00  0.00    -0.237 OA
ATOM     79  O   UNL     1       4.310  -8.475  13.231  1.00  0.00    -0.744 OA
ENDBRANCH  75  76
ENDBRANCH  54  68
BRANCH  55  80
ATOM     80  C   UNL     1      17.205  -3.024   7.792  1.00  0.00     0.058 A 
ATOM     81  C   UNL     1      18.471  -3.616   7.901  1.00  0.00     0.135 A 
ATOM     82  C   UNL     1      17.125  -1.755   7.198  1.00  0.00     0.135 A 
ATOM     83  F   UNL     1      18.599  -4.827   8.466  1.00  0.00    -0.206 F 
ATOM     84  C   UNL     1      19.619  -2.972   7.449  1.00  0.00     0.059 A 
ATOM     85  C   UNL     1      18.255  -1.101   6.717  1.00  0.00     0.059 A 
ATOM     86  F   UNL     1      15.934  -1.153   7.054  1.00  0.00    -0.206 F 
ATOM     87  C   UNL     1      19.499  -1.715   6.854  1.00  0.00     0.060 A 
BRANCH  87  88
ATOM     88  S   UNL     1      20.986  -0.912   6.216  1.00  0.00     0.124 S 
ATOM     89  O   UNL     1      21.641  -0.487   7.448  1.00  0.00    -0.237 OA
ATOM     90  O   UNL     1      21.634  -2.000   5.490  1.00  0.00    -0.237 OA
ATOM     91  O   UNL     1      20.454   0.160   5.380  1.00  0.00    -0.744 OA
ENDBRANCH  87  88
ENDBRANCH  55  80
BRANCH  67  92
ATOM     92  C   UNL     1      14.782  -4.765  14.101  1.00  0.00     0.058 A 
ATOM     93  C   UNL     1      14.825  -3.513  14.733  1.00  0.00     0.135 A 
ATOM     94  C   UNL     1      15.234  -5.881  14.823  1.00  0.00     0.135 A 
ATOM     95  F   UNL     1      14.411  -2.413  14.084  1.00  0.00    -0.206 F 
ATOM     96  C   UNL     1      15.321  -3.368  16.025  1.00  0.00     0.059 A 
ATOM     97  C   UNL     1      15.708  -5.764  16.126  1.00  0.00     0.059 A 
ATOM     98  F   UNL     1      15.204  -7.103  14.269  1.00  0.00    -0.206 F 
ATOM     99  C   UNL     1      15.760  -4.501  16.714  1.00  0.00     0.060 A 
BRANCH  99 100
ATOM    100  S   UNL     1      16.374  -4.305  18.400  1.00  0.00     0.124 S 
ATOM    101  O   UNL     1      17.686  -3.711  18.167  1.00  0.00    -0.237 OA
ATOM    102  O   UNL     1      15.375  -3.424  18.997  1.00  0.00    -0.237 OA
ATOM    103  O   UNL     1      16.385  -5.670  18.918  1.00  0.00    -0.744 OA
ENDBRANCH  99 100
ENDBRANCH  67  92
ENDBRANCH  41  42
ENDBRANCH  33  36
ENDBRANCH  31  32
ENDBRANCH  30  31
ENDBRANCH  29  30
ENDBRANCH   1  29
TORSDOF 22
