REMARK SMILES O=C(NCCCCCCNC(=O)c1nnn(-c2cccc(OC(F)(F)F)c2)c1-c1ccncc1)c1ccc(-c2c3nc(c(-c4c(F)cc(S(=O)(=O)[O-])cc4F)c4ccc([nH]4)c(-c4c(F)cc(S(=O)(=O)[O-])cc4F)c4nc(c(-c5c(F)cc(S(=O)(=O)[O-])cc5F)c5ccc2[nH]5)C=C4)C=C3)cc1
REMARK SMILES IDX 6 1 5 2 4 3 3 4 1 5 2 6 35 8 36 9 100 10 37 11 99 12 38 13
REMARK SMILES IDX 39 14 40 15 93 16 41 17 98 18 92 19 94 20 42 21 97 22 91 23
REMARK SMILES IDX 90 24 43 26 77 27 56 28 76 29 57 30 60 31 75 32 95 33 58 34
REMARK SMILES IDX 59 35 74 37 96 38 61 39 44 40 45 41 54 42 46 43 47 44 53 45
REMARK SMILES IDX 55 46 48 47 49 48 50 49 51 50 52 51 78 52 79 53 88 54 80 55
REMARK SMILES IDX 81 56 87 57 89 58 82 59 83 60 84 61 85 62 86 63 62 64 63 65
REMARK SMILES IDX 72 66 64 67 65 68 71 69 73 70 66 71 67 72 68 73 69 74 70 75
REMARK SMILES IDX 7 76 8 77 9 78 10 79 11 80 12 82 13 83 14 84 28 85 15 86
REMARK SMILES IDX 16 87 29 88 30 89 34 90 31 91 33 92 32 93 17 94 18 95 27 96
REMARK SMILES IDX 19 97 21 98 20 99 22 100 23 101 24 102 25 103 26 104
REMARK H PARENT 3 7 94 25 60 36 10 81
REMARK Flexibility Score: inf
ROOT
ATOM      1  C   UNL     1       4.296   3.140   1.782  1.00  0.00     0.002 C 
ENDROOT
BRANCH   1   2
ATOM      2  C   UNL     1       4.869   2.260   0.663  1.00  0.00     0.021 C 
BRANCH   2   3
ATOM      3  C   UNL     1       4.706   0.756   0.875  1.00  0.00     0.116 C 
BRANCH   3   4
ATOM      4  N   UNL     1       3.333   0.318   0.998  1.00  0.00    -0.352 N 
ATOM      5  O   UNL     1       1.264  -0.341   0.605  1.00  0.00    -0.269 OA
ATOM      6  C   UNL     1       2.316   0.079   0.115  1.00  0.00     0.251 C 
ATOM      7  H   UNL     1       3.069   0.154   1.932  1.00  0.00     0.163 HD
BRANCH   6   8
ATOM      8  C   UNL     1       2.381   0.319  -1.353  1.00  0.00     0.039 A 
ATOM      9  C   UNL     1       3.549   0.449  -2.104  1.00  0.00     0.014 A 
ATOM     10  C   UNL     1       1.145   0.374  -2.024  1.00  0.00     0.014 A 
ATOM     11  C   UNL     1       3.488   0.675  -3.479  1.00  0.00     0.010 A 
ATOM     12  C   UNL     1       1.079   0.577  -3.401  1.00  0.00     0.010 A 
ATOM     13  C   UNL     1       2.255   0.743  -4.130  1.00  0.00    -0.014 A 
BRANCH  13  14
ATOM     14  C   UNL     1       2.255   0.849  -5.591  1.00  0.00     0.031 A 
ATOM     15  C   UNL     1       2.826  -0.317  -6.337  1.00  0.00     0.074 A 
ATOM     16  C   UNL     1       1.623   1.824  -6.273  1.00  0.00     0.049 A 
ATOM     17  N   UNL     1       3.775  -0.338  -7.219  1.00  0.00    -0.248 NA
ATOM     18  C   UNL     1       2.283  -1.647  -6.014  1.00  0.00     0.031 C 
ATOM     19  C   UNL     1       0.726   2.854  -5.744  1.00  0.00     0.029 A 
ATOM     20  N   UNL     1       1.562   2.019  -7.623  1.00  0.00    -0.354 N 
ATOM     21  C   UNL     1       3.831  -1.648  -7.696  1.00  0.00     0.074 A 
ATOM     22  C   UNL     1       2.968  -2.430  -6.847  1.00  0.00     0.031 C 
ATOM     23  C   UNL     1       0.050   3.418  -6.768  1.00  0.00     0.029 A 
ATOM     24  C   UNL     1       0.553   2.882  -8.023  1.00  0.00     0.049 A 
ATOM     25  H   UNL     1       2.179   1.586  -8.255  1.00  0.00     0.167 HD
ATOM     26  C   UNL     1       4.450  -1.993  -8.860  1.00  0.00     0.037 A 
ATOM     27  C   UNL     1       0.108   3.082  -9.288  1.00  0.00     0.037 A 
ATOM     28  C   UNL     1       5.376  -0.991  -9.307  1.00  0.00     0.049 A 
ATOM     29  C   UNL     1       1.162   2.618 -10.224  1.00  0.00     0.074 A 
ATOM     30  C   UNL     1       6.511  -0.409  -8.777  1.00  0.00     0.029 A 
ATOM     31  N   UNL     1       5.024  -0.199 -10.372  1.00  0.00    -0.354 N 
ATOM     32  N   UNL     1       2.322   3.192 -10.381  1.00  0.00    -0.248 NA
ATOM     33  C   UNL     1       1.063   1.265 -10.751  1.00  0.00     0.031 C 
ATOM     34  C   UNL     1       6.485   0.942  -9.230  1.00  0.00     0.029 A 
ATOM     35  C   UNL     1       5.347   1.089 -10.025  1.00  0.00     0.049 A 
ATOM     36  H   UNL     1       4.620  -0.497 -11.219  1.00  0.00     0.167 HD
ATOM     37  C   UNL     1       3.202   2.156 -10.652  1.00  0.00     0.074 A 
ATOM     38  C   UNL     1       2.354   1.017 -10.982  1.00  0.00     0.031 C 
ATOM     39  C   UNL     1       4.525   2.240 -10.326  1.00  0.00     0.037 A 
BRANCH  26  40
ATOM     40  C   UNL     1       4.008  -3.137  -9.740  1.00  0.00     0.058 A 
ATOM     41  C   UNL     1       4.859  -3.639 -10.744  1.00  0.00     0.135 A 
ATOM     42  C   UNL     1       2.668  -3.584  -9.794  1.00  0.00     0.135 A 
ATOM     43  F   UNL     1       6.144  -3.255 -10.805  1.00  0.00    -0.206 F 
ATOM     44  C   UNL     1       4.404  -4.495 -11.751  1.00  0.00     0.059 A 
ATOM     45  C   UNL     1       2.206  -4.477 -10.755  1.00  0.00     0.059 A 
ATOM     46  F   UNL     1       1.731  -3.100  -8.967  1.00  0.00    -0.206 F 
ATOM     47  C   UNL     1       3.071  -4.897 -11.754  1.00  0.00     0.060 A 
BRANCH  47  48
ATOM     48  S   UNL     1       2.454  -5.920 -13.104  1.00  0.00     0.124 S 
ATOM     49  O   UNL     1       2.405  -4.956 -14.197  1.00  0.00    -0.237 OA
ATOM     50  O   UNL     1       3.484  -6.949 -13.206  1.00  0.00    -0.237 OA
ATOM     51  O   UNL     1       1.162  -6.384 -12.609  1.00  0.00    -0.744 OA
ENDBRANCH  47  48
ENDBRANCH  26  40
BRANCH  27  52
ATOM     52  C   UNL     1      -1.282   3.361  -9.731  1.00  0.00     0.058 A 
ATOM     53  C   UNL     1      -1.554   3.824 -11.030  1.00  0.00     0.135 A 
ATOM     54  C   UNL     1      -2.393   2.923  -8.981  1.00  0.00     0.135 A 
ATOM     55  F   UNL     1      -0.554   4.232 -11.825  1.00  0.00    -0.206 F 
ATOM     56  C   UNL     1      -2.845   3.814 -11.568  1.00  0.00     0.059 A 
ATOM     57  C   UNL     1      -3.689   2.920  -9.489  1.00  0.00     0.059 A 
ATOM     58  F   UNL     1      -2.239   2.392  -7.759  1.00  0.00    -0.206 F 
ATOM     59  C   UNL     1      -3.905   3.343 -10.794  1.00  0.00     0.060 A 
BRANCH  59  60
ATOM     60  S   UNL     1      -5.541   3.163 -11.540  1.00  0.00     0.124 S 
ATOM     61  O   UNL     1      -5.953   4.554 -11.700  1.00  0.00    -0.237 OA
ATOM     62  O   UNL     1      -5.240   2.442 -12.772  1.00  0.00    -0.237 OA
ATOM     63  O   UNL     1      -6.287   2.401 -10.542  1.00  0.00    -0.744 OA
ENDBRANCH  59  60
ENDBRANCH  27  52
BRANCH  39  64
ATOM     64  C   UNL     1       5.092   3.591  -9.973  1.00  0.00     0.058 A 
ATOM     65  C   UNL     1       4.679   4.353  -8.866  1.00  0.00     0.135 A 
ATOM     66  C   UNL     1       6.200   4.061 -10.695  1.00  0.00     0.135 A 
ATOM     67  F   UNL     1       3.702   3.920  -8.057  1.00  0.00    -0.206 F 
ATOM     68  C   UNL     1       5.311   5.548  -8.519  1.00  0.00     0.059 A 
ATOM     69  C   UNL     1       6.867   5.234 -10.347  1.00  0.00     0.059 A 
ATOM     70  F   UNL     1       6.686   3.346 -11.724  1.00  0.00    -0.206 F 
ATOM     71  C   UNL     1       6.408   5.980  -9.264  1.00  0.00     0.060 A 
BRANCH  71  72
ATOM     72  S   UNL     1       7.286   7.472  -8.750  1.00  0.00     0.124 S 
ATOM     73  O   UNL     1       6.368   8.527  -9.166  1.00  0.00    -0.237 OA
ATOM     74  O   UNL     1       7.422   7.282  -7.308  1.00  0.00    -0.237 OA
ATOM     75  O   UNL     1       8.540   7.404  -9.496  1.00  0.00    -0.744 OA
ENDBRANCH  71  72
ENDBRANCH  39  64
ENDBRANCH  13  14
ENDBRANCH   6   8
ENDBRANCH   3   4
ENDBRANCH   2   3
ENDBRANCH   1   2
BRANCH   1  76
ATOM     76  C   UNL     1       4.713   2.780   3.215  1.00  0.00     0.002 C 
BRANCH  76  77
ATOM     77  C   UNL     1       6.217   2.635   3.463  1.00  0.00     0.021 C 
BRANCH  77  78
ATOM     78  C   UNL     1       7.037   3.886   3.184  1.00  0.00     0.116 C 
BRANCH  78  79
ATOM     79  N   UNL     1       6.846   4.920   4.184  1.00  0.00    -0.351 N 
ATOM     80  C   UNL     1       7.802   5.708   4.791  1.00  0.00     0.274 C 
ATOM     81  H   UNL     1       5.916   5.079   4.464  1.00  0.00     0.163 HD
ATOM     82  O   UNL     1       7.461   6.487   5.671  1.00  0.00    -0.267 OA
BRANCH  80  83
ATOM     83  C   UNL     1       9.188   5.581   4.361  1.00  0.00     0.178 A 
ATOM     84  N   UNL     1      10.176   5.141   5.207  1.00  0.00    -0.124 NA
ATOM     85  C   UNL     1       9.722   5.784   3.095  1.00  0.00     0.108 A 
ATOM     86  N   UNL     1      11.289   4.991   4.502  1.00  0.00    -0.061 NA
ATOM     87  N   UNL     1      11.069   5.489   3.265  1.00  0.00    -0.212 N 
BRANCH  85  88
ATOM     88  C   UNL     1       9.069   6.028   1.807  1.00  0.00     0.006 A 
ATOM     89  C   UNL     1       8.263   7.145   1.606  1.00  0.00     0.030 A 
ATOM     90  C   UNL     1       9.208   5.095   0.769  1.00  0.00     0.030 A 
ATOM     91  C   UNL     1       7.631   7.279   0.381  1.00  0.00     0.111 A 
ATOM     92  C   UNL     1       8.534   5.316  -0.417  1.00  0.00     0.111 A 
ATOM     93  N   UNL     1       7.741   6.382  -0.621  1.00  0.00    -0.265 NA
ENDBRANCH  85  88
BRANCH  87  94
ATOM     94  C   UNL     1      12.102   5.590   2.306  1.00  0.00     0.071 A 
ATOM     95  C   UNL     1      13.043   4.565   2.191  1.00  0.00     0.029 A 
ATOM     96  C   UNL     1      12.111   6.677   1.417  1.00  0.00     0.075 A 
ATOM     97  C   UNL     1      13.931   4.585   1.117  1.00  0.00     0.006 A 
ATOM     98  C   UNL     1      13.020   6.714   0.364  1.00  0.00     0.131 A 
ATOM     99  C   UNL     1      13.910   5.647   0.206  1.00  0.00     0.047 A 
BRANCH  98 100
ATOM    100  O   UNL     1      13.124   7.702  -0.572  1.00  0.00    -0.406 OA
BRANCH 100 101
ATOM    101  C   UNL     1      12.335   8.870  -0.390  1.00  0.00     0.573 C 
ATOM    102  F   UNL     1      11.018   8.585  -0.436  1.00  0.00    -0.132 F 
ATOM    103  F   UNL     1      12.619   9.458   0.795  1.00  0.00    -0.132 F 
ATOM    104  F   UNL     1      12.620   9.752  -1.370  1.00  0.00    -0.132 F 
ENDBRANCH 100 101
ENDBRANCH  98 100
ENDBRANCH  87  94
ENDBRANCH  80  83
ENDBRANCH  78  79
ENDBRANCH  77  78
ENDBRANCH  76  77
ENDBRANCH   1  76
TORSDOF 20
