REMARK SMILES O=C(COc1cccc(NC(=O)c2ccc3c(c2)C(=O)N(c2ccccc2-c2ccccc2)C3=O)c1)NCCCCCCNC(=O)c1ccc(-c2c3nc(c(-c4c(F)cc(S(=O)(=O)[O-])cc4F)c4ccc([nH]4)c(-c4c(F)cc(S(=O)(=O)[O-])cc4F)c4nc(c(-c5c(F)cc(S(=O)(=O)[O-])cc5F)c5ccc2[nH]5)C=C4)C=C3)cc1
REMARK SMILES IDX 39 1 38 2 37 3 1 4 2 5 3 7 4 8 5 9 6 10 36 11 7 12 9 13 8 14
REMARK SMILES IDX 10 15 11 16 12 18 13 19 14 20 18 21 15 22 17 23 16 24 19 25
REMARK SMILES IDX 34 26 20 27 21 28 35 29 22 30 23 31 27 32 24 33 26 34 25 35
REMARK SMILES IDX 28 36 29 37 33 38 30 39 32 40 31 41 40 42 41 43 42 44 43 45
REMARK SMILES IDX 44 46 45 47 46 49 47 50 48 51 112 52 49 53 111 54 50 55
REMARK SMILES IDX 51 56 52 57 105 58 53 59 110 60 104 61 106 62 54 63 109 64
REMARK SMILES IDX 103 65 102 66 55 68 89 69 68 70 88 71 69 72 72 73 87 74
REMARK SMILES IDX 107 75 70 76 71 77 86 79 108 80 73 81 56 82 57 83 66 84
REMARK SMILES IDX 58 85 59 86 65 87 67 88 60 89 61 90 62 91 63 92 64 93 90 94
REMARK SMILES IDX 91 95 100 96 92 97 93 98 99 99 101 100 94 101 95 102 96 103
REMARK SMILES IDX 97 104 98 105 74 106 75 107 84 108 76 109 77 110 83 111
REMARK SMILES IDX 85 112 78 113 79 114 80 115 81 116 82 117
REMARK H PARENT 37 6 10 17 44 48 106 67 72 78
REMARK Flexibility Score: inf
ROOT
ATOM      1  C   UNL     1       2.772   0.335   3.541  1.00  0.00     0.021 C 
ENDROOT
BRANCH   1   2
ATOM      2  C   UNL     1       2.141   1.015   2.332  1.00  0.00     0.116 C 
BRANCH   2   3
ATOM      3  N   UNL     1       2.695   0.538   1.086  1.00  0.00    -0.353 N 
ATOM      4  O   UNL     1       0.868  -0.697   0.422  1.00  0.00    -0.271 OA
ATOM      5  C   UNL     1       1.980  -0.232   0.194  1.00  0.00     0.257 C 
ATOM      6  H   UNL     1       3.624   0.774   0.864  1.00  0.00     0.163 HD
BRANCH   5   7
ATOM      7  C   UNL     1       2.696  -0.457  -1.137  1.00  0.00     0.329 C 
BRANCH   7   8
ATOM      8  O   UNL     1       3.725   0.483  -1.426  1.00  0.00    -0.484 OA
BRANCH   8   9
ATOM      9  C   UNL     1       3.313   1.630  -2.050  1.00  0.00     0.122 A 
ATOM     10  C   UNL     1       4.068   2.000  -3.157  1.00  0.00     0.046 A 
ATOM     11  C   UNL     1       2.317   2.489  -1.555  1.00  0.00     0.072 A 
ATOM     12  C   UNL     1       3.837   3.226  -3.760  1.00  0.00     0.006 A 
ATOM     13  C   UNL     1       2.077   3.736  -2.151  1.00  0.00     0.045 A 
ATOM     14  C   UNL     1       2.864   4.087  -3.247  1.00  0.00     0.026 A 
BRANCH  13  15
ATOM     15  N   UNL     1       1.134   4.597  -1.530  1.00  0.00    -0.322 N 
ATOM     16  C   UNL     1       0.525   5.774  -1.937  1.00  0.00     0.255 C 
ATOM     17  H   UNL     1       0.858   4.299  -0.633  1.00  0.00     0.170 HD
ATOM     18  O   UNL     1      -0.087   6.490  -1.153  1.00  0.00    -0.269 OA
BRANCH  16  19
ATOM     19  C   UNL     1       0.461   6.087  -3.374  1.00  0.00     0.041 A 
ATOM     20  C   UNL     1       1.370   6.997  -3.959  1.00  0.00     0.015 A 
ATOM     21  C   UNL     1      -0.335   5.243  -4.143  1.00  0.00     0.028 A 
ATOM     22  C   UNL     1       1.662   6.895  -5.331  1.00  0.00     0.015 A 
ATOM     23  C   UNL     1      -0.013   5.173  -5.477  1.00  0.00     0.054 A 
ATOM     24  C   UNL     1       1.003   5.904  -6.044  1.00  0.00     0.053 A 
ATOM     25  C   UNL     1      -0.388   4.127  -6.399  1.00  0.00     0.266 C 
ATOM     26  C   UNL     1       1.330   5.237  -7.312  1.00  0.00     0.266 C 
ATOM     27  O   UNL     1      -1.419   3.508  -6.216  1.00  0.00    -0.268 OA
ATOM     28  N   UNL     1       0.615   4.055  -7.343  1.00  0.00    -0.242 N 
ATOM     29  O   UNL     1       2.059   5.782  -8.120  1.00  0.00    -0.268 OA
BRANCH  28  30
ATOM     30  C   UNL     1       0.848   2.877  -8.142  1.00  0.00     0.060 A 
ATOM     31  C   UNL     1      -0.174   1.895  -8.197  1.00  0.00     0.027 A 
ATOM     32  C   UNL     1       2.077   2.542  -8.771  1.00  0.00     0.006 A 
ATOM     33  C   UNL     1      -0.018   0.652  -8.815  1.00  0.00     0.002 A 
ATOM     34  C   UNL     1       2.197   1.285  -9.428  1.00  0.00     0.011 A 
ATOM     35  C   UNL     1       1.171   0.347  -9.443  1.00  0.00     0.001 A 
BRANCH  32  36
ATOM     36  C   UNL     1       3.332   3.305  -8.700  1.00  0.00    -0.016 A 
ATOM     37  C   UNL     1       3.767   4.082  -9.785  1.00  0.00     0.009 A 
ATOM     38  C   UNL     1       4.184   3.172  -7.592  1.00  0.00     0.009 A 
ATOM     39  C   UNL     1       4.990   4.755  -9.738  1.00  0.00     0.001 A 
ATOM     40  C   UNL     1       5.411   3.839  -7.547  1.00  0.00     0.001 A 
ATOM     41  C   UNL     1       5.808   4.639  -8.616  1.00  0.00     0.000 A 
ENDBRANCH  32  36
ENDBRANCH  28  30
ENDBRANCH  16  19
ENDBRANCH  13  15
ENDBRANCH   8   9
ENDBRANCH   7   8
ENDBRANCH   5   7
ENDBRANCH   2   3
ENDBRANCH   1   2
BRANCH   1  42
ATOM     42  C   UNL     1       4.279   0.574   3.697  1.00  0.00     0.002 C 
BRANCH  42  43
ATOM     43  C   UNL     1       4.716   2.039   3.788  1.00  0.00     0.002 C 
BRANCH  43  44
ATOM     44  C   UNL     1       4.038   2.869   4.881  1.00  0.00     0.021 C 
BRANCH  44  45
ATOM     45  C   UNL     1       4.160   2.315   6.298  1.00  0.00     0.116 C 
BRANCH  45  46
ATOM     46  N   UNL     1       5.538   2.237   6.754  1.00  0.00    -0.352 N 
ATOM     47  C   UNL     1       6.091   2.648   7.943  1.00  0.00     0.251 C 
ATOM     48  H   UNL     1       6.168   1.831   6.116  1.00  0.00     0.163 HD
ATOM     49  O   UNL     1       7.311   2.626   8.081  1.00  0.00    -0.269 OA
BRANCH  47  50
ATOM     50  C   UNL     1       5.231   3.140   9.044  1.00  0.00     0.039 A 
ATOM     51  C   UNL     1       5.634   4.276   9.753  1.00  0.00     0.014 A 
ATOM     52  C   UNL     1       4.047   2.485   9.395  1.00  0.00     0.014 A 
ATOM     53  C   UNL     1       4.822   4.786  10.770  1.00  0.00     0.010 A 
ATOM     54  C   UNL     1       3.206   3.034  10.363  1.00  0.00     0.010 A 
ATOM     55  C   UNL     1       3.585   4.189  11.063  1.00  0.00    -0.014 A 
BRANCH  55  56
ATOM     56  C   UNL     1       2.678   4.773  12.086  1.00  0.00     0.031 A 
ATOM     57  C   UNL     1       2.351   4.013  13.344  1.00  0.00     0.074 A 
ATOM     58  C   UNL     1       2.106   5.971  11.858  1.00  0.00     0.049 A 
ATOM     59  N   UNL     1       1.576   4.360  14.340  1.00  0.00    -0.248 NA
ATOM     60  C   UNL     1       2.955   2.680  13.491  1.00  0.00     0.031 C 
ATOM     61  C   UNL     1       2.300   6.785  10.655  1.00  0.00     0.029 A 
ATOM     62  N   UNL     1       1.246   6.716  12.625  1.00  0.00    -0.354 N 
ATOM     63  C   UNL     1       1.583   3.284  15.221  1.00  0.00     0.074 A 
ATOM     64  C   UNL     1       2.403   2.255  14.618  1.00  0.00     0.031 C 
ATOM     65  C   UNL     1       1.611   7.930  10.782  1.00  0.00     0.029 A 
ATOM     66  C   UNL     1       0.900   7.920  12.057  1.00  0.00     0.049 A 
ATOM     67  H   UNL     1       0.908   6.416  13.500  1.00  0.00     0.167 HD
ATOM     68  C   UNL     1       0.977   3.171  16.428  1.00  0.00     0.037 A 
ATOM     69  C   UNL     1       0.107   8.908  12.514  1.00  0.00     0.037 A 
ATOM     70  C   UNL     1       0.184   4.209  17.036  1.00  0.00     0.049 A 
ATOM     71  C   UNL     1      -0.545   8.764  13.862  1.00  0.00     0.074 A 
ATOM     72  C   UNL     1      -0.402   4.223  18.290  1.00  0.00     0.029 A 
ATOM     73  N   UNL     1      -0.142   5.414  16.431  1.00  0.00    -0.354 N 
ATOM     74  N   UNL     1      -0.462   7.773  14.717  1.00  0.00    -0.248 NA
ATOM     75  C   UNL     1      -1.395   9.876  14.307  1.00  0.00     0.031 C 
ATOM     76  C   UNL     1      -1.120   5.417  18.425  1.00  0.00     0.029 A 
ATOM     77  C   UNL     1      -0.944   6.168  17.274  1.00  0.00     0.049 A 
ATOM     78  H   UNL     1       0.152   5.693  15.534  1.00  0.00     0.167 HD
ATOM     79  C   UNL     1      -1.227   8.153  15.814  1.00  0.00     0.074 A 
ATOM     80  C   UNL     1      -1.755   9.470  15.517  1.00  0.00     0.031 C 
ATOM     81  C   UNL     1      -1.468   7.475  16.964  1.00  0.00     0.037 A 
BRANCH  68  82
ATOM     82  C   UNL     1       1.146   1.871  17.168  1.00  0.00     0.058 A 
ATOM     83  C   UNL     1       2.378   1.489  17.725  1.00  0.00     0.135 A 
ATOM     84  C   UNL     1       0.058   0.998  17.332  1.00  0.00     0.135 A 
ATOM     85  F   UNL     1       3.455   2.280  17.589  1.00  0.00    -0.206 F 
ATOM     86  C   UNL     1       2.537   0.271  18.377  1.00  0.00     0.059 A 
ATOM     87  C   UNL     1       0.187  -0.213  18.006  1.00  0.00     0.059 A 
ATOM     88  F   UNL     1      -1.144   1.313  16.825  1.00  0.00    -0.206 F 
ATOM     89  C   UNL     1       1.436  -0.578  18.506  1.00  0.00     0.060 A 
BRANCH  89  90
ATOM     90  S   UNL     1       1.661  -2.167  19.333  1.00  0.00     0.124 S 
ATOM     91  O   UNL     1       2.367  -2.929  18.308  1.00  0.00    -0.237 OA
ATOM     92  O   UNL     1       2.450  -1.802  20.506  1.00  0.00    -0.237 OA
ATOM     93  O   UNL     1       0.296  -2.602  19.611  1.00  0.00    -0.744 OA
ENDBRANCH  89  90
ENDBRANCH  68  82
BRANCH  69  94
ATOM     94  C   UNL     1      -0.072  10.145  11.710  1.00  0.00     0.058 A 
ATOM     95  C   UNL     1       0.526  11.349  12.111  1.00  0.00     0.135 A 
ATOM     96  C   UNL     1      -0.815  10.147  10.520  1.00  0.00     0.135 A 
ATOM     97  F   UNL     1       1.240  11.398  13.245  1.00  0.00    -0.206 F 
ATOM     98  C   UNL     1       0.386  12.515  11.366  1.00  0.00     0.059 A 
ATOM     99  C   UNL     1      -0.950  11.295   9.746  1.00  0.00     0.059 A 
ATOM    100  F   UNL     1      -1.393   9.016  10.087  1.00  0.00    -0.206 F 
ATOM    101  C   UNL     1      -0.350  12.477  10.181  1.00  0.00     0.060 A 
BRANCH 101 102
ATOM    102  S   UNL     1      -0.471  13.982   9.190  1.00  0.00     0.124 S 
ATOM    103  O   UNL     1      -1.398  14.781   9.981  1.00  0.00    -0.237 OA
ATOM    104  O   UNL     1       0.913  14.445   9.167  1.00  0.00    -0.237 OA
ATOM    105  O   UNL     1      -0.983  13.499   7.911  1.00  0.00    -0.744 OA
ENDBRANCH 101 102
ENDBRANCH  69  94
BRANCH  81 106
ATOM    106  C   UNL     1      -2.320   8.160  17.998  1.00  0.00     0.058 A 
ATOM    107  C   UNL     1      -3.703   8.325  17.823  1.00  0.00     0.135 A 
ATOM    108  C   UNL     1      -1.748   8.640  19.187  1.00  0.00     0.135 A 
ATOM    109  F   UNL     1      -4.299   7.889  16.701  1.00  0.00    -0.206 F 
ATOM    110  C   UNL     1      -4.484   8.973  18.774  1.00  0.00     0.059 A 
ATOM    111  C   UNL     1      -2.514   9.267  20.164  1.00  0.00     0.059 A 
ATOM    112  F   UNL     1      -0.432   8.498  19.410  1.00  0.00    -0.206 F 
ATOM    113  C   UNL     1      -3.879   9.445  19.941  1.00  0.00     0.060 A 
BRANCH 113 114
ATOM    114  S   UNL     1      -4.902  10.278  21.174  1.00  0.00     0.124 S 
ATOM    115  O   UNL     1      -5.096  11.586  20.558  1.00  0.00    -0.237 OA
ATOM    116  O   UNL     1      -6.084   9.423  21.231  1.00  0.00    -0.237 OA
ATOM    117  O   UNL     1      -4.068  10.263  22.372  1.00  0.00    -0.744 OA
ENDBRANCH 113 114
ENDBRANCH  81 106
ENDBRANCH  55  56
ENDBRANCH  47  50
ENDBRANCH  45  46
ENDBRANCH  44  45
ENDBRANCH  43  44
ENDBRANCH  42  43
ENDBRANCH   1  42
TORSDOF 22
