REMARK SMILES COc1cc(NC(=O)CN2C(=O)c3ccccc3C2=O)c(C(=O)NCCCCCCNC(=O)c2ccc(-c3c4nc(c(-c5c(F)cc(S(=O)(=O)[O-])cc5F)c5ccc([nH]5)c(-c5c(F)cc(S(=O)(=O)[O-])cc5F)c5nc(c(-c6c(F)cc(S(=O)(=O)[O-])cc6F)c6ccc3[nH]6)C=C5)C=C4)cc2)cc1OC
REMARK SMILES IDX 27 1 26 2 25 3 24 4 22 5 23 6 21 8 3 9 4 10 101 11 5 12
REMARK SMILES IDX 100 13 2 14 1 15 102 16 103 17 6 18 7 19 8 21 9 22 10 23
REMARK SMILES IDX 11 24 19 25 12 26 13 27 18 28 20 29 14 30 17 31 15 32 16 33
REMARK SMILES IDX 28 34 29 35 30 36 31 37 32 38 33 40 34 41 35 42 99 43 36 44
REMARK SMILES IDX 98 45 37 46 38 47 39 48 92 49 40 50 97 51 91 52 93 53 41 54
REMARK SMILES IDX 96 55 90 56 89 57 42 59 76 60 55 61 75 62 56 63 59 64 74 65
REMARK SMILES IDX 94 66 57 67 58 68 73 70 95 71 60 72 43 73 44 74 53 75 45 76
REMARK SMILES IDX 46 77 52 78 54 79 47 80 48 81 49 82 50 83 51 84 77 85 78 86
REMARK SMILES IDX 87 87 79 88 80 89 86 90 88 91 81 92 82 93 83 94 84 95 85 96
REMARK SMILES IDX 61 97 62 98 71 99 63 100 64 101 70 102 72 103 65 104 66 105
REMARK SMILES IDX 67 106 68 107 69 108
REMARK H PARENT 24 7 6 20 31 39 93 58 59 69
REMARK Flexibility Score: inf
ROOT
ATOM      1  C   UNL     1       6.236   4.538   5.729  1.00  0.00     0.002 C 
ENDROOT
BRANCH   1   2
ATOM      2  C   UNL     1       5.461   3.801   4.630  1.00  0.00     0.021 C 
BRANCH   2   3
ATOM      3  C   UNL     1       4.262   3.013   5.163  1.00  0.00     0.116 C 
BRANCH   3   4
ATOM      4  N   UNL     1       3.111   3.890   5.288  1.00  0.00    -0.352 N 
ATOM      5  C   UNL     1       1.998   4.089   4.511  1.00  0.00     0.253 C 
ATOM      6  O   UNL     1       1.177   4.912   4.923  1.00  0.00    -0.269 OA
ATOM      7  H   UNL     1       3.135   4.457   6.092  1.00  0.00     0.163 HD
BRANCH   5   8
ATOM      8  C   UNL     1       1.698   3.309   3.266  1.00  0.00     0.067 A 
ATOM      9  C   UNL     1       1.142   1.652   1.062  1.00  0.00     0.162 A 
ATOM     10  C   UNL     1       0.099   2.217   1.808  1.00  0.00     0.077 A 
ATOM     11  C   UNL     1       2.463   1.950   1.387  1.00  0.00     0.161 A 
ATOM     12  C   UNL     1       0.355   3.117   2.848  1.00  0.00     0.058 A 
ATOM     13  C   UNL     1       2.725   2.794   2.467  1.00  0.00     0.066 A 
BRANCH   9  14
ATOM     14  O   UNL     1       0.879   0.969  -0.093  1.00  0.00    -0.493 OA
ATOM     15  C   UNL     1       0.056  -0.182   0.074  1.00  0.00     0.278 C 
ENDBRANCH   9  14
BRANCH  11  16
ATOM     16  O   UNL     1       3.582   1.510   0.733  1.00  0.00    -0.493 OA
ATOM     17  C   UNL     1       3.522   0.176   0.232  1.00  0.00     0.278 C 
ENDBRANCH  11  16
BRANCH  12  18
ATOM     18  N   UNL     1      -0.679   3.841   3.483  1.00  0.00    -0.324 N 
ATOM     19  C   UNL     1      -1.945   4.216   3.145  1.00  0.00     0.244 C 
ATOM     20  H   UNL     1      -0.424   4.149   4.383  1.00  0.00     0.170 HD
ATOM     21  O   UNL     1      -2.658   4.665   4.054  1.00  0.00    -0.273 OA
BRANCH  19  22
ATOM     22  C   UNL     1      -2.568   4.025   1.760  1.00  0.00     0.229 C 
BRANCH  22  23
ATOM     23  N   UNL     1      -1.725   4.377   0.636  1.00  0.00    -0.265 N 
ATOM     24  C   UNL     1      -1.207   5.625   0.440  1.00  0.00     0.262 C 
ATOM     25  C   UNL     1      -1.552   3.588  -0.469  1.00  0.00     0.262 C 
ATOM     26  O   UNL     1      -1.335   6.626   1.121  1.00  0.00    -0.269 OA
ATOM     27  C   UNL     1      -0.461   5.573  -0.815  1.00  0.00     0.053 A 
ATOM     28  C   UNL     1      -0.665   4.322  -1.368  1.00  0.00     0.053 A 
ATOM     29  O   UNL     1      -2.051   2.508  -0.718  1.00  0.00    -0.269 OA
ATOM     30  C   UNL     1       0.334   6.522  -1.426  1.00  0.00     0.015 A 
ATOM     31  C   UNL     1      -0.077   3.942  -2.558  1.00  0.00     0.015 A 
ATOM     32  C   UNL     1       0.943   6.162  -2.632  1.00  0.00     0.001 A 
ATOM     33  C   UNL     1       0.741   4.882  -3.191  1.00  0.00     0.001 A 
ENDBRANCH  22  23
ENDBRANCH  19  22
ENDBRANCH  12  18
ENDBRANCH   5   8
ENDBRANCH   3   4
ENDBRANCH   2   3
ENDBRANCH   1   2
BRANCH   1  34
ATOM     34  C   UNL     1       6.928   3.621   6.745  1.00  0.00     0.002 C 
BRANCH  34  35
ATOM     35  C   UNL     1       7.891   2.597   6.137  1.00  0.00     0.021 C 
BRANCH  35  36
ATOM     36  C   UNL     1       9.058   3.212   5.370  1.00  0.00     0.116 C 
BRANCH  36  37
ATOM     37  N   UNL     1       9.922   3.991   6.246  1.00  0.00    -0.352 N 
ATOM     38  C   UNL     1      11.241   3.791   6.568  1.00  0.00     0.251 C 
ATOM     39  H   UNL     1       9.499   4.774   6.668  1.00  0.00     0.163 HD
ATOM     40  O   UNL     1      11.741   4.385   7.518  1.00  0.00    -0.269 OA
BRANCH  38  41
ATOM     41  C   UNL     1      12.050   2.844   5.773  1.00  0.00     0.039 A 
ATOM     42  C   UNL     1      12.852   1.911   6.435  1.00  0.00     0.014 A 
ATOM     43  C   UNL     1      12.006   2.873   4.376  1.00  0.00     0.014 A 
ATOM     44  C   UNL     1      13.547   0.953   5.694  1.00  0.00     0.010 A 
ATOM     45  C   UNL     1      12.647   1.878   3.644  1.00  0.00     0.010 A 
ATOM     46  C   UNL     1      13.411   0.899   4.297  1.00  0.00    -0.014 A 
BRANCH  46  47
ATOM     47  C   UNL     1      14.004  -0.211   3.508  1.00  0.00     0.031 A 
ATOM     48  C   UNL     1      15.062   0.065   2.475  1.00  0.00     0.074 A 
ATOM     49  C   UNL     1      13.516  -1.459   3.664  1.00  0.00     0.049 A 
ATOM     50  N   UNL     1      15.623  -0.762   1.632  1.00  0.00    -0.248 NA
ATOM     51  C   UNL     1      15.534   1.454   2.359  1.00  0.00     0.031 C 
ATOM     52  C   UNL     1      12.450  -1.837   4.597  1.00  0.00     0.029 A 
ATOM     53  N   UNL     1      13.831  -2.635   3.031  1.00  0.00    -0.354 N 
ATOM     54  C   UNL     1      16.501   0.004   0.875  1.00  0.00     0.074 A 
ATOM     55  C   UNL     1      16.372   1.370   1.334  1.00  0.00     0.031 C 
ATOM     56  C   UNL     1      12.205  -3.151   4.478  1.00  0.00     0.029 A 
ATOM     57  C   UNL     1      13.059  -3.701   3.431  1.00  0.00     0.049 A 
ATOM     58  H   UNL     1      14.541  -2.709   2.353  1.00  0.00     0.167 HD
ATOM     59  C   UNL     1      17.346  -0.402  -0.102  1.00  0.00     0.037 A 
ATOM     60  C   UNL     1      13.021  -4.973   2.987  1.00  0.00     0.037 A 
ATOM     61  C   UNL     1      17.482  -1.770  -0.533  1.00  0.00     0.049 A 
ATOM     62  C   UNL     1      13.961  -5.393   1.890  1.00  0.00     0.074 A 
ATOM     63  C   UNL     1      18.377  -2.295  -1.449  1.00  0.00     0.029 A 
ATOM     64  N   UNL     1      16.695  -2.824  -0.094  1.00  0.00    -0.354 N 
ATOM     65  N   UNL     1      14.857  -4.675   1.257  1.00  0.00    -0.248 NA
ATOM     66  C   UNL     1      13.884  -6.791   1.443  1.00  0.00     0.031 C 
ATOM     67  C   UNL     1      18.089  -3.653  -1.611  1.00  0.00     0.029 A 
ATOM     68  C   UNL     1      17.053  -3.988  -0.755  1.00  0.00     0.049 A 
ATOM     69  H   UNL     1      15.988  -2.756   0.587  1.00  0.00     0.167 HD
ATOM     70  C   UNL     1      15.457  -5.536   0.344  1.00  0.00     0.074 A 
ATOM     71  C   UNL     1      14.841  -6.834   0.526  1.00  0.00     0.031 C 
ATOM     72  C   UNL     1      16.425  -5.273  -0.568  1.00  0.00     0.037 A 
BRANCH  59  73
ATOM     73  C   UNL     1      18.194   0.637  -0.784  1.00  0.00     0.058 A 
ATOM     74  C   UNL     1      19.272   1.256  -0.134  1.00  0.00     0.135 A 
ATOM     75  C   UNL     1      17.974   0.957  -2.135  1.00  0.00     0.135 A 
ATOM     76  F   UNL     1      19.520   0.997   1.160  1.00  0.00    -0.206 F 
ATOM     77  C   UNL     1      20.094   2.165  -0.792  1.00  0.00     0.059 A 
ATOM     78  C   UNL     1      18.799   1.843  -2.821  1.00  0.00     0.059 A 
ATOM     79  F   UNL     1      16.955   0.396  -2.805  1.00  0.00    -0.206 F 
ATOM     80  C   UNL     1      19.853   2.447  -2.138  1.00  0.00     0.060 A 
BRANCH  80  81
ATOM     81  S   UNL     1      20.952   3.603  -2.985  1.00  0.00     0.124 S 
ATOM     82  O   UNL     1      20.572   4.870  -2.369  1.00  0.00    -0.237 OA
ATOM     83  O   UNL     1      22.272   3.095  -2.626  1.00  0.00    -0.237 OA
ATOM     84  O   UNL     1      20.586   3.454  -4.390  1.00  0.00    -0.744 OA
ENDBRANCH  80  81
ENDBRANCH  59  73
BRANCH  60  85
ATOM     85  C   UNL     1      12.042  -5.934   3.564  1.00  0.00     0.058 A 
ATOM     86  C   UNL     1      12.462  -7.020   4.346  1.00  0.00     0.135 A 
ATOM     87  C   UNL     1      10.663  -5.784   3.344  1.00  0.00     0.135 A 
ATOM     88  F   UNL     1      13.769  -7.213   4.579  1.00  0.00    -0.206 F 
ATOM     89  C   UNL     1      11.554  -7.934   4.872  1.00  0.00     0.059 A 
ATOM     90  C   UNL     1       9.734  -6.667   3.884  1.00  0.00     0.059 A 
ATOM     91  F   UNL     1      10.205  -4.752   2.618  1.00  0.00    -0.206 F 
ATOM     92  C   UNL     1      10.191  -7.748   4.636  1.00  0.00     0.060 A 
BRANCH  92  93
ATOM     93  S   UNL     1       9.017  -8.919   5.351  1.00  0.00     0.124 S 
ATOM     94  O   UNL     1       9.234 -10.096   4.519  1.00  0.00    -0.237 OA
ATOM     95  O   UNL     1       9.484  -9.016   6.731  1.00  0.00    -0.237 OA
ATOM     96  O   UNL     1       7.731  -8.251   5.179  1.00  0.00    -0.744 OA
ENDBRANCH  92  93
ENDBRANCH  60  85
BRANCH  72  97
ATOM     97  C   UNL     1      16.881  -6.406  -1.444  1.00  0.00     0.058 A 
ATOM     98  C   UNL     1      16.073  -6.899  -2.480  1.00  0.00     0.135 A 
ATOM     99  C   UNL     1      18.165  -6.957  -1.294  1.00  0.00     0.135 A 
ATOM    100  F   UNL     1      14.834  -6.415  -2.659  1.00  0.00    -0.206 F 
ATOM    101  C   UNL     1      16.518  -7.905  -3.332  1.00  0.00     0.059 A 
ATOM    102  C   UNL     1      18.641  -7.943  -2.152  1.00  0.00     0.059 A 
ATOM    103  F   UNL     1      18.980  -6.516  -0.322  1.00  0.00    -0.206 F 
ATOM    104  C   UNL     1      17.807  -8.415  -3.165  1.00  0.00     0.060 A 
BRANCH 104 105
ATOM    105  S   UNL     1      18.389  -9.678  -4.316  1.00  0.00     0.124 S 
ATOM    106  O   UNL     1      17.604 -10.836  -3.903  1.00  0.00    -0.237 OA
ATOM    107  O   UNL     1      18.039  -9.103  -5.611  1.00  0.00    -0.237 OA
ATOM    108  O   UNL     1      19.820  -9.759  -4.037  1.00  0.00    -0.744 OA
ENDBRANCH 104 105
ENDBRANCH  72  97
ENDBRANCH  46  47
ENDBRANCH  38  41
ENDBRANCH  36  37
ENDBRANCH  35  36
ENDBRANCH  34  35
ENDBRANCH   1  34
TORSDOF 21
