REMARK SMILES CC1=C(C(=O)NCCCCCCNC(=O)c2ccc(-c3c4nc(c(-c5c(F)cc(S(=O)(=O)[O-])cc5F)c5ccc([nH]5)c(-c5c(F)cc(S(=O)(=O)[O-])cc5F)c5nc(c(-c6c(F)cc(S(=O)(=O)[O-])cc6F)c6ccc3[nH]6)C=C5)C=C4)cc2)C(C)(C)CCC1
REMARK SMILES IDX 11 1 10 2 9 3 8 4 7 5 6 6 4 7 5 8 3 10 1 11 2 12 87 13 82 14
REMARK SMILES IDX 86 15 83 16 84 17 85 18 12 19 13 20 14 21 15 23 16 24 17 25
REMARK SMILES IDX 81 26 18 27 80 28 19 29 20 30 21 31 74 32 22 33 79 34 73 35
REMARK SMILES IDX 75 36 23 37 78 38 72 39 71 40 24 42 58 43 37 44 57 45 38 46
REMARK SMILES IDX 41 47 56 48 76 49 39 50 40 51 55 53 77 54 42 55 25 56 26 57
REMARK SMILES IDX 35 58 27 59 28 60 34 61 36 62 29 63 30 64 31 65 32 66 33 67
REMARK SMILES IDX 59 68 60 69 69 70 61 71 62 72 68 73 70 74 63 75 64 76 65 77
REMARK SMILES IDX 66 78 67 79 43 80 44 81 53 82 45 83 46 84 52 85 54 86 47 87
REMARK SMILES IDX 48 88 49 89 50 90 51 91
REMARK H PARENT 6 9 13 22 75 41 41 52
REMARK Flexibility Score: inf
ROOT
ATOM      1  C   UNL     1       5.648  -4.341   0.701  1.00  0.00     0.021 C 
ENDROOT
BRANCH   1   2
ATOM      2  C   UNL     1       4.330  -5.085   0.926  1.00  0.00     0.002 C 
BRANCH   2   3
ATOM      3  C   UNL     1       3.541  -4.744   2.194  1.00  0.00     0.002 C 
BRANCH   3   4
ATOM      4  C   UNL     1       3.211  -3.268   2.453  1.00  0.00     0.021 C 
BRANCH   4   5
ATOM      5  C   UNL     1       2.601  -2.487   1.292  1.00  0.00     0.116 C 
BRANCH   5   6
ATOM      6  N   UNL     1       1.339  -2.994   0.797  1.00  0.00    -0.352 N 
ATOM      7  C   UNL     1       0.360  -2.401   0.048  1.00  0.00     0.247 C 
ATOM      8  O   UNL     1      -0.540  -3.136  -0.359  1.00  0.00    -0.270 OA
ATOM      9  H   UNL     1       1.153  -3.930   1.041  1.00  0.00     0.163 HD
BRANCH   7  10
ATOM     10  C   UNL     1       0.297  -0.900  -0.158  1.00  0.00     0.021 C 
ATOM     11  C   UNL     1       2.639  -0.668  -1.142  1.00  0.00     0.040 C 
ATOM     12  C   UNL     1       1.361  -0.147  -0.539  1.00  0.00    -0.064 C 
ATOM     13  C   UNL     1       1.359   1.369  -0.472  1.00  0.00     0.031 C 
ATOM     14  C   UNL     1      -1.119  -0.262  -0.026  1.00  0.00    -0.005 C 
ATOM     15  C   UNL     1       0.092   1.976   0.110  1.00  0.00     0.005 C 
ATOM     16  C   UNL     1      -2.155  -0.923  -0.972  1.00  0.00     0.016 C 
ATOM     17  C   UNL     1      -1.638  -0.370   1.420  1.00  0.00     0.016 C 
ATOM     18  C   UNL     1      -1.108   1.238  -0.449  1.00  0.00     0.012 C 
ENDBRANCH   7  10
ENDBRANCH   5   6
ENDBRANCH   4   5
ENDBRANCH   3   4
ENDBRANCH   2   3
ENDBRANCH   1   2
BRANCH   1  19
ATOM     19  C   UNL     1       6.637  -4.350   1.862  1.00  0.00     0.116 C 
BRANCH  19  20
ATOM     20  N   UNL     1       7.028  -5.687   2.272  1.00  0.00    -0.352 N 
ATOM     21  C   UNL     1       8.282  -6.204   2.498  1.00  0.00     0.251 C 
ATOM     22  H   UNL     1       6.285  -6.318   2.407  1.00  0.00     0.163 HD
ATOM     23  O   UNL     1       8.414  -7.401   2.724  1.00  0.00    -0.269 OA
BRANCH  21  24
ATOM     24  C   UNL     1       9.475  -5.326   2.441  1.00  0.00     0.039 A 
ATOM     25  C   UNL     1      10.612  -5.784   1.770  1.00  0.00     0.014 A 
ATOM     26  C   UNL     1       9.483  -4.067   3.047  1.00  0.00     0.014 A 
ATOM     27  C   UNL     1      11.731  -4.955   1.652  1.00  0.00     0.010 A 
ATOM     28  C   UNL     1      10.570  -3.213   2.863  1.00  0.00     0.010 A 
ATOM     29  C   UNL     1      11.707  -3.648   2.166  1.00  0.00    -0.014 A 
BRANCH  29  30
ATOM     30  C   UNL     1      12.858  -2.725   1.978  1.00  0.00     0.031 A 
ATOM     31  C   UNL     1      13.620  -2.208   3.169  1.00  0.00     0.074 A 
ATOM     32  C   UNL     1      13.183  -2.308   0.737  1.00  0.00     0.049 A 
ATOM     33  N   UNL     1      14.609  -1.353   3.210  1.00  0.00    -0.248 NA
ATOM     34  C   UNL     1      13.197  -2.696   4.492  1.00  0.00     0.031 C 
ATOM     35  C   UNL     1      12.494  -2.702  -0.494  1.00  0.00     0.029 A 
ATOM     36  N   UNL     1      14.167  -1.453   0.305  1.00  0.00    -0.354 N 
ATOM     37  C   UNL     1      14.920  -1.193   4.555  1.00  0.00     0.074 A 
ATOM     38  C   UNL     1      13.977  -1.996   5.303  1.00  0.00     0.031 C 
ATOM     39  C   UNL     1      13.090  -2.110  -1.542  1.00  0.00     0.029 A 
ATOM     40  C   UNL     1      14.174  -1.261  -1.057  1.00  0.00     0.049 A 
ATOM     41  H   UNL     1      14.807  -1.018   0.913  1.00  0.00     0.167 HD
ATOM     42  C   UNL     1      15.915  -0.463   5.116  1.00  0.00     0.037 A 
ATOM     43  C   UNL     1      14.956  -0.481  -1.829  1.00  0.00     0.037 A 
ATOM     44  C   UNL     1      16.861   0.320   4.363  1.00  0.00     0.049 A 
ATOM     45  C   UNL     1      16.044   0.334  -1.183  1.00  0.00     0.074 A 
ATOM     46  C   UNL     1      17.938   1.052   4.833  1.00  0.00     0.029 A 
ATOM     47  N   UNL     1      16.842   0.480   2.985  1.00  0.00    -0.354 N 
ATOM     48  N   UNL     1      16.364   0.422   0.087  1.00  0.00    -0.248 NA
ATOM     49  C   UNL     1      16.882   1.151  -2.071  1.00  0.00     0.031 C 
ATOM     50  C   UNL     1      18.535   1.698   3.747  1.00  0.00     0.029 A 
ATOM     51  C   UNL     1      17.871   1.320   2.591  1.00  0.00     0.049 A 
ATOM     52  H   UNL     1      16.193   0.059   2.376  1.00  0.00     0.167 HD
ATOM     53  C   UNL     1      17.459   1.278   0.145  1.00  0.00     0.074 A 
ATOM     54  C   UNL     1      17.752   1.672  -1.218  1.00  0.00     0.031 C 
ATOM     55  C   UNL     1      18.157   1.699   1.229  1.00  0.00     0.037 A 
BRANCH  42  56
ATOM     56  C   UNL     1      16.033  -0.475   6.617  1.00  0.00     0.058 A 
ATOM     57  C   UNL     1      16.434  -1.624   7.319  1.00  0.00     0.135 A 
ATOM     58  C   UNL     1      15.781   0.689   7.362  1.00  0.00     0.135 A 
ATOM     59  F   UNL     1      16.675  -2.769   6.660  1.00  0.00    -0.206 F 
ATOM     60  C   UNL     1      16.550  -1.628   8.705  1.00  0.00     0.059 A 
ATOM     61  C   UNL     1      15.922   0.717   8.747  1.00  0.00     0.059 A 
ATOM     62  F   UNL     1      15.395   1.817   6.745  1.00  0.00    -0.206 F 
ATOM     63  C   UNL     1      16.293  -0.452   9.411  1.00  0.00     0.060 A 
BRANCH  63  64
ATOM     64  S   UNL     1      16.455  -0.474  11.208  1.00  0.00     0.124 S 
ATOM     65  O   UNL     1      15.298  -1.275  11.595  1.00  0.00    -0.237 OA
ATOM     66  O   UNL     1      17.756  -1.108  11.396  1.00  0.00    -0.237 OA
ATOM     67  O   UNL     1      16.390   0.938  11.574  1.00  0.00    -0.744 OA
ENDBRANCH  63  64
ENDBRANCH  42  56
BRANCH  43  68
ATOM     68  C   UNL     1      14.749  -0.445  -3.303  1.00  0.00     0.058 A 
ATOM     69  C   UNL     1      15.696  -0.993  -4.181  1.00  0.00     0.135 A 
ATOM     70  C   UNL     1      13.596   0.129  -3.863  1.00  0.00     0.135 A 
ATOM     71  F   UNL     1      16.818  -1.546  -3.697  1.00  0.00    -0.206 F 
ATOM     72  C   UNL     1      15.518  -0.958  -5.561  1.00  0.00     0.059 A 
ATOM     73  C   UNL     1      13.382   0.149  -5.238  1.00  0.00     0.059 A 
ATOM     74  F   UNL     1      12.650   0.652  -3.067  1.00  0.00    -0.206 F 
ATOM     75  C   UNL     1      14.355  -0.387  -6.080  1.00  0.00     0.060 A 
BRANCH  75  76
ATOM     76  S   UNL     1      14.114  -0.388  -7.869  1.00  0.00     0.124 S 
ATOM     77  O   UNL     1      15.093   0.605  -8.298  1.00  0.00    -0.237 OA
ATOM     78  O   UNL     1      14.413  -1.773  -8.217  1.00  0.00    -0.237 OA
ATOM     79  O   UNL     1      12.714   0.000  -8.019  1.00  0.00    -0.744 OA
ENDBRANCH  75  76
ENDBRANCH  43  68
BRANCH  55  80
ATOM     80  C   UNL     1      19.336   2.605   0.988  1.00  0.00     0.058 A 
ATOM     81  C   UNL     1      19.176   3.939   0.582  1.00  0.00     0.135 A 
ATOM     82  C   UNL     1      20.643   2.143   1.219  1.00  0.00     0.135 A 
ATOM     83  F   UNL     1      17.950   4.430   0.341  1.00  0.00    -0.206 F 
ATOM     84  C   UNL     1      20.270   4.776   0.390  1.00  0.00     0.059 A 
ATOM     85  C   UNL     1      21.749   2.972   1.064  1.00  0.00     0.059 A 
ATOM     86  F   UNL     1      20.853   0.879   1.618  1.00  0.00    -0.206 F 
ATOM     87  C   UNL     1      21.553   4.284   0.637  1.00  0.00     0.060 A 
BRANCH  87  88
ATOM     88  S   UNL     1      22.961   5.393   0.418  1.00  0.00     0.124 S 
ATOM     89  O   UNL     1      23.024   5.506  -1.035  1.00  0.00    -0.237 OA
ATOM     90  O   UNL     1      22.527   6.592   1.129  1.00  0.00    -0.237 OA
ATOM     91  O   UNL     1      24.066   4.668   1.040  1.00  0.00    -0.744 OA
ENDBRANCH  87  88
ENDBRANCH  55  80
ENDBRANCH  29  30
ENDBRANCH  21  24
ENDBRANCH  19  20
ENDBRANCH   1  19
TORSDOF 16
