REMARK SMILES COC(=O)c1ccc([C@H]2Nc3c(C(=O)NCCCCCCNC(=O)c4ccc(-c5c6nc(c(-c7c(F)cc(S(=O)(=O)[O-])cc7F)c7ccc([nH]7)c(-c7c(F)cc(S(=O)(=O)[O-])cc7F)c7nc(c(-c8c(F)cc(S(=O)(=O)[O-])cc8F)c8ccc5[nH]8)C=C7)C=C6)cc4)cccc3[C@H]3[C@H]4CC[C@H](C4)[C@H]32)cc1
REMARK SMILES IDX 18 1 17 2 16 3 15 4 13 5 14 6 12 8 9 9 10 10 101 11 11 12
REMARK SMILES IDX 95 14 99 15 94 16 96 17 98 18 100 19 91 20 93 21 97 22 92 23
REMARK SMILES IDX 8 24 5 25 6 26 103 27 7 28 102 29 3 30 4 31 2 32 1 33 19 34
REMARK SMILES IDX 20 35 21 36 22 37 23 38 24 40 25 41 26 42 90 43 27 44 89 45
REMARK SMILES IDX 28 46 29 47 30 48 83 49 31 50 88 51 82 52 84 53 32 54 87 55
REMARK SMILES IDX 81 56 80 57 33 59 67 60 46 61 66 62 47 63 50 64 65 65 85 66
REMARK SMILES IDX 48 67 49 68 64 70 86 71 51 72 34 73 35 74 44 75 36 76 37 77
REMARK SMILES IDX 43 78 45 79 38 80 39 81 40 82 41 83 42 84 68 85 69 86 78 87
REMARK SMILES IDX 70 88 71 89 77 90 79 91 72 92 73 93 74 94 75 95 76 96 52 97
REMARK SMILES IDX 53 98 62 99 54 100 55 101 61 102 63 103 56 104 57 105 58 106
REMARK SMILES IDX 59 107 60 108
REMARK H PARENT 15 7 10 13 22 39 84 58 50 69
REMARK Flexibility Score: inf
ROOT
ATOM      1  C   UNL     1      -1.670  -5.663  13.877  1.00  0.00     0.002 C 
ENDROOT
BRANCH   1   2
ATOM      2  C   UNL     1      -2.249  -6.405  12.673  1.00  0.00     0.021 C 
BRANCH   2   3
ATOM      3  C   UNL     1      -2.959  -5.553  11.625  1.00  0.00     0.116 C 
BRANCH   3   4
ATOM      4  N   UNL     1      -2.092  -4.669  10.856  1.00  0.00    -0.352 N 
ATOM      5  C   UNL     1      -2.091  -4.431   9.490  1.00  0.00     0.253 C 
ATOM      6  O   UNL     1      -1.272  -3.656   8.998  1.00  0.00    -0.269 OA
ATOM      7  H   UNL     1      -1.417  -4.175  11.375  1.00  0.00     0.163 HD
BRANCH   5   8
ATOM      8  C   UNL     1      -3.033  -5.189   8.622  1.00  0.00     0.063 A 
ATOM      9  C   UNL     1      -1.610  -5.600   5.320  1.00  0.00     0.113 C 
ATOM     10  N   UNL     1      -1.410  -5.500   6.788  1.00  0.00    -0.377 N 
ATOM     11  C   UNL     1      -1.665  -7.155   5.067  1.00  0.00     0.027 C 
ATOM     12  C   UNL     1      -2.553  -5.906   7.521  1.00  0.00     0.051 A 
ATOM     13  H   UNL     1      -0.576  -5.187   7.206  1.00  0.00     0.161 HD
ATOM     14  C   UNL     1      -2.570  -7.910   6.083  1.00  0.00     0.030 C 
ATOM     15  C   UNL     1      -1.870  -7.969   3.748  1.00  0.00    -0.005 C 
ATOM     16  C   UNL     1      -3.317  -6.983   7.002  1.00  0.00    -0.020 A 
ATOM     17  C   UNL     1      -3.187  -9.046   5.234  1.00  0.00    -0.003 C 
ATOM     18  C   UNL     1      -3.252  -7.966   3.081  1.00  0.00     0.004 C 
ATOM     19  C   UNL     1      -1.970  -9.397   4.354  1.00  0.00     0.008 C 
ATOM     20  C   UNL     1      -4.389  -5.278   8.942  1.00  0.00     0.016 A 
ATOM     21  C   UNL     1      -4.636  -7.148   7.418  1.00  0.00     0.006 A 
ATOM     22  C   UNL     1      -4.176  -8.565   4.162  1.00  0.00     0.004 C 
ATOM     23  C   UNL     1      -5.191  -6.242   8.327  1.00  0.00     0.001 A 
BRANCH   9  24
ATOM     24  C   UNL     1      -2.740  -4.625   4.938  1.00  0.00    -0.025 A 
ATOM     25  C   UNL     1      -5.007  -2.949   4.468  1.00  0.00     0.060 A 
ATOM     26  C   UNL     1      -3.841  -2.423   5.038  1.00  0.00     0.016 A 
ATOM     27  C   UNL     1      -5.022  -4.289   4.114  1.00  0.00     0.016 A 
ATOM     28  C   UNL     1      -2.714  -3.253   5.258  1.00  0.00     0.007 A 
ATOM     29  C   UNL     1      -3.924  -5.087   4.389  1.00  0.00     0.007 A 
BRANCH  25  30
ATOM     30  C   UNL     1      -6.236  -2.141   4.252  1.00  0.00     0.337 C 
ATOM     31  O   UNL     1      -6.275  -0.919   4.204  1.00  0.00    -0.246 OA
BRANCH  30  32
ATOM     32  O   UNL     1      -7.282  -2.991   4.094  1.00  0.00    -0.465 OA
ATOM     33  C   UNL     1      -8.535  -2.432   3.710  1.00  0.00     0.282 C 
ENDBRANCH  30  32
ENDBRANCH  25  30
ENDBRANCH   9  24
ENDBRANCH   5   8
ENDBRANCH   3   4
ENDBRANCH   2   3
ENDBRANCH   1   2
BRANCH   1  34
ATOM     34  C   UNL     1      -2.639  -4.767  14.652  1.00  0.00     0.002 C 
BRANCH  34  35
ATOM     35  C   UNL     1      -3.939  -5.419  15.135  1.00  0.00     0.021 C 
BRANCH  35  36
ATOM     36  C   UNL     1      -3.785  -6.659  16.014  1.00  0.00     0.116 C 
BRANCH  36  37
ATOM     37  N   UNL     1      -3.060  -6.394  17.245  1.00  0.00    -0.352 N 
ATOM     38  C   UNL     1      -3.392  -6.682  18.548  1.00  0.00     0.251 C 
ATOM     39  H   UNL     1      -2.196  -5.937  17.129  1.00  0.00     0.163 HD
ATOM     40  O   UNL     1      -2.694  -6.243  19.458  1.00  0.00    -0.269 OA
BRANCH  38  41
ATOM     41  C   UNL     1      -4.593  -7.490  18.867  1.00  0.00     0.039 A 
ATOM     42  C   UNL     1      -5.409  -7.087  19.929  1.00  0.00     0.014 A 
ATOM     43  C   UNL     1      -4.909  -8.650  18.153  1.00  0.00     0.014 A 
ATOM     44  C   UNL     1      -6.571  -7.803  20.230  1.00  0.00     0.010 A 
ATOM     45  C   UNL     1      -6.102  -9.326  18.411  1.00  0.00     0.010 A 
ATOM     46  C   UNL     1      -6.948  -8.909  19.450  1.00  0.00    -0.014 A 
BRANCH  46  47
ATOM     47  C   UNL     1      -8.235  -9.615  19.695  1.00  0.00     0.031 A 
ATOM     48  C   UNL     1      -8.251 -11.051  20.145  1.00  0.00     0.074 A 
ATOM     49  C   UNL     1      -9.397  -8.975  19.453  1.00  0.00     0.049 A 
ATOM     50  N   UNL     1      -9.275 -11.833  20.375  1.00  0.00    -0.248 NA
ATOM     51  C   UNL     1      -6.946 -11.701  20.338  1.00  0.00     0.031 C 
ATOM     52  C   UNL     1      -9.517  -7.599  18.966  1.00  0.00     0.029 A 
ATOM     53  N   UNL     1     -10.697  -9.396  19.578  1.00  0.00    -0.354 N 
ATOM     54  C   UNL     1      -8.742 -13.068  20.725  1.00  0.00     0.074 A 
ATOM     55  C   UNL     1      -7.303 -12.944  20.631  1.00  0.00     0.031 C 
ATOM     56  C   UNL     1     -10.817  -7.281  18.862  1.00  0.00     0.029 A 
ATOM     57  C   UNL     1     -11.623  -8.438  19.240  1.00  0.00     0.049 A 
ATOM     58  H   UNL     1     -10.944 -10.300  19.883  1.00  0.00     0.167 HD
ATOM     59  C   UNL     1      -9.390 -14.195  21.109  1.00  0.00     0.037 A 
ATOM     60  C   UNL     1     -12.970  -8.483  19.232  1.00  0.00     0.037 A 
ATOM     61  C   UNL     1     -10.822 -14.307  21.223  1.00  0.00     0.049 A 
ATOM     62  C   UNL     1     -13.667  -9.743  19.663  1.00  0.00     0.074 A 
ATOM     63  C   UNL     1     -11.568 -15.382  21.674  1.00  0.00     0.029 A 
ATOM     64  N   UNL     1     -11.726 -13.313  20.875  1.00  0.00    -0.354 N 
ATOM     65  N   UNL     1     -13.145 -10.878  20.063  1.00  0.00    -0.248 NA
ATOM     66  C   UNL     1     -15.136  -9.728  19.647  1.00  0.00     0.031 C 
ATOM     67  C   UNL     1     -12.924 -15.055  21.554  1.00  0.00     0.029 A 
ATOM     68  C   UNL     1     -13.023 -13.759  21.074  1.00  0.00     0.049 A 
ATOM     69  H   UNL     1     -11.481 -12.421  20.536  1.00  0.00     0.167 HD
ATOM     70  C   UNL     1     -14.220 -11.705  20.367  1.00  0.00     0.074 A 
ATOM     71  C   UNL     1     -15.422 -10.935  20.117  1.00  0.00     0.031 C 
ATOM     72  C   UNL     1     -14.212 -12.986  20.815  1.00  0.00     0.037 A 
BRANCH  59  73
ATOM     73  C   UNL     1      -8.550 -15.403  21.428  1.00  0.00     0.058 A 
ATOM     74  C   UNL     1      -7.734 -15.456  22.570  1.00  0.00     0.135 A 
ATOM     75  C   UNL     1      -8.574 -16.531  20.591  1.00  0.00     0.135 A 
ATOM     76  F   UNL     1      -7.664 -14.403  23.400  1.00  0.00    -0.206 F 
ATOM     77  C   UNL     1      -6.941 -16.565  22.848  1.00  0.00     0.059 A 
ATOM     78  C   UNL     1      -7.811 -17.662  20.865  1.00  0.00     0.059 A 
ATOM     79  F   UNL     1      -9.339 -16.538  19.488  1.00  0.00    -0.206 F 
ATOM     80  C   UNL     1      -6.981 -17.661  21.985  1.00  0.00     0.060 A 
BRANCH  80  81
ATOM     81  S   UNL     1      -5.931 -19.084  22.347  1.00  0.00     0.124 S 
ATOM     82  O   UNL     1      -4.615 -18.577  21.968  1.00  0.00    -0.237 OA
ATOM     83  O   UNL     1      -6.146 -19.279  23.777  1.00  0.00    -0.237 OA
ATOM     84  O   UNL     1      -6.471 -20.133  21.486  1.00  0.00    -0.744 OA
ENDBRANCH  80  81
ENDBRANCH  59  73
BRANCH  60  85
ATOM     85  C   UNL     1     -13.745  -7.278  18.834  1.00  0.00     0.058 A 
ATOM     86  C   UNL     1     -14.447  -6.529  19.790  1.00  0.00     0.135 A 
ATOM     87  C   UNL     1     -13.774  -6.833  17.504  1.00  0.00     0.135 A 
ATOM     88  F   UNL     1     -14.456  -6.920  21.074  1.00  0.00    -0.206 F 
ATOM     89  C   UNL     1     -15.155  -5.384  19.442  1.00  0.00     0.059 A 
ATOM     90  C   UNL     1     -14.455  -5.678  17.135  1.00  0.00     0.059 A 
ATOM     91  F   UNL     1     -13.105  -7.507  16.555  1.00  0.00    -0.206 F 
ATOM     92  C   UNL     1     -15.148  -4.962  18.111  1.00  0.00     0.060 A 
BRANCH  92  93
ATOM     93  S   UNL     1     -16.011  -3.435  17.682  1.00  0.00     0.124 S 
ATOM     94  O   UNL     1     -17.406  -3.855  17.759  1.00  0.00    -0.237 OA
ATOM     95  O   UNL     1     -15.559  -2.523  18.728  1.00  0.00    -0.237 OA
ATOM     96  O   UNL     1     -15.514  -3.135  16.343  1.00  0.00    -0.744 OA
ENDBRANCH  92  93
ENDBRANCH  60  85
BRANCH  72  97
ATOM     97  C   UNL     1     -15.545 -13.630  21.082  1.00  0.00     0.058 A 
ATOM     98  C   UNL     1     -16.396 -14.024  20.037  1.00  0.00     0.135 A 
ATOM     99  C   UNL     1     -15.960 -13.889  22.398  1.00  0.00     0.135 A 
ATOM    100  F   UNL     1     -16.050 -13.793  18.761  1.00  0.00    -0.206 F 
ATOM    101  C   UNL     1     -17.624 -14.628  20.289  1.00  0.00     0.059 A 
ATOM    102  C   UNL     1     -17.172 -14.515  22.672  1.00  0.00     0.059 A 
ATOM    103  F   UNL     1     -15.181 -13.541  23.434  1.00  0.00    -0.206 F 
ATOM    104  C   UNL     1     -18.004 -14.869  21.610  1.00  0.00     0.060 A 
BRANCH 104 105
ATOM    105  S   UNL     1     -19.589 -15.674  21.923  1.00  0.00     0.124 S 
ATOM    106  O   UNL     1     -20.527 -14.587  21.660  1.00  0.00    -0.237 OA
ATOM    107  O   UNL     1     -19.588 -16.759  20.948  1.00  0.00    -0.237 OA
ATOM    108  O   UNL     1     -19.488 -16.093  23.318  1.00  0.00    -0.744 OA
ENDBRANCH 104 105
ENDBRANCH  72  97
ENDBRANCH  46  47
ENDBRANCH  38  41
ENDBRANCH  36  37
ENDBRANCH  35  36
ENDBRANCH  34  35
ENDBRANCH   1  34
TORSDOF 19
