REMARK SMILES COc1cc2ccccc2cc1C(=O)Nc1cc(C(=O)NCCCCCCNC(=O)c2ccc(-c3c4nc(c(-c5c(F)cc(S(=O)(=O)[O-])cc5F)c5ccc([nH]5)c(-c5c(F)cc(S(=O)(=O)[O-])cc5F)c5nc(c(-c6c(F)cc(S(=O)(=O)[O-])cc6F)c6ccc3[nH]6)C=C5)C=C4)cc2)ccc1C
REMARK SMILES IDX 24 1 23 2 22 3 21 4 19 5 20 6 18 8 16 9 17 10 99 11 98 12
REMARK SMILES IDX 100 13 97 14 15 15 13 16 14 17 12 19 3 20 4 21 5 22 11 23
REMARK SMILES IDX 6 24 10 25 7 26 9 27 8 28 2 29 1 30 25 31 26 32 27 33 28 34
REMARK SMILES IDX 29 35 30 37 31 38 32 39 96 40 33 41 95 42 34 43 35 44 36 45
REMARK SMILES IDX 89 46 37 47 94 48 88 49 90 50 38 51 93 52 87 53 86 54 39 56
REMARK SMILES IDX 73 57 52 58 72 59 53 60 56 61 71 62 91 63 54 64 55 65 70 67
REMARK SMILES IDX 92 68 57 69 40 70 41 71 50 72 42 73 43 74 49 75 51 76 44 77
REMARK SMILES IDX 45 78 46 79 47 80 48 81 74 82 75 83 84 84 76 85 77 86 83 87
REMARK SMILES IDX 85 88 78 89 79 90 80 91 81 92 82 93 58 94 59 95 68 96 60 97
REMARK SMILES IDX 61 98 67 99 69 100 62 101 63 102 64 103 65 104 66 105
REMARK H PARENT 21 7 15 18 28 36 90 55 56 66
REMARK Flexibility Score: inf
ROOT
ATOM      1  C   UNL     1       0.922  -3.417   6.132  1.00  0.00     0.002 C 
ENDROOT
BRANCH   1   2
ATOM      2  C   UNL     1       1.268  -2.508   4.942  1.00  0.00     0.021 C 
BRANCH   2   3
ATOM      3  C   UNL     1       0.210  -2.513   3.838  1.00  0.00     0.116 C 
BRANCH   3   4
ATOM      4  N   UNL     1      -0.776  -1.470   4.045  1.00  0.00    -0.352 N 
ATOM      5  C   UNL     1      -0.969  -0.216   3.527  1.00  0.00     0.251 C 
ATOM      6  O   UNL     1      -1.974   0.385   3.918  1.00  0.00    -0.269 OA
ATOM      7  H   UNL     1      -1.462  -1.720   4.706  1.00  0.00     0.163 HD
BRANCH   5   8
ATOM      8  C   UNL     1      -0.101   0.445   2.502  1.00  0.00     0.041 A 
ATOM      9  C   UNL     1       1.809   0.609   0.999  1.00  0.00     0.045 A 
ATOM     10  C   UNL     1       1.161   0.015   2.095  1.00  0.00     0.040 A 
ATOM     11  C   UNL     1       1.313   1.799   0.437  1.00  0.00    -0.027 A 
ATOM     12  C   UNL     1       0.073   2.270   0.884  1.00  0.00     0.006 A 
ATOM     13  C   UNL     1       1.948   2.496  -0.735  1.00  0.00     0.046 C 
ATOM     14  C   UNL     1      -0.633   1.586   1.878  1.00  0.00     0.014 A 
BRANCH   9  15
ATOM     15  N   UNL     1       2.916  -0.015   0.403  1.00  0.00    -0.322 N 
ATOM     16  C   UNL     1       3.155  -1.344   0.120  1.00  0.00     0.259 C 
ATOM     17  O   UNL     1       4.267  -1.643  -0.326  1.00  0.00    -0.269 OA
ATOM     18  H   UNL     1       3.643   0.597   0.144  1.00  0.00     0.170 HD
BRANCH  16  19
ATOM     19  C   UNL     1       2.139  -2.434   0.229  1.00  0.00     0.082 A 
ATOM     20  C   UNL     1       0.768  -2.319  -0.040  1.00  0.00     0.132 A 
ATOM     21  C   UNL     1      -0.096  -3.398   0.188  1.00  0.00     0.056 A 
ATOM     22  C   UNL     1       0.401  -4.655   0.552  1.00  0.00    -0.015 A 
ATOM     23  C   UNL     1       2.641  -3.709   0.552  1.00  0.00     0.026 A 
ATOM     24  C   UNL     1      -0.456  -5.747   0.760  1.00  0.00     0.009 A 
ATOM     25  C   UNL     1       1.795  -4.825   0.693  1.00  0.00    -0.017 A 
ATOM     26  C   UNL     1       0.061  -7.008   1.055  1.00  0.00     0.001 A 
ATOM     27  C   UNL     1       2.299  -6.105   0.975  1.00  0.00     0.009 A 
ATOM     28  C   UNL     1       1.438  -7.190   1.146  1.00  0.00     0.001 A 
BRANCH  20  29
ATOM     29  O   UNL     1       0.153  -1.179  -0.478  1.00  0.00    -0.496 OA
ATOM     30  C   UNL     1       0.386  -0.960  -1.865  1.00  0.00     0.278 C 
ENDBRANCH  20  29
ENDBRANCH  16  19
ENDBRANCH   9  15
ENDBRANCH   5   8
ENDBRANCH   3   4
ENDBRANCH   2   3
ENDBRANCH   1   2
BRANCH   1  31
ATOM     31  C   UNL     1       0.718  -4.910   5.809  1.00  0.00     0.002 C 
BRANCH  31  32
ATOM     32  C   UNL     1       1.778  -5.552   4.911  1.00  0.00     0.021 C 
BRANCH  32  33
ATOM     33  C   UNL     1       3.156  -5.615   5.557  1.00  0.00     0.116 C 
BRANCH  33  34
ATOM     34  N   UNL     1       3.540  -6.954   5.969  1.00  0.00    -0.352 N 
ATOM     35  C   UNL     1       4.796  -7.350   6.404  1.00  0.00     0.251 C 
ATOM     36  H   UNL     1       2.841  -7.646   5.936  1.00  0.00     0.163 HD
ATOM     37  O   UNL     1       5.200  -8.489   6.327  1.00  0.00    -0.269 OA
BRANCH  35  38
ATOM     38  C   UNL     1       5.564  -6.324   7.145  1.00  0.00     0.039 A 
ATOM     39  C   UNL     1       5.615  -6.457   8.539  1.00  0.00     0.014 A 
ATOM     40  C   UNL     1       5.964  -5.149   6.514  1.00  0.00     0.014 A 
ATOM     41  C   UNL     1       5.923  -5.347   9.320  1.00  0.00     0.010 A 
ATOM     42  C   UNL     1       6.202  -4.032   7.294  1.00  0.00     0.010 A 
ATOM     43  C   UNL     1       6.133  -4.120   8.694  1.00  0.00    -0.014 A 
BRANCH  43  44
ATOM     44  C   UNL     1       6.222  -2.855   9.414  1.00  0.00     0.031 A 
ATOM     45  C   UNL     1       7.537  -2.195   9.589  1.00  0.00     0.074 A 
ATOM     46  C   UNL     1       5.099  -2.250   9.859  1.00  0.00     0.049 A 
ATOM     47  N   UNL     1       7.755  -1.209  10.394  1.00  0.00    -0.248 NA
ATOM     48  C   UNL     1       8.751  -2.667   8.927  1.00  0.00     0.031 C 
ATOM     49  C   UNL     1       4.948  -0.854  10.260  1.00  0.00     0.029 A 
ATOM     50  N   UNL     1       3.905  -2.856  10.256  1.00  0.00    -0.354 N 
ATOM     51  C   UNL     1       9.021  -0.735  10.141  1.00  0.00     0.074 A 
ATOM     52  C   UNL     1       9.639  -1.758   9.340  1.00  0.00     0.031 C 
ATOM     53  C   UNL     1       3.866  -0.739  11.044  1.00  0.00     0.029 A 
ATOM     54  C   UNL     1       3.379  -2.080  11.308  1.00  0.00     0.049 A 
ATOM     55  H   UNL     1       3.506  -3.670   9.872  1.00  0.00     0.167 HD
ATOM     56  C   UNL     1       9.333   0.536  10.523  1.00  0.00     0.037 A 
ATOM     57  C   UNL     1       3.210  -2.605  12.559  1.00  0.00     0.037 A 
ATOM     58  C   UNL     1       8.365   1.027  11.509  1.00  0.00     0.049 A 
ATOM     59  C   UNL     1       4.024  -1.920  13.636  1.00  0.00     0.074 A 
ATOM     60  C   UNL     1       7.323   1.936  11.459  1.00  0.00     0.029 A 
ATOM     61  N   UNL     1       8.239   0.353  12.723  1.00  0.00    -0.354 N 
ATOM     62  N   UNL     1       5.011  -1.099  13.399  1.00  0.00    -0.248 NA
ATOM     63  C   UNL     1       3.803  -2.120  15.066  1.00  0.00     0.031 C 
ATOM     64  C   UNL     1       6.501   1.718  12.600  1.00  0.00     0.029 A 
ATOM     65  C   UNL     1       7.071   0.714  13.367  1.00  0.00     0.049 A 
ATOM     66  H   UNL     1       8.893  -0.293  13.075  1.00  0.00     0.167 HD
ATOM     67  C   UNL     1       5.583  -0.710  14.583  1.00  0.00     0.074 A 
ATOM     68  C   UNL     1       4.765  -1.346  15.599  1.00  0.00     0.031 C 
ATOM     69  C   UNL     1       6.693   0.087  14.629  1.00  0.00     0.037 A 
BRANCH  56  70
ATOM     70  C   UNL     1      10.377   1.422   9.848  1.00  0.00     0.058 A 
ATOM     71  C   UNL     1      10.540   2.769  10.252  1.00  0.00     0.135 A 
ATOM     72  C   UNL     1      11.142   1.072   8.711  1.00  0.00     0.135 A 
ATOM     73  F   UNL     1       9.882   3.259  11.313  1.00  0.00    -0.206 F 
ATOM     74  C   UNL     1      11.352   3.686   9.567  1.00  0.00     0.059 A 
ATOM     75  C   UNL     1      11.988   1.956   8.038  1.00  0.00     0.059 A 
ATOM     76  F   UNL     1      11.074  -0.131   8.135  1.00  0.00    -0.206 F 
ATOM     77  C   UNL     1      12.067   3.272   8.452  1.00  0.00     0.060 A 
BRANCH  77  78
ATOM     78  S   UNL     1      13.069   4.451   7.528  1.00  0.00     0.124 S 
ATOM     79  O   UNL     1      12.049   5.290   6.906  1.00  0.00    -0.237 OA
ATOM     80  O   UNL     1      13.861   5.082   8.577  1.00  0.00    -0.237 OA
ATOM     81  O   UNL     1      13.824   3.607   6.605  1.00  0.00    -0.744 OA
ENDBRANCH  77  78
ENDBRANCH  56  70
BRANCH  57  82
ATOM     82  C   UNL     1       2.824  -4.043  12.537  1.00  0.00     0.058 A 
ATOM     83  C   UNL     1       1.554  -4.363  12.019  1.00  0.00     0.135 A 
ATOM     84  C   UNL     1       3.792  -5.056  12.553  1.00  0.00     0.135 A 
ATOM     85  F   UNL     1       0.582  -3.436  12.007  1.00  0.00    -0.206 F 
ATOM     86  C   UNL     1       1.311  -5.571  11.374  1.00  0.00     0.059 A 
ATOM     87  C   UNL     1       3.565  -6.281  11.921  1.00  0.00     0.059 A 
ATOM     88  F   UNL     1       5.017  -4.814  13.044  1.00  0.00    -0.206 F 
ATOM     89  C   UNL     1       2.351  -6.491  11.264  1.00  0.00     0.060 A 
BRANCH  89  90
ATOM     90  S   UNL     1       2.141  -7.876  10.117  1.00  0.00     0.124 S 
ATOM     91  O   UNL     1       0.907  -8.488  10.598  1.00  0.00    -0.237 OA
ATOM     92  O   UNL     1       2.044  -7.191   8.829  1.00  0.00    -0.237 OA
ATOM     93  O   UNL     1       3.353  -8.662  10.316  1.00  0.00    -0.744 OA
ENDBRANCH  89  90
ENDBRANCH  57  82
BRANCH  69  94
ATOM     94  C   UNL     1       7.487   0.405  15.876  1.00  0.00     0.058 A 
ATOM     95  C   UNL     1       7.645  -0.479  16.958  1.00  0.00     0.135 A 
ATOM     96  C   UNL     1       8.239   1.602  15.955  1.00  0.00     0.135 A 
ATOM     97  F   UNL     1       7.079  -1.694  16.952  1.00  0.00    -0.206 F 
ATOM     98  C   UNL     1       8.430  -0.170  18.073  1.00  0.00     0.059 A 
ATOM     99  C   UNL     1       9.070   1.907  17.031  1.00  0.00     0.059 A 
ATOM    100  F   UNL     1       8.195   2.517  14.975  1.00  0.00    -0.206 F 
ATOM    101  C   UNL     1       9.138   1.027  18.102  1.00  0.00     0.060 A 
BRANCH 101 102
ATOM    102  S   UNL     1      10.200   1.417  19.507  1.00  0.00     0.124 S 
ATOM    103  O   UNL     1       9.304   2.217  20.337  1.00  0.00    -0.237 OA
ATOM    104  O   UNL     1      10.539   0.100  20.038  1.00  0.00    -0.237 OA
ATOM    105  O   UNL     1      11.308   2.140  18.892  1.00  0.00    -0.744 OA
ENDBRANCH 101 102
ENDBRANCH  69  94
ENDBRANCH  43  44
ENDBRANCH  35  38
ENDBRANCH  33  34
ENDBRANCH  32  33
ENDBRANCH  31  32
ENDBRANCH   1  31
TORSDOF 19
