REMARK SMILES CC[C@](C)(C(=O)NCCCCCCNC(=O)c1ccc(-c2c3nc(c(-c4c(F)cc(S(=O)(=O)[O-])cc4F)c4ccc([nH]4)c(-c4c(F)cc(S(=O)(=O)[O-])cc4F)c4nc(c(-c5c(F)cc(S(=O)(=O)[O-])cc5F)c5ccc2[nH]5)C=C4)C=C3)cc1)[C@@H]1CCCCC[C@@H]1O
REMARK SMILES IDX 10 1 9 2 8 3 7 4 5 5 6 6 3 8 4 9 2 10 1 11 83 12 84 13 85 14
REMARK SMILES IDX 86 15 89 17 88 18 87 19 90 21 11 23 12 24 13 25 14 26 15 27
REMARK SMILES IDX 16 29 17 30 18 31 82 32 19 33 81 34 20 35 21 36 22 37 75 38
REMARK SMILES IDX 23 39 80 40 74 41 76 42 24 43 79 44 73 45 72 46 25 48 59 49
REMARK SMILES IDX 38 50 58 51 39 52 42 53 57 54 77 55 40 56 41 57 56 59 78 60
REMARK SMILES IDX 43 61 26 62 27 63 36 64 28 65 29 66 35 67 37 68 30 69 31 70
REMARK SMILES IDX 32 71 33 72 34 73 60 74 61 75 70 76 62 77 63 78 69 79 71 80
REMARK SMILES IDX 64 81 65 82 66 83 67 84 68 85 44 86 45 87 54 88 46 89 47 90
REMARK SMILES IDX 53 91 55 92 48 93 49 94 50 95 51 96 52 97
REMARK H PARENT 7 7 90 22 14 28 76 47 42 58
REMARK Flexibility Score: 90.00
ROOT
ATOM      1  C   UNL     1       2.011   5.020   7.580  1.00  0.00     0.002 C 
ENDROOT
BRANCH   1   2
ATOM      2  C   UNL     1       2.886   4.980   6.327  1.00  0.00     0.021 C 
BRANCH   2   3
ATOM      3  C   UNL     1       3.443   3.595   6.003  1.00  0.00     0.116 C 
BRANCH   3   4
ATOM      4  N   UNL     1       2.407   2.698   5.506  1.00  0.00    -0.356 N 
ATOM      5  C   UNL     1       2.258   2.042   4.315  1.00  0.00     0.226 C 
ATOM      6  O   UNL     1       1.238   1.358   4.198  1.00  0.00    -0.274 OA
ATOM      7  H   UNL     1       1.679   2.533   6.148  1.00  0.00     0.163 HD
BRANCH   5   8
ATOM      8  C   UNL     1       3.317   2.167   3.167  1.00  0.00     0.051 C 
ATOM      9  C   UNL     1       3.323   3.687   2.795  1.00  0.00     0.022 C 
BRANCH   8  10
ATOM     10  C   UNL     1       4.715   1.759   3.782  1.00  0.00     0.013 C 
ATOM     11  C   UNL     1       5.569   0.622   3.249  1.00  0.00     0.005 C 
ENDBRANCH   8  10
BRANCH   8  12
ATOM     12  C   UNL     1       2.784   1.345   1.883  1.00  0.00     0.033 C 
BRANCH  12  13
ATOM     13  C   UNL     1       2.910  -0.193   2.031  1.00  0.00     0.007 C 
BRANCH  13  14
ATOM     14  C   UNL     1       2.025  -1.010   1.087  1.00  0.00     0.000 C 
BRANCH  14  15
ATOM     15  C   UNL     1       2.715  -1.369  -0.228  1.00  0.00     0.000 CG0
ATOM     16  G   UNL     1       3.438  -0.227  -0.933  1.00  0.00     0.000 G0
ENDBRANCH  14  15
ENDBRANCH  13  14
ENDBRANCH  12  13
BRANCH  12  17
ATOM     17  C   UNL     1       3.275   1.890   0.506  1.00  0.00     0.118 C 
BRANCH  17  18
ATOM     18  C   UNL     1       2.785   1.137  -0.740  1.00  0.00     0.032 C 
BRANCH  18  19
ATOM     19  C   UNL     1       3.438  -0.227  -0.933  1.00  0.00     0.003 CG0
ATOM     20  G   UNL     1       2.715  -1.369  -0.228  1.00  0.00     0.000 G0
ENDBRANCH  18  19
ENDBRANCH  17  18
BRANCH  17  21
ATOM     21  O   UNL     1       4.692   1.977   0.431  1.00  0.00    -0.393 OA
ATOM     22  H   UNL     1       5.072   1.085   0.455  1.00  0.00     0.210 HD
ENDBRANCH  17  21
ENDBRANCH  12  17
ENDBRANCH   8  12
ENDBRANCH   5   8
ENDBRANCH   3   4
ENDBRANCH   2   3
ENDBRANCH   1   2
BRANCH   1  23
ATOM     23  C   UNL     1       2.694   4.508   8.852  1.00  0.00     0.002 C 
BRANCH  23  24
ATOM     24  C   UNL     1       4.043   5.160   9.169  1.00  0.00     0.021 C 
BRANCH  24  25
ATOM     25  C   UNL     1       3.996   6.678   9.293  1.00  0.00     0.116 C 
BRANCH  25  26
ATOM     26  N   UNL     1       3.113   7.106  10.365  1.00  0.00    -0.352 N 
ATOM     27  C   UNL     1       3.386   7.908  11.445  1.00  0.00     0.251 C 
ATOM     28  H   UNL     1       2.188   6.774  10.308  1.00  0.00     0.163 HD
ATOM     29  O   UNL     1       2.586   7.987  12.369  1.00  0.00    -0.269 OA
BRANCH  27  30
ATOM     30  C   UNL     1       4.658   8.661  11.489  1.00  0.00     0.039 A 
ATOM     31  C   UNL     1       5.396   8.672  12.674  1.00  0.00     0.014 A 
ATOM     32  C   UNL     1       5.119   9.351  10.364  1.00  0.00     0.014 A 
ATOM     33  C   UNL     1       6.626   9.332  12.713  1.00  0.00     0.010 A 
ATOM     34  C   UNL     1       6.378   9.941  10.382  1.00  0.00     0.010 A 
ATOM     35  C   UNL     1       7.143   9.944  11.558  1.00  0.00    -0.014 A 
BRANCH  35  36
ATOM     36  C   UNL     1       8.480  10.590  11.564  1.00  0.00     0.031 A 
ATOM     37  C   UNL     1       8.608  12.067  11.305  1.00  0.00     0.074 A 
ATOM     38  C   UNL     1       9.582   9.835  11.742  1.00  0.00     0.049 A 
ATOM     39  N   UNL     1       9.689  12.797  11.211  1.00  0.00    -0.248 NA
ATOM     40  C   UNL     1       7.358  12.816  11.098  1.00  0.00     0.031 C 
ATOM     41  C   UNL     1       9.589   8.385  11.951  1.00  0.00     0.029 A 
ATOM     42  N   UNL     1      10.911  10.178  11.763  1.00  0.00    -0.354 N 
ATOM     43  C   UNL     1       9.252  14.085  10.922  1.00  0.00     0.074 A 
ATOM     44  C   UNL     1       7.812  14.025  10.800  1.00  0.00     0.031 C 
ATOM     45  C   UNL     1      10.856   7.967  12.099  1.00  0.00     0.029 A 
ATOM     46  C   UNL     1      11.755   9.108  11.954  1.00  0.00     0.049 A 
ATOM     47  H   UNL     1      11.230  11.102  11.652  1.00  0.00     0.167 HD
ATOM     48  C   UNL     1       9.983  15.219  10.794  1.00  0.00     0.037 A 
ATOM     49  C   UNL     1      13.100   9.050  11.994  1.00  0.00     0.037 A 
ATOM     50  C   UNL     1      11.415  15.271  10.936  1.00  0.00     0.049 A 
ATOM     51  C   UNL     1      13.892  10.321  11.842  1.00  0.00     0.074 A 
ATOM     52  C   UNL     1      12.244  16.378  10.886  1.00  0.00     0.029 A 
ATOM     53  N   UNL     1      12.233  14.170  11.148  1.00  0.00    -0.354 N 
ATOM     54  N   UNL     1      13.458  11.543  11.642  1.00  0.00    -0.248 NA
ATOM     55  C   UNL     1      15.354  10.208  11.927  1.00  0.00     0.031 C 
ATOM     56  C   UNL     1      13.566  15.941  11.009  1.00  0.00     0.029 A 
ATOM     57  C   UNL     1      13.559  14.568  11.201  1.00  0.00     0.049 A 
ATOM     58  H   UNL     1      11.918  13.243  11.246  1.00  0.00     0.167 HD
ATOM     59  C   UNL     1      14.592  12.348  11.606  1.00  0.00     0.074 A 
ATOM     60  C   UNL     1      15.728  11.476  11.818  1.00  0.00     0.031 C 
ATOM     61  C   UNL     1      14.682  13.688  11.417  1.00  0.00     0.037 A 
BRANCH  48  62
ATOM     62  C   UNL     1       9.247  16.494  10.481  1.00  0.00     0.058 A 
ATOM     63  C   UNL     1       8.390  17.104  11.413  1.00  0.00     0.135 A 
ATOM     64  C   UNL     1       9.425  17.135   9.244  1.00  0.00     0.135 A 
ATOM     65  F   UNL     1       8.171  16.530  12.606  1.00  0.00    -0.206 F 
ATOM     66  C   UNL     1       7.711  18.281  11.117  1.00  0.00     0.059 A 
ATOM     67  C   UNL     1       8.782  18.331   8.938  1.00  0.00     0.059 A 
ATOM     68  F   UNL     1      10.232  16.599   8.315  1.00  0.00    -0.206 F 
ATOM     69  C   UNL     1       7.913  18.887   9.876  1.00  0.00     0.060 A 
BRANCH  69  70
ATOM     70  S   UNL     1       7.024  20.414   9.509  1.00  0.00     0.124 S 
ATOM     71  O   UNL     1       5.659  19.923   9.341  1.00  0.00    -0.237 OA
ATOM     72  O   UNL     1       7.266  21.212  10.707  1.00  0.00    -0.237 OA
ATOM     73  O   UNL     1       7.668  20.901   8.293  1.00  0.00    -0.744 OA
ENDBRANCH  69  70
ENDBRANCH  48  62
BRANCH  49  74
ATOM     74  C   UNL     1      13.780   7.742  12.200  1.00  0.00     0.058 A 
ATOM     75  C   UNL     1      14.461   7.459  13.393  1.00  0.00     0.135 A 
ATOM     76  C   UNL     1      13.747   6.743  11.215  1.00  0.00     0.135 A 
ATOM     77  F   UNL     1      14.527   8.383  14.364  1.00  0.00    -0.206 F 
ATOM     78  C   UNL     1      15.099   6.239  13.597  1.00  0.00     0.059 A 
ATOM     79  C   UNL     1      14.352   5.505  11.406  1.00  0.00     0.059 A 
ATOM     80  F   UNL     1      13.094   6.957  10.062  1.00  0.00    -0.206 F 
ATOM     81  C   UNL     1      15.034   5.266  12.598  1.00  0.00     0.060 A 
BRANCH  81  82
ATOM     82  S   UNL     1      15.821   3.668  12.893  1.00  0.00     0.124 S 
ATOM     83  O   UNL     1      17.235   4.016  12.809  1.00  0.00    -0.237 OA
ATOM     84  O   UNL     1      15.325   3.325  14.222  1.00  0.00    -0.237 OA
ATOM     85  O   UNL     1      15.310   2.836  11.808  1.00  0.00    -0.744 OA
ENDBRANCH  81  82
ENDBRANCH  49  74
BRANCH  61  86
ATOM     86  C   UNL     1      16.054  14.306  11.465  1.00  0.00     0.058 A 
ATOM     87  C   UNL     1      16.993  14.107  10.441  1.00  0.00     0.135 A 
ATOM     88  C   UNL     1      16.412  15.154  12.526  1.00  0.00     0.135 A 
ATOM     89  F   UNL     1      16.706  13.300   9.407  1.00  0.00    -0.206 F 
ATOM     90  C   UNL     1      18.247  14.708  10.479  1.00  0.00     0.059 A 
ATOM     91  C   UNL     1      17.648  15.791  12.568  1.00  0.00     0.059 A 
ATOM     92  F   UNL     1      15.548  15.388  13.527  1.00  0.00    -0.206 F 
ATOM     93  C   UNL     1      18.564  15.552  11.545  1.00  0.00     0.060 A 
BRANCH  93  94
ATOM     94  S   UNL     1      20.181  16.354  11.562  1.00  0.00     0.124 S 
ATOM     95  O   UNL     1      21.062  15.233  11.874  1.00  0.00    -0.237 OA
ATOM     96  O   UNL     1      20.282  16.880  10.204  1.00  0.00    -0.237 OA
ATOM     97  O   UNL     1      20.051  17.361  12.610  1.00  0.00    -0.744 OA
ENDBRANCH  93  94
ENDBRANCH  61  86
ENDBRANCH  35  36
ENDBRANCH  27  30
ENDBRANCH  25  26
ENDBRANCH  24  25
ENDBRANCH  23  24
ENDBRANCH   1  23
TORSDOF 19
