REMARK SMILES COc1ccc(CCN2C(=O)C[C@@H](C(=O)NCCCCCCNC(=O)c3ccc(-c4c5nc(c(-c6c(F)cc(S(=O)(=O)[O-])cc6F)c6ccc([nH]6)c(-c6c(F)cc(S(=O)(=O)[O-])cc6F)c6nc(c(-c7c(F)cc(S(=O)(=O)[O-])cc7F)c7ccc4[nH]7)C=C6)C=C5)cc3)S/C2=[NH+]\c2ccc(F)cc2)cc1OC
REMARK SMILES IDX 19 1 18 2 17 3 16 4 14 5 15 6 13 8 9 9 10 10 93 11 11 12
REMARK SMILES IDX 12 13 92 14 94 15 8 17 7 18 6 19 3 20 4 21 103 22 5 23
REMARK SMILES IDX 102 24 2 25 1 26 104 27 105 28 95 29 96 30 101 31 97 32
REMARK SMILES IDX 100 33 98 34 99 35 20 36 21 37 22 38 23 39 24 40 25 42 26 43
REMARK SMILES IDX 27 44 91 45 28 46 90 47 29 48 30 49 31 50 84 51 32 52 89 53
REMARK SMILES IDX 83 54 85 55 33 56 88 57 82 58 81 59 34 61 68 62 47 63 67 64
REMARK SMILES IDX 48 65 51 66 66 67 86 68 49 69 50 70 65 72 87 73 52 74 35 75
REMARK SMILES IDX 36 76 45 77 37 78 38 79 44 80 46 81 39 82 40 83 41 84 42 85
REMARK SMILES IDX 43 86 69 87 70 88 79 89 71 90 72 91 78 92 80 93 73 94 74 95
REMARK SMILES IDX 75 96 76 97 77 98 53 99 54 100 63 101 55 102 56 103 62 104
REMARK SMILES IDX 64 105 57 106 58 107 59 108 60 109 61 110
REMARK H PARENT 16 7 94 16 23 41 85 60 51 71
REMARK Flexibility Score: inf
ROOT
ATOM      1  C   UNL     1      -2.833  -1.494   1.395  1.00  0.00     0.002 C 
ENDROOT
BRANCH   1   2
ATOM      2  C   UNL     1      -2.263  -1.585   2.816  1.00  0.00     0.021 C 
BRANCH   2   3
ATOM      3  C   UNL     1      -2.089  -0.263   3.566  1.00  0.00     0.116 C 
BRANCH   3   4
ATOM      4  N   UNL     1      -3.240   0.208   4.314  1.00  0.00    -0.355 N 
ATOM      5  C   UNL     1      -3.393   0.417   5.664  1.00  0.00     0.234 C 
ATOM      6  O   UNL     1      -4.410   1.016   6.029  1.00  0.00    -0.274 OA
ATOM      7  H   UNL     1      -4.036   0.409   3.769  1.00  0.00     0.163 HD
BRANCH   5   8
ATOM      8  C   UNL     1      -2.364  -0.058   6.715  1.00  0.00     0.160 C 
ATOM      9  N   UNL     1       0.343  -1.250   7.152  1.00  0.00    -0.191 N 
ATOM     10  C   UNL     1       0.105   0.104   7.359  1.00  0.00     0.311 C 
ATOM     11  C   UNL     1      -0.651  -2.217   7.236  1.00  0.00     0.319 C 
ATOM     12  O   UNL     1       0.871   0.817   8.012  1.00  0.00    -0.247 OA
ATOM     13  C   UNL     1      -1.088   0.739   6.690  1.00  0.00     0.153 C 
ATOM     14  S   UNL     1      -2.209  -1.831   6.559  1.00  0.00    -0.024 SA
ATOM     15  N   UNL     1      -0.379  -3.391   7.728  1.00  0.00    -0.235 N 
ATOM     16  H   UNL     1       0.534  -3.605   8.026  1.00  0.00     0.313 HD
BRANCH   9  17
ATOM     17  C   UNL     1       1.756  -1.687   7.186  1.00  0.00     0.251 C 
BRANCH  17  18
ATOM     18  C   UNL     1       2.233  -2.397   5.881  1.00  0.00     0.082 C 
BRANCH  18  19
ATOM     19  C   UNL     1       2.412  -1.529   4.643  1.00  0.00    -0.040 A 
ATOM     20  C   UNL     1       2.768   0.176   2.398  1.00  0.00     0.160 A 
ATOM     21  C   UNL     1       1.617   0.262   3.170  1.00  0.00     0.051 A 
ATOM     22  C   UNL     1       3.709  -0.817   2.690  1.00  0.00     0.160 A 
ATOM     23  C   UNL     1       1.446  -0.605   4.254  1.00  0.00     0.008 A 
ATOM     24  C   UNL     1       3.535  -1.647   3.816  1.00  0.00     0.054 A 
BRANCH  20  25
ATOM     25  O   UNL     1       3.064   1.173   1.508  1.00  0.00    -0.493 OA
ATOM     26  C   UNL     1       2.211   1.206   0.371  1.00  0.00     0.278 C 
ENDBRANCH  20  25
BRANCH  22  27
ATOM     27  O   UNL     1       4.867  -1.034   1.993  1.00  0.00    -0.493 OA
ATOM     28  C   UNL     1       4.738  -0.945   0.576  1.00  0.00     0.278 C 
ENDBRANCH  22  27
ENDBRANCH  18  19
ENDBRANCH  17  18
ENDBRANCH   9  17
BRANCH  15  29
ATOM     29  C   UNL     1      -1.403  -4.351   7.828  1.00  0.00     0.125 A 
ATOM     30  C   UNL     1      -2.209  -4.408   8.974  1.00  0.00     0.055 A 
ATOM     31  C   UNL     1      -1.679  -5.201   6.751  1.00  0.00     0.055 A 
ATOM     32  C   UNL     1      -3.326  -5.246   9.009  1.00  0.00     0.043 A 
ATOM     33  C   UNL     1      -2.799  -6.034   6.782  1.00  0.00     0.043 A 
ATOM     34  C   UNL     1      -3.619  -6.038   7.905  1.00  0.00     0.123 A 
ATOM     35  F   UNL     1      -4.714  -6.809   7.919  1.00  0.00    -0.207 F 
ENDBRANCH  15  29
ENDBRANCH   5   8
ENDBRANCH   3   4
ENDBRANCH   2   3
ENDBRANCH   1   2
BRANCH   1  36
ATOM     36  C   UNL     1      -2.111  -0.562   0.413  1.00  0.00     0.002 C 
BRANCH  36  37
ATOM     37  C   UNL     1      -0.611  -0.798   0.218  1.00  0.00     0.021 C 
BRANCH  37  38
ATOM     38  C   UNL     1      -0.202  -1.996  -0.643  1.00  0.00     0.116 C 
BRANCH  38  39
ATOM     39  N   UNL     1      -0.388  -1.720  -2.060  1.00  0.00    -0.352 N 
ATOM     40  C   UNL     1       0.491  -1.596  -3.110  1.00  0.00     0.251 C 
ATOM     41  H   UNL     1      -1.330  -1.597  -2.318  1.00  0.00     0.163 HD
ATOM     42  O   UNL     1       0.054  -1.108  -4.154  1.00  0.00    -0.269 OA
BRANCH  40  43
ATOM     43  C   UNL     1       1.923  -2.012  -3.057  1.00  0.00     0.039 A 
ATOM     44  C   UNL     1       2.822  -1.368  -3.923  1.00  0.00     0.014 A 
ATOM     45  C   UNL     1       2.395  -3.077  -2.287  1.00  0.00     0.014 A 
ATOM     46  C   UNL     1       4.166  -1.766  -3.998  1.00  0.00     0.010 A 
ATOM     47  C   UNL     1       3.755  -3.428  -2.311  1.00  0.00     0.010 A 
ATOM     48  C   UNL     1       4.659  -2.788  -3.175  1.00  0.00    -0.014 A 
BRANCH  48  49
ATOM     49  C   UNL     1       6.098  -3.194  -3.219  1.00  0.00     0.031 A 
ATOM     50  C   UNL     1       6.495  -4.598  -3.616  1.00  0.00     0.074 A 
ATOM     51  C   UNL     1       7.061  -2.319  -2.857  1.00  0.00     0.049 A 
ATOM     52  N   UNL     1       7.684  -5.148  -3.634  1.00  0.00    -0.248 NA
ATOM     53  C   UNL     1       5.415  -5.504  -4.036  1.00  0.00     0.031 C 
ATOM     54  C   UNL     1       6.833  -0.934  -2.439  1.00  0.00     0.029 A 
ATOM     55  N   UNL     1       8.425  -2.468  -2.759  1.00  0.00    -0.354 N 
ATOM     56  C   UNL     1       7.495  -6.465  -4.043  1.00  0.00     0.074 A 
ATOM     57  C   UNL     1       6.071  -6.641  -4.232  1.00  0.00     0.031 C 
ATOM     58  C   UNL     1       8.007  -0.369  -2.115  1.00  0.00     0.029 A 
ATOM     59  C   UNL     1       9.073  -1.353  -2.274  1.00  0.00     0.049 A 
ATOM     60  H   UNL     1       8.895  -3.295  -3.011  1.00  0.00     0.167 HD
ATOM     61  C   UNL     1       8.419  -7.434  -4.257  1.00  0.00     0.037 A 
ATOM     62  C   UNL     1      10.370  -1.144  -1.971  1.00  0.00     0.037 A 
ATOM     63  C   UNL     1       9.842  -7.250  -4.110  1.00  0.00     0.049 A 
ATOM     64  C   UNL     1      11.375  -2.242  -2.204  1.00  0.00     0.074 A 
ATOM     65  C   UNL     1      10.856  -8.152  -4.391  1.00  0.00     0.029 A 
ATOM     66  N   UNL     1      10.454  -6.101  -3.636  1.00  0.00    -0.354 N 
ATOM     67  N   UNL     1      11.180  -3.453  -2.667  1.00  0.00    -0.248 NA
ATOM     68  C   UNL     1      12.779  -1.942  -1.884  1.00  0.00     0.031 C 
ATOM     69  C   UNL     1      12.075  -7.570  -4.030  1.00  0.00     0.029 A 
ATOM     70  C   UNL     1      11.828  -6.283  -3.584  1.00  0.00     0.049 A 
ATOM     71  H   UNL     1       9.983  -5.276  -3.376  1.00  0.00     0.167 HD
ATOM     72  C   UNL     1      12.439  -4.044  -2.728  1.00  0.00     0.074 A 
ATOM     73  C   UNL     1      13.389  -3.055  -2.265  1.00  0.00     0.031 C 
ATOM     74  C   UNL     1      12.774  -5.293  -3.135  1.00  0.00     0.037 A 
BRANCH  61  75
ATOM     75  C   UNL     1       7.938  -8.799  -4.674  1.00  0.00     0.058 A 
ATOM     76  C   UNL     1       7.423  -9.047  -5.956  1.00  0.00     0.135 A 
ATOM     77  C   UNL     1       8.079  -9.895  -3.804  1.00  0.00     0.135 A 
ATOM     78  F   UNL     1       7.257  -8.037  -6.825  1.00  0.00    -0.206 F 
ATOM     79  C   UNL     1       7.049 -10.327  -6.355  1.00  0.00     0.059 A 
ATOM     80  C   UNL     1       7.738 -11.188  -4.192  1.00  0.00     0.059 A 
ATOM     81  F   UNL     1       8.569  -9.717  -2.567  1.00  0.00    -0.206 F 
ATOM     82  C   UNL     1       7.215 -11.392  -5.468  1.00  0.00     0.060 A 
BRANCH  82  83
ATOM     83  S   UNL     1       6.751 -13.050  -6.012  1.00  0.00     0.124 S 
ATOM     84  O   UNL     1       5.294 -12.952  -6.032  1.00  0.00    -0.237 OA
ATOM     85  O   UNL     1       7.397 -13.140  -7.319  1.00  0.00    -0.237 OA
ATOM     86  O   UNL     1       7.306 -13.917  -4.979  1.00  0.00    -0.744 OA
ENDBRANCH  82  83
ENDBRANCH  61  75
BRANCH  62  87
ATOM     87  C   UNL     1      10.804   0.164  -1.406  1.00  0.00     0.058 A 
ATOM     88  C   UNL     1      11.617   1.039  -2.141  1.00  0.00     0.135 A 
ATOM     89  C   UNL     1      10.432   0.554  -0.110  1.00  0.00     0.135 A 
ATOM     90  F   UNL     1      12.008   0.709  -3.382  1.00  0.00    -0.206 F 
ATOM     91  C   UNL     1      12.071   2.239  -1.603  1.00  0.00     0.059 A 
ATOM     92  C   UNL     1      10.847   1.763   0.439  1.00  0.00     0.059 A 
ATOM     93  F   UNL     1       9.642  -0.240   0.630  1.00  0.00    -0.206 F 
ATOM     94  C   UNL     1      11.681   2.592  -0.310  1.00  0.00     0.060 A 
BRANCH  94  95
ATOM     95  S   UNL     1      12.259   4.162   0.371  1.00  0.00     0.124 S 
ATOM     96  O   UNL     1      13.664   3.870   0.630  1.00  0.00    -0.237 OA
ATOM     97  O   UNL     1      11.991   5.088  -0.726  1.00  0.00    -0.237 OA
ATOM     98  O   UNL     1      11.423   4.344   1.553  1.00  0.00    -0.744 OA
ENDBRANCH  94  95
ENDBRANCH  62  87
BRANCH  74  99
ATOM     99  C   UNL     1      14.235  -5.657  -3.146  1.00  0.00     0.058 A 
ATOM    100  C   UNL     1      14.959  -5.864  -1.961  1.00  0.00     0.135 A 
ATOM    101  C   UNL     1      14.909  -5.851  -4.364  1.00  0.00     0.135 A 
ATOM    102  F   UNL     1      14.367  -5.687  -0.769  1.00  0.00    -0.206 F 
ATOM    103  C   UNL     1      16.303  -6.226  -1.982  1.00  0.00     0.059 A 
ATOM    104  C   UNL     1      16.244  -6.242  -4.409  1.00  0.00     0.059 A 
ATOM    105  F   UNL     1      14.264  -5.676  -5.529  1.00  0.00    -0.206 F 
ATOM    106  C   UNL     1      16.936  -6.415  -3.212  1.00  0.00     0.060 A 
BRANCH 106 107
ATOM    107  S   UNL     1      18.670  -6.917  -3.226  1.00  0.00     0.124 S 
ATOM    108  O   UNL     1      19.337  -5.684  -2.821  1.00  0.00    -0.237 OA
ATOM    109  O   UNL     1      18.690  -7.999  -2.246  1.00  0.00    -0.237 OA
ATOM    110  O   UNL     1      18.895  -7.328  -4.609  1.00  0.00    -0.744 OA
ENDBRANCH 106 107
ENDBRANCH  74  99
ENDBRANCH  48  49
ENDBRANCH  40  43
ENDBRANCH  38  39
ENDBRANCH  37  38
ENDBRANCH  36  37
ENDBRANCH   1  36
TORSDOF 22
