REMARK SMILES Cc1cc(C)n2nc(SCC(=O)N3CCC(C(=O)NCCCCCCNC(=O)c4ccc(-c5c6nc(c(-c7c(F)cc(S(=O)(=O)[O-])cc7F)c7ccc([nH]7)c(-c7c(F)cc(S(=O)(=O)[O-])cc7F)c7nc(c(-c8c(F)cc(S(=O)(=O)[O-])cc8F)c8ccc5[nH]8)C=C7)C=C6)cc4)CC3)nc2n1
REMARK SMILES IDX 22 1 21 2 20 3 19 4 17 5 18 6 16 8 11 9 12 10 13 11 14 12
REMARK SMILES IDX 96 13 15 14 95 15 10 16 9 17 8 18 1 19 2 20 3 21 99 22 4 23
REMARK SMILES IDX 98 24 5 25 6 26 97 27 7 28 23 29 24 30 25 31 26 32 27 33
REMARK SMILES IDX 28 35 29 36 30 37 94 38 31 39 93 40 32 41 33 42 34 43 87 44
REMARK SMILES IDX 35 45 92 46 86 47 88 48 36 49 91 50 85 51 84 52 37 54 71 55
REMARK SMILES IDX 50 56 70 57 51 58 54 59 69 60 89 61 52 62 53 63 68 65 90 66
REMARK SMILES IDX 55 67 38 68 39 69 48 70 40 71 41 72 47 73 49 74 42 75 43 76
REMARK SMILES IDX 44 77 45 78 46 79 72 80 73 81 82 82 74 83 75 84 81 85 83 86
REMARK SMILES IDX 76 87 77 88 78 89 79 90 80 91 56 92 57 93 66 94 58 95 59 96
REMARK SMILES IDX 65 97 67 98 60 99 61 100 62 101 63 102 64 103
REMARK H PARENT 19 7 26 34 88 53 54 64
REMARK Flexibility Score: inf
ROOT
ATOM      1  C   UNL     1      -6.332   3.378  -0.721  1.00  0.00     0.002 C 
ENDROOT
BRANCH   1   2
ATOM      2  C   UNL     1      -5.632   4.597  -0.111  1.00  0.00     0.021 C 
BRANCH   2   3
ATOM      3  C   UNL     1      -4.426   5.076  -0.914  1.00  0.00     0.116 C 
BRANCH   3   4
ATOM      4  N   UNL     1      -4.836   5.631  -2.194  1.00  0.00    -0.356 N 
ATOM      5  C   UNL     1      -4.695   6.884  -2.702  1.00  0.00     0.223 C 
ATOM      6  O   UNL     1      -5.163   7.111  -3.821  1.00  0.00    -0.275 OA
ATOM      7  H   UNL     1      -5.291   4.994  -2.791  1.00  0.00     0.163 HD
BRANCH   5   8
ATOM      8  C   UNL     1      -3.937   7.965  -1.946  1.00  0.00     0.082 C 
ATOM      9  C   UNL     1      -1.950   7.836   1.484  1.00  0.00     0.233 C 
ATOM     10  O   UNL     1      -2.784   7.234   2.168  1.00  0.00    -0.274 OA
ATOM     11  N   UNL     1      -2.350   8.566   0.367  1.00  0.00    -0.342 N 
ATOM     12  C   UNL     1      -3.703   9.108   0.323  1.00  0.00     0.120 C 
ATOM     13  C   UNL     1      -1.681   8.531  -0.923  1.00  0.00     0.120 C 
ATOM     14  C   UNL     1      -4.613   8.329  -0.615  1.00  0.00     0.035 C 
ATOM     15  C   UNL     1      -2.444   7.602  -1.861  1.00  0.00     0.035 C 
BRANCH   9  16
ATOM     16  C   UNL     1      -0.532   8.040   2.004  1.00  0.00     0.178 C 
BRANCH  16  17
ATOM     17  S   UNL     1       0.822   7.327   1.067  1.00  0.00    -0.074 SA
BRANCH  17  18
ATOM     18  C   UNL     1       0.480   5.627   1.044  1.00  0.00     0.211 A 
ATOM     19  C   UNL     1       0.955  -0.004   0.031  1.00  0.00     0.067 C 
ATOM     20  C   UNL     1       0.525   1.351   0.534  1.00  0.00     0.043 A 
ATOM     21  C   UNL     1      -0.550   1.387   1.579  1.00  0.00     0.047 A 
ATOM     22  N   UNL     1       1.106   2.395   0.024  1.00  0.00    -0.216 NA
ATOM     23  C   UNL     1      -0.899   2.602   2.039  1.00  0.00     0.045 A 
ATOM     24  C   UNL     1       0.724   3.607   0.521  1.00  0.00     0.253 A 
ATOM     25  C   UNL     1      -1.944   2.807   3.092  1.00  0.00     0.067 C 
ATOM     26  N   UNL     1      -0.253   3.729   1.518  1.00  0.00    -0.200 N 
ATOM     27  N   UNL     1       1.172   4.801   0.212  1.00  0.00    -0.183 NA
ATOM     28  N   UNL     1      -0.408   5.036   1.837  1.00  0.00    -0.138 NA
ENDBRANCH  17  18
ENDBRANCH  16  17
ENDBRANCH   9  16
ENDBRANCH   5   8
ENDBRANCH   3   4
ENDBRANCH   2   3
ENDBRANCH   1   2
BRANCH   1  29
ATOM     29  C   UNL     1      -5.417   2.181  -1.027  1.00  0.00     0.002 C 
BRANCH  29  30
ATOM     30  C   UNL     1      -4.529   1.699   0.131  1.00  0.00     0.021 C 
BRANCH  30  31
ATOM     31  C   UNL     1      -5.326   1.186   1.314  1.00  0.00     0.116 C 
BRANCH  31  32
ATOM     32  N   UNL     1      -6.040  -0.057   1.007  1.00  0.00    -0.352 N 
ATOM     33  C   UNL     1      -6.749  -0.861   1.876  1.00  0.00     0.251 C 
ATOM     34  H   UNL     1      -6.010  -0.353   0.069  1.00  0.00     0.163 HD
ATOM     35  O   UNL     1      -6.978  -2.041   1.601  1.00  0.00    -0.269 OA
BRANCH  33  36
ATOM     36  C   UNL     1      -7.251  -0.264   3.123  1.00  0.00     0.039 A 
ATOM     37  C   UNL     1      -7.290  -0.951   4.340  1.00  0.00     0.014 A 
ATOM     38  C   UNL     1      -7.669   1.060   3.042  1.00  0.00     0.014 A 
ATOM     39  C   UNL     1      -7.731  -0.266   5.471  1.00  0.00     0.010 A 
ATOM     40  C   UNL     1      -7.844   1.788   4.179  1.00  0.00     0.010 A 
ATOM     41  C   UNL     1      -8.008   1.107   5.371  1.00  0.00    -0.014 A 
BRANCH  41  42
ATOM     42  C   UNL     1      -8.383   1.929   6.508  1.00  0.00     0.031 A 
ATOM     43  C   UNL     1      -7.337   1.972   7.559  1.00  0.00     0.074 A 
ATOM     44  C   UNL     1      -9.451   2.761   6.465  1.00  0.00     0.049 A 
ATOM     45  N   UNL     1      -7.382   1.414   8.720  1.00  0.00    -0.248 NA
ATOM     46  C   UNL     1      -6.008   2.509   7.211  1.00  0.00     0.031 C 
ATOM     47  C   UNL     1     -10.377   3.022   5.352  1.00  0.00     0.029 A 
ATOM     48  N   UNL     1      -9.880   3.645   7.407  1.00  0.00    -0.354 N 
ATOM     49  C   UNL     1      -6.191   1.758   9.349  1.00  0.00     0.074 A 
ATOM     50  C   UNL     1      -5.308   2.220   8.311  1.00  0.00     0.031 C 
ATOM     51  C   UNL     1     -11.091   4.145   5.599  1.00  0.00     0.029 A 
ATOM     52  C   UNL     1     -10.800   4.595   6.946  1.00  0.00     0.049 A 
ATOM     53  H   UNL     1      -9.568   3.619   8.340  1.00  0.00     0.167 HD
ATOM     54  C   UNL     1      -6.123   1.876  10.703  1.00  0.00     0.037 A 
ATOM     55  C   UNL     1     -11.243   5.679   7.642  1.00  0.00     0.037 A 
ATOM     56  C   UNL     1      -7.302   1.330  11.327  1.00  0.00     0.049 A 
ATOM     57  C   UNL     1     -10.979   5.380   9.081  1.00  0.00     0.074 A 
ATOM     58  C   UNL     1      -7.874   0.073  11.364  1.00  0.00     0.029 A 
ATOM     59  N   UNL     1      -8.303   2.214  11.661  1.00  0.00    -0.354 N 
ATOM     60  N   UNL     1     -11.575   4.410   9.728  1.00  0.00    -0.248 NA
ATOM     61  C   UNL     1      -9.683   5.780   9.610  1.00  0.00     0.031 C 
ATOM     62  C   UNL     1      -9.274   0.304  11.227  1.00  0.00     0.029 A 
ATOM     63  C   UNL     1      -9.492   1.683  11.220  1.00  0.00     0.049 A 
ATOM     64  H   UNL     1      -8.189   3.071  12.131  1.00  0.00     0.167 HD
ATOM     65  C   UNL     1     -10.567   3.800  10.464  1.00  0.00     0.074 A 
ATOM     66  C   UNL     1      -9.426   4.713  10.374  1.00  0.00     0.031 C 
ATOM     67  C   UNL     1     -10.632   2.480  10.816  1.00  0.00     0.037 A 
BRANCH  54  68
ATOM     68  C   UNL     1      -5.179   2.788  11.437  1.00  0.00     0.058 A 
ATOM     69  C   UNL     1      -5.004   2.628  12.825  1.00  0.00     0.135 A 
ATOM     70  C   UNL     1      -4.637   3.968  10.881  1.00  0.00     0.135 A 
ATOM     71  F   UNL     1      -5.500   1.551  13.456  1.00  0.00    -0.206 F 
ATOM     72  C   UNL     1      -4.371   3.590  13.611  1.00  0.00     0.059 A 
ATOM     73  C   UNL     1      -3.956   4.914  11.636  1.00  0.00     0.059 A 
ATOM     74  F   UNL     1      -4.823   4.300   9.597  1.00  0.00    -0.206 F 
ATOM     75  C   UNL     1      -3.853   4.732  13.006  1.00  0.00     0.060 A 
BRANCH  75  76
ATOM     76  S   UNL     1      -3.085   5.996  14.032  1.00  0.00     0.124 S 
ATOM     77  O   UNL     1      -4.217   6.457  14.828  1.00  0.00    -0.237 OA
ATOM     78  O   UNL     1      -2.072   5.226  14.745  1.00  0.00    -0.237 OA
ATOM     79  O   UNL     1      -2.568   6.952  13.058  1.00  0.00    -0.744 OA
ENDBRANCH  75  76
ENDBRANCH  54  68
BRANCH  55  80
ATOM     80  C   UNL     1     -11.505   7.063   7.141  1.00  0.00     0.058 A 
ATOM     81  C   UNL     1     -12.161   8.032   7.927  1.00  0.00     0.135 A 
ATOM     82  C   UNL     1     -10.863   7.550   5.985  1.00  0.00     0.135 A 
ATOM     83  F   UNL     1     -12.780   7.672   9.062  1.00  0.00    -0.206 F 
ATOM     84  C   UNL     1     -12.147   9.401   7.606  1.00  0.00     0.059 A 
ATOM     85  C   UNL     1     -10.837   8.905   5.644  1.00  0.00     0.059 A 
ATOM     86  F   UNL     1     -10.159   6.729   5.192  1.00  0.00    -0.206 F 
ATOM     87  C   UNL     1     -11.461   9.831   6.471  1.00  0.00     0.060 A 
BRANCH  87  88
ATOM     88  S   UNL     1     -11.300  11.604   6.130  1.00  0.00     0.124 S 
ATOM     89  O   UNL     1     -12.681  11.992   5.867  1.00  0.00    -0.237 OA
ATOM     90  O   UNL     1     -10.723  12.105   7.373  1.00  0.00    -0.237 OA
ATOM     91  O   UNL     1     -10.410  11.648   4.972  1.00  0.00    -0.744 OA
ENDBRANCH  87  88
ENDBRANCH  55  80
BRANCH  67  92
ATOM     92  C   UNL     1     -11.924   1.726  10.592  1.00  0.00     0.058 A 
ATOM     93  C   UNL     1     -12.482   1.445   9.330  1.00  0.00     0.135 A 
ATOM     94  C   UNL     1     -12.508   1.093  11.698  1.00  0.00     0.135 A 
ATOM     95  F   UNL     1     -11.928   1.926   8.209  1.00  0.00    -0.206 F 
ATOM     96  C   UNL     1     -13.585   0.597   9.181  1.00  0.00     0.059 A 
ATOM     97  C   UNL     1     -13.586   0.222  11.572  1.00  0.00     0.059 A 
ATOM     98  F   UNL     1     -11.986   1.268  12.923  1.00  0.00    -0.206 F 
ATOM     99  C   UNL     1     -14.128  -0.014  10.311  1.00  0.00     0.060 A 
BRANCH  99 100
ATOM    100  S   UNL     1     -15.515  -1.157  10.121  1.00  0.00     0.124 S 
ATOM    101  O   UNL     1     -16.585  -0.271   9.677  1.00  0.00    -0.237 OA
ATOM    102  O   UNL     1     -15.015  -2.098   9.123  1.00  0.00    -0.237 OA
ATOM    103  O   UNL     1     -15.685  -1.714  11.461  1.00  0.00    -0.744 OA
ENDBRANCH  99 100
ENDBRANCH  67  92
ENDBRANCH  41  42
ENDBRANCH  33  36
ENDBRANCH  31  32
ENDBRANCH  30  31
ENDBRANCH  29  30
ENDBRANCH   1  29
TORSDOF 19
