REMARK SMILES O=C(NCCCCCCNC(=O)[C@@H](CCOC(F)(F)F)Cc1ccccc1Cl)c1ccc(-c2c3nc(c(-c4c(F)cc(S(=O)(=O)[O-])cc4F)c4ccc([nH]4)c(-c4c(F)cc(S(=O)(=O)[O-])cc4F)c4nc(c(-c5c(F)cc(S(=O)(=O)[O-])cc5F)c5ccc2[nH]5)C=C4)C=C3)cc1
REMARK SMILES IDX 7 1 6 2 5 3 4 4 3 5 1 6 2 7 29 9 30 10 94 11 31 12 93 13
REMARK SMILES IDX 32 14 33 15 34 16 87 17 35 18 92 19 86 20 88 21 36 22 91 23
REMARK SMILES IDX 85 24 84 25 37 27 71 28 50 29 70 30 51 31 54 32 69 33 89 34
REMARK SMILES IDX 52 35 53 36 68 38 90 39 55 40 38 41 39 42 48 43 40 44 41 45
REMARK SMILES IDX 47 46 49 47 42 48 43 49 44 50 45 51 46 52 72 53 73 54 82 55
REMARK SMILES IDX 74 56 75 57 81 58 83 59 76 60 77 61 78 62 79 63 80 64 56 65
REMARK SMILES IDX 57 66 66 67 58 68 59 69 65 70 67 71 60 72 61 73 62 74 63 75
REMARK SMILES IDX 64 76 8 77 9 78 10 79 11 80 12 82 13 83 14 84 15 85 16 86
REMARK SMILES IDX 17 87 18 88 19 89 20 90 21 91 22 92 23 93 27 94 24 95 26 96
REMARK SMILES IDX 28 97 25 98
REMARK H PARENT 3 8 88 26 54 37 10 81
REMARK Flexibility Score: inf
ROOT
ATOM      1  C   UNL     1       4.269  -1.657   4.012  1.00  0.00     0.002 C 
ENDROOT
BRANCH   1   2
ATOM      2  C   UNL     1       3.744  -0.252   3.692  1.00  0.00     0.002 C 
BRANCH   2   3
ATOM      3  C   UNL     1       4.398   0.415   2.479  1.00  0.00     0.021 C 
BRANCH   3   4
ATOM      4  C   UNL     1       4.279  -0.390   1.190  1.00  0.00     0.116 C 
BRANCH   4   5
ATOM      5  N   UNL     1       2.886  -0.638   0.849  1.00  0.00    -0.352 N 
ATOM      6  O   UNL     1       0.929  -0.225  -0.191  1.00  0.00    -0.269 OA
ATOM      7  C   UNL     1       2.162  -0.158  -0.207  1.00  0.00     0.251 C 
ATOM      8  H   UNL     1       2.399  -1.233   1.463  1.00  0.00     0.163 HD
BRANCH   7   9
ATOM      9  C   UNL     1       2.860   0.433  -1.362  1.00  0.00     0.039 A 
ATOM     10  C   UNL     1       3.988  -0.198  -1.896  1.00  0.00     0.014 A 
ATOM     11  C   UNL     1       2.367   1.607  -1.936  1.00  0.00     0.014 A 
ATOM     12  C   UNL     1       4.687   0.399  -2.937  1.00  0.00     0.010 A 
ATOM     13  C   UNL     1       3.025   2.162  -3.034  1.00  0.00     0.010 A 
ATOM     14  C   UNL     1       4.196   1.569  -3.534  1.00  0.00    -0.014 A 
BRANCH  14  15
ATOM     15  C   UNL     1       4.865   2.115  -4.739  1.00  0.00     0.031 A 
ATOM     16  C   UNL     1       5.509   3.469  -4.716  1.00  0.00     0.074 A 
ATOM     17  C   UNL     1       4.852   1.381  -5.868  1.00  0.00     0.049 A 
ATOM     18  N   UNL     1       6.074   4.127  -5.695  1.00  0.00    -0.248 NA
ATOM     19  C   UNL     1       5.509   4.183  -3.431  1.00  0.00     0.031 C 
ATOM     20  C   UNL     1       4.237   0.057  -6.002  1.00  0.00     0.029 A 
ATOM     21  N   UNL     1       5.352   1.643  -7.116  1.00  0.00    -0.354 N 
ATOM     22  C   UNL     1       6.476   5.342  -5.154  1.00  0.00     0.074 A 
ATOM     23  C   UNL     1       6.068   5.338  -3.765  1.00  0.00     0.031 C 
ATOM     24  C   UNL     1       4.401  -0.379  -7.258  1.00  0.00     0.029 A 
ATOM     25  C   UNL     1       5.071   0.658  -8.033  1.00  0.00     0.049 A 
ATOM     26  H   UNL     1       5.863   2.455  -7.335  1.00  0.00     0.167 HD
ATOM     27  C   UNL     1       7.127   6.361  -5.766  1.00  0.00     0.037 A 
ATOM     28  C   UNL     1       5.287   0.610  -9.361  1.00  0.00     0.037 A 
ATOM     29  C   UNL     1       7.520   6.344  -7.153  1.00  0.00     0.049 A 
ATOM     30  C   UNL     1       5.981   1.761 -10.026  1.00  0.00     0.074 A 
ATOM     31  C   UNL     1       8.224   7.302  -7.859  1.00  0.00     0.029 A 
ATOM     32  N   UNL     1       7.224   5.325  -8.050  1.00  0.00    -0.354 N 
ATOM     33  N   UNL     1       6.406   2.881  -9.491  1.00  0.00    -0.248 NA
ATOM     34  C   UNL     1       6.229   1.647 -11.468  1.00  0.00     0.031 C 
ATOM     35  C   UNL     1       8.300   6.893  -9.194  1.00  0.00     0.029 A 
ATOM     36  C   UNL     1       7.702   5.647  -9.310  1.00  0.00     0.049 A 
ATOM     37  H   UNL     1       6.744   4.496  -7.823  1.00  0.00     0.167 HD
ATOM     38  C   UNL     1       6.990   3.599 -10.526  1.00  0.00     0.074 A 
ATOM     39  C   UNL     1       6.870   2.783 -11.718  1.00  0.00     0.031 C 
ATOM     40  C   UNL     1       7.577   4.821 -10.488  1.00  0.00     0.037 A 
BRANCH  27  41
ATOM     41  C   UNL     1       7.415   7.594  -4.949  1.00  0.00     0.058 A 
ATOM     42  C   UNL     1       8.338   7.589  -3.890  1.00  0.00     0.135 A 
ATOM     43  C   UNL     1       6.758   8.803  -5.233  1.00  0.00     0.135 A 
ATOM     44  F   UNL     1       8.990   6.461  -3.567  1.00  0.00    -0.206 F 
ATOM     45  C   UNL     1       8.560   8.721  -3.112  1.00  0.00     0.059 A 
ATOM     46  C   UNL     1       6.988   9.956  -4.488  1.00  0.00     0.059 A 
ATOM     47  F   UNL     1       5.870   8.870  -6.238  1.00  0.00    -0.206 F 
ATOM     48  C   UNL     1       7.873   9.898  -3.413  1.00  0.00     0.060 A 
BRANCH  48  49
ATOM     49  S   UNL     1       8.139  11.344  -2.366  1.00  0.00     0.124 S 
ATOM     50  O   UNL     1       7.434  10.953  -1.149  1.00  0.00    -0.237 OA
ATOM     51  O   UNL     1       9.594  11.395  -2.266  1.00  0.00    -0.237 OA
ATOM     52  O   UNL     1       7.526  12.431  -3.123  1.00  0.00    -0.744 OA
ENDBRANCH  48  49
ENDBRANCH  27  41
BRANCH  28  53
ATOM     53  C   UNL     1       4.811  -0.573 -10.125  1.00  0.00     0.058 A 
ATOM     54  C   UNL     1       5.708  -1.526 -10.623  1.00  0.00     0.135 A 
ATOM     55  C   UNL     1       3.436  -0.816 -10.290  1.00  0.00     0.135 A 
ATOM     56  F   UNL     1       7.030  -1.336 -10.492  1.00  0.00    -0.206 F 
ATOM     57  C   UNL     1       5.262  -2.684 -11.252  1.00  0.00     0.059 A 
ATOM     58  C   UNL     1       2.966  -1.978 -10.890  1.00  0.00     0.059 A 
ATOM     59  F   UNL     1       2.537   0.058  -9.810  1.00  0.00    -0.206 F 
ATOM     60  C   UNL     1       3.888  -2.906 -11.370  1.00  0.00     0.060 A 
BRANCH  60  61
ATOM     61  S   UNL     1       3.322  -4.457 -12.103  1.00  0.00     0.124 S 
ATOM     62  O   UNL     1       3.655  -4.255 -13.508  1.00  0.00    -0.237 OA
ATOM     63  O   UNL     1       4.128  -5.443 -11.390  1.00  0.00    -0.237 OA
ATOM     64  O   UNL     1       1.897  -4.478 -11.788  1.00  0.00    -0.744 OA
ENDBRANCH  60  61
ENDBRANCH  28  53
BRANCH  40  65
ATOM     65  C   UNL     1       8.172   5.347 -11.765  1.00  0.00     0.058 A 
ATOM     66  C   UNL     1       7.370   5.828 -12.811  1.00  0.00     0.135 A 
ATOM     67  C   UNL     1       9.566   5.455 -11.901  1.00  0.00     0.135 A 
ATOM     68  F   UNL     1       6.033   5.736 -12.737  1.00  0.00    -0.206 F 
ATOM     69  C   UNL     1       7.931   6.397 -13.950  1.00  0.00     0.059 A 
ATOM     70  C   UNL     1      10.146   6.045 -13.018  1.00  0.00     0.059 A 
ATOM     71  F   UNL     1      10.376   5.013 -10.927  1.00  0.00    -0.206 F 
ATOM     72  C   UNL     1       9.320   6.512 -14.039  1.00  0.00     0.060 A 
BRANCH  72  73
ATOM     73  S   UNL     1      10.030   7.323 -15.487  1.00  0.00     0.124 S 
ATOM     74  O   UNL     1       9.807   6.323 -16.526  1.00  0.00    -0.237 OA
ATOM     75  O   UNL     1       9.225   8.536 -15.590  1.00  0.00    -0.237 OA
ATOM     76  O   UNL     1      11.425   7.535 -15.109  1.00  0.00    -0.744 OA
ENDBRANCH  72  73
ENDBRANCH  40  65
ENDBRANCH  14  15
ENDBRANCH   7   9
ENDBRANCH   4   5
ENDBRANCH   3   4
ENDBRANCH   2   3
ENDBRANCH   1   2
BRANCH   1  77
ATOM     77  C   UNL     1       5.785  -1.722   4.215  1.00  0.00     0.021 C 
BRANCH  77  78
ATOM     78  C   UNL     1       6.246  -0.930   5.442  1.00  0.00     0.116 C 
BRANCH  78  79
ATOM     79  N   UNL     1       6.332  -1.803   6.584  1.00  0.00    -0.356 N 
ATOM     80  C   UNL     1       7.392  -2.394   7.179  1.00  0.00     0.223 C 
ATOM     81  H   UNL     1       5.466  -2.005   7.006  1.00  0.00     0.163 HD
ATOM     82  O   UNL     1       7.125  -3.364   7.900  1.00  0.00    -0.275 OA
BRANCH  80  83
ATOM     83  C   UNL     1       8.849  -1.955   7.007  1.00  0.00     0.085 C 
BRANCH  83  84
ATOM     84  C   UNL     1       9.595  -2.546   5.778  1.00  0.00     0.042 C 
BRANCH  84  85
ATOM     85  C   UNL     1       9.302  -2.177   4.314  1.00  0.00     0.171 C 
BRANCH  85  86
ATOM     86  O   UNL     1       8.892  -0.859   4.033  1.00  0.00    -0.292 OA
BRANCH  86  87
ATOM     87  C   UNL     1       9.892   0.133   4.011  1.00  0.00     0.522 C 
ATOM     88  F   UNL     1       9.351   1.272   4.491  1.00  0.00    -0.144 F 
ATOM     89  F   UNL     1      10.940  -0.204   4.783  1.00  0.00    -0.144 F 
ATOM     90  F   UNL     1      10.303   0.343   2.750  1.00  0.00    -0.144 F 
ENDBRANCH  86  87
ENDBRANCH  85  86
ENDBRANCH  84  85
ENDBRANCH  83  84
BRANCH  83  91
ATOM     91  C   UNL     1       9.189  -0.480   7.272  1.00  0.00     0.050 C 
BRANCH  91  92
ATOM     92  C   UNL     1       8.844   0.313   8.521  1.00  0.00    -0.029 A 
ATOM     93  C   UNL     1       8.936   1.718   8.354  1.00  0.00     0.005 A 
ATOM     94  C   UNL     1       8.552  -0.151   9.811  1.00  0.00     0.044 A 
ATOM     95  C   UNL     1       8.692   2.615   9.395  1.00  0.00     0.000 A 
ATOM     96  C   UNL     1       8.273   0.756  10.850  1.00  0.00     0.021 A 
ATOM     97  Cl  UNL     1       8.590  -1.807  10.278  1.00  0.00    -0.084 Cl
ATOM     98  C   UNL     1       8.337   2.132  10.644  1.00  0.00     0.002 A 
ENDBRANCH  91  92
ENDBRANCH  83  91
ENDBRANCH  80  83
ENDBRANCH  78  79
ENDBRANCH  77  78
ENDBRANCH   1  77
TORSDOF 22
