REMARK SMILES O=C(NCCCCCCNC(=O)c1nccnc1C(=O)N1CCC(Cc2ccccc2)CC1)c1ccc(-c2c3nc(c(-c4c(F)cc(S(=O)(=O)[O-])cc4F)c4ccc([nH]4)c(-c4c(F)cc(S(=O)(=O)[O-])cc4F)c4nc(c(-c5c(F)cc(S(=O)(=O)[O-])cc5F)c5ccc2[nH]5)C=C4)C=C3)cc1
REMARK SMILES IDX 6 1 5 2 4 3 3 4 1 5 2 6 34 8 35 9 99 10 36 11 98 12 37 13
REMARK SMILES IDX 38 14 39 15 92 16 40 17 97 18 91 19 93 20 41 21 96 22 90 23
REMARK SMILES IDX 89 24 42 26 76 27 55 28 75 29 56 30 59 31 74 32 94 33 57 34
REMARK SMILES IDX 58 35 73 37 95 38 60 39 43 40 44 41 53 42 45 43 46 44 52 45
REMARK SMILES IDX 54 46 47 47 48 48 49 49 50 50 51 51 77 52 78 53 87 54 79 55
REMARK SMILES IDX 80 56 86 57 88 58 81 59 82 60 83 61 84 62 85 63 61 64 62 65
REMARK SMILES IDX 71 66 63 67 64 68 70 69 72 70 65 71 66 72 67 73 68 74 69 75
REMARK SMILES IDX 7 76 8 77 9 78 10 79 11 80 12 82 13 83 14 84 18 85 15 86
REMARK SMILES IDX 17 87 16 88 19 89 20 90 21 91 22 92 33 93 23 94 32 95 24 96
REMARK SMILES IDX 25 97 26 98 27 99 31 100 28 101 30 102 29 103
REMARK H PARENT 3 7 93 25 59 36 10 81
REMARK Flexibility Score: inf
ROOT
ATOM      1  C   UNL     1       4.197   0.235  -3.910  1.00  0.00     0.002 C 
ENDROOT
BRANCH   1   2
ATOM      2  C   UNL     1       4.623  -0.506  -2.643  1.00  0.00     0.021 C 
BRANCH   2   3
ATOM      3  C   UNL     1       4.415   0.255  -1.341  1.00  0.00     0.116 C 
BRANCH   3   4
ATOM      4  N   UNL     1       3.010   0.425  -1.009  1.00  0.00    -0.352 N 
ATOM      5  O   UNL     1       1.117   0.153   0.184  1.00  0.00    -0.269 OA
ATOM      6  C   UNL     1       2.342   0.072   0.140  1.00  0.00     0.251 C 
ATOM      7  H   UNL     1       2.460   0.854  -1.704  1.00  0.00     0.163 HD
BRANCH   6   8
ATOM      8  C   UNL     1       3.097  -0.429   1.312  1.00  0.00     0.039 A 
ATOM      9  C   UNL     1       4.275   0.198   1.723  1.00  0.00     0.014 A 
ATOM     10  C   UNL     1       2.617  -1.541   2.013  1.00  0.00     0.014 A 
ATOM     11  C   UNL     1       5.045  -0.370   2.733  1.00  0.00     0.010 A 
ATOM     12  C   UNL     1       3.350  -2.059   3.088  1.00  0.00     0.010 A 
ATOM     13  C   UNL     1       4.586  -1.496   3.438  1.00  0.00    -0.014 A 
BRANCH  13  14
ATOM     14  C   UNL     1       5.396  -2.012   4.573  1.00  0.00     0.031 A 
ATOM     15  C   UNL     1       6.031  -3.376   4.532  1.00  0.00     0.074 A 
ATOM     16  C   UNL     1       5.601  -1.203   5.632  1.00  0.00     0.049 A 
ATOM     17  N   UNL     1       6.814  -3.943   5.415  1.00  0.00    -0.248 NA
ATOM     18  C   UNL     1       5.749  -4.214   3.357  1.00  0.00     0.031 C 
ATOM     19  C   UNL     1       5.014   0.131   5.797  1.00  0.00     0.029 A 
ATOM     20  N   UNL     1       6.373  -1.364   6.753  1.00  0.00    -0.354 N 
ATOM     21  C   UNL     1       7.115  -5.203   4.909  1.00  0.00     0.074 A 
ATOM     22  C   UNL     1       6.403  -5.330   3.655  1.00  0.00     0.031 C 
ATOM     23  C   UNL     1       5.485   0.684   6.923  1.00  0.00     0.029 A 
ATOM     24  C   UNL     1       6.364  -0.271   7.587  1.00  0.00     0.049 A 
ATOM     25  H   UNL     1       6.886  -2.183   6.942  1.00  0.00     0.167 HD
ATOM     26  C   UNL     1       7.920  -6.157   5.436  1.00  0.00     0.037 A 
ATOM     27  C   UNL     1       6.985  -0.060   8.763  1.00  0.00     0.037 A 
ATOM     28  C   UNL     1       8.630  -6.023   6.684  1.00  0.00     0.049 A 
ATOM     29  C   UNL     1       7.875  -1.133   9.320  1.00  0.00     0.074 A 
ATOM     30  C   UNL     1       9.469  -6.935   7.302  1.00  0.00     0.029 A 
ATOM     31  N   UNL     1       8.588  -4.905   7.504  1.00  0.00    -0.354 N 
ATOM     32  N   UNL     1       8.157  -2.310   8.816  1.00  0.00    -0.248 NA
ATOM     33  C   UNL     1       8.532  -0.849  10.602  1.00  0.00     0.031 C 
ATOM     34  C   UNL     1       9.913  -6.379   8.508  1.00  0.00     0.029 A 
ATOM     35  C   UNL     1       9.381  -5.106   8.623  1.00  0.00     0.049 A 
ATOM     36  H   UNL     1       8.070  -4.088   7.319  1.00  0.00     0.167 HD
ATOM     37  C   UNL     1       9.027  -2.908   9.719  1.00  0.00     0.074 A 
ATOM     38  C   UNL     1       9.249  -1.950  10.783  1.00  0.00     0.031 C 
ATOM     39  C   UNL     1       9.585  -4.143   9.675  1.00  0.00     0.037 A 
BRANCH  26  40
ATOM     40  C   UNL     1       8.083  -7.439   4.665  1.00  0.00     0.058 A 
ATOM     41  C   UNL     1       8.854  -7.496   3.493  1.00  0.00     0.135 A 
ATOM     42  C   UNL     1       7.512  -8.636   5.131  1.00  0.00     0.135 A 
ATOM     43  F   UNL     1       9.410  -6.380   2.996  1.00  0.00    -0.206 F 
ATOM     44  C   UNL     1       9.039  -8.688   2.800  1.00  0.00     0.059 A 
ATOM     45  C   UNL     1       7.701  -9.844   4.465  1.00  0.00     0.059 A 
ATOM     46  F   UNL     1       6.766  -8.639   6.247  1.00  0.00    -0.206 F 
ATOM     47  C   UNL     1       8.458  -9.858   3.294  1.00  0.00     0.060 A 
BRANCH  47  48
ATOM     48  S   UNL     1       8.718 -11.399   2.389  1.00  0.00     0.124 S 
ATOM     49  O   UNL     1       7.846 -11.207   1.234  1.00  0.00    -0.237 OA
ATOM     50  O   UNL     1      10.151 -11.362   2.113  1.00  0.00    -0.237 OA
ATOM     51  O   UNL     1       8.291 -12.425   3.335  1.00  0.00    -0.744 OA
ENDBRANCH  47  48
ENDBRANCH  26  40
BRANCH  27  52
ATOM     52  C   UNL     1       6.772   1.218   9.490  1.00  0.00     0.058 A 
ATOM     53  C   UNL     1       7.793   2.171   9.600  1.00  0.00     0.135 A 
ATOM     54  C   UNL     1       5.529   1.516  10.070  1.00  0.00     0.135 A 
ATOM     55  F   UNL     1       8.998   1.930   9.062  1.00  0.00    -0.206 F 
ATOM     56  C   UNL     1       7.597   3.371  10.277  1.00  0.00     0.059 A 
ATOM     57  C   UNL     1       5.300   2.720  10.727  1.00  0.00     0.059 A 
ATOM     58  F   UNL     1       4.514   0.644   9.972  1.00  0.00    -0.206 F 
ATOM     59  C   UNL     1       6.346   3.635  10.837  1.00  0.00     0.060 A 
BRANCH  59  60
ATOM     60  S   UNL     1       6.080   5.213  11.674  1.00  0.00     0.124 S 
ATOM     61  O   UNL     1       6.717   4.970  12.962  1.00  0.00    -0.237 OA
ATOM     62  O   UNL     1       6.762   6.153  10.790  1.00  0.00    -0.237 OA
ATOM     63  O   UNL     1       4.625   5.334  11.699  1.00  0.00    -0.744 OA
ENDBRANCH  59  60
ENDBRANCH  27  52
BRANCH  39  64
ATOM     64  C   UNL     1      10.498  -4.514  10.809  1.00  0.00     0.058 A 
ATOM     65  C   UNL     1       9.995  -4.820  12.084  1.00  0.00     0.135 A 
ATOM     66  C   UNL     1      11.887  -4.574  10.617  1.00  0.00     0.135 A 
ATOM     67  F   UNL     1       8.675  -4.769  12.320  1.00  0.00    -0.206 F 
ATOM     68  C   UNL     1      10.842  -5.140  13.139  1.00  0.00     0.059 A 
ATOM     69  C   UNL     1      12.751  -4.915  11.653  1.00  0.00     0.059 A 
ATOM     70  F   UNL     1      12.416  -4.298   9.414  1.00  0.00    -0.206 F 
ATOM     71  C   UNL     1      12.220  -5.179  12.915  1.00  0.00     0.060 A 
BRANCH  71  72
ATOM     72  S   UNL     1      13.312  -5.600  14.289  1.00  0.00     0.124 S 
ATOM     73  O   UNL     1      13.337  -4.348  15.037  1.00  0.00    -0.237 OA
ATOM     74  O   UNL     1      12.604  -6.706  14.927  1.00  0.00    -0.237 OA
ATOM     75  O   UNL     1      14.562  -5.963  13.628  1.00  0.00    -0.744 OA
ENDBRANCH  71  72
ENDBRANCH  39  64
ENDBRANCH  13  14
ENDBRANCH   6   8
ENDBRANCH   3   4
ENDBRANCH   2   3
ENDBRANCH   1   2
BRANCH   1  76
ATOM     76  C   UNL     1       4.849   1.602  -4.142  1.00  0.00     0.002 C 
BRANCH  76  77
ATOM     77  C   UNL     1       6.376   1.644  -4.043  1.00  0.00     0.021 C 
BRANCH  77  78
ATOM     78  C   UNL     1       7.127   0.607  -4.877  1.00  0.00     0.116 C 
BRANCH  78  79
ATOM     79  N   UNL     1       6.839   0.698  -6.300  1.00  0.00    -0.351 N 
ATOM     80  C   UNL     1       7.695   1.017  -7.336  1.00  0.00     0.272 C 
ATOM     81  H   UNL     1       5.909   0.506  -6.559  1.00  0.00     0.163 HD
ATOM     82  O   UNL     1       7.285   1.020  -8.493  1.00  0.00    -0.267 OA
BRANCH  80  83
ATOM     83  C   UNL     1       9.096   1.368  -7.019  1.00  0.00     0.159 A 
ATOM     84  N   UNL     1       9.789   0.376  -6.369  1.00  0.00    -0.247 NA
ATOM     85  C   UNL     1       9.673   2.583  -7.362  1.00  0.00     0.159 A 
ATOM     86  C   UNL     1      11.079   0.646  -6.083  1.00  0.00     0.132 A 
ATOM     87  N   UNL     1      10.975   2.850  -7.017  1.00  0.00    -0.247 NA
ATOM     88  C   UNL     1      11.655   1.863  -6.388  1.00  0.00     0.132 A 
BRANCH  85  89
ATOM     89  C   UNL     1       9.086   3.545  -8.340  1.00  0.00     0.274 C 
ATOM     90  O   UNL     1       9.837   3.926  -9.245  1.00  0.00    -0.267 OA
ATOM     91  N   UNL     1       7.755   3.966  -8.299  1.00  0.00    -0.337 N 
ATOM     92  C   UNL     1       7.133   4.266  -9.583  1.00  0.00     0.120 C 
ATOM     93  C   UNL     1       6.873   4.016  -7.134  1.00  0.00     0.120 C 
ATOM     94  C   UNL     1       6.378   5.582  -9.557  1.00  0.00     0.025 C 
ATOM     95  C   UNL     1       6.051   5.313  -7.092  1.00  0.00     0.025 C 
ATOM     96  C   UNL     1       5.332   5.573  -8.432  1.00  0.00    -0.003 C 
BRANCH  96  97
ATOM     97  C   UNL     1       4.519   6.883  -8.392  1.00  0.00     0.039 C 
BRANCH  97  98
ATOM     98  C   UNL     1       3.803   7.187  -9.690  1.00  0.00    -0.048 A 
ATOM     99  C   UNL     1       4.186   8.290 -10.468  1.00  0.00     0.004 A 
ATOM    100  C   UNL     1       2.776   6.355 -10.160  1.00  0.00     0.004 A 
ATOM    101  C   UNL     1       3.568   8.546 -11.693  1.00  0.00     0.000 A 
ATOM    102  C   UNL     1       2.161   6.611 -11.387  1.00  0.00     0.000 A 
ATOM    103  C   UNL     1       2.558   7.704 -12.155  1.00  0.00     0.000 A 
ENDBRANCH  97  98
ENDBRANCH  96  97
ENDBRANCH  85  89
ENDBRANCH  80  83
ENDBRANCH  78  79
ENDBRANCH  77  78
ENDBRANCH  76  77
ENDBRANCH   1  76
TORSDOF 19
