REMARK SMILES CSCCC(=O)N1[C@H](C)CCC[C@@H]1C(=O)NCCCCCCNC(=O)c1ccc(-c2c3nc(c(-c4c(F)cc(S(=O)(=O)[O-])cc4F)c4ccc([nH]4)c(-c4c(F)cc(S(=O)(=O)[O-])cc4F)c4nc(c(-c5c(F)cc(S(=O)(=O)[O-])cc5F)c5ccc2[nH]5)C=C4)C=C3)cc1
REMARK SMILES IDX 19 1 18 2 17 3 16 4 14 5 15 6 13 8 7 9 8 10 9 11 10 12 12 13
REMARK SMILES IDX 11 14 5 15 6 16 4 17 3 18 2 19 1 20 20 21 21 22 22 23 23 24
REMARK SMILES IDX 24 25 25 27 26 28 27 29 91 30 28 31 90 32 29 33 30 34 31 35
REMARK SMILES IDX 84 36 32 37 89 38 83 39 85 40 33 41 88 42 82 43 81 44 34 46
REMARK SMILES IDX 68 47 47 48 67 49 48 50 51 51 66 52 86 53 49 54 50 55 65 57
REMARK SMILES IDX 87 58 52 59 35 60 36 61 45 62 37 63 38 64 44 65 46 66 39 67
REMARK SMILES IDX 40 68 41 69 42 70 43 71 69 72 70 73 79 74 71 75 72 76 78 77
REMARK SMILES IDX 80 78 73 79 74 80 75 81 76 82 77 83 53 84 54 85 63 86 55 87
REMARK SMILES IDX 56 88 62 89 64 90 57 91 58 92 59 93 60 94 61 95
REMARK H PARENT 16 7 23 26 85 45 51 56
REMARK Flexibility Score: inf
ROOT
ATOM      1  C   UNL     1      -1.832   2.652   3.901  1.00  0.00     0.002 C 
ENDROOT
BRANCH   1   2
ATOM      2  C   UNL     1      -1.140   3.114   2.611  1.00  0.00     0.021 C 
BRANCH   2   3
ATOM      3  C   UNL     1      -1.627   2.342   1.388  1.00  0.00     0.116 C 
BRANCH   3   4
ATOM      4  N   UNL     1      -1.741   3.102   0.159  1.00  0.00    -0.354 N 
ATOM      5  C   UNL     1      -1.450   2.710  -1.123  1.00  0.00     0.242 C 
ATOM      6  O   UNL     1      -2.358   2.876  -1.948  1.00  0.00    -0.273 OA
ATOM      7  H   UNL     1      -2.073   4.023   0.257  1.00  0.00     0.163 HD
BRANCH   5   8
ATOM      8  C   UNL     1      -0.052   2.172  -1.592  1.00  0.00     0.174 C 
ATOM      9  N   UNL     1       0.245   0.718  -1.552  1.00  0.00    -0.328 N 
ATOM     10  C   UNL     1       0.664   0.163  -0.279  1.00  0.00     0.082 C 
ATOM     11  C   UNL     1      -0.457  -0.611   0.414  1.00  0.00     0.031 C 
ATOM     12  C   UNL     1       1.515   1.143   0.556  1.00  0.00     0.025 C 
ATOM     13  C   UNL     1       1.115   3.024  -1.065  1.00  0.00     0.035 C 
ATOM     14  C   UNL     1       2.169   2.203  -0.328  1.00  0.00     0.005 C 
BRANCH   9  15
ATOM     15  C   UNL     1       0.587   0.029  -2.724  1.00  0.00     0.224 C 
ATOM     16  O   UNL     1       0.882   0.619  -3.766  1.00  0.00    -0.275 OA
BRANCH  15  17
ATOM     17  C   UNL     1       0.533  -1.511  -2.712  1.00  0.00     0.111 C 
BRANCH  17  18
ATOM     18  C   UNL     1       1.809  -2.282  -2.334  1.00  0.00     0.079 C 
BRANCH  18  19
ATOM     19  S   UNL     1       1.749  -3.221  -0.742  1.00  0.00    -0.165 SA
ATOM     20  C   UNL     1       2.957  -2.305   0.274  1.00  0.00     0.085 C 
ENDBRANCH  18  19
ENDBRANCH  17  18
ENDBRANCH  15  17
ENDBRANCH   9  15
ENDBRANCH   5   8
ENDBRANCH   3   4
ENDBRANCH   2   3
ENDBRANCH   1   2
BRANCH   1  21
ATOM     21  C   UNL     1      -1.743   1.153   4.226  1.00  0.00     0.002 C 
BRANCH  21  22
ATOM     22  C   UNL     1      -0.389   0.646   4.729  1.00  0.00     0.021 C 
BRANCH  22  23
ATOM     23  C   UNL     1       0.185   1.386   5.937  1.00  0.00     0.116 C 
BRANCH  23  24
ATOM     24  N   UNL     1      -0.782   1.541   7.014  1.00  0.00    -0.352 N 
ATOM     25  C   UNL     1      -0.676   1.257   8.353  1.00  0.00     0.251 C 
ATOM     26  H   UNL     1      -1.652   1.911   6.738  1.00  0.00     0.163 HD
ATOM     27  O   UNL     1      -1.674   1.306   9.062  1.00  0.00    -0.269 OA
BRANCH  25  28
ATOM     28  C   UNL     1       0.630   0.880   8.932  1.00  0.00     0.039 A 
ATOM     29  C   UNL     1       0.678  -0.158   9.866  1.00  0.00     0.014 A 
ATOM     30  C   UNL     1       1.797   1.562   8.579  1.00  0.00     0.014 A 
ATOM     31  C   UNL     1       1.906  -0.549  10.402  1.00  0.00     0.010 A 
ATOM     32  C   UNL     1       3.028   1.120   9.053  1.00  0.00     0.010 A 
ATOM     33  C   UNL     1       3.094   0.066   9.976  1.00  0.00    -0.014 A 
BRANCH  33  34
ATOM     34  C   UNL     1       4.415  -0.383  10.484  1.00  0.00     0.031 A 
ATOM     35  C   UNL     1       5.280   0.555  11.278  1.00  0.00     0.074 A 
ATOM     36  C   UNL     1       4.858  -1.617  10.172  1.00  0.00     0.049 A 
ATOM     37  N   UNL     1       6.484   0.366  11.755  1.00  0.00    -0.248 NA
ATOM     38  C   UNL     1       4.734   1.895  11.544  1.00  0.00     0.031 C 
ATOM     39  C   UNL     1       4.133  -2.593   9.356  1.00  0.00     0.029 A 
ATOM     40  N   UNL     1       6.030  -2.255  10.490  1.00  0.00    -0.354 N 
ATOM     41  C   UNL     1       6.839   1.559  12.372  1.00  0.00     0.074 A 
ATOM     42  C   UNL     1       5.753   2.489  12.147  1.00  0.00     0.031 C 
ATOM     43  C   UNL     1       4.868  -3.711   9.251  1.00  0.00     0.029 A 
ATOM     44  C   UNL     1       6.131  -3.518   9.956  1.00  0.00     0.049 A 
ATOM     45  H   UNL     1       6.731  -1.848  11.048  1.00  0.00     0.167 HD
ATOM     46  C   UNL     1       7.956   1.846  13.084  1.00  0.00     0.037 A 
ATOM     47  C   UNL     1       7.134  -4.415  10.015  1.00  0.00     0.037 A 
ATOM     48  C   UNL     1       9.028   0.910  13.303  1.00  0.00     0.049 A 
ATOM     49  C   UNL     1       8.367  -4.079  10.807  1.00  0.00     0.074 A 
ATOM     50  C   UNL     1      10.182   1.081  14.047  1.00  0.00     0.029 A 
ATOM     51  N   UNL     1       9.083  -0.371  12.771  1.00  0.00    -0.354 N 
ATOM     52  N   UNL     1       8.658  -2.970  11.446  1.00  0.00    -0.248 NA
ATOM     53  C   UNL     1       9.402  -5.117  10.899  1.00  0.00     0.031 C 
ATOM     54  C   UNL     1      10.959  -0.077  13.921  1.00  0.00     0.029 A 
ATOM     55  C   UNL     1      10.262  -0.994  13.149  1.00  0.00     0.049 A 
ATOM     56  H   UNL     1       8.386  -0.778  12.207  1.00  0.00     0.167 HD
ATOM     57  C   UNL     1       9.901  -3.183  12.032  1.00  0.00     0.074 A 
ATOM     58  C   UNL     1      10.297  -4.533  11.685  1.00  0.00     0.031 C 
ATOM     59  C   UNL     1      10.646  -2.338  12.788  1.00  0.00     0.037 A 
BRANCH  46  60
ATOM     60  C   UNL     1       8.066   3.230  13.670  1.00  0.00     0.058 A 
ATOM     61  C   UNL     1       7.210   3.669  14.694  1.00  0.00     0.135 A 
ATOM     62  C   UNL     1       9.037   4.131  13.204  1.00  0.00     0.135 A 
ATOM     63  F   UNL     1       6.253   2.856  15.171  1.00  0.00    -0.206 F 
ATOM     64  C   UNL     1       7.277   4.965  15.196  1.00  0.00     0.059 A 
ATOM     65  C   UNL     1       9.146   5.421  13.716  1.00  0.00     0.059 A 
ATOM     66  F   UNL     1       9.886   3.767  12.230  1.00  0.00    -0.206 F 
ATOM     67  C   UNL     1       8.245   5.836  14.696  1.00  0.00     0.060 A 
BRANCH  67  68
ATOM     68  S   UNL     1       8.300   7.522  15.337  1.00  0.00     0.124 S 
ATOM     69  O   UNL     1       7.106   8.102  14.727  1.00  0.00    -0.237 OA
ATOM     70  O   UNL     1       8.234   7.310  16.779  1.00  0.00    -0.237 OA
ATOM     71  O   UNL     1       9.571   8.036  14.838  1.00  0.00    -0.744 OA
ENDBRANCH  67  68
ENDBRANCH  46  60
BRANCH  47  72
ATOM     72  C   UNL     1       6.993  -5.717   9.310  1.00  0.00     0.058 A 
ATOM     73  C   UNL     1       6.809  -6.913  10.019  1.00  0.00     0.135 A 
ATOM     74  C   UNL     1       6.988  -5.781   7.907  1.00  0.00     0.135 A 
ATOM     75  F   UNL     1       6.813  -6.904  11.361  1.00  0.00    -0.206 F 
ATOM     76  C   UNL     1       6.628  -8.127   9.365  1.00  0.00     0.059 A 
ATOM     77  C   UNL     1       6.782  -6.979   7.230  1.00  0.00     0.059 A 
ATOM     78  F   UNL     1       7.141  -4.662   7.182  1.00  0.00    -0.206 F 
ATOM     79  C   UNL     1       6.607  -8.148   7.969  1.00  0.00     0.060 A 
BRANCH  79  80
ATOM     80  S   UNL     1       6.294  -9.717   7.130  1.00  0.00     0.124 S 
ATOM     81  O   UNL     1       7.543 -10.431   7.368  1.00  0.00    -0.237 OA
ATOM     82  O   UNL     1       5.125 -10.216   7.847  1.00  0.00    -0.237 OA
ATOM     83  O   UNL     1       6.049  -9.315   5.748  1.00  0.00    -0.744 OA
ENDBRANCH  79  80
ENDBRANCH  47  72
BRANCH  59  84
ATOM     84  C   UNL     1      11.958  -2.855  13.314  1.00  0.00     0.058 A 
ATOM     85  C   UNL     1      13.060  -3.068  12.471  1.00  0.00     0.135 A 
ATOM     86  C   UNL     1      12.128  -3.095  14.687  1.00  0.00     0.135 A 
ATOM     87  F   UNL     1      12.951  -2.861  11.149  1.00  0.00    -0.206 F 
ATOM     88  C   UNL     1      14.277  -3.525  12.968  1.00  0.00     0.059 A 
ATOM     89  C   UNL     1      13.344  -3.521  15.210  1.00  0.00     0.059 A 
ATOM     90  F   UNL     1      11.110  -2.897  15.540  1.00  0.00    -0.206 F 
ATOM     91  C   UNL     1      14.410  -3.747  14.340  1.00  0.00     0.060 A 
BRANCH  91  92
ATOM     92  S   UNL     1      16.003  -4.310  14.974  1.00  0.00     0.124 S 
ATOM     93  O   UNL     1      16.032  -5.693  14.508  1.00  0.00    -0.237 OA
ATOM     94  O   UNL     1      16.938  -3.400  14.320  1.00  0.00    -0.237 OA
ATOM     95  O   UNL     1      15.875  -4.137  16.418  1.00  0.00    -0.744 OA
ENDBRANCH  91  92
ENDBRANCH  59  84
ENDBRANCH  33  34
ENDBRANCH  25  28
ENDBRANCH  23  24
ENDBRANCH  22  23
ENDBRANCH  21  22
ENDBRANCH   1  21
TORSDOF 20
