REMARK SMILES C/C(=C(/F)C(=O)NCCCCCCNC(=O)c1ccc(-c2c3nc(c(-c4c(F)cc(S(=O)(=O)[O-])cc4F)c4ccc([nH]4)c(-c4c(F)cc(S(=O)(=O)[O-])cc4F)c4nc(c(-c5c(F)cc(S(=O)(=O)[O-])cc5F)c5ccc2[nH]5)C=C4)C=C3)cc1)c1cccc(-n2cnnn2)c1
REMARK SMILES IDX 11 1 10 2 9 3 8 4 7 5 5 6 6 7 3 9 1 10 2 11 4 12 83 13 84 14
REMARK SMILES IDX 93 15 85 16 87 17 86 18 88 19 89 20 92 21 90 22 91 23 12 24
REMARK SMILES IDX 13 25 14 26 15 27 16 29 17 30 18 31 82 32 19 33 81 34 20 35
REMARK SMILES IDX 21 36 22 37 75 38 23 39 80 40 74 41 76 42 24 43 79 44 73 45
REMARK SMILES IDX 72 46 25 48 59 49 38 50 58 51 39 52 42 53 57 54 77 55 40 56
REMARK SMILES IDX 41 57 56 59 78 60 43 61 26 62 27 63 36 64 28 65 29 66 35 67
REMARK SMILES IDX 37 68 30 69 31 70 32 71 33 72 34 73 60 74 61 75 70 76 62 77
REMARK SMILES IDX 63 78 69 79 71 80 64 81 65 82 66 83 67 84 68 85 44 86 45 87
REMARK SMILES IDX 54 88 46 89 47 90 53 91 55 92 48 93 49 94 50 95 51 96 52 97
REMARK H PARENT 7 8 14 28 76 47 42 58
REMARK Flexibility Score: inf
ROOT
ATOM      1  C   UNL     1      -3.451  -6.501  -0.300  1.00  0.00     0.002 C 
ENDROOT
BRANCH   1   2
ATOM      2  C   UNL     1      -1.925  -6.410  -0.415  1.00  0.00     0.002 C 
BRANCH   2   3
ATOM      3  C   UNL     1      -1.407  -5.546  -1.573  1.00  0.00     0.021 C 
BRANCH   3   4
ATOM      4  C   UNL     1      -1.948  -4.116  -1.581  1.00  0.00     0.116 C 
BRANCH   4   5
ATOM      5  N   UNL     1      -1.510  -3.395  -0.399  1.00  0.00    -0.350 N 
ATOM      6  C   UNL     1      -0.670  -2.341  -0.211  1.00  0.00     0.280 C 
ATOM      7  O   UNL     1      -0.425  -2.036   0.956  1.00  0.00    -0.267 OA
ATOM      8  H   UNL     1      -1.900  -3.739   0.437  1.00  0.00     0.163 HD
BRANCH   6   9
ATOM      9  C   UNL     1      -0.103  -1.584  -1.371  1.00  0.00     0.191 C 
ATOM     10  C   UNL     1       1.131   0.245  -0.072  1.00  0.00     0.048 C 
ATOM     11  C   UNL     1       0.650  -0.468  -1.308  1.00  0.00    -0.002 C 
ATOM     12  F   UNL     1      -0.398  -2.078  -2.592  1.00  0.00    -0.201 F 
BRANCH  11  13
ATOM     13  C   UNL     1       1.048   0.184  -2.579  1.00  0.00    -0.017 A 
ATOM     14  C   UNL     1       0.073   0.652  -3.474  1.00  0.00     0.008 A 
ATOM     15  C   UNL     1       2.401   0.400  -2.873  1.00  0.00     0.037 A 
ATOM     16  C   UNL     1       0.439   1.355  -4.622  1.00  0.00     0.003 A 
ATOM     17  C   UNL     1       2.769   1.122  -4.019  1.00  0.00     0.069 A 
ATOM     18  C   UNL     1       1.783   1.613  -4.885  1.00  0.00     0.028 A 
BRANCH  17  19
ATOM     19  N   UNL     1       4.129   1.384  -4.290  1.00  0.00    -0.201 N 
ATOM     20  C   UNL     1       5.248   0.789  -3.764  1.00  0.00     0.252 A 
ATOM     21  N   UNL     1       4.535   2.350  -5.144  1.00  0.00    -0.040 NA
ATOM     22  N   UNL     1       6.319   1.401  -4.214  1.00  0.00    -0.117 NA
ATOM     23  N   UNL     1       5.858   2.376  -5.061  1.00  0.00    -0.024 NA
ENDBRANCH  17  19
ENDBRANCH  11  13
ENDBRANCH   6   9
ENDBRANCH   4   5
ENDBRANCH   3   4
ENDBRANCH   2   3
ENDBRANCH   1   2
BRANCH   1  24
ATOM     24  C   UNL     1      -4.171  -6.955  -1.571  1.00  0.00     0.021 C 
BRANCH  24  25
ATOM     25  C   UNL     1      -3.731  -8.316  -2.099  1.00  0.00     0.116 C 
BRANCH  25  26
ATOM     26  N   UNL     1      -4.046  -9.393  -1.174  1.00  0.00    -0.352 N 
ATOM     27  C   UNL     1      -4.726 -10.562  -1.412  1.00  0.00     0.251 C 
ATOM     28  H   UNL     1      -3.728  -9.267  -0.251  1.00  0.00     0.163 HD
ATOM     29  O   UNL     1      -5.064 -11.281  -0.476  1.00  0.00    -0.269 OA
BRANCH  27  30
ATOM     30  C   UNL     1      -5.071 -10.934  -2.800  1.00  0.00     0.039 A 
ATOM     31  C   UNL     1      -6.372 -11.349  -3.090  1.00  0.00     0.014 A 
ATOM     32  C   UNL     1      -4.114 -10.851  -3.817  1.00  0.00     0.014 A 
ATOM     33  C   UNL     1      -6.734 -11.615  -4.413  1.00  0.00     0.010 A 
ATOM     34  C   UNL     1      -4.495 -11.047  -5.141  1.00  0.00     0.010 A 
ATOM     35  C   UNL     1      -5.808 -11.429  -5.454  1.00  0.00    -0.014 A 
BRANCH  35  36
ATOM     36  C   UNL     1      -6.193 -11.619  -6.876  1.00  0.00     0.031 A 
ATOM     37  C   UNL     1      -5.531 -12.689  -7.700  1.00  0.00     0.074 A 
ATOM     38  C   UNL     1      -7.079 -10.777  -7.446  1.00  0.00     0.049 A 
ATOM     39  N   UNL     1      -5.658 -12.946  -8.976  1.00  0.00    -0.248 NA
ATOM     40  C   UNL     1      -4.579 -13.569  -7.003  1.00  0.00     0.031 C 
ATOM     41  C   UNL     1      -7.755  -9.671  -6.763  1.00  0.00     0.029 A 
ATOM     42  N   UNL     1      -7.552 -10.709  -8.733  1.00  0.00    -0.354 N 
ATOM     43  C   UNL     1      -4.794 -14.003  -9.239  1.00  0.00     0.074 A 
ATOM     44  C   UNL     1      -4.111 -14.306  -8.000  1.00  0.00     0.031 C 
ATOM     45  C   UNL     1      -8.566  -9.046  -7.633  1.00  0.00     0.029 A 
ATOM     46  C   UNL     1      -8.437  -9.677  -8.943  1.00  0.00     0.049 A 
ATOM     47  H   UNL     1      -7.283 -11.339  -9.439  1.00  0.00     0.167 HD
ATOM     48  C   UNL     1      -4.604 -14.673 -10.400  1.00  0.00     0.037 A 
ATOM     49  C   UNL     1      -9.063  -9.273 -10.066  1.00  0.00     0.037 A 
ATOM     50  C   UNL     1      -5.307 -14.381 -11.623  1.00  0.00     0.049 A 
ATOM     51  C   UNL     1      -8.830 -10.029 -11.347  1.00  0.00     0.074 A 
ATOM     52  C   UNL     1      -5.229 -15.040 -12.837  1.00  0.00     0.029 A 
ATOM     53  N   UNL     1      -6.212 -13.343 -11.789  1.00  0.00    -0.354 N 
ATOM     54  N   UNL     1      -8.056 -11.066 -11.562  1.00  0.00    -0.248 NA
ATOM     55  C   UNL     1      -9.556  -9.564 -12.537  1.00  0.00     0.031 C 
ATOM     56  C   UNL     1      -6.051 -14.372 -13.750  1.00  0.00     0.029 A 
ATOM     57  C   UNL     1      -6.683 -13.330 -13.092  1.00  0.00     0.049 A 
ATOM     58  H   UNL     1      -6.481 -12.709 -11.085  1.00  0.00     0.167 HD
ATOM     59  C   UNL     1      -8.225 -11.396 -12.902  1.00  0.00     0.074 A 
ATOM     60  C   UNL     1      -9.181 -10.453 -13.446  1.00  0.00     0.031 C 
ATOM     61  C   UNL     1      -7.643 -12.390 -13.617  1.00  0.00     0.037 A 
BRANCH  48  62
ATOM     62  C   UNL     1      -3.596 -15.790 -10.406  1.00  0.00     0.058 A 
ATOM     63  C   UNL     1      -3.828 -16.996  -9.725  1.00  0.00     0.135 A 
ATOM     64  C   UNL     1      -2.401 -15.670 -11.133  1.00  0.00     0.135 A 
ATOM     65  F   UNL     1      -4.947 -17.161  -9.002  1.00  0.00    -0.206 F 
ATOM     66  C   UNL     1      -2.898 -18.030  -9.739  1.00  0.00     0.059 A 
ATOM     67  C   UNL     1      -1.469 -16.703 -11.186  1.00  0.00     0.059 A 
ATOM     68  F   UNL     1      -2.128 -14.539 -11.803  1.00  0.00    -0.206 F 
ATOM     69  C   UNL     1      -1.721 -17.874 -10.473  1.00  0.00     0.060 A 
BRANCH  69  70
ATOM     70  S   UNL     1      -0.527 -19.228 -10.484  1.00  0.00     0.124 S 
ATOM     71  O   UNL     1       0.020 -19.143  -9.133  1.00  0.00    -0.237 OA
ATOM     72  O   UNL     1      -1.371 -20.387 -10.754  1.00  0.00    -0.237 OA
ATOM     73  O   UNL     1       0.393 -18.862 -11.556  1.00  0.00    -0.744 OA
ENDBRANCH  69  70
ENDBRANCH  48  62
BRANCH  49  74
ATOM     74  C   UNL     1      -9.981  -8.104 -10.026  1.00  0.00     0.058 A 
ATOM     75  C   UNL     1     -11.367  -8.268 -10.168  1.00  0.00     0.135 A 
ATOM     76  C   UNL     1      -9.495  -6.801  -9.830  1.00  0.00     0.135 A 
ATOM     77  F   UNL     1     -11.879  -9.493 -10.364  1.00  0.00    -0.206 F 
ATOM     78  C   UNL     1     -12.238  -7.184 -10.134  1.00  0.00     0.059 A 
ATOM     79  C   UNL     1     -10.348  -5.704  -9.765  1.00  0.00     0.059 A 
ATOM     80  F   UNL     1      -8.179  -6.590  -9.671  1.00  0.00    -0.206 F 
ATOM     81  C   UNL     1     -11.718  -5.905  -9.928  1.00  0.00     0.060 A 
BRANCH  81  82
ATOM     82  S   UNL     1     -12.862  -4.510  -9.836  1.00  0.00     0.124 S 
ATOM     83  O   UNL     1     -13.264  -4.367 -11.230  1.00  0.00    -0.237 OA
ATOM     84  O   UNL     1     -13.884  -5.013  -8.923  1.00  0.00    -0.237 OA
ATOM     85  O   UNL     1     -12.033  -3.433  -9.303  1.00  0.00    -0.744 OA
ENDBRANCH  81  82
ENDBRANCH  49  74
BRANCH  61  86
ATOM     86  C   UNL     1      -8.046 -12.541 -15.058  1.00  0.00     0.058 A 
ATOM     87  C   UNL     1      -7.620 -11.638 -16.043  1.00  0.00     0.135 A 
ATOM     88  C   UNL     1      -8.814 -13.644 -15.467  1.00  0.00     0.135 A 
ATOM     89  F   UNL     1      -6.891 -10.562 -15.705  1.00  0.00    -0.206 F 
ATOM     90  C   UNL     1      -7.953 -11.814 -17.383  1.00  0.00     0.059 A 
ATOM     91  C   UNL     1      -9.136 -13.855 -16.804  1.00  0.00     0.059 A 
ATOM     92  F   UNL     1      -9.240 -14.543 -14.565  1.00  0.00    -0.206 F 
ATOM     93  C   UNL     1      -8.707 -12.929 -17.754  1.00  0.00     0.060 A 
BRANCH  93  94
ATOM     94  S   UNL     1      -9.091 -13.171 -19.501  1.00  0.00     0.124 S 
ATOM     95  O   UNL     1     -10.101 -12.142 -19.726  1.00  0.00    -0.237 OA
ATOM     96  O   UNL     1      -7.798 -12.942 -20.139  1.00  0.00    -0.237 OA
ATOM     97  O   UNL     1      -9.574 -14.548 -19.556  1.00  0.00    -0.744 OA
ENDBRANCH  93  94
ENDBRANCH  61  86
ENDBRANCH  35  36
ENDBRANCH  27  30
ENDBRANCH  25  26
ENDBRANCH  24  25
ENDBRANCH   1  24
TORSDOF 18
