REMARK SMILES CCCc1sc(C(=O)NCCC(=O)NCCCCCCNC(=O)c2ccc(-c3c4nc(c(-c5c(F)cc(S(=O)(=O)[O-])cc5F)c5ccc([nH]5)c(-c5c(F)cc(S(=O)(=O)[O-])cc5F)c5nc(c(-c6c(F)cc(S(=O)(=O)[O-])cc6F)c6ccc3[nH]6)C=C5)C=C4)cc2)cc1CC
REMARK SMILES IDX 16 1 15 2 14 3 12 4 13 5 11 7 10 8 9 9 7 10 8 11 6 13 4 14
REMARK SMILES IDX 5 15 91 16 90 17 3 18 2 19 1 20 92 21 93 22 17 23 18 24
REMARK SMILES IDX 19 25 20 26 21 27 22 28 23 30 24 31 25 32 89 33 26 34 88 35
REMARK SMILES IDX 27 36 28 37 29 38 82 39 30 40 87 41 81 42 83 43 31 44 86 45
REMARK SMILES IDX 80 46 79 47 32 49 66 50 45 51 65 52 46 53 49 54 64 55 84 56
REMARK SMILES IDX 47 57 48 58 63 60 85 61 50 62 33 63 34 64 43 65 35 66 36 67
REMARK SMILES IDX 42 68 44 69 37 70 38 71 39 72 40 73 41 74 67 75 68 76 77 77
REMARK SMILES IDX 69 78 70 79 76 80 78 81 71 82 72 83 73 84 74 85 75 86 51 87
REMARK SMILES IDX 52 88 61 89 53 90 54 91 60 92 62 93 55 94 56 95 57 96 58 97
REMARK SMILES IDX 59 98
REMARK H PARENT 14 6 9 12 21 29 83 48 49 59
REMARK Flexibility Score: inf
ROOT
ATOM      1  C   UNL     1      -0.170   8.720   2.695  1.00  0.00     0.021 C 
ENDROOT
BRANCH   1   2
ATOM      2  C   UNL     1      -0.803   8.057   3.920  1.00  0.00     0.116 C 
BRANCH   2   3
ATOM      3  N   UNL     1      -2.245   8.225   3.913  1.00  0.00    -0.356 N 
ATOM      4  C   UNL     1      -3.221   7.316   3.641  1.00  0.00     0.221 C 
ATOM      5  O   UNL     1      -4.392   7.698   3.608  1.00  0.00    -0.275 OA
ATOM      6  H   UNL     1      -2.564   9.129   4.138  1.00  0.00     0.163 HD
BRANCH   4   7
ATOM      7  C   UNL     1      -2.874   5.866   3.371  1.00  0.00     0.121 C 
BRANCH   7   8
ATOM      8  C   UNL     1      -2.542   5.630   1.901  1.00  0.00     0.126 C 
BRANCH   8   9
ATOM      9  N   UNL     1      -1.123   5.727   1.625  1.00  0.00    -0.351 N 
ATOM     10  C   UNL     1      -0.044   4.909   1.859  1.00  0.00     0.261 C 
ATOM     11  O   UNL     1       1.041   5.457   1.671  1.00  0.00    -0.268 OA
ATOM     12  H   UNL     1      -0.878   6.565   1.169  1.00  0.00     0.163 HD
BRANCH  10  13
ATOM     13  C   UNL     1      -0.194   3.510   2.241  1.00  0.00     0.092 A 
ATOM     14  C   UNL     1       0.375   1.095   2.461  1.00  0.00     0.009 A 
ATOM     15  S   UNL     1       1.238   2.558   2.268  1.00  0.00    -0.135 S 
ATOM     16  C   UNL     1      -0.977   1.317   2.666  1.00  0.00    -0.034 A 
ATOM     17  C   UNL     1      -1.277   2.723   2.578  1.00  0.00     0.029 A 
BRANCH  14  18
ATOM     18  C   UNL     1       1.130  -0.205   2.370  1.00  0.00     0.047 C 
BRANCH  18  19
ATOM     19  C   UNL     1       0.844  -0.964   1.069  1.00  0.00     0.002 C 
ATOM     20  C   UNL     1       1.304  -0.229  -0.184  1.00  0.00     0.004 C 
ENDBRANCH  18  19
ENDBRANCH  14  18
BRANCH  16  21
ATOM     21  C   UNL     1      -2.023   0.248   2.852  1.00  0.00     0.033 C 
ATOM     22  C   UNL     1      -2.967   0.499   4.017  1.00  0.00     0.009 C 
ENDBRANCH  16  21
ENDBRANCH  10  13
ENDBRANCH   8   9
ENDBRANCH   7   8
ENDBRANCH   4   7
ENDBRANCH   2   3
ENDBRANCH   1   2
BRANCH   1  23
ATOM     23  C   UNL     1      -0.009  10.239   2.795  1.00  0.00     0.002 C 
BRANCH  23  24
ATOM     24  C   UNL     1       0.893  10.731   3.928  1.00  0.00     0.002 C 
BRANCH  24  25
ATOM     25  C   UNL     1       2.278  10.081   4.000  1.00  0.00     0.021 C 
BRANCH  25  26
ATOM     26  C   UNL     1       3.109  10.176   2.722  1.00  0.00     0.116 C 
BRANCH  26  27
ATOM     27  N   UNL     1       3.373  11.555   2.342  1.00  0.00    -0.352 N 
ATOM     28  C   UNL     1       4.571  12.200   2.169  1.00  0.00     0.251 C 
ATOM     29  H   UNL     1       2.573  12.107   2.185  1.00  0.00     0.163 HD
ATOM     30  O   UNL     1       4.594  13.421   2.042  1.00  0.00    -0.269 OA
BRANCH  28  31
ATOM     31  C   UNL     1       5.834  11.431   2.153  1.00  0.00     0.039 A 
ATOM     32  C   UNL     1       6.926  11.910   2.882  1.00  0.00     0.014 A 
ATOM     33  C   UNL     1       5.951  10.255   1.405  1.00  0.00     0.014 A 
ATOM     34  C   UNL     1       8.118  11.181   2.905  1.00  0.00     0.010 A 
ATOM     35  C   UNL     1       7.119   9.498   1.479  1.00  0.00     0.010 A 
ATOM     36  C   UNL     1       8.215   9.955   2.227  1.00  0.00    -0.014 A 
BRANCH  36  37
ATOM     37  C   UNL     1       9.455   9.138   2.288  1.00  0.00     0.031 A 
ATOM     38  C   UNL     1      10.267   8.903   1.043  1.00  0.00     0.074 A 
ATOM     39  C   UNL     1       9.813   8.557   3.450  1.00  0.00     0.049 A 
ATOM     40  N   UNL     1      11.332   8.162   0.880  1.00  0.00    -0.248 NA
ATOM     41  C   UNL     1       9.808   9.571  -0.186  1.00  0.00     0.031 C 
ATOM     42  C   UNL     1       9.081   8.671   4.714  1.00  0.00     0.029 A 
ATOM     43  N   UNL     1      10.874   7.743   3.756  1.00  0.00    -0.354 N 
ATOM     44  C   UNL     1      11.661   8.258  -0.467  1.00  0.00     0.074 A 
ATOM     45  C   UNL     1      10.658   9.098  -1.087  1.00  0.00     0.031 C 
ATOM     46  C   UNL     1       9.722   7.966   5.660  1.00  0.00     0.029 A 
ATOM     47  C   UNL     1      10.889   7.322   5.066  1.00  0.00     0.049 A 
ATOM     48  H   UNL     1      11.561   7.484   3.100  1.00  0.00     0.167 HD
ATOM     49  C   UNL     1      12.713   7.714  -1.123  1.00  0.00     0.037 A 
ATOM     50  C   UNL     1      11.741   6.502   5.712  1.00  0.00     0.037 A 
ATOM     51  C   UNL     1      13.726   6.905  -0.494  1.00  0.00     0.049 A 
ATOM     52  C   UNL     1      12.908   5.919   4.962  1.00  0.00     0.074 A 
ATOM     53  C   UNL     1      14.865   6.360  -1.060  1.00  0.00     0.029 A 
ATOM     54  N   UNL     1      13.723   6.529   0.841  1.00  0.00    -0.354 N 
ATOM     55  N   UNL     1      13.238   6.073   3.702  1.00  0.00    -0.248 NA
ATOM     56  C   UNL     1      13.824   5.057   5.723  1.00  0.00     0.031 C 
ATOM     57  C   UNL     1      15.533   5.623  -0.076  1.00  0.00     0.029 A 
ATOM     58  C   UNL     1      14.832   5.745   1.113  1.00  0.00     0.049 A 
ATOM     59  H   UNL     1      13.035   6.781   1.498  1.00  0.00     0.167 HD
ATOM     60  C   UNL     1      14.413   5.351   3.526  1.00  0.00     0.074 A 
ATOM     61  C   UNL     1      14.743   4.769   4.810  1.00  0.00     0.031 C 
ATOM     62  C   UNL     1      15.153   5.185   2.402  1.00  0.00     0.037 A 
BRANCH  49  63
ATOM     63  C   UNL     1      12.834   7.980  -2.598  1.00  0.00     0.058 A 
ATOM     64  C   UNL     1      13.201   9.243  -3.089  1.00  0.00     0.135 A 
ATOM     65  C   UNL     1      12.635   6.948  -3.530  1.00  0.00     0.135 A 
ATOM     66  F   UNL     1      13.390  10.268  -2.244  1.00  0.00    -0.206 F 
ATOM     67  C   UNL     1      13.347   9.479  -4.452  1.00  0.00     0.059 A 
ATOM     68  C   UNL     1      12.799   7.156  -4.896  1.00  0.00     0.059 A 
ATOM     69  F   UNL     1      12.282   5.721  -3.115  1.00  0.00    -0.206 F 
ATOM     70  C   UNL     1      13.145   8.429  -5.348  1.00  0.00     0.060 A 
BRANCH  70  71
ATOM     71  S   UNL     1      13.360   8.747  -7.113  1.00  0.00     0.124 S 
ATOM     72  O   UNL     1      12.159   9.517  -7.418  1.00  0.00    -0.237 OA
ATOM     73  O   UNL     1      14.615   9.492  -7.146  1.00  0.00    -0.237 OA
ATOM     74  O   UNL     1      13.414   7.410  -7.696  1.00  0.00    -0.744 OA
ENDBRANCH  70  71
ENDBRANCH  49  63
BRANCH  50  75
ATOM     75  C   UNL     1      11.533   6.194   7.152  1.00  0.00     0.058 A 
ATOM     76  C   UNL     1      12.399   6.706   8.130  1.00  0.00     0.135 A 
ATOM     77  C   UNL     1      10.470   5.384   7.579  1.00  0.00     0.135 A 
ATOM     78  F   UNL     1      13.433   7.481   7.771  1.00  0.00    -0.206 F 
ATOM     79  C   UNL     1      12.234   6.406   9.478  1.00  0.00     0.059 A 
ATOM     80  C   UNL     1      10.269   5.091   8.924  1.00  0.00     0.059 A 
ATOM     81  F   UNL     1       9.603   4.885   6.684  1.00  0.00    -0.206 F 
ATOM     82  C   UNL     1      11.165   5.596   9.866  1.00  0.00     0.060 A 
BRANCH  82  83
ATOM     83  S   UNL     1      10.939   5.238  11.621  1.00  0.00     0.124 S 
ATOM     84  O   UNL     1      11.992   4.258  11.859  1.00  0.00    -0.237 OA
ATOM     85  O   UNL     1      11.137   6.549  12.232  1.00  0.00    -0.237 OA
ATOM     86  O   UNL     1       9.573   4.727  11.685  1.00  0.00    -0.744 OA
ENDBRANCH  82  83
ENDBRANCH  50  75
BRANCH  62  87
ATOM     87  C   UNL     1      16.413   4.374   2.516  1.00  0.00     0.058 A 
ATOM     88  C   UNL     1      16.381   2.977   2.640  1.00  0.00     0.135 A 
ATOM     89  C   UNL     1      17.668   5.000   2.448  1.00  0.00     0.135 A 
ATOM     90  F   UNL     1      15.207   2.331   2.716  1.00  0.00    -0.206 F 
ATOM     91  C   UNL     1      17.552   2.228   2.712  1.00  0.00     0.059 A 
ATOM     92  C   UNL     1      18.851   4.269   2.493  1.00  0.00     0.059 A 
ATOM     93  F   UNL     1      17.753   6.334   2.320  1.00  0.00    -0.206 F 
ATOM     94  C   UNL     1      18.783   2.884   2.637  1.00  0.00     0.060 A 
BRANCH  94  95
ATOM     95  S   UNL     1      20.295   1.900   2.696  1.00  0.00     0.124 S 
ATOM     96  O   UNL     1      20.372   1.564   4.113  1.00  0.00    -0.237 OA
ATOM     97  O   UNL     1      19.984   0.792   1.798  1.00  0.00    -0.237 OA
ATOM     98  O   UNL     1      21.319   2.821   2.212  1.00  0.00    -0.744 OA
ENDBRANCH  94  95
ENDBRANCH  62  87
ENDBRANCH  36  37
ENDBRANCH  28  31
ENDBRANCH  26  27
ENDBRANCH  25  26
ENDBRANCH  24  25
ENDBRANCH  23  24
ENDBRANCH   1  23
TORSDOF 22
