REMARK SMILES C[C@@H](Oc1cncc(C(=O)NCCCCCCNC(=O)c2ccc(-c3c4nc(c(-c5c(F)cc(S(=O)(=O)[O-])cc5F)c5ccc([nH]5)c(-c5c(F)cc(S(=O)(=O)[O-])cc5F)c5nc(c(-c6c(F)cc(S(=O)(=O)[O-])cc6F)c6ccc3[nH]6)C=C5)C=C4)cc2)n1)C(F)(F)F
REMARK SMILES IDX 14 1 13 2 12 3 11 4 9 5 10 6 8 8 4 9 5 10 87 11 6 12 7 13
REMARK SMILES IDX 3 14 2 15 1 16 88 17 89 18 90 19 91 20 15 21 16 22 17 23
REMARK SMILES IDX 18 24 19 25 20 27 21 28 22 29 86 30 23 31 85 32 24 33 25 34
REMARK SMILES IDX 26 35 79 36 27 37 84 38 78 39 80 40 28 41 83 42 77 43 76 44
REMARK SMILES IDX 29 46 63 47 42 48 62 49 43 50 46 51 61 52 81 53 44 54 45 55
REMARK SMILES IDX 60 57 82 58 47 59 30 60 31 61 40 62 32 63 33 64 39 65 41 66
REMARK SMILES IDX 34 67 35 68 36 69 37 70 38 71 64 72 65 73 74 74 66 75 67 76
REMARK SMILES IDX 73 77 75 78 68 79 69 80 70 81 71 82 72 83 48 84 49 85 58 86
REMARK SMILES IDX 50 87 51 88 57 89 59 90 52 91 53 92 54 93 55 94 56 95
REMARK H PARENT 11 7 18 26 80 45 46 56
REMARK Flexibility Score: inf
ROOT
ATOM      1  C   UNL     1       2.619  -1.106   8.377  1.00  0.00     0.002 C 
ENDROOT
BRANCH   1   2
ATOM      2  C   UNL     1       2.236  -1.048   6.892  1.00  0.00     0.021 C 
BRANCH   2   3
ATOM      3  C   UNL     1       2.485   0.311   6.241  1.00  0.00     0.116 C 
BRANCH   3   4
ATOM      4  N   UNL     1       3.911   0.558   6.122  1.00  0.00    -0.351 N 
ATOM      5  C   UNL     1       4.736   0.663   5.030  1.00  0.00     0.271 C 
ATOM      6  O   UNL     1       5.946   0.772   5.246  1.00  0.00    -0.267 OA
ATOM      7  H   UNL     1       4.372   0.672   6.984  1.00  0.00     0.163 HD
BRANCH   5   8
ATOM      8  C   UNL     1       4.247   0.704   3.620  1.00  0.00     0.150 A 
ATOM      9  C   UNL     1       2.578   0.783   2.052  1.00  0.00     0.233 A 
ATOM     10  C   UNL     1       3.508   1.133   1.081  1.00  0.00     0.179 A 
ATOM     11  N   UNL     1       2.926   0.563   3.335  1.00  0.00    -0.205 NA
ATOM     12  N   UNL     1       4.835   1.209   1.332  1.00  0.00    -0.257 NA
ATOM     13  C   UNL     1       5.179   0.999   2.628  1.00  0.00     0.145 A 
BRANCH   9  14
ATOM     14  O   UNL     1       1.236   0.872   1.798  1.00  0.00    -0.464 OA
BRANCH  14  15
ATOM     15  C   UNL     1       0.692  -0.298   1.153  1.00  0.00     0.277 C 
ATOM     16  C   UNL     1       0.859  -0.167  -0.363  1.00  0.00     0.063 C 
BRANCH  15  17
ATOM     17  C   UNL     1      -0.802  -0.400   1.487  1.00  0.00     0.425 C 
ATOM     18  F   UNL     1      -1.370  -1.439   0.827  1.00  0.00    -0.167 F 
ATOM     19  F   UNL     1      -1.004  -0.607   2.806  1.00  0.00    -0.167 F 
ATOM     20  F   UNL     1      -1.470   0.719   1.128  1.00  0.00    -0.167 F 
ENDBRANCH  15  17
ENDBRANCH  14  15
ENDBRANCH   9  14
ENDBRANCH   5   8
ENDBRANCH   3   4
ENDBRANCH   2   3
ENDBRANCH   1   2
BRANCH   1  21
ATOM     21  C   UNL     1       1.917  -0.075   9.267  1.00  0.00     0.002 C 
BRANCH  21  22
ATOM     22  C   UNL     1       0.390  -0.064   9.162  1.00  0.00     0.021 C 
BRANCH  22  23
ATOM     23  C   UNL     1      -0.274  -1.395   9.497  1.00  0.00     0.116 C 
BRANCH  23  24
ATOM     24  N   UNL     1      -0.042  -1.784  10.880  1.00  0.00    -0.352 N 
ATOM     25  C   UNL     1      -0.954  -2.109  11.851  1.00  0.00     0.251 C 
ATOM     26  H   UNL     1       0.902  -1.818  11.157  1.00  0.00     0.163 HD
ATOM     27  O   UNL     1      -0.594  -2.204  13.024  1.00  0.00    -0.269 OA
BRANCH  25  28
ATOM     28  C   UNL     1      -2.370  -2.326  11.487  1.00  0.00     0.039 A 
ATOM     29  C   UNL     1      -3.369  -1.760  12.282  1.00  0.00     0.014 A 
ATOM     30  C   UNL     1      -2.710  -3.086  10.364  1.00  0.00     0.014 A 
ATOM     31  C   UNL     1      -4.708  -1.909  11.918  1.00  0.00     0.010 A 
ATOM     32  C   UNL     1      -4.039  -3.168   9.960  1.00  0.00     0.010 A 
ATOM     33  C   UNL     1      -5.053  -2.586  10.735  1.00  0.00    -0.014 A 
BRANCH  33  34
ATOM     34  C   UNL     1      -6.468  -2.693  10.294  1.00  0.00     0.031 A 
ATOM     35  C   UNL     1      -7.128  -4.041  10.186  1.00  0.00     0.074 A 
ATOM     36  C   UNL     1      -7.138  -1.580   9.934  1.00  0.00     0.049 A 
ATOM     37  N   UNL     1      -8.329  -4.341   9.765  1.00  0.00    -0.248 NA
ATOM     38  C   UNL     1      -6.323  -5.209  10.580  1.00  0.00     0.031 C 
ATOM     39  C   UNL     1      -6.592  -0.221   9.950  1.00  0.00     0.029 A 
ATOM     40  N   UNL     1      -8.421  -1.414   9.474  1.00  0.00    -0.354 N 
ATOM     41  C   UNL     1      -8.420  -5.727   9.831  1.00  0.00     0.074 A 
ATOM     42  C   UNL     1      -7.134  -6.213  10.279  1.00  0.00     0.031 C 
ATOM     43  C   UNL     1      -7.538   0.640   9.544  1.00  0.00     0.029 A 
ATOM     44  C   UNL     1      -8.744  -0.106   9.196  1.00  0.00     0.049 A 
ATOM     45  H   UNL     1      -9.051  -2.161   9.355  1.00  0.00     0.167 HD
ATOM     46  C   UNL     1      -9.486  -6.520   9.564  1.00  0.00     0.037 A 
ATOM     47  C   UNL     1      -9.878   0.431   8.706  1.00  0.00     0.037 A 
ATOM     48  C   UNL     1     -10.769  -6.025   9.135  1.00  0.00     0.049 A 
ATOM     49  C   UNL     1     -11.044  -0.471   8.405  1.00  0.00     0.074 A 
ATOM     50  C   UNL     1     -11.929  -6.740   8.894  1.00  0.00     0.029 A 
ATOM     51  N   UNL     1     -11.061  -4.693   8.877  1.00  0.00    -0.354 N 
ATOM     52  N   UNL     1     -11.135  -1.774   8.538  1.00  0.00    -0.248 NA
ATOM     53  C   UNL     1     -12.264   0.167   7.892  1.00  0.00     0.031 C 
ATOM     54  C   UNL     1     -12.905  -5.848   8.437  1.00  0.00     0.029 A 
ATOM     55  C   UNL     1     -12.374  -4.569   8.453  1.00  0.00     0.049 A 
ATOM     56  H   UNL     1     -10.428  -3.946   8.980  1.00  0.00     0.167 HD
ATOM     57  C   UNL     1     -12.430  -2.106   8.155  1.00  0.00     0.074 A 
ATOM     58  C   UNL     1     -13.089  -0.867   7.797  1.00  0.00     0.031 C 
ATOM     59  C   UNL     1     -13.020  -3.326   8.107  1.00  0.00     0.037 A 
BRANCH  46  60
ATOM     60  C   UNL     1      -9.312  -8.006   9.727  1.00  0.00     0.058 A 
ATOM     61  C   UNL     1      -9.145  -8.598  10.990  1.00  0.00     0.135 A 
ATOM     62  C   UNL     1      -9.352  -8.857   8.610  1.00  0.00     0.135 A 
ATOM     63  F   UNL     1      -9.084  -7.833  12.093  1.00  0.00    -0.206 F 
ATOM     64  C   UNL     1      -8.992  -9.973  11.137  1.00  0.00     0.059 A 
ATOM     65  C   UNL     1      -9.234 -10.238   8.736  1.00  0.00     0.059 A 
ATOM     66  F   UNL     1      -9.510  -8.348   7.378  1.00  0.00    -0.206 F 
ATOM     67  C   UNL     1      -9.040 -10.785  10.003  1.00  0.00     0.060 A 
BRANCH  67  68
ATOM     68  S   UNL     1      -8.847 -12.568  10.213  1.00  0.00     0.124 S 
ATOM     69  O   UNL     1      -7.431 -12.670  10.552  1.00  0.00    -0.237 OA
ATOM     70  O   UNL     1      -9.780 -12.856  11.298  1.00  0.00    -0.237 OA
ATOM     71  O   UNL     1      -9.220 -13.107   8.909  1.00  0.00    -0.744 OA
ENDBRANCH  67  68
ENDBRANCH  46  60
BRANCH  47  72
ATOM     72  C   UNL     1      -9.971   1.901   8.487  1.00  0.00     0.058 A 
ATOM     73  C   UNL     1     -10.807   2.699   9.282  1.00  0.00     0.135 A 
ATOM     74  C   UNL     1      -9.220   2.538   7.486  1.00  0.00     0.135 A 
ATOM     75  F   UNL     1     -11.550   2.137  10.248  1.00  0.00    -0.206 F 
ATOM     76  C   UNL     1     -10.911   4.072   9.082  1.00  0.00     0.059 A 
ATOM     77  C   UNL     1      -9.284   3.913   7.286  1.00  0.00     0.059 A 
ATOM     78  F   UNL     1      -8.392   1.823   6.708  1.00  0.00    -0.206 F 
ATOM     79  C   UNL     1     -10.142   4.670   8.083  1.00  0.00     0.060 A 
BRANCH  79  80
ATOM     80  S   UNL     1     -10.251   6.460   7.862  1.00  0.00     0.124 S 
ATOM     81  O   UNL     1     -11.578   6.603   7.276  1.00  0.00    -0.237 OA
ATOM     82  O   UNL     1     -10.101   6.946   9.230  1.00  0.00    -0.237 OA
ATOM     83  O   UNL     1      -9.132   6.757   6.973  1.00  0.00    -0.744 OA
ENDBRANCH  79  80
ENDBRANCH  47  72
BRANCH  59  84
ATOM     84  C   UNL     1     -14.465  -3.384   7.688  1.00  0.00     0.058 A 
ATOM     85  C   UNL     1     -14.863  -3.149   6.363  1.00  0.00     0.135 A 
ATOM     86  C   UNL     1     -15.458  -3.732   8.618  1.00  0.00     0.135 A 
ATOM     87  F   UNL     1     -13.956  -2.806   5.435  1.00  0.00    -0.206 F 
ATOM     88  C   UNL     1     -16.198  -3.234   5.980  1.00  0.00     0.059 A 
ATOM     89  C   UNL     1     -16.794  -3.855   8.251  1.00  0.00     0.059 A 
ATOM     90  F   UNL     1     -15.132  -3.978   9.897  1.00  0.00    -0.206 F 
ATOM     91  C   UNL     1     -17.156  -3.592   6.931  1.00  0.00     0.060 A 
BRANCH  91  92
ATOM     92  S   UNL     1     -18.879  -3.734   6.411  1.00  0.00     0.124 S 
ATOM     93  O   UNL     1     -19.246  -2.334   6.220  1.00  0.00    -0.237 OA
ATOM     94  O   UNL     1     -18.772  -4.533   5.194  1.00  0.00    -0.237 OA
ATOM     95  O   UNL     1     -19.521  -4.403   7.538  1.00  0.00    -0.744 OA
ENDBRANCH  91  92
ENDBRANCH  59  84
ENDBRANCH  33  34
ENDBRANCH  25  28
ENDBRANCH  23  24
ENDBRANCH  22  23
ENDBRANCH  21  22
ENDBRANCH   1  21
TORSDOF 19
