REMARK SMILES Cc1cc(C(=O)NCCCCCCNC(=O)c2ccc(-c3c4nc(c(-c5c(F)cc(S(=O)(=O)[O-])cc5F)c5ccc([nH]5)c(-c5c(F)cc(S(=O)(=O)[O-])cc5F)c5nc(c(-c6c(F)cc(S(=O)(=O)[O-])cc6F)c6ccc3[nH]6)C=C5)C=C4)cc2)ccc1NC(=O)c1ccc(=O)n(CCOc2ccccc2)n1
REMARK SMILES IDX 9 1 8 2 7 3 5 4 6 5 4 7 1 8 2 9 3 10 85 11 84 12 83 13 86 14
REMARK SMILES IDX 87 15 88 17 89 18 90 19 104 20 91 21 94 22 92 23 93 24 95 25
REMARK SMILES IDX 96 26 97 27 98 28 99 29 103 30 100 31 102 32 101 33 10 34
REMARK SMILES IDX 11 35 12 36 13 37 14 38 15 39 16 41 17 42 18 43 82 44 19 45
REMARK SMILES IDX 81 46 20 47 21 48 22 49 75 50 23 51 80 52 74 53 76 54 24 55
REMARK SMILES IDX 79 56 73 57 72 58 25 60 59 61 38 62 58 63 39 64 42 65 57 66
REMARK SMILES IDX 77 67 40 68 41 69 56 71 78 72 43 73 26 74 27 75 36 76 28 77
REMARK SMILES IDX 29 78 35 79 37 80 30 81 31 82 32 83 33 84 34 85 60 86 61 87
REMARK SMILES IDX 70 88 62 89 63 90 69 91 71 92 64 93 65 94 66 95 67 96 68 97
REMARK SMILES IDX 44 98 45 99 54 100 46 101 47 102 53 103 55 104 48 105 49 106
REMARK SMILES IDX 50 107 51 108 52 109
REMARK H PARENT 7 6 86 16 14 40 76 59 42 70
REMARK Flexibility Score: inf
ROOT
ATOM      1  C   UNL     1      -4.810  -1.601  -0.896  1.00  0.00     0.021 C 
ENDROOT
BRANCH   1   2
ATOM      2  C   UNL     1      -3.830  -1.776   0.267  1.00  0.00     0.116 C 
BRANCH   2   3
ATOM      3  N   UNL     1      -2.867  -2.847   0.029  1.00  0.00    -0.352 N 
ATOM      4  C   UNL     1      -1.496  -2.826  -0.097  1.00  0.00     0.251 C 
ATOM      5  O   UNL     1      -0.872  -3.886  -0.074  1.00  0.00    -0.269 OA
ATOM      6  H   UNL     1      -3.268  -3.742  -0.057  1.00  0.00     0.163 HD
BRANCH   4   7
ATOM      7  C   UNL     1      -0.739  -1.555  -0.221  1.00  0.00     0.040 A 
ATOM      8  C   UNL     1       2.699  -0.276   0.781  1.00  0.00     0.046 C 
ATOM      9  C   UNL     1       1.269  -0.236   0.314  1.00  0.00    -0.027 A 
ATOM     10  C   UNL     1       0.549  -1.455   0.326  1.00  0.00     0.019 A 
ATOM     11  C   UNL     1       0.641   0.910  -0.199  1.00  0.00     0.044 A 
ATOM     12  C   UNL     1      -0.522   0.723  -0.946  1.00  0.00     0.027 A 
ATOM     13  C   UNL     1      -1.216  -0.486  -0.958  1.00  0.00     0.016 A 
BRANCH  11  14
ATOM     14  N   UNL     1       1.170   2.199   0.052  1.00  0.00    -0.320 N 
ATOM     15  C   UNL     1       0.520   3.422   0.159  1.00  0.00     0.276 C 
ATOM     16  H   UNL     1       2.147   2.235   0.167  1.00  0.00     0.170 HD
ATOM     17  O   UNL     1       1.128   4.460   0.396  1.00  0.00    -0.267 OA
BRANCH  15  18
ATOM     18  C   UNL     1      -0.988   3.481   0.011  1.00  0.00     0.149 A 
ATOM     19  C   UNL     1      -1.471   3.894  -1.321  1.00  0.00     0.042 A 
ATOM     20  N   UNL     1      -1.751   3.126   1.004  1.00  0.00    -0.164 NA
ATOM     21  C   UNL     1      -2.685   3.442  -1.643  1.00  0.00     0.076 A 
ATOM     22  N   UNL     1      -3.085   2.899   0.676  1.00  0.00    -0.226 N 
ATOM     23  C   UNL     1      -3.479   2.691  -0.641  1.00  0.00     0.266 A 
ATOM     24  O   UNL     1      -4.430   2.008  -1.005  1.00  0.00    -0.268 OA
BRANCH  22  25
ATOM     25  C   UNL     1      -4.026   2.662   1.772  1.00  0.00     0.190 C 
BRANCH  25  26
ATOM     26  C   UNL     1      -4.752   3.954   2.195  1.00  0.00     0.253 C 
BRANCH  26  27
ATOM     27  O   UNL     1      -5.968   4.148   1.446  1.00  0.00    -0.492 OA
BRANCH  27  28
ATOM     28  C   UNL     1      -5.883   5.202   0.581  1.00  0.00     0.119 A 
ATOM     29  C   UNL     1      -6.018   6.517   1.016  1.00  0.00     0.046 A 
ATOM     30  C   UNL     1      -5.738   4.934  -0.776  1.00  0.00     0.046 A 
ATOM     31  C   UNL     1      -5.899   7.562   0.095  1.00  0.00     0.004 A 
ATOM     32  C   UNL     1      -5.558   5.971  -1.687  1.00  0.00     0.004 A 
ATOM     33  C   UNL     1      -5.631   7.290  -1.249  1.00  0.00     0.000 A 
ENDBRANCH  27  28
ENDBRANCH  26  27
ENDBRANCH  25  26
ENDBRANCH  22  25
ENDBRANCH  15  18
ENDBRANCH  11  14
ENDBRANCH   4   7
ENDBRANCH   2   3
ENDBRANCH   1   2
BRANCH   1  34
ATOM     34  C   UNL     1      -5.918  -2.661  -0.993  1.00  0.00     0.002 C 
BRANCH  34  35
ATOM     35  C   UNL     1      -6.831  -2.824   0.233  1.00  0.00     0.002 C 
BRANCH  35  36
ATOM     36  C   UNL     1      -7.443  -1.539   0.797  1.00  0.00     0.021 C 
BRANCH  36  37
ATOM     37  C   UNL     1      -8.468  -0.885  -0.126  1.00  0.00     0.116 C 
BRANCH  37  38
ATOM     38  N   UNL     1      -9.824  -0.941   0.401  1.00  0.00    -0.352 N 
ATOM     39  C   UNL     1     -10.942  -0.271  -0.066  1.00  0.00     0.251 C 
ATOM     40  H   UNL     1      -9.963  -1.523   1.182  1.00  0.00     0.163 HD
ATOM     41  O   UNL     1     -11.960  -0.155   0.593  1.00  0.00    -0.269 OA
BRANCH  39  42
ATOM     42  C   UNL     1     -10.904   0.174  -1.474  1.00  0.00     0.039 A 
ATOM     43  C   UNL     1     -11.706  -0.526  -2.384  1.00  0.00     0.014 A 
ATOM     44  C   UNL     1      -9.927   1.063  -1.911  1.00  0.00     0.014 A 
ATOM     45  C   UNL     1     -11.419  -0.457  -3.745  1.00  0.00     0.010 A 
ATOM     46  C   UNL     1      -9.597   1.072  -3.254  1.00  0.00     0.010 A 
ATOM     47  C   UNL     1     -10.312   0.280  -4.167  1.00  0.00    -0.014 A 
BRANCH  47  48
ATOM     48  C   UNL     1      -9.770   0.222  -5.522  1.00  0.00     0.031 A 
ATOM     49  C   UNL     1      -9.933   1.369  -6.447  1.00  0.00     0.074 A 
ATOM     50  C   UNL     1      -9.032  -0.843  -5.903  1.00  0.00     0.049 A 
ATOM     51  N   UNL     1      -9.726   1.321  -7.721  1.00  0.00    -0.248 NA
ATOM     52  C   UNL     1     -10.387   2.678  -5.991  1.00  0.00     0.031 C 
ATOM     53  C   UNL     1      -8.142  -0.935  -7.057  1.00  0.00     0.029 A 
ATOM     54  N   UNL     1      -9.118  -2.153  -5.425  1.00  0.00    -0.354 N 
ATOM     55  C   UNL     1      -9.788   2.604  -8.214  1.00  0.00     0.074 A 
ATOM     56  C   UNL     1     -10.226   3.411  -7.097  1.00  0.00     0.031 C 
ATOM     57  C   UNL     1      -7.967  -2.228  -7.367  1.00  0.00     0.029 A 
ATOM     58  C   UNL     1      -8.858  -3.002  -6.522  1.00  0.00     0.049 A 
ATOM     59  H   UNL     1      -9.320  -2.430  -4.502  1.00  0.00     0.167 HD
ATOM     60  C   UNL     1      -9.370   2.863  -9.487  1.00  0.00     0.037 A 
ATOM     61  C   UNL     1      -9.826  -3.853  -6.980  1.00  0.00     0.037 A 
ATOM     62  C   UNL     1      -9.033   1.637 -10.205  1.00  0.00     0.049 A 
ATOM     63  C   UNL     1     -10.314  -3.560  -8.385  1.00  0.00     0.074 A 
ATOM     64  C   UNL     1      -7.856   0.946 -10.444  1.00  0.00     0.029 A 
ATOM     65  N   UNL     1     -10.058   0.780 -10.561  1.00  0.00    -0.354 N 
ATOM     66  N   UNL     1      -9.889  -2.575  -9.128  1.00  0.00    -0.248 NA
ATOM     67  C   UNL     1     -11.384  -4.321  -9.036  1.00  0.00     0.031 C 
ATOM     68  C   UNL     1      -8.194  -0.364 -10.890  1.00  0.00     0.029 A 
ATOM     69  C   UNL     1      -9.573  -0.461 -10.927  1.00  0.00     0.049 A 
ATOM     70  H   UNL     1     -11.012   1.024 -10.555  1.00  0.00     0.167 HD
ATOM     71  C   UNL     1     -10.638  -2.517 -10.272  1.00  0.00     0.074 A 
ATOM     72  C   UNL     1     -11.543  -3.646 -10.187  1.00  0.00     0.031 C 
ATOM     73  C   UNL     1     -10.516  -1.527 -11.199  1.00  0.00     0.037 A 
BRANCH  60  74
ATOM     74  C   UNL     1      -9.064   4.251 -10.000  1.00  0.00     0.058 A 
ATOM     75  C   UNL     1      -8.003   4.463 -10.906  1.00  0.00     0.135 A 
ATOM     76  C   UNL     1      -9.739   5.419  -9.594  1.00  0.00     0.135 A 
ATOM     77  F   UNL     1      -7.325   3.440 -11.443  1.00  0.00    -0.206 F 
ATOM     78  C   UNL     1      -7.571   5.736 -11.283  1.00  0.00     0.059 A 
ATOM     79  C   UNL     1      -9.287   6.706  -9.907  1.00  0.00     0.059 A 
ATOM     80  F   UNL     1     -10.888   5.353  -8.907  1.00  0.00    -0.206 F 
ATOM     81  C   UNL     1      -8.191   6.854 -10.745  1.00  0.00     0.060 A 
BRANCH  81  82
ATOM     82  S   UNL     1      -7.532   8.486 -11.138  1.00  0.00     0.124 S 
ATOM     83  O   UNL     1      -6.112   8.326 -10.839  1.00  0.00    -0.237 OA
ATOM     84  O   UNL     1      -7.873   8.618 -12.550  1.00  0.00    -0.237 OA
ATOM     85  O   UNL     1      -8.256   9.372 -10.231  1.00  0.00    -0.744 OA
ENDBRANCH  81  82
ENDBRANCH  60  74
BRANCH  61  86
ATOM     86  C   UNL     1     -10.650  -4.421  -5.877  1.00  0.00     0.058 A 
ATOM     87  C   UNL     1      -9.999  -5.236  -4.929  1.00  0.00     0.135 A 
ATOM     88  C   UNL     1     -11.878  -3.855  -5.513  1.00  0.00     0.135 A 
ATOM     89  F   UNL     1      -8.827  -5.818  -5.235  1.00  0.00    -0.206 F 
ATOM     90  C   UNL     1     -10.455  -5.341  -3.621  1.00  0.00     0.059 A 
ATOM     91  C   UNL     1     -12.364  -3.962  -4.210  1.00  0.00     0.059 A 
ATOM     92  F   UNL     1     -12.548  -3.077  -6.377  1.00  0.00    -0.206 F 
ATOM     93  C   UNL     1     -11.605  -4.644  -3.257  1.00  0.00     0.060 A 
BRANCH  93  94
ATOM     94  S   UNL     1     -11.985  -4.507  -1.494  1.00  0.00     0.124 S 
ATOM     95  O   UNL     1     -12.131  -5.906  -1.106  1.00  0.00    -0.237 OA
ATOM     96  O   UNL     1     -10.793  -3.833  -0.983  1.00  0.00    -0.237 OA
ATOM     97  O   UNL     1     -13.210  -3.716  -1.478  1.00  0.00    -0.744 OA
ENDBRANCH  93  94
ENDBRANCH  61  86
BRANCH  73  98
ATOM     98  C   UNL     1     -11.317  -1.517 -12.459  1.00  0.00     0.058 A 
ATOM     99  C   UNL     1     -11.261  -2.589 -13.363  1.00  0.00     0.135 A 
ATOM    100  C   UNL     1     -12.056  -0.386 -12.850  1.00  0.00     0.135 A 
ATOM    101  F   UNL     1     -10.555  -3.692 -13.068  1.00  0.00    -0.206 F 
ATOM    102  C   UNL     1     -11.919  -2.549 -14.590  1.00  0.00     0.059 A 
ATOM    103  C   UNL     1     -12.694  -0.310 -14.085  1.00  0.00     0.059 A 
ATOM    104  F   UNL     1     -12.188   0.668 -12.029  1.00  0.00    -0.206 F 
ATOM    105  C   UNL     1     -12.632  -1.404 -14.943  1.00  0.00     0.060 A 
BRANCH 105 106
ATOM    106  S   UNL     1     -13.452  -1.326 -16.548  1.00  0.00     0.124 S 
ATOM    107  O   UNL     1     -12.603  -2.166 -17.389  1.00  0.00    -0.237 OA
ATOM    108  O   UNL     1     -14.765  -1.878 -16.229  1.00  0.00    -0.237 OA
ATOM    109  O   UNL     1     -13.424   0.098 -16.867  1.00  0.00    -0.744 OA
ENDBRANCH 105 106
ENDBRANCH  73  98
ENDBRANCH  47  48
ENDBRANCH  39  42
ENDBRANCH  37  38
ENDBRANCH  36  37
ENDBRANCH  35  36
ENDBRANCH  34  35
ENDBRANCH   1  34
TORSDOF 22
