REMARK SMILES CC[C@H]1CCCCN1S(=O)(=O)c1ccc2oc(C(=O)NCCCCCCNC(=O)c3ccc(-c4c5nc(c(-c6c(F)cc(S(=O)(=O)[O-])cc6F)c6ccc([nH]6)c(-c6c(F)cc(S(=O)(=O)[O-])cc6F)c6nc(c(-c7c(F)cc(S(=O)(=O)[O-])cc7F)c7ccc4[nH]7)C=C6)C=C5)cc3)c(C)c2c1
REMARK SMILES IDX 23 1 22 2 21 3 20 4 18 5 19 6 17 8 12 9 13 10 99 11 14 12
REMARK SMILES IDX 98 13 15 14 96 15 16 16 97 17 9 18 10 19 11 20 8 21 3 22
REMARK SMILES IDX 4 23 5 24 7 25 6 26 2 27 1 28 24 29 25 30 26 31 27 32 28 33
REMARK SMILES IDX 29 35 30 36 31 37 95 38 32 39 94 40 33 41 34 42 35 43 88 44
REMARK SMILES IDX 36 45 93 46 87 47 89 48 37 49 92 50 86 51 85 52 38 54 72 55
REMARK SMILES IDX 51 56 71 57 52 58 55 59 70 60 90 61 53 62 54 63 69 65 91 66
REMARK SMILES IDX 56 67 39 68 40 69 49 70 41 71 42 72 48 73 50 74 43 75 44 76
REMARK SMILES IDX 45 77 46 78 47 79 73 80 74 81 83 82 75 83 76 84 82 85 84 86
REMARK SMILES IDX 77 87 78 88 79 89 80 90 81 91 57 92 58 93 67 94 59 95 60 96
REMARK SMILES IDX 66 97 68 98 61 99 62 100 63 101 64 102 65 103
REMARK H PARENT 20 7 27 34 89 53 55 64
REMARK Flexibility Score: inf
ROOT
ATOM      1  C   UNL     1       2.929  12.278   3.340  1.00  0.00     0.002 C 
ENDROOT
BRANCH   1   2
ATOM      2  C   UNL     1       3.356  11.053   2.530  1.00  0.00     0.021 C 
BRANCH   2   3
ATOM      3  C   UNL     1       2.262  10.056   2.166  1.00  0.00     0.116 C 
BRANCH   3   4
ATOM      4  N   UNL     1       1.237  10.530   1.267  1.00  0.00    -0.349 N 
ATOM      5  C   UNL     1       0.370   9.804   0.466  1.00  0.00     0.287 C 
ATOM      6  O   UNL     1      -0.400  10.471  -0.230  1.00  0.00    -0.266 OA
ATOM      7  H   UNL     1       1.140  11.508   1.215  1.00  0.00     0.163 HD
BRANCH   5   8
ATOM      8  C   UNL     1       0.415   8.345   0.415  1.00  0.00     0.195 A 
ATOM      9  C   UNL     1       0.830   3.807  -0.060  1.00  0.00     0.083 A 
ATOM     10  C   UNL     1       0.063   4.078  -1.201  1.00  0.00     0.025 A 
ATOM     11  C   UNL     1       1.281   4.848   0.751  1.00  0.00     0.034 A 
ATOM     12  C   UNL     1      -0.272   5.408  -1.542  1.00  0.00     0.049 A 
ATOM     13  C   UNL     1       0.810   6.140   0.520  1.00  0.00     0.025 A 
ATOM     14  C   UNL     1       0.122   6.405  -0.645  1.00  0.00     0.135 A 
ATOM     15  C   UNL     1       0.787   7.329   1.292  1.00  0.00     0.008 A 
ATOM     16  O   UNL     1      -0.076   7.750  -0.742  1.00  0.00    -0.451 OA
ATOM     17  C   UNL     1       1.047   7.332   2.754  1.00  0.00     0.049 C 
BRANCH   9  18
ATOM     18  S   UNL     1       1.443   2.177   0.317  1.00  0.00     0.243 S 
ATOM     19  O   UNL     1       2.879   2.350   0.414  1.00  0.00    -0.207 OA
ATOM     20  O   UNL     1       0.870   1.263  -0.644  1.00  0.00    -0.207 OA
BRANCH  18  21
ATOM     21  N   UNL     1       0.837   1.737   1.868  1.00  0.00    -0.195 NA
ATOM     22  C   UNL     1       1.102   0.301   2.272  1.00  0.00     0.073 C 
ATOM     23  C   UNL     1       0.071  -0.061   3.365  1.00  0.00     0.020 C 
ATOM     24  C   UNL     1       0.198   0.842   4.590  1.00  0.00     0.003 C 
ATOM     25  C   UNL     1       0.979   2.677   3.011  1.00  0.00     0.103 C 
ATOM     26  C   UNL     1       0.069   2.296   4.177  1.00  0.00     0.017 C 
BRANCH  22  27
ATOM     27  C   UNL     1       2.528   0.005   2.801  1.00  0.00     0.017 C 
ATOM     28  C   UNL     1       3.628  -0.133   1.761  1.00  0.00     0.005 C 
ENDBRANCH  22  27
ENDBRANCH  18  21
ENDBRANCH   9  18
ENDBRANCH   5   8
ENDBRANCH   3   4
ENDBRANCH   2   3
ENDBRANCH   1   2
BRANCH   1  29
ATOM     29  C   UNL     1       2.054  12.052   4.577  1.00  0.00     0.002 C 
BRANCH  29  30
ATOM     30  C   UNL     1       2.522  11.036   5.625  1.00  0.00     0.021 C 
BRANCH  30  31
ATOM     31  C   UNL     1       3.954  11.159   6.143  1.00  0.00     0.116 C 
BRANCH  31  32
ATOM     32  N   UNL     1       4.278  12.475   6.654  1.00  0.00    -0.352 N 
ATOM     33  C   UNL     1       4.955  12.861   7.785  1.00  0.00     0.251 C 
ATOM     34  H   UNL     1       3.960  13.220   6.094  1.00  0.00     0.163 HD
ATOM     35  O   UNL     1       5.049  14.065   8.024  1.00  0.00    -0.269 OA
BRANCH  33  36
ATOM     36  C   UNL     1       5.539  11.881   8.736  1.00  0.00     0.039 A 
ATOM     37  C   UNL     1       5.479  12.186  10.102  1.00  0.00     0.014 A 
ATOM     38  C   UNL     1       6.189  10.712   8.328  1.00  0.00     0.014 A 
ATOM     39  C   UNL     1       6.016  11.309  11.049  1.00  0.00     0.010 A 
ATOM     40  C   UNL     1       6.677   9.806   9.279  1.00  0.00     0.010 A 
ATOM     41  C   UNL     1       6.597  10.095  10.649  1.00  0.00    -0.014 A 
BRANCH  41  42
ATOM     42  C   UNL     1       7.099   9.134  11.668  1.00  0.00     0.031 A 
ATOM     43  C   UNL     1       8.570   8.846  11.808  1.00  0.00     0.074 A 
ATOM     44  C   UNL     1       6.217   8.502  12.469  1.00  0.00     0.049 A 
ATOM     45  N   UNL     1       9.180   8.070  12.668  1.00  0.00    -0.248 NA
ATOM     46  C   UNL     1       9.470   9.498  10.846  1.00  0.00     0.031 C 
ATOM     47  C   UNL     1       4.761   8.643  12.399  1.00  0.00     0.029 A 
ATOM     48  N   UNL     1       6.415   7.619  13.501  1.00  0.00    -0.354 N 
ATOM     49  C   UNL     1      10.532   8.133  12.350  1.00  0.00     0.074 A 
ATOM     50  C   UNL     1      10.647   8.990  11.188  1.00  0.00     0.031 C 
ATOM     51  C   UNL     1       4.199   7.898  13.364  1.00  0.00     0.029 A 
ATOM     52  C   UNL     1       5.251   7.215  14.112  1.00  0.00     0.049 A 
ATOM     53  H   UNL     1       7.305   7.304  13.778  1.00  0.00     0.167 HD
ATOM     54  C   UNL     1      11.582   7.549  12.977  1.00  0.00     0.037 A 
ATOM     55  C   UNL     1       5.051   6.399  15.165  1.00  0.00     0.037 A 
ATOM     56  C   UNL     1      11.473   6.716  14.148  1.00  0.00     0.049 A 
ATOM     57  C   UNL     1       6.234   5.807  15.876  1.00  0.00     0.074 A 
ATOM     58  C   UNL     1      12.486   6.123  14.884  1.00  0.00     0.029 A 
ATOM     59  N   UNL     1      10.279   6.359  14.757  1.00  0.00    -0.354 N 
ATOM     60  N   UNL     1       7.509   5.930  15.597  1.00  0.00    -0.248 NA
ATOM     61  C   UNL     1       5.951   4.979  17.057  1.00  0.00     0.031 C 
ATOM     62  C   UNL     1      11.902   5.389  15.924  1.00  0.00     0.029 A 
ATOM     63  C   UNL     1      10.529   5.549  15.854  1.00  0.00     0.049 A 
ATOM     64  H   UNL     1       9.385   6.640  14.455  1.00  0.00     0.167 HD
ATOM     65  C   UNL     1       8.182   5.209  16.577  1.00  0.00     0.074 A 
ATOM     66  C   UNL     1       7.174   4.669  17.466  1.00  0.00     0.031 C 
ATOM     67  C   UNL     1       9.516   5.012  16.727  1.00  0.00     0.037 A 
BRANCH  54  68
ATOM     68  C   UNL     1      12.953   7.800  12.410  1.00  0.00     0.058 A 
ATOM     69  C   UNL     1      13.589   9.043  12.554  1.00  0.00     0.135 A 
ATOM     70  C   UNL     1      13.650   6.781  11.742  1.00  0.00     0.135 A 
ATOM     71  F   UNL     1      12.960  10.055  13.173  1.00  0.00    -0.206 F 
ATOM     72  C   UNL     1      14.855   9.278  12.029  1.00  0.00     0.059 A 
ATOM     73  C   UNL     1      14.928   6.987  11.228  1.00  0.00     0.059 A 
ATOM     74  F   UNL     1      13.089   5.573  11.578  1.00  0.00    -0.206 F 
ATOM     75  C   UNL     1      15.515   8.245  11.362  1.00  0.00     0.060 A 
BRANCH  75  76
ATOM     76  S   UNL     1      17.156   8.562  10.679  1.00  0.00     0.124 S 
ATOM     77  O   UNL     1      16.826   9.318   9.475  1.00  0.00    -0.237 OA
ATOM     78  O   UNL     1      17.801   9.322  11.746  1.00  0.00    -0.237 OA
ATOM     79  O   UNL     1      17.694   7.224  10.454  1.00  0.00    -0.744 OA
ENDBRANCH  75  76
ENDBRANCH  54  68
BRANCH  55  80
ATOM     80  C   UNL     1       3.668   6.134  15.639  1.00  0.00     0.058 A 
ATOM     81  C   UNL     1       3.185   6.724  16.815  1.00  0.00     0.135 A 
ATOM     82  C   UNL     1       2.799   5.304  14.915  1.00  0.00     0.135 A 
ATOM     83  F   UNL     1       3.984   7.521  17.542  1.00  0.00    -0.206 F 
ATOM     84  C   UNL     1       1.891   6.493  17.267  1.00  0.00     0.059 A 
ATOM     85  C   UNL     1       1.494   5.074  15.336  1.00  0.00     0.059 A 
ATOM     86  F   UNL     1       3.211   4.731  13.774  1.00  0.00    -0.206 F 
ATOM     87  C   UNL     1       1.051   5.667  16.518  1.00  0.00     0.060 A 
BRANCH  87  88
ATOM     88  S   UNL     1      -0.650   5.420  17.073  1.00  0.00     0.124 S 
ATOM     89  O   UNL     1      -0.472   4.436  18.134  1.00  0.00    -0.237 OA
ATOM     90  O   UNL     1      -1.034   6.762  17.502  1.00  0.00    -0.237 OA
ATOM     91  O   UNL     1      -1.324   4.941  15.870  1.00  0.00    -0.744 OA
ENDBRANCH  87  88
ENDBRANCH  55  80
BRANCH  67  92
ATOM     92  C   UNL     1       9.952   4.190  17.906  1.00  0.00     0.058 A 
ATOM     93  C   UNL     1       9.782   2.797  17.932  1.00  0.00     0.135 A 
ATOM     94  C   UNL     1      10.544   4.801  19.022  1.00  0.00     0.135 A 
ATOM     95  F   UNL     1       9.216   2.166  16.891  1.00  0.00    -0.206 F 
ATOM     96  C   UNL     1      10.146   2.042  19.043  1.00  0.00     0.059 A 
ATOM     97  C   UNL     1      10.935   4.063  20.135  1.00  0.00     0.059 A 
ATOM     98  F   UNL     1      10.739   6.130  19.042  1.00  0.00    -0.206 F 
ATOM     99  C   UNL     1      10.713   2.686  20.144  1.00  0.00     0.060 A 
BRANCH  99 100
ATOM    100  S   UNL     1      11.174   1.704  21.587  1.00  0.00     0.124 S 
ATOM    101  O   UNL     1       9.887   1.548  22.256  1.00  0.00    -0.237 OA
ATOM    102  O   UNL     1      11.726   0.494  20.986  1.00  0.00    -0.237 OA
ATOM    103  O   UNL     1      12.143   2.552  22.275  1.00  0.00    -0.744 OA
ENDBRANCH  99 100
ENDBRANCH  67  92
ENDBRANCH  41  42
ENDBRANCH  33  36
ENDBRANCH  31  32
ENDBRANCH  30  31
ENDBRANCH  29  30
ENDBRANCH   1  29
TORSDOF 19
