REMARK SMILES CC[C@@](C)(C(=O)NCCCCCCNC(=O)c1ccc(-c2c3nc(c(-c4c(F)cc(S(=O)(=O)[O-])cc4F)c4ccc([nH]4)c(-c4c(F)cc(S(=O)(=O)[O-])cc4F)c4nc(c(-c5c(F)cc(S(=O)(=O)[O-])cc5F)c5ccc2[nH]5)C=C4)C=C3)cc1)n1nnnc1Cc1cccs1
REMARK SMILES IDX 10 1 9 2 8 3 7 4 5 5 6 6 3 8 4 9 2 10 1 11 83 12 84 13 87 14
REMARK SMILES IDX 85 15 86 16 88 17 89 18 90 19 93 20 91 21 92 22 11 23 12 24
REMARK SMILES IDX 13 25 14 26 15 27 16 29 17 30 18 31 82 32 19 33 81 34 20 35
REMARK SMILES IDX 21 36 22 37 75 38 23 39 80 40 74 41 76 42 24 43 79 44 73 45
REMARK SMILES IDX 72 46 25 48 59 49 38 50 58 51 39 52 42 53 57 54 77 55 40 56
REMARK SMILES IDX 41 57 56 59 78 60 43 61 26 62 27 63 36 64 28 65 29 66 35 67
REMARK SMILES IDX 37 68 30 69 31 70 32 71 33 72 34 73 60 74 61 75 70 76 62 77
REMARK SMILES IDX 63 78 69 79 71 80 64 81 65 82 66 83 67 84 68 85 44 86 45 87
REMARK SMILES IDX 54 88 46 89 47 90 53 91 55 92 48 93 49 94 50 95 51 96 52 97
REMARK H PARENT 7 7 14 28 76 47 42 58
REMARK Flexibility Score: inf
ROOT
ATOM      1  C   UNL     1      -3.651   2.286  -3.856  1.00  0.00     0.002 C 
ENDROOT
BRANCH   1   2
ATOM      2  C   UNL     1      -2.908   1.756  -2.627  1.00  0.00     0.021 C 
BRANCH   2   3
ATOM      3  C   UNL     1      -2.048   0.524  -2.883  1.00  0.00     0.116 C 
BRANCH   3   4
ATOM      4  N   UNL     1      -0.858   0.831  -3.659  1.00  0.00    -0.354 N 
ATOM      5  C   UNL     1       0.460   0.499  -3.514  1.00  0.00     0.247 C 
ATOM      6  O   UNL     1       1.156   0.715  -4.513  1.00  0.00    -0.272 OA
ATOM      7  H   UNL     1      -1.038   1.391  -4.449  1.00  0.00     0.163 HD
BRANCH   5   8
ATOM      8  C   UNL     1       1.037  -0.176  -2.232  1.00  0.00     0.142 C 
ATOM      9  C   UNL     1       0.405  -1.575  -2.154  1.00  0.00     0.048 C 
BRANCH   8  10
ATOM     10  C   UNL     1       0.689   0.669  -0.960  1.00  0.00     0.037 C 
ATOM     11  C   UNL     1       1.139   0.053   0.363  1.00  0.00     0.007 C 
ENDBRANCH   8  10
BRANCH   8  12
ATOM     12  N   UNL     1       2.517  -0.201  -2.357  1.00  0.00    -0.214 N 
ATOM     13  N   UNL     1       3.158   0.999  -2.314  1.00  0.00    -0.044 NA
ATOM     14  C   UNL     1       3.483  -1.193  -2.371  1.00  0.00     0.157 A 
ATOM     15  N   UNL     1       4.449   0.737  -2.316  1.00  0.00    -0.024 NA
ATOM     16  N   UNL     1       4.668  -0.603  -2.335  1.00  0.00    -0.113 NA
BRANCH  14  17
ATOM     17  C   UNL     1       3.340  -2.676  -2.377  1.00  0.00     0.125 C 
BRANCH  17  18
ATOM     18  C   UNL     1       3.625  -3.283  -3.722  1.00  0.00     0.012 A 
ATOM     19  C   UNL     1       4.859  -3.505  -4.305  1.00  0.00     0.016 A 
ATOM     20  S   UNL     1       2.353  -3.835  -4.728  1.00  0.00    -0.148 S 
ATOM     21  C   UNL     1       4.753  -4.120  -5.585  1.00  0.00     0.012 A 
ATOM     22  C   UNL     1       3.443  -4.348  -5.939  1.00  0.00     0.065 A 
ENDBRANCH  17  18
ENDBRANCH  14  17
ENDBRANCH   8  12
ENDBRANCH   5   8
ENDBRANCH   3   4
ENDBRANCH   2   3
ENDBRANCH   1   2
BRANCH   1  23
ATOM     23  C   UNL     1      -4.525   1.265  -4.592  1.00  0.00     0.002 C 
BRANCH  23  24
ATOM     24  C   UNL     1      -5.514   0.483  -3.723  1.00  0.00     0.021 C 
BRANCH  24  25
ATOM     25  C   UNL     1      -6.477   1.334  -2.902  1.00  0.00     0.116 C 
BRANCH  25  26
ATOM     26  N   UNL     1      -7.317   2.176  -3.732  1.00  0.00    -0.352 N 
ATOM     27  C   UNL     1      -8.670   2.383  -3.671  1.00  0.00     0.251 C 
ATOM     28  H   UNL     1      -6.847   2.671  -4.442  1.00  0.00     0.163 HD
ATOM     29  O   UNL     1      -9.228   3.011  -4.573  1.00  0.00    -0.269 OA
BRANCH  27  30
ATOM     30  C   UNL     1      -9.465   1.843  -2.546  1.00  0.00     0.039 A 
ATOM     31  C   UNL     1     -10.710   1.269  -2.819  1.00  0.00     0.014 A 
ATOM     32  C   UNL     1      -9.012   1.932  -1.226  1.00  0.00     0.014 A 
ATOM     33  C   UNL     1     -11.483   0.755  -1.776  1.00  0.00     0.010 A 
ATOM     34  C   UNL     1      -9.754   1.358  -0.195  1.00  0.00     0.010 A 
ATOM     35  C   UNL     1     -11.005   0.780  -0.456  1.00  0.00    -0.014 A 
BRANCH  35  36
ATOM     36  C   UNL     1     -11.818   0.235   0.661  1.00  0.00     0.031 A 
ATOM     37  C   UNL     1     -12.340   1.156   1.733  1.00  0.00     0.074 A 
ATOM     38  C   UNL     1     -12.052  -1.089   0.736  1.00  0.00     0.049 A 
ATOM     39  N   UNL     1     -13.042   0.870   2.799  1.00  0.00    -0.248 NA
ATOM     40  C   UNL     1     -12.005   2.583   1.603  1.00  0.00     0.031 C 
ATOM     41  C   UNL     1     -11.562  -2.090  -0.215  1.00  0.00     0.029 A 
ATOM     42  N   UNL     1     -12.760  -1.823   1.653  1.00  0.00    -0.354 N 
ATOM     43  C   UNL     1     -13.214   2.072   3.475  1.00  0.00     0.074 A 
ATOM     44  C   UNL     1     -12.502   3.083   2.725  1.00  0.00     0.031 C 
ATOM     45  C   UNL     1     -12.011  -3.301   0.151  1.00  0.00     0.029 A 
ATOM     46  C   UNL     1     -12.793  -3.170   1.377  1.00  0.00     0.049 A 
ATOM     47  H   UNL     1     -13.203  -1.424   2.437  1.00  0.00     0.167 HD
ATOM     48  C   UNL     1     -13.918   2.316   4.607  1.00  0.00     0.037 A 
ATOM     49  C   UNL     1     -13.392  -4.182   2.034  1.00  0.00     0.037 A 
ATOM     50  C   UNL     1     -14.659   1.313   5.327  1.00  0.00     0.049 A 
ATOM     51  C   UNL     1     -14.189  -3.883   3.274  1.00  0.00     0.074 A 
ATOM     52  C   UNL     1     -15.465   1.471   6.440  1.00  0.00     0.029 A 
ATOM     53  N   UNL     1     -14.685  -0.035   5.003  1.00  0.00    -0.354 N 
ATOM     54  N   UNL     1     -14.397  -2.729   3.862  1.00  0.00    -0.248 NA
ATOM     55  C   UNL     1     -14.842  -5.022   3.934  1.00  0.00     0.031 C 
ATOM     56  C   UNL     1     -15.949   0.212   6.812  1.00  0.00     0.029 A 
ATOM     57  C   UNL     1     -15.479  -0.724   5.905  1.00  0.00     0.049 A 
ATOM     58  H   UNL     1     -14.210  -0.443   4.243  1.00  0.00     0.167 HD
ATOM     59  C   UNL     1     -15.231  -2.998   4.942  1.00  0.00     0.074 A 
ATOM     60  C   UNL     1     -15.493  -4.422   4.921  1.00  0.00     0.031 C 
ATOM     61  C   UNL     1     -15.737  -2.142   5.864  1.00  0.00     0.037 A 
BRANCH  48  62
ATOM     62  C   UNL     1     -13.919   3.725   5.134  1.00  0.00     0.058 A 
ATOM     63  C   UNL     1     -14.597   4.763   4.473  1.00  0.00     0.135 A 
ATOM     64  C   UNL     1     -13.247   4.040   6.327  1.00  0.00     0.135 A 
ATOM     65  F   UNL     1     -15.244   4.521   3.321  1.00  0.00    -0.206 F 
ATOM     66  C   UNL     1     -14.575   6.068   4.953  1.00  0.00     0.059 A 
ATOM     67  C   UNL     1     -13.236   5.333   6.840  1.00  0.00     0.059 A 
ATOM     68  F   UNL     1     -12.585   3.087   7.001  1.00  0.00    -0.206 F 
ATOM     69  C   UNL     1     -13.887   6.345   6.135  1.00  0.00     0.060 A 
BRANCH  69  70
ATOM     70  S   UNL     1     -13.855   8.046   6.740  1.00  0.00     0.124 S 
ATOM     71  O   UNL     1     -12.899   8.660   5.824  1.00  0.00    -0.237 OA
ATOM     72  O   UNL     1     -15.245   8.463   6.577  1.00  0.00    -0.237 OA
ATOM     73  O   UNL     1     -13.403   7.907   8.120  1.00  0.00    -0.744 OA
ENDBRANCH  69  70
ENDBRANCH  48  62
BRANCH  49  74
ATOM     74  C   UNL     1     -13.300  -5.568   1.504  1.00  0.00     0.058 A 
ATOM     75  C   UNL     1     -14.415  -6.187   0.919  1.00  0.00     0.135 A 
ATOM     76  C   UNL     1     -12.101  -6.294   1.555  1.00  0.00     0.135 A 
ATOM     77  F   UNL     1     -15.585  -5.534   0.852  1.00  0.00    -0.206 F 
ATOM     78  C   UNL     1     -14.350  -7.483   0.418  1.00  0.00     0.059 A 
ATOM     79  C   UNL     1     -12.005  -7.583   1.040  1.00  0.00     0.059 A 
ATOM     80  F   UNL     1     -11.001  -5.739   2.088  1.00  0.00    -0.206 F 
ATOM     81  C   UNL     1     -13.138  -8.172   0.481  1.00  0.00     0.060 A 
BRANCH  81  82
ATOM     82  S   UNL     1     -13.050  -9.835  -0.220  1.00  0.00     0.124 S 
ATOM     83  O   UNL     1     -13.761 -10.615   0.786  1.00  0.00    -0.237 OA
ATOM     84  O   UNL     1     -13.732  -9.665  -1.499  1.00  0.00    -0.237 OA
ATOM     85  O   UNL     1     -11.614 -10.081  -0.312  1.00  0.00    -0.744 OA
ENDBRANCH  81  82
ENDBRANCH  49  74
BRANCH  61  86
ATOM     86  C   UNL     1     -16.660  -2.716   6.903  1.00  0.00     0.058 A 
ATOM     87  C   UNL     1     -16.183  -3.509   7.957  1.00  0.00     0.135 A 
ATOM     88  C   UNL     1     -18.035  -2.435   6.861  1.00  0.00     0.135 A 
ATOM     89  F   UNL     1     -14.878  -3.811   8.039  1.00  0.00    -0.206 F 
ATOM     90  C   UNL     1     -17.043  -4.029   8.920  1.00  0.00     0.059 A 
ATOM     91  C   UNL     1     -18.909  -2.923   7.827  1.00  0.00     0.059 A 
ATOM     92  F   UNL     1     -18.541  -1.672   5.879  1.00  0.00    -0.206 F 
ATOM     93  C   UNL     1     -18.405  -3.731   8.845  1.00  0.00     0.060 A 
BRANCH  93  94
ATOM     94  S   UNL     1     -19.509  -4.392  10.112  1.00  0.00     0.124 S 
ATOM     95  O   UNL     1     -19.634  -5.784   9.694  1.00  0.00    -0.237 OA
ATOM     96  O   UNL     1     -18.751  -4.164  11.339  1.00  0.00    -0.237 OA
ATOM     97  O   UNL     1     -20.714  -3.581   9.968  1.00  0.00    -0.744 OA
ENDBRANCH  93  94
ENDBRANCH  61  86
ENDBRANCH  35  36
ENDBRANCH  27  30
ENDBRANCH  25  26
ENDBRANCH  24  25
ENDBRANCH  23  24
ENDBRANCH   1  23
TORSDOF 20
