REMARK SMILES O=C(NCCCCCCNC(=O)c1cc(-c2cc3ccccc3s2)ccn1)c1ccc(-c2c3nc(c(-c4c(F)cc(S(=O)(=O)[O-])cc4F)c4ccc([nH]4)c(-c4c(F)cc(S(=O)(=O)[O-])cc4F)c4nc(c(-c5c(F)cc(S(=O)(=O)[O-])cc5F)c5ccc2[nH]5)C=C4)C=C3)cc1
REMARK SMILES IDX 5 1 4 2 3 3 1 4 2 5 28 7 29 8 93 9 30 10 92 11 31 12 32 13
REMARK SMILES IDX 33 14 86 15 34 16 91 17 85 18 87 19 35 20 90 21 84 22 83 23
REMARK SMILES IDX 36 25 70 26 49 27 69 28 50 29 53 30 68 31 88 32 51 33 52 34
REMARK SMILES IDX 67 36 89 37 54 38 37 39 38 40 47 41 39 42 40 43 46 44 48 45
REMARK SMILES IDX 41 46 42 47 43 48 44 49 45 50 71 51 72 52 81 53 73 54 74 55
REMARK SMILES IDX 80 56 82 57 75 58 76 59 77 60 78 61 79 62 55 63 56 64 65 65
REMARK SMILES IDX 57 66 58 67 64 68 66 69 59 70 60 71 61 72 62 73 63 74 6 75
REMARK SMILES IDX 7 76 8 77 9 78 10 79 11 80 12 82 13 83 14 84 27 85 15 86
REMARK SMILES IDX 26 87 25 88 16 89 17 90 24 91 18 92 23 93 19 94 22 95 20 96
REMARK SMILES IDX 21 97
REMARK H PARENT 3 6 87 24 53 35 10 81
REMARK Flexibility Score: inf
ROOT
ATOM      1  C   UNL     1       4.641  -0.851  -2.715  1.00  0.00     0.021 C 
ENDROOT
BRANCH   1   2
ATOM      2  C   UNL     1       4.404   0.013  -1.482  1.00  0.00     0.116 C 
BRANCH   2   3
ATOM      3  N   UNL     1       2.994   0.227  -1.202  1.00  0.00    -0.352 N 
ATOM      4  O   UNL     1       1.085   0.161  -0.005  1.00  0.00    -0.269 OA
ATOM      5  C   UNL     1       2.310   0.061  -0.021  1.00  0.00     0.251 C 
ATOM      6  H   UNL     1       2.453   0.533  -1.966  1.00  0.00     0.163 HD
BRANCH   5   7
ATOM      7  C   UNL     1       3.045  -0.263   1.223  1.00  0.00     0.039 A 
ATOM      8  C   UNL     1       4.218   0.417   1.561  1.00  0.00     0.014 A 
ATOM      9  C   UNL     1       2.546  -1.258   2.070  1.00  0.00     0.014 A 
ATOM     10  C   UNL     1       4.958   0.013   2.667  1.00  0.00     0.010 A 
ATOM     11  C   UNL     1       3.253  -1.610   3.225  1.00  0.00     0.010 A 
ATOM     12  C   UNL     1       4.480  -0.998   3.518  1.00  0.00    -0.014 A 
BRANCH  12  13
ATOM     13  C   UNL     1       5.255  -1.345   4.737  1.00  0.00     0.031 A 
ATOM     14  C   UNL     1       5.896  -2.697   4.897  1.00  0.00     0.074 A 
ATOM     15  C   UNL     1       5.413  -0.405   5.690  1.00  0.00     0.049 A 
ATOM     16  N   UNL     1       6.634  -3.146   5.882  1.00  0.00    -0.248 NA
ATOM     17  C   UNL     1       5.679  -3.675   3.820  1.00  0.00     0.031 C 
ATOM     18  C   UNL     1       4.821   0.935   5.654  1.00  0.00     0.029 A 
ATOM     19  N   UNL     1       6.128  -0.419   6.860  1.00  0.00    -0.354 N 
ATOM     20  C   UNL     1       6.966  -4.454   5.549  1.00  0.00     0.074 A 
ATOM     21  C   UNL     1       6.322  -4.739   4.284  1.00  0.00     0.031 C 
ATOM     22  C   UNL     1       5.231   1.627   6.728  1.00  0.00     0.029 A 
ATOM     23  C   UNL     1       6.070   0.766   7.553  1.00  0.00     0.049 A 
ATOM     24  H   UNL     1       6.634  -1.204   7.173  1.00  0.00     0.167 HD
ATOM     25  C   UNL     1       7.745  -5.330   6.229  1.00  0.00     0.037 A 
ATOM     26  C   UNL     1       6.620   1.121   8.729  1.00  0.00     0.037 A 
ATOM     27  C   UNL     1       8.386  -5.038   7.487  1.00  0.00     0.049 A 
ATOM     28  C   UNL     1       7.472   0.128   9.466  1.00  0.00     0.074 A 
ATOM     29  C   UNL     1       9.195  -5.860   8.254  1.00  0.00     0.029 A 
ATOM     30  N   UNL     1       8.293  -3.830   8.163  1.00  0.00    -0.354 N 
ATOM     31  N   UNL     1       7.785  -1.099   9.125  1.00  0.00    -0.248 NA
ATOM     32  C   UNL     1       8.045   0.565  10.745  1.00  0.00     0.031 C 
ATOM     33  C   UNL     1       9.569  -5.159   9.406  1.00  0.00     0.029 A 
ATOM     34  C   UNL     1       9.024  -3.887   9.339  1.00  0.00     0.049 A 
ATOM     35  H   UNL     1       7.784  -3.047   7.853  1.00  0.00     0.167 HD
ATOM     36  C   UNL     1       8.598  -1.579  10.144  1.00  0.00     0.074 A 
ATOM     37  C   UNL     1       8.749  -0.500  11.100  1.00  0.00     0.031 C 
ATOM     38  C   UNL     1       9.163  -2.804  10.280  1.00  0.00     0.037 A 
BRANCH  25  39
ATOM     39  C   UNL     1       7.951  -6.694   5.629  1.00  0.00     0.058 A 
ATOM     40  C   UNL     1       8.784  -6.885   4.515  1.00  0.00     0.135 A 
ATOM     41  C   UNL     1       7.354  -7.829   6.201  1.00  0.00     0.135 A 
ATOM     42  F   UNL     1       9.368  -5.833   3.920  1.00  0.00    -0.206 F 
ATOM     43  C   UNL     1       9.002  -8.149   3.977  1.00  0.00     0.059 A 
ATOM     44  C   UNL     1       7.576  -9.107   5.693  1.00  0.00     0.059 A 
ATOM     45  F   UNL     1       6.551  -7.704   7.269  1.00  0.00    -0.206 F 
ATOM     46  C   UNL     1       8.392  -9.255   4.573  1.00  0.00     0.060 A 
BRANCH  46  47
ATOM     47  S   UNL     1       8.694 -10.890   3.868  1.00  0.00     0.124 S 
ATOM     48  O   UNL     1       7.874 -10.841   2.661  1.00  0.00    -0.237 OA
ATOM     49  O   UNL     1      10.137 -10.878   3.652  1.00  0.00    -0.237 OA
ATOM     50  O   UNL     1       8.226 -11.800   4.909  1.00  0.00    -0.744 OA
ENDBRANCH  46  47
ENDBRANCH  25  39
BRANCH  26  51
ATOM     51  C   UNL     1       6.372   2.478   9.281  1.00  0.00     0.058 A 
ATOM     52  C   UNL     1       7.391   3.439   9.330  1.00  0.00     0.135 A 
ATOM     53  C   UNL     1       5.102   2.843   9.754  1.00  0.00     0.135 A 
ATOM     54  F   UNL     1       8.622   3.135   8.891  1.00  0.00    -0.206 F 
ATOM     55  C   UNL     1       7.166   4.711   9.845  1.00  0.00     0.059 A 
ATOM     56  C   UNL     1       4.845   4.116  10.248  1.00  0.00     0.059 A 
ATOM     57  F   UNL     1       4.089   1.963   9.709  1.00  0.00    -0.206 F 
ATOM     58  C   UNL     1       5.888   5.040  10.303  1.00  0.00     0.060 A 
BRANCH  58  59
ATOM     59  S   UNL     1       5.588   6.705  10.931  1.00  0.00     0.124 S 
ATOM     60  O   UNL     1       6.158   6.619  12.270  1.00  0.00    -0.237 OA
ATOM     61  O   UNL     1       6.319   7.534   9.977  1.00  0.00    -0.237 OA
ATOM     62  O   UNL     1       4.135   6.828  10.868  1.00  0.00    -0.744 OA
ENDBRANCH  58  59
ENDBRANCH  26  51
BRANCH  38  63
ATOM     63  C   UNL     1      10.011  -3.029  11.498  1.00  0.00     0.058 A 
ATOM     64  C   UNL     1       9.439  -3.201  12.768  1.00  0.00     0.135 A 
ATOM     65  C   UNL     1      11.409  -3.092  11.392  1.00  0.00     0.135 A 
ATOM     66  F   UNL     1       8.107  -3.141  12.923  1.00  0.00    -0.206 F 
ATOM     67  C   UNL     1      10.226  -3.398  13.898  1.00  0.00     0.059 A 
ATOM     68  C   UNL     1      12.215  -3.311  12.504  1.00  0.00     0.059 A 
ATOM     69  F   UNL     1      12.004  -2.941  10.198  1.00  0.00    -0.206 F 
ATOM     70  C   UNL     1      11.614  -3.448  13.756  1.00  0.00     0.060 A 
BRANCH  70  71
ATOM     71  S   UNL     1      12.628  -3.718  15.225  1.00  0.00     0.124 S 
ATOM     72  O   UNL     1      12.608  -2.396  15.841  1.00  0.00    -0.237 OA
ATOM     73  O   UNL     1      11.888  -4.759  15.932  1.00  0.00    -0.237 OA
ATOM     74  O   UNL     1      13.914  -4.136  14.675  1.00  0.00    -0.744 OA
ENDBRANCH  70  71
ENDBRANCH  38  63
ENDBRANCH  12  13
ENDBRANCH   5   7
ENDBRANCH   2   3
ENDBRANCH   1   2
BRANCH   1  75
ATOM     75  C   UNL     1       4.169  -0.253  -4.041  1.00  0.00     0.002 C 
BRANCH  75  76
ATOM     76  C   UNL     1       4.713   1.138  -4.379  1.00  0.00     0.002 C 
BRANCH  76  77
ATOM     77  C   UNL     1       6.235   1.298  -4.324  1.00  0.00     0.021 C 
BRANCH  77  78
ATOM     78  C   UNL     1       7.034   0.316  -5.176  1.00  0.00     0.116 C 
BRANCH  78  79
ATOM     79  N   UNL     1       6.750   0.443  -6.596  1.00  0.00    -0.351 N 
ATOM     80  C   UNL     1       7.634   0.555  -7.649  1.00  0.00     0.269 C 
ATOM     81  H   UNL     1       5.796   0.449  -6.839  1.00  0.00     0.163 HD
ATOM     82  O   UNL     1       7.206   0.727  -8.788  1.00  0.00    -0.268 OA
BRANCH  80  83
ATOM     83  C   UNL     1       9.098   0.448  -7.391  1.00  0.00     0.128 A 
ATOM     84  C   UNL     1       9.598  -0.679  -6.756  1.00  0.00     0.043 A 
ATOM     85  N   UNL     1       9.856   1.516  -7.747  1.00  0.00    -0.251 NA
ATOM     86  C   UNL     1      10.945  -0.691  -6.393  1.00  0.00    -0.004 A 
ATOM     87  C   UNL     1      11.164   1.458  -7.424  1.00  0.00     0.112 A 
ATOM     88  C   UNL     1      11.744   0.400  -6.740  1.00  0.00     0.030 A 
BRANCH  86  89
ATOM     89  C   UNL     1      11.474  -1.774  -5.566  1.00  0.00     0.036 A 
ATOM     90  C   UNL     1      12.062  -1.684  -4.322  1.00  0.00     0.029 A 
ATOM     91  S   UNL     1      11.367  -3.397  -6.087  1.00  0.00    -0.135 S 
ATOM     92  C   UNL     1      12.358  -2.962  -3.743  1.00  0.00    -0.007 A 
ATOM     93  C   UNL     1      12.018  -4.001  -4.612  1.00  0.00     0.035 A 
ATOM     94  C   UNL     1      12.896  -3.295  -2.477  1.00  0.00     0.009 A 
ATOM     95  C   UNL     1      12.203  -5.351  -4.254  1.00  0.00     0.019 A 
ATOM     96  C   UNL     1      13.070  -4.633  -2.113  1.00  0.00     0.001 A 
ATOM     97  C   UNL     1      12.727  -5.649  -2.994  1.00  0.00     0.001 A 
ENDBRANCH  86  89
ENDBRANCH  80  83
ENDBRANCH  78  79
ENDBRANCH  77  78
ENDBRANCH  76  77
ENDBRANCH  75  76
ENDBRANCH   1  75
TORSDOF 17
