REMARK SMILES C[C@@H](C(=O)NCCCCCCNC(=O)c1ccc(-c2c3nc(c(-c4c(F)cc(S(=O)(=O)[O-])cc4F)c4ccc([nH]4)c(-c4c(F)cc(S(=O)(=O)[O-])cc4F)c4nc(c(-c5c(F)cc(S(=O)(=O)[O-])cc5F)c5ccc2[nH]5)C=C4)C=C3)cc1)c1ccc(-c2ccccc2)cc1
REMARK SMILES IDX 9 1 8 2 7 3 6 4 5 5 3 6 4 7 2 9 1 10 81 11 82 12 92 13 83 14
REMARK SMILES IDX 91 15 84 16 85 17 86 18 90 19 87 20 89 21 88 22 10 23 11 24
REMARK SMILES IDX 12 25 13 26 14 28 15 29 16 30 80 31 17 32 79 33 18 34 19 35
REMARK SMILES IDX 20 36 73 37 21 38 78 39 72 40 74 41 22 42 77 43 71 44 70 45
REMARK SMILES IDX 23 47 57 48 36 49 56 50 37 51 40 52 55 53 75 54 38 55 39 56
REMARK SMILES IDX 54 58 76 59 41 60 24 61 25 62 34 63 26 64 27 65 33 66 35 67
REMARK SMILES IDX 28 68 29 69 30 70 31 71 32 72 58 73 59 74 68 75 60 76 61 77
REMARK SMILES IDX 67 78 69 79 62 80 63 81 64 82 65 83 66 84 42 85 43 86 52 87
REMARK SMILES IDX 44 88 45 89 51 90 53 91 46 92 47 93 48 94 49 95 50 96
REMARK H PARENT 5 8 12 27 74 46 40 57
REMARK Flexibility Score: inf
ROOT
ATOM      1  C   UNL     1       5.988  -2.167   2.566  1.00  0.00     0.002 C 
ENDROOT
BRANCH   1   2
ATOM      2  C   UNL     1       5.008  -0.997   2.696  1.00  0.00     0.002 C 
BRANCH   2   3
ATOM      3  C   UNL     1       4.262  -0.635   1.403  1.00  0.00     0.021 C 
BRANCH   3   4
ATOM      4  C   UNL     1       3.442  -1.792   0.822  1.00  0.00     0.116 C 
BRANCH   4   5
ATOM      5  N   UNL     1       2.341  -2.107   1.707  1.00  0.00    -0.356 N 
ATOM      6  C   UNL     1       1.035  -1.719   1.650  1.00  0.00     0.227 C 
ATOM      7  O   UNL     1       0.358  -1.919   2.662  1.00  0.00    -0.274 OA
ATOM      8  H   UNL     1       2.570  -2.690   2.466  1.00  0.00     0.163 HD
BRANCH   6   9
ATOM      9  C   UNL     1       0.459  -1.127   0.348  1.00  0.00     0.105 C 
ATOM     10  C   UNL     1       0.998   0.284   0.079  1.00  0.00     0.023 C 
BRANCH   9  11
ATOM     11  C   UNL     1      -1.072  -1.185   0.351  1.00  0.00    -0.036 A 
ATOM     12  C   UNL     1      -1.866  -0.036   0.447  1.00  0.00     0.005 A 
ATOM     13  C   UNL     1      -1.720  -2.432   0.301  1.00  0.00     0.005 A 
ATOM     14  C   UNL     1      -3.257  -0.126   0.485  1.00  0.00     0.009 A 
ATOM     15  C   UNL     1      -3.117  -2.521   0.355  1.00  0.00     0.009 A 
ATOM     16  C   UNL     1      -3.906  -1.367   0.444  1.00  0.00    -0.018 A 
BRANCH  16  17
ATOM     17  C   UNL     1      -5.371  -1.421   0.514  1.00  0.00    -0.018 A 
ATOM     18  C   UNL     1      -6.153  -0.742  -0.435  1.00  0.00     0.009 A 
ATOM     19  C   UNL     1      -6.024  -2.085   1.563  1.00  0.00     0.009 A 
ATOM     20  C   UNL     1      -7.544  -0.709  -0.330  1.00  0.00     0.001 A 
ATOM     21  C   UNL     1      -7.417  -2.051   1.670  1.00  0.00     0.001 A 
ATOM     22  C   UNL     1      -8.175  -1.359   0.727  1.00  0.00     0.000 A 
ENDBRANCH  16  17
ENDBRANCH   9  11
ENDBRANCH   6   9
ENDBRANCH   4   5
ENDBRANCH   3   4
ENDBRANCH   2   3
ENDBRANCH   1   2
BRANCH   1  23
ATOM     23  C   UNL     1       7.033  -2.002   1.461  1.00  0.00     0.021 C 
BRANCH  23  24
ATOM     24  C   UNL     1       7.929  -0.780   1.627  1.00  0.00     0.116 C 
BRANCH  24  25
ATOM     25  N   UNL     1       8.765  -0.880   2.814  1.00  0.00    -0.352 N 
ATOM     26  C   UNL     1      10.132  -0.797   2.913  1.00  0.00     0.251 C 
ATOM     27  H   UNL     1       8.285  -1.026   3.661  1.00  0.00     0.163 HD
ATOM     28  O   UNL     1      10.698  -1.117   3.953  1.00  0.00    -0.269 OA
BRANCH  26  29
ATOM     29  C   UNL     1      10.913  -0.337   1.747  1.00  0.00     0.039 A 
ATOM     30  C   UNL     1      12.043  -1.058   1.355  1.00  0.00     0.014 A 
ATOM     31  C   UNL     1      10.512   0.795   1.031  1.00  0.00     0.014 A 
ATOM     32  C   UNL     1      12.738  -0.678   0.204  1.00  0.00     0.010 A 
ATOM     33  C   UNL     1      11.159   1.125  -0.155  1.00  0.00     0.010 A 
ATOM     34  C   UNL     1      12.280   0.395  -0.579  1.00  0.00    -0.014 A 
BRANCH  34  35
ATOM     35  C   UNL     1      12.953   0.775  -1.847  1.00  0.00     0.031 A 
ATOM     36  C   UNL     1      13.577   2.136  -1.986  1.00  0.00     0.074 A 
ATOM     37  C   UNL     1      12.919  -0.065  -2.900  1.00  0.00     0.049 A 
ATOM     38  N   UNL     1      14.108   2.698  -3.041  1.00  0.00    -0.248 NA
ATOM     39  C   UNL     1      13.570   2.991  -0.788  1.00  0.00     0.031 C 
ATOM     40  C   UNL     1      12.295  -1.390  -2.904  1.00  0.00     0.029 A 
ATOM     41  N   UNL     1      13.396   0.081  -4.178  1.00  0.00    -0.354 N 
ATOM     42  C   UNL     1      14.478   3.977  -2.641  1.00  0.00     0.074 A 
ATOM     43  C   UNL     1      14.061   4.125  -1.264  1.00  0.00     0.031 C 
ATOM     44  C   UNL     1      12.429  -1.935  -4.123  1.00  0.00     0.029 A 
ATOM     45  C   UNL     1      13.109  -0.985  -4.999  1.00  0.00     0.049 A 
ATOM     46  H   UNL     1      13.897   0.873  -4.480  1.00  0.00     0.167 HD
ATOM     47  C   UNL     1      15.123   4.933  -3.353  1.00  0.00     0.037 A 
ATOM     48  C   UNL     1      13.344  -1.169  -6.313  1.00  0.00     0.037 A 
ATOM     49  C   UNL     1      15.548   4.766  -4.718  1.00  0.00     0.049 A 
ATOM     50  C   UNL     1      14.066  -0.100  -7.086  1.00  0.00     0.074 A 
ATOM     51  C   UNL     1      16.273   5.643  -5.505  1.00  0.00     0.029 A 
ATOM     52  N   UNL     1      15.277   3.654  -5.503  1.00  0.00    -0.354 N 
ATOM     53  N   UNL     1      14.483   1.073  -6.673  1.00  0.00    -0.248 NA
ATOM     54  C   UNL     1      14.358  -0.378  -8.499  1.00  0.00     0.031 C 
ATOM     55  C   UNL     1      16.390   5.086  -6.783  1.00  0.00     0.029 A 
ATOM     56  C   UNL     1      15.794   3.835  -6.775  1.00  0.00     0.049 A 
ATOM     57  H   UNL     1      14.790   2.854  -5.200  1.00  0.00     0.167 HD
ATOM     58  C   UNL     1      15.107   1.664  -7.766  1.00  0.00     0.074 A 
ATOM     59  C   UNL     1      15.018   0.716  -8.858  1.00  0.00     0.031 C 
ATOM     60  C   UNL     1      15.702   2.880  -7.854  1.00  0.00     0.037 A 
BRANCH  47  61
ATOM     61  C   UNL     1      15.389   6.247  -2.667  1.00  0.00     0.058 A 
ATOM     62  C   UNL     1      16.289   6.355  -1.593  1.00  0.00     0.135 A 
ATOM     63  C   UNL     1      14.735   7.415  -3.089  1.00  0.00     0.135 A 
ATOM     64  F   UNL     1      16.936   5.269  -1.140  1.00  0.00    -0.206 F 
ATOM     65  C   UNL     1      16.489   7.561  -0.930  1.00  0.00     0.059 A 
ATOM     66  C   UNL     1      14.946   8.640  -2.462  1.00  0.00     0.059 A 
ATOM     67  F   UNL     1      13.868   7.373  -4.113  1.00  0.00    -0.206 F 
ATOM     68  C   UNL     1      15.807   8.697  -1.367  1.00  0.00     0.060 A 
BRANCH  68  69
ATOM     69  S   UNL     1      16.050  10.247  -0.474  1.00  0.00     0.124 S 
ATOM     70  O   UNL     1      15.308   9.991   0.757  1.00  0.00    -0.237 OA
ATOM     71  O   UNL     1      17.502  10.305  -0.337  1.00  0.00    -0.237 OA
ATOM     72  O   UNL     1      15.466  11.247  -1.362  1.00  0.00    -0.744 OA
ENDBRANCH  68  69
ENDBRANCH  47  61
BRANCH  48  73
ATOM     73  C   UNL     1      12.889  -2.425  -6.966  1.00  0.00     0.058 A 
ATOM     74  C   UNL     1      13.804  -3.416  -7.352  1.00  0.00     0.135 A 
ATOM     75  C   UNL     1      11.523  -2.686  -7.159  1.00  0.00     0.135 A 
ATOM     76  F   UNL     1      15.120  -3.211  -7.195  1.00  0.00    -0.206 F 
ATOM     77  C   UNL     1      13.382  -4.621  -7.905  1.00  0.00     0.059 A 
ATOM     78  C   UNL     1      11.075  -3.892  -7.687  1.00  0.00     0.059 A 
ATOM     79  F   UNL     1      10.607  -1.777  -6.790  1.00  0.00    -0.206 F 
ATOM     80  C   UNL     1      12.013  -4.854  -8.059  1.00  0.00     0.060 A 
BRANCH  80  81
ATOM     81  S   UNL     1      11.473  -6.456  -8.696  1.00  0.00     0.124 S 
ATOM     82  O   UNL     1      11.856  -6.359 -10.099  1.00  0.00    -0.237 OA
ATOM     83  O   UNL     1      12.252  -7.385  -7.882  1.00  0.00    -0.237 OA
ATOM     84  O   UNL     1      10.038  -6.455  -8.431  1.00  0.00    -0.744 OA
ENDBRANCH  80  81
ENDBRANCH  48  73
BRANCH  60  85
ATOM     85  C   UNL     1      16.338   3.256  -9.164  1.00  0.00     0.058 A 
ATOM     86  C   UNL     1      15.571   3.607 -10.285  1.00  0.00     0.135 A 
ATOM     87  C   UNL     1      17.736   3.351  -9.269  1.00  0.00     0.135 A 
ATOM     88  F   UNL     1      14.232   3.524 -10.241  1.00  0.00    -0.206 F 
ATOM     89  C   UNL     1      16.168   4.035 -11.467  1.00  0.00     0.059 A 
ATOM     90  C   UNL     1      18.352   3.803 -10.432  1.00  0.00     0.059 A 
ATOM     91  F   UNL     1      18.516   3.034  -8.224  1.00  0.00    -0.206 F 
ATOM     92  C   UNL     1      17.559   4.139 -11.527  1.00  0.00     0.060 A 
BRANCH  92  93
ATOM     93  S   UNL     1      18.315   4.761 -13.045  1.00  0.00     0.124 S 
ATOM     94  O   UNL     1      18.124   3.634 -13.952  1.00  0.00    -0.237 OA
ATOM     95  O   UNL     1      17.514   5.947 -13.329  1.00  0.00    -0.237 OA
ATOM     96  O   UNL     1      19.697   5.024 -12.654  1.00  0.00    -0.744 OA
ENDBRANCH  92  93
ENDBRANCH  60  85
ENDBRANCH  34  35
ENDBRANCH  26  29
ENDBRANCH  24  25
ENDBRANCH  23  24
ENDBRANCH   1  23
TORSDOF 18
