REMARK SMILES CS(=O)(=O)c1ccc(C2=NN(c3ccc(C(=O)NCCCCCCNC(=O)c4ccc(-c5c6nc(c(-c7c(F)cc(S(=O)(=O)[O-])cc7F)c7ccc([nH]7)c(-c7c(F)cc(S(=O)(=O)[O-])cc7F)c7nc(c(-c8c(F)cc(S(=O)(=O)[O-])cc8F)c8ccc5[nH]8)C=C7)C=C6)cc4)cc3)[C@H](c3ccc(Cl)cc3)C2)cc1
REMARK SMILES IDX 21 1 20 2 19 3 18 4 16 5 17 6 15 8 12 9 13 10 95 11 14 12
REMARK SMILES IDX 94 13 11 14 9 15 10 16 104 17 96 18 8 19 5 20 6 21 106 22
REMARK SMILES IDX 7 23 105 24 2 25 1 26 3 27 4 28 97 29 98 30 103 31 99 32
REMARK SMILES IDX 102 33 100 34 101 35 22 36 23 37 24 38 25 39 26 40 27 42
REMARK SMILES IDX 28 43 29 44 93 45 30 46 92 47 31 48 32 49 33 50 86 51 34 52
REMARK SMILES IDX 91 53 85 54 87 55 35 56 90 57 84 58 83 59 36 61 70 62 49 63
REMARK SMILES IDX 69 64 50 65 53 66 68 67 88 68 51 69 52 70 67 72 89 73 54 74
REMARK SMILES IDX 37 75 38 76 47 77 39 78 40 79 46 80 48 81 41 82 42 83 43 84
REMARK SMILES IDX 44 85 45 86 71 87 72 88 81 89 73 90 74 91 80 92 82 93 75 94
REMARK SMILES IDX 76 95 77 96 78 97 79 98 55 99 56 100 65 101 57 102 58 103
REMARK SMILES IDX 64 104 66 105 59 106 60 107 61 108 62 109 63 110
REMARK H PARENT 18 7 25 41 87 60 53 71
REMARK Flexibility Score: inf
ROOT
ATOM      1  C   UNL     1       4.280 -15.911  -0.250  1.00  0.00     0.002 C 
ENDROOT
BRANCH   1   2
ATOM      2  C   UNL     1       3.691 -14.642   0.379  1.00  0.00     0.021 C 
BRANCH   2   3
ATOM      3  C   UNL     1       4.533 -14.076   1.524  1.00  0.00     0.116 C 
BRANCH   3   4
ATOM      4  N   UNL     1       5.698 -13.381   1.004  1.00  0.00    -0.352 N 
ATOM      5  C   UNL     1       5.996 -12.045   0.924  1.00  0.00     0.251 C 
ATOM      6  O   UNL     1       7.101 -11.713   0.496  1.00  0.00    -0.269 OA
ATOM      7  H   UNL     1       6.397 -13.974   0.644  1.00  0.00     0.163 HD
BRANCH   5   8
ATOM      8  C   UNL     1       5.059 -10.995   1.401  1.00  0.00     0.039 A 
ATOM      9  C   UNL     1       3.397  -8.979   2.454  1.00  0.00     0.060 A 
ATOM     10  C   UNL     1       4.787  -8.876   2.557  1.00  0.00     0.029 A 
ATOM     11  C   UNL     1       2.854 -10.064   1.758  1.00  0.00     0.029 A 
ATOM     12  C   UNL     1       5.614  -9.876   2.036  1.00  0.00     0.016 A 
ATOM     13  C   UNL     1       3.677 -11.055   1.218  1.00  0.00     0.016 A 
BRANCH   9  14
ATOM     14  N   UNL     1       2.548  -8.048   3.038  1.00  0.00    -0.257 N 
ATOM     15  C   UNL     1       1.982  -6.017   3.302  1.00  0.00     0.071 C 
ATOM     16  N   UNL     1       2.322  -6.877   2.395  1.00  0.00    -0.176 NA
ATOM     17  C   UNL     1       2.033  -6.505   4.723  1.00  0.00     0.091 C 
ATOM     18  C   UNL     1       2.351  -7.990   4.490  1.00  0.00     0.144 C 
BRANCH  15  19
ATOM     19  C   UNL     1       1.578  -4.644   2.958  1.00  0.00    -0.002 A 
ATOM     20  C   UNL     1       0.796  -2.086   2.203  1.00  0.00     0.067 A 
ATOM     21  C   UNL     1       0.363  -3.185   1.456  1.00  0.00     0.021 A 
ATOM     22  C   UNL     1       1.610  -2.258   3.330  1.00  0.00     0.021 A 
ATOM     23  C   UNL     1       0.772  -4.465   1.827  1.00  0.00     0.011 A 
ATOM     24  C   UNL     1       1.996  -3.546   3.714  1.00  0.00     0.011 A 
BRANCH  20  25
ATOM     25  S   UNL     1       0.276  -0.457   1.718  1.00  0.00     0.175 S 
ATOM     26  C   UNL     1       1.005  -0.228   0.118  1.00  0.00     0.163 C 
ATOM     27  O   UNL     1       0.893   0.491   2.621  1.00  0.00    -0.224 OA
ATOM     28  O   UNL     1      -1.168  -0.508   1.559  1.00  0.00    -0.224 OA
ENDBRANCH  20  25
ENDBRANCH  15  19
BRANCH  18  29
ATOM     29  C   UNL     1       1.308  -9.021   4.907  1.00  0.00    -0.023 A 
ATOM     30  C   UNL     1      -0.061  -8.739   5.032  1.00  0.00     0.007 A 
ATOM     31  C   UNL     1       1.727 -10.354   5.102  1.00  0.00     0.007 A 
ATOM     32  C   UNL     1      -0.974  -9.750   5.362  1.00  0.00     0.021 A 
ATOM     33  C   UNL     1       0.815 -11.366   5.408  1.00  0.00     0.021 A 
ATOM     34  C   UNL     1      -0.534 -11.058   5.542  1.00  0.00     0.041 A 
ATOM     35  Cl  UNL     1      -1.662 -12.301   5.910  1.00  0.00    -0.084 Cl
ENDBRANCH  18  29
ENDBRANCH   9  14
ENDBRANCH   5   8
ENDBRANCH   3   4
ENDBRANCH   2   3
ENDBRANCH   1   2
BRANCH   1  36
ATOM     36  C   UNL     1       4.343 -17.127   0.682  1.00  0.00     0.002 C 
BRANCH  36  37
ATOM     37  C   UNL     1       3.009 -17.533   1.317  1.00  0.00     0.021 C 
BRANCH  37  38
ATOM     38  C   UNL     1       1.916 -17.905   0.319  1.00  0.00     0.116 C 
BRANCH  38  39
ATOM     39  N   UNL     1       2.256 -19.102  -0.435  1.00  0.00    -0.352 N 
ATOM     40  C   UNL     1       1.540 -20.263  -0.591  1.00  0.00     0.251 C 
ATOM     41  H   UNL     1       3.123 -19.075  -0.901  1.00  0.00     0.163 HD
ATOM     42  O   UNL     1       2.076 -21.250  -1.085  1.00  0.00    -0.269 OA
BRANCH  40  43
ATOM     43  C   UNL     1       0.129 -20.326  -0.150  1.00  0.00     0.039 A 
ATOM     44  C   UNL     1      -0.308 -21.445   0.566  1.00  0.00     0.014 A 
ATOM     45  C   UNL     1      -0.765 -19.297  -0.459  1.00  0.00     0.014 A 
ATOM     46  C   UNL     1      -1.628 -21.506   1.017  1.00  0.00     0.010 A 
ATOM     47  C   UNL     1      -2.064 -19.331   0.044  1.00  0.00     0.010 A 
ATOM     48  C   UNL     1      -2.510 -20.438   0.783  1.00  0.00    -0.014 A 
BRANCH  48  49
ATOM     49  C   UNL     1      -3.902 -20.460   1.302  1.00  0.00     0.031 A 
ATOM     50  C   UNL     1      -5.063 -20.493   0.346  1.00  0.00     0.074 A 
ATOM     51  C   UNL     1      -4.119 -20.383   2.629  1.00  0.00     0.049 A 
ATOM     52  N   UNL     1      -6.345 -20.440   0.601  1.00  0.00    -0.248 NA
ATOM     53  C   UNL     1      -4.740 -20.571  -1.088  1.00  0.00     0.031 C 
ATOM     54  C   UNL     1      -3.076 -20.299   3.654  1.00  0.00     0.029 A 
ATOM     55  N   UNL     1      -5.290 -20.351   3.345  1.00  0.00    -0.354 N 
ATOM     56  C   UNL     1      -6.980 -20.460  -0.635  1.00  0.00     0.074 A 
ATOM     57  C   UNL     1      -5.941 -20.486  -1.642  1.00  0.00     0.031 C 
ATOM     58  C   UNL     1      -3.653 -20.239   4.865  1.00  0.00     0.029 A 
ATOM     59  C   UNL     1      -5.104 -20.248   4.703  1.00  0.00     0.049 A 
ATOM     60  H   UNL     1      -6.179 -20.397   2.925  1.00  0.00     0.167 HD
ATOM     61  C   UNL     1      -8.307 -20.477  -0.906  1.00  0.00     0.037 A 
ATOM     62  C   UNL     1      -6.001 -20.162   5.705  1.00  0.00     0.037 A 
ATOM     63  C   UNL     1      -9.336 -20.482   0.101  1.00  0.00     0.049 A 
ATOM     64  C   UNL     1      -7.469 -20.196   5.380  1.00  0.00     0.074 A 
ATOM     65  C   UNL     1     -10.707 -20.558  -0.069  1.00  0.00     0.029 A 
ATOM     66  N   UNL     1      -9.107 -20.408   1.468  1.00  0.00    -0.354 N 
ATOM     67  N   UNL     1      -8.052 -20.275   4.208  1.00  0.00    -0.248 NA
ATOM     68  C   UNL     1      -8.403 -20.136   6.514  1.00  0.00     0.031 C 
ATOM     69  C   UNL     1     -11.309 -20.496   1.192  1.00  0.00     0.029 A 
ATOM     70  C   UNL     1     -10.311 -20.423   2.151  1.00  0.00     0.049 A 
ATOM     71  H   UNL     1      -8.219 -20.354   1.889  1.00  0.00     0.167 HD
ATOM     72  C   UNL     1      -9.418 -20.300   4.463  1.00  0.00     0.074 A 
ATOM     73  C   UNL     1      -9.575 -20.238   5.902  1.00  0.00     0.031 C 
ATOM     74  C   UNL     1     -10.449 -20.368   3.585  1.00  0.00     0.037 A 
BRANCH  61  75
ATOM     75  C   UNL     1      -8.722 -20.499  -2.351  1.00  0.00     0.058 A 
ATOM     76  C   UNL     1      -8.543 -21.640  -3.151  1.00  0.00     0.135 A 
ATOM     77  C   UNL     1      -9.334 -19.379  -2.937  1.00  0.00     0.135 A 
ATOM     78  F   UNL     1      -7.951 -22.733  -2.645  1.00  0.00    -0.206 F 
ATOM     79  C   UNL     1      -8.928 -21.659  -4.487  1.00  0.00     0.059 A 
ATOM     80  C   UNL     1      -9.750 -19.385  -4.266  1.00  0.00     0.059 A 
ATOM     81  F   UNL     1      -9.530 -18.262  -2.219  1.00  0.00    -0.206 F 
ATOM     82  C   UNL     1      -9.528 -20.525  -5.037  1.00  0.00     0.060 A 
BRANCH  82  83
ATOM     83  S   UNL     1     -10.022 -20.566  -6.773  1.00  0.00     0.124 S 
ATOM     84  O   UNL     1      -8.732 -20.444  -7.444  1.00  0.00    -0.237 OA
ATOM     85  O   UNL     1     -10.674 -21.867  -6.884  1.00  0.00    -0.237 OA
ATOM     86  O   UNL     1     -10.908 -19.413  -6.901  1.00  0.00    -0.744 OA
ENDBRANCH  82  83
ENDBRANCH  61  75
BRANCH  62  87
ATOM     87  C   UNL     1      -5.532 -20.062   7.112  1.00  0.00     0.058 A 
ATOM     88  C   UNL     1      -5.668 -21.144   7.995  1.00  0.00     0.135 A 
ATOM     89  C   UNL     1      -4.925 -18.894   7.598  1.00  0.00     0.135 A 
ATOM     90  F   UNL     1      -6.248 -22.280   7.578  1.00  0.00    -0.206 F 
ATOM     91  C   UNL     1      -5.232 -21.068   9.313  1.00  0.00     0.059 A 
ATOM     92  C   UNL     1      -4.459 -18.802   8.906  1.00  0.00     0.059 A 
ATOM     93  F   UNL     1      -4.756 -17.837   6.787  1.00  0.00    -0.206 F 
ATOM     94  C   UNL     1      -4.626 -19.892   9.759  1.00  0.00     0.060 A 
BRANCH  94  95
ATOM     95  S   UNL     1      -4.014 -19.821  11.457  1.00  0.00     0.124 S 
ATOM     96  O   UNL     1      -5.254 -19.673  12.210  1.00  0.00    -0.237 OA
ATOM     97  O   UNL     1      -3.334 -21.106  11.593  1.00  0.00    -0.237 OA
ATOM     98  O   UNL     1      -3.136 -18.655  11.448  1.00  0.00    -0.744 OA
ENDBRANCH  94  95
ENDBRANCH  62  87
BRANCH  74  99
ATOM     99  C   UNL     1     -11.839 -20.412   4.155  1.00  0.00     0.058 A 
ATOM    100  C   UNL     1     -12.448 -19.271   4.698  1.00  0.00     0.135 A 
ATOM    101  C   UNL     1     -12.588 -21.599   4.109  1.00  0.00     0.135 A 
ATOM    102  F   UNL     1     -11.772 -18.114   4.771  1.00  0.00    -0.206 F 
ATOM    103  C   UNL     1     -13.747 -19.309   5.196  1.00  0.00     0.059 A 
ATOM    104  C   UNL     1     -13.897 -21.654   4.578  1.00  0.00     0.059 A 
ATOM    105  F   UNL     1     -12.054 -22.716   3.591  1.00  0.00    -0.206 F 
ATOM    106  C   UNL     1     -14.464 -20.506   5.130  1.00  0.00     0.060 A 
BRANCH 106 107
ATOM    107  S   UNL     1     -16.161 -20.535   5.745  1.00  0.00     0.124 S 
ATOM    108  O   UNL     1     -15.950 -20.552   7.189  1.00  0.00    -0.237 OA
ATOM    109  O   UNL     1     -16.714 -19.299   5.200  1.00  0.00    -0.237 OA
ATOM    110  O   UNL     1     -16.707 -21.763   5.176  1.00  0.00    -0.744 OA
ENDBRANCH 106 107
ENDBRANCH  74  99
ENDBRANCH  48  49
ENDBRANCH  40  43
ENDBRANCH  38  39
ENDBRANCH  37  38
ENDBRANCH  36  37
ENDBRANCH   1  36
TORSDOF 20
