REMARK SMILES Cc1c(-c2ccc(O)cc2)nc(N)c(C#N)c1-c1ccccc1OCC(=O)NCCCCCCNC(=O)c1ccc(-c2c3nc(c(-c4c(F)cc(S(=O)(=O)[O-])cc4F)c4ccc([nH]4)c(-c4c(F)cc(S(=O)(=O)[O-])cc4F)c4nc(c(-c5c(F)cc(S(=O)(=O)[O-])cc5F)c5ccc2[nH]5)C=C4)C=C3)cc1
REMARK SMILES IDX 30 1 29 2 28 3 26 4 27 5 25 7 24 8 23 9 18 10 19 11 20 12
REMARK SMILES IDX 22 13 21 14 17 15 1 16 2 17 3 18 11 19 14 20 12 21 4 22 5 23
REMARK SMILES IDX 10 24 6 25 9 26 7 27 8 28 15 30 16 31 13 32 31 35 32 36
REMARK SMILES IDX 33 37 34 38 35 39 36 40 37 42 38 43 39 44 103 45 40 46
REMARK SMILES IDX 102 47 41 48 42 49 43 50 96 51 44 52 101 53 95 54 97 55
REMARK SMILES IDX 45 56 100 57 94 58 93 59 46 61 80 62 59 63 79 64 60 65 63 66
REMARK SMILES IDX 78 67 98 68 61 69 62 70 77 72 99 73 64 74 47 75 48 76 57 77
REMARK SMILES IDX 49 78 50 79 56 80 58 81 51 82 52 83 53 84 54 85 55 86 81 87
REMARK SMILES IDX 82 88 91 89 83 90 84 91 90 92 92 93 85 94 86 95 87 96 88 97
REMARK SMILES IDX 89 98 65 99 66 100 75 101 67 102 68 103 74 104 76 105 69 106
REMARK SMILES IDX 70 107 71 108 72 109 73 110
REMARK H PARENT 28 6 8 29 13 33 13 34 35 41 97 60 63 71
REMARK Flexibility Score: inf
ROOT
ATOM      1  C   UNL     1       0.374   1.721  -2.489  1.00  0.00     0.021 C 
ENDROOT
BRANCH   1   2
ATOM      2  C   UNL     1      -0.722   0.654  -2.474  1.00  0.00     0.116 C 
BRANCH   2   3
ATOM      3  N   UNL     1      -0.443  -0.509  -1.659  1.00  0.00    -0.353 N 
ATOM      4  C   UNL     1      -1.146  -0.962  -0.580  1.00  0.00     0.257 C 
ATOM      5  O   UNL     1      -1.116  -2.170  -0.335  1.00  0.00    -0.271 OA
ATOM      6  H   UNL     1       0.348  -1.036  -1.913  1.00  0.00     0.163 HD
BRANCH   4   7
ATOM      7  C   UNL     1      -1.985  -0.024   0.288  1.00  0.00     0.329 C 
BRANCH   7   8
ATOM      8  O   UNL     1      -1.660   1.342   0.248  1.00  0.00    -0.483 OA
BRANCH   8   9
ATOM      9  C   UNL     1      -0.958   2.010   1.205  1.00  0.00     0.127 A 
ATOM     10  C   UNL     1      -0.088   1.552   2.219  1.00  0.00     0.026 A 
ATOM     11  C   UNL     1       0.571   2.531   3.003  1.00  0.00     0.012 A 
ATOM     12  C   UNL     1       0.368   3.900   2.812  1.00  0.00     0.001 A 
ATOM     13  C   UNL     1      -1.145   3.396   1.028  1.00  0.00     0.047 A 
ATOM     14  C   UNL     1      -0.498   4.334   1.823  1.00  0.00     0.004 A 
BRANCH  10  15
ATOM     15  C   UNL     1       0.217   0.131   2.531  1.00  0.00     0.012 A 
ATOM     16  C   UNL     1       1.885   0.015   0.625  1.00  0.00     0.047 C 
ATOM     17  C   UNL     1       1.076  -0.642   1.709  1.00  0.00    -0.015 A 
ATOM     18  C   UNL     1       1.185  -2.024   1.970  1.00  0.00     0.076 A 
ATOM     19  N   UNL     1       0.614  -2.594   3.063  1.00  0.00    -0.230 NA
ATOM     20  C   UNL     1      -0.337  -0.482   3.677  1.00  0.00     0.102 A 
ATOM     21  C   UNL     1      -0.091  -1.832   3.914  1.00  0.00     0.142 A 
BRANCH  18  22
ATOM     22  C   UNL     1       1.746  -3.014   1.015  1.00  0.00     0.001 A 
ATOM     23  C   UNL     1       0.942  -4.101   0.607  1.00  0.00     0.014 A 
ATOM     24  C   UNL     1       3.010  -2.896   0.415  1.00  0.00     0.014 A 
ATOM     25  C   UNL     1       1.336  -4.969  -0.413  1.00  0.00     0.047 A 
ATOM     26  C   UNL     1       3.408  -3.757  -0.618  1.00  0.00     0.047 A 
ATOM     27  C   UNL     1       2.558  -4.775  -1.034  1.00  0.00     0.115 A 
BRANCH  27  28
ATOM     28  O   UNL     1       2.886  -5.606  -2.063  1.00  0.00    -0.508 OA
ATOM     29  H   UNL     1       2.295  -6.285  -2.324  1.00  0.00     0.293 HD
ENDBRANCH  27  28
ENDBRANCH  18  22
BRANCH  20  30
ATOM     30  C   UNL     1      -1.110   0.264   4.628  1.00  0.00     0.104 C 
ATOM     31  N   UNL     1      -1.685   0.862   5.440  1.00  0.00    -0.192 NA
ENDBRANCH  20  30
BRANCH  21  32
ATOM     32  N   UNL     1      -0.615  -2.522   4.992  1.00  0.00    -0.383 N 
ATOM     33  H   UNL     1      -0.409  -3.477   5.112  1.00  0.00     0.158 HD
ATOM     34  H   UNL     1      -1.194  -2.058   5.638  1.00  0.00     0.158 HD
ENDBRANCH  21  32
ENDBRANCH  10  15
ENDBRANCH   8   9
ENDBRANCH   7   8
ENDBRANCH   4   7
ENDBRANCH   2   3
ENDBRANCH   1   2
BRANCH   1  35
ATOM     35  C   UNL     1       1.796   1.280  -2.859  1.00  0.00     0.002 C 
BRANCH  35  36
ATOM     36  C   UNL     1       1.958   0.374  -4.080  1.00  0.00     0.002 C 
BRANCH  36  37
ATOM     37  C   UNL     1       1.305   0.866  -5.368  1.00  0.00     0.021 C 
BRANCH  37  38
ATOM     38  C   UNL     1       1.735   2.254  -5.822  1.00  0.00     0.116 C 
BRANCH  38  39
ATOM     39  N   UNL     1       3.118   2.292  -6.266  1.00  0.00    -0.352 N 
ATOM     40  C   UNL     1       3.622   2.702  -7.478  1.00  0.00     0.251 C 
ATOM     41  H   UNL     1       3.784   1.982  -5.610  1.00  0.00     0.163 HD
ATOM     42  O   UNL     1       4.802   2.506  -7.753  1.00  0.00    -0.269 OA
BRANCH  40  43
ATOM     43  C   UNL     1       2.725   3.355  -8.458  1.00  0.00     0.039 A 
ATOM     44  C   UNL     1       2.750   2.931  -9.788  1.00  0.00     0.014 A 
ATOM     45  C   UNL     1       1.845   4.365  -8.058  1.00  0.00     0.014 A 
ATOM     46  C   UNL     1       1.844   3.474 -10.703  1.00  0.00     0.010 A 
ATOM     47  C   UNL     1       0.891   4.846  -8.951  1.00  0.00     0.010 A 
ATOM     48  C   UNL     1       0.883   4.409 -10.284  1.00  0.00    -0.014 A 
BRANCH  48  49
ATOM     49  C   UNL     1      -0.132   4.949 -11.224  1.00  0.00     0.031 A 
ATOM     50  C   UNL     1      -0.138   6.415 -11.561  1.00  0.00     0.074 A 
ATOM     51  C   UNL     1      -1.074   4.132 -11.735  1.00  0.00     0.049 A 
ATOM     52  N   UNL     1      -0.979   7.089 -12.302  1.00  0.00    -0.248 NA
ATOM     53  C   UNL     1       0.933   7.237 -10.972  1.00  0.00     0.031 C 
ATOM     54  C   UNL     1      -1.185   2.696 -11.466  1.00  0.00     0.029 A 
ATOM     55  N   UNL     1      -2.120   4.389 -12.586  1.00  0.00    -0.354 N 
ATOM     56  C   UNL     1      -0.539   8.407 -12.272  1.00  0.00     0.074 A 
ATOM     57  C   UNL     1       0.603   8.451 -11.386  1.00  0.00     0.031 C 
ATOM     58  C   UNL     1      -2.218   2.196 -12.162  1.00  0.00     0.029 A 
ATOM     59  C   UNL     1      -2.873   3.279 -12.890  1.00  0.00     0.049 A 
ATOM     60  H   UNL     1      -2.313   5.285 -12.946  1.00  0.00     0.167 HD
ATOM     61  C   UNL     1      -1.026   9.477 -12.944  1.00  0.00     0.037 A 
ATOM     62  C   UNL     1      -3.971   3.149 -13.662  1.00  0.00     0.037 A 
ATOM     63  C   UNL     1      -2.159   9.423 -13.830  1.00  0.00     0.049 A 
ATOM     64  C   UNL     1      -4.525   4.365 -14.356  1.00  0.00     0.074 A 
ATOM     65  C   UNL     1      -2.719  10.448 -14.573  1.00  0.00     0.029 A 
ATOM     66  N   UNL     1      -2.907   8.284 -14.095  1.00  0.00    -0.354 N 
ATOM     67  N   UNL     1      -4.080   5.599 -14.338  1.00  0.00    -0.248 NA
ATOM     68  C   UNL     1      -5.729   4.172 -15.176  1.00  0.00     0.031 C 
ATOM     69  C   UNL     1      -3.835   9.942 -15.245  1.00  0.00     0.029 A 
ATOM     70  C   UNL     1      -3.935   8.587 -14.973  1.00  0.00     0.049 A 
ATOM     71  H   UNL     1      -2.733   7.393 -13.716  1.00  0.00     0.167 HD
ATOM     72  C   UNL     1      -4.929   6.322 -15.169  1.00  0.00     0.074 A 
ATOM     73  C   UNL     1      -5.907   5.385 -15.682  1.00  0.00     0.031 C 
ATOM     74  C   UNL     1      -4.900   7.642 -15.481  1.00  0.00     0.037 A 
BRANCH  61  75
ATOM     75  C   UNL     1      -0.329  10.798 -12.758  1.00  0.00     0.058 A 
ATOM     76  C   UNL     1       0.959  11.027 -13.270  1.00  0.00     0.135 A 
ATOM     77  C   UNL     1      -0.975  11.866 -12.114  1.00  0.00     0.135 A 
ATOM     78  F   UNL     1       1.631  10.037 -13.879  1.00  0.00    -0.206 F 
ATOM     79  C   UNL     1       1.588  12.260 -13.132  1.00  0.00     0.059 A 
ATOM     80  C   UNL     1      -0.377  13.117 -11.992  1.00  0.00     0.059 A 
ATOM     81  F   UNL     1      -2.205  11.703 -11.602  1.00  0.00    -0.206 F 
ATOM     82  C   UNL     1       0.910  13.301 -12.497  1.00  0.00     0.060 A 
BRANCH  82  83
ATOM     83  S   UNL     1       1.738  14.898 -12.348  1.00  0.00     0.124 S 
ATOM     84  O   UNL     1       2.816  14.582 -11.416  1.00  0.00    -0.237 OA
ATOM     85  O   UNL     1       2.147  15.163 -13.723  1.00  0.00    -0.237 OA
ATOM     86  O   UNL     1       0.696  15.775 -11.825  1.00  0.00    -0.744 OA
ENDBRANCH  82  83
ENDBRANCH  61  75
BRANCH  62  87
ATOM     87  C   UNL     1      -4.598   1.811 -13.844  1.00  0.00     0.058 A 
ATOM     88  C   UNL     1      -4.544   1.155 -15.082  1.00  0.00     0.135 A 
ATOM     89  C   UNL     1      -5.241   1.152 -12.784  1.00  0.00     0.135 A 
ATOM     90  F   UNL     1      -3.948   1.746 -16.129  1.00  0.00    -0.206 F 
ATOM     91  C   UNL     1      -5.113  -0.101 -15.269  1.00  0.00     0.059 A 
ATOM     92  C   UNL     1      -5.793  -0.117 -12.938  1.00  0.00     0.059 A 
ATOM     93  F   UNL     1      -5.310   1.729 -11.574  1.00  0.00    -0.206 F 
ATOM     94  C   UNL     1      -5.729  -0.733 -14.187  1.00  0.00     0.060 A 
BRANCH  94  95
ATOM     95  S   UNL     1      -6.413  -2.386 -14.430  1.00  0.00     0.124 S 
ATOM     96  O   UNL     1      -7.532  -2.114 -15.324  1.00  0.00    -0.237 OA
ATOM     97  O   UNL     1      -5.282  -3.097 -15.019  1.00  0.00    -0.237 OA
ATOM     98  O   UNL     1      -6.772  -2.804 -13.078  1.00  0.00    -0.744 OA
ENDBRANCH  94  95
ENDBRANCH  62  87
BRANCH  74  99
ATOM     99  C   UNL     1      -5.934   8.155 -16.448  1.00  0.00     0.058 A 
ATOM    100  C   UNL     1      -7.286   8.274 -16.091  1.00  0.00     0.135 A 
ATOM    101  C   UNL     1      -5.553   8.593 -17.727  1.00  0.00     0.135 A 
ATOM    102  F   UNL     1      -7.705   7.867 -14.882  1.00  0.00    -0.206 F 
ATOM    103  C   UNL     1      -8.229   8.785 -16.977  1.00  0.00     0.059 A 
ATOM    104  C   UNL     1      -6.473   9.139 -18.617  1.00  0.00     0.059 A 
ATOM    105  F   UNL     1      -4.271   8.515 -18.116  1.00  0.00    -0.206 F 
ATOM    106  C   UNL     1      -7.811   9.219 -18.237  1.00  0.00     0.060 A 
BRANCH 106 107
ATOM    107  S   UNL     1      -9.043   9.907 -19.363  1.00  0.00     0.124 S 
ATOM    108  O   UNL     1      -9.830   8.724 -19.697  1.00  0.00    -0.237 OA
ATOM    109  O   UNL     1      -9.711  10.897 -18.523  1.00  0.00    -0.237 OA
ATOM    110  O   UNL     1      -8.242  10.455 -20.453  1.00  0.00    -0.744 OA
ENDBRANCH 106 107
ENDBRANCH  74  99
ENDBRANCH  48  49
ENDBRANCH  40  43
ENDBRANCH  38  39
ENDBRANCH  37  38
ENDBRANCH  36  37
ENDBRANCH  35  36
ENDBRANCH   1  35
TORSDOF 23
