REMARK SMILES O=C(CC[NH+]1CCN(C(=O)c2n[nH]c3ccccc23)CC1)NCCCCCCNC(=O)c1ccc(-c2c3nc(c(-c4c(F)cc(S(=O)(=O)[O-])cc4F)c4ccc([nH]4)c(-c4c(F)cc(S(=O)(=O)[O-])cc4F)c4nc(c(-c5c(F)cc(S(=O)(=O)[O-])cc5F)c5ccc2[nH]5)C=C4)C=C3)cc1
REMARK SMILES IDX 25 1 24 2 23 3 22 4 1 5 2 6 3 8 4 9 5 10 6 11 21 12 7 14
REMARK SMILES IDX 20 15 8 16 9 17 10 18 11 19 12 20 19 21 13 22 14 23 18 24
REMARK SMILES IDX 15 26 17 27 16 28 26 29 27 30 28 31 29 32 30 33 31 35 32 36
REMARK SMILES IDX 33 37 97 38 34 39 96 40 35 41 36 42 37 43 90 44 38 45 95 46
REMARK SMILES IDX 89 47 91 48 39 49 94 50 88 51 87 52 40 54 74 55 53 56 73 57
REMARK SMILES IDX 54 58 57 59 72 60 92 61 55 62 56 63 71 65 93 66 58 67 41 68
REMARK SMILES IDX 42 69 51 70 43 71 44 72 50 73 52 74 45 75 46 76 47 77 48 78
REMARK SMILES IDX 49 79 75 80 76 81 85 82 77 83 78 84 84 85 86 86 79 87 80 88
REMARK SMILES IDX 81 89 82 90 83 91 59 92 60 93 69 94 61 95 62 96 68 97 70 98
REMARK SMILES IDX 63 99 64 100 65 101 66 102 67 103
REMARK H PARENT 22 7 5 13 13 25 29 34 91 53 57 64
REMARK Flexibility Score: inf
ROOT
ATOM      1  C   UNL     1       3.203  -3.966  -0.655  1.00  0.00     0.002 C 
ENDROOT
BRANCH   1   2
ATOM      2  C   UNL     1       1.722  -3.562  -0.641  1.00  0.00     0.021 C 
BRANCH   2   3
ATOM      3  C   UNL     1       1.335  -2.517   0.411  1.00  0.00     0.116 C 
BRANCH   3   4
ATOM      4  N   UNL     1       2.154  -1.324   0.318  1.00  0.00    -0.356 N 
ATOM      5  O   UNL     1       0.458   0.224   0.252  1.00  0.00    -0.275 OA
ATOM      6  C   UNL     1       1.654  -0.048   0.243  1.00  0.00     0.225 C 
ATOM      7  H   UNL     1       3.132  -1.436   0.306  1.00  0.00     0.163 HD
BRANCH   6   8
ATOM      8  C   UNL     1       2.718   1.019   0.071  1.00  0.00     0.161 C 
BRANCH   8   9
ATOM      9  C   UNL     1       3.691   1.092   1.259  1.00  0.00     0.272 C 
BRANCH   9  10
ATOM     10  N   UNL     1       5.126   0.837   1.078  1.00  0.00    -0.332 N 
ATOM     11  C   UNL     1       5.717  -0.181   1.959  1.00  0.00     0.284 C 
ATOM     12  C   UNL     1       5.689   0.774  -0.268  1.00  0.00     0.284 C 
ATOM     13  H   UNL     1       5.434   1.753   1.403  1.00  0.00     0.348 HD
ATOM     14  C   UNL     1       5.787  -1.604   1.375  1.00  0.00     0.181 C 
ATOM     15  C   UNL     1       5.617  -0.622  -0.905  1.00  0.00     0.181 C 
ATOM     16  N   UNL     1       6.192  -1.653  -0.033  1.00  0.00    -0.326 N 
ATOM     17  C   UNL     1       6.837  -2.813  -0.493  1.00  0.00     0.275 C 
ATOM     18  O   UNL     1       7.176  -3.712   0.275  1.00  0.00    -0.267 OA
BRANCH  17  19
ATOM     19  C   UNL     1       7.070  -2.927  -1.938  1.00  0.00     0.157 A 
ATOM     20  N   UNL     1       6.384  -3.803  -2.696  1.00  0.00    -0.169 NA
ATOM     21  C   UNL     1       7.953  -2.136  -2.728  1.00  0.00     0.033 A 
ATOM     22  N   UNL     1       6.856  -3.597  -3.937  1.00  0.00    -0.277 N 
ATOM     23  C   UNL     1       7.748  -2.563  -4.034  1.00  0.00     0.066 A 
ATOM     24  C   UNL     1       8.856  -1.084  -2.483  1.00  0.00     0.013 A 
ATOM     25  H   UNL     1       6.585  -4.144  -4.710  1.00  0.00     0.190 HD
ATOM     26  C   UNL     1       8.383  -1.977  -5.133  1.00  0.00     0.028 A 
ATOM     27  C   UNL     1       9.491  -0.473  -3.569  1.00  0.00     0.001 A 
ATOM     28  C   UNL     1       9.251  -0.911  -4.872  1.00  0.00     0.002 A 
ENDBRANCH  17  19
ENDBRANCH   9  10
ENDBRANCH   8   9
ENDBRANCH   6   8
ENDBRANCH   3   4
ENDBRANCH   2   3
ENDBRANCH   1   2
BRANCH   1  29
ATOM     29  C   UNL     1       3.735  -4.562   0.649  1.00  0.00     0.002 C 
BRANCH  29  30
ATOM     30  C   UNL     1       3.274  -5.981   0.954  1.00  0.00     0.021 C 
BRANCH  30  31
ATOM     31  C   UNL     1       3.715  -7.030  -0.060  1.00  0.00     0.116 C 
BRANCH  31  32
ATOM     32  N   UNL     1       5.159  -7.209  -0.153  1.00  0.00    -0.352 N 
ATOM     33  C   UNL     1       5.871  -8.388  -0.236  1.00  0.00     0.251 C 
ATOM     34  H   UNL     1       5.694  -6.383  -0.156  1.00  0.00     0.163 HD
ATOM     35  O   UNL     1       7.095  -8.393  -0.249  1.00  0.00    -0.269 OA
BRANCH  33  36
ATOM     36  C   UNL     1       5.129  -9.669  -0.260  1.00  0.00     0.039 A 
ATOM     37  C   UNL     1       5.470 -10.665   0.657  1.00  0.00     0.014 A 
ATOM     38  C   UNL     1       4.047  -9.846  -1.125  1.00  0.00     0.014 A 
ATOM     39  C   UNL     1       4.657 -11.795   0.779  1.00  0.00     0.010 A 
ATOM     40  C   UNL     1       3.192 -10.928  -0.942  1.00  0.00     0.010 A 
ATOM     41  C   UNL     1       3.479 -11.907   0.022  1.00  0.00    -0.014 A 
BRANCH  41  42
ATOM     42  C   UNL     1       2.519 -13.023   0.232  1.00  0.00     0.031 A 
ATOM     43  C   UNL     1       2.199 -13.961  -0.900  1.00  0.00     0.074 A 
ATOM     44  C   UNL     1       1.867 -13.137   1.408  1.00  0.00     0.049 A 
ATOM     45  N   UNL     1       1.297 -14.907  -0.961  1.00  0.00    -0.248 NA
ATOM     46  C   UNL     1       2.971 -13.790  -2.142  1.00  0.00     0.031 C 
ATOM     47  C   UNL     1       2.038 -12.253   2.565  1.00  0.00     0.029 A 
ATOM     48  N   UNL     1       0.915 -14.036   1.820  1.00  0.00    -0.354 N 
ATOM     49  C   UNL     1       1.375 -15.422  -2.249  1.00  0.00     0.074 A 
ATOM     50  C   UNL     1       2.378 -14.654  -2.953  1.00  0.00     0.031 C 
ATOM     51  C   UNL     1       1.235 -12.667   3.559  1.00  0.00     0.029 A 
ATOM     52  C   UNL     1       0.467 -13.820   3.103  1.00  0.00     0.049 A 
ATOM     53  H   UNL     1       0.583 -14.768   1.251  1.00  0.00     0.167 HD
ATOM     54  C   UNL     1       0.691 -16.459  -2.789  1.00  0.00     0.037 A 
ATOM     55  C   UNL     1      -0.464 -14.473   3.827  1.00  0.00     0.037 A 
ATOM     56  C   UNL     1      -0.269 -17.255  -2.073  1.00  0.00     0.049 A 
ATOM     57  C   UNL     1      -1.176 -15.650   3.218  1.00  0.00     0.074 A 
ATOM     58  C   UNL     1      -0.974 -18.360  -2.517  1.00  0.00     0.029 A 
ATOM     59  N   UNL     1      -0.647 -17.042  -0.756  1.00  0.00    -0.354 N 
ATOM     60  N   UNL     1      -1.058 -16.149   2.011  1.00  0.00    -0.248 NA
ATOM     61  C   UNL     1      -2.145 -16.356   4.069  1.00  0.00     0.031 C 
ATOM     62  C   UNL     1      -1.793 -18.805  -1.474  1.00  0.00     0.029 A 
ATOM     63  C   UNL     1      -1.574 -17.995  -0.371  1.00  0.00     0.049 A 
ATOM     64  H   UNL     1      -0.307 -16.320  -0.180  1.00  0.00     0.167 HD
ATOM     65  C   UNL     1      -1.916 -17.242   1.966  1.00  0.00     0.074 A 
ATOM     66  C   UNL     1      -2.540 -17.338   3.270  1.00  0.00     0.031 C 
ATOM     67  C   UNL     1      -2.168 -18.087   0.938  1.00  0.00     0.037 A 
BRANCH  54  68
ATOM     68  C   UNL     1       0.979 -16.808  -4.222  1.00  0.00     0.058 A 
ATOM     69  C   UNL     1       2.183 -17.425  -4.595  1.00  0.00     0.135 A 
ATOM     70  C   UNL     1       0.030 -16.558  -5.226  1.00  0.00     0.135 A 
ATOM     71  F   UNL     1       3.131 -17.668  -3.676  1.00  0.00    -0.206 F 
ATOM     72  C   UNL     1       2.448 -17.761  -5.918  1.00  0.00     0.059 A 
ATOM     73  C   UNL     1       0.264 -16.909  -6.553  1.00  0.00     0.059 A 
ATOM     74  F   UNL     1      -1.137 -15.969  -4.923  1.00  0.00    -0.206 F 
ATOM     75  C   UNL     1       1.482 -17.498  -6.891  1.00  0.00     0.060 A 
BRANCH  75  76
ATOM     76  S   UNL     1       1.834 -17.953  -8.601  1.00  0.00     0.124 S 
ATOM     77  O   UNL     1       2.761 -16.897  -8.997  1.00  0.00    -0.237 OA
ATOM     78  O   UNL     1       2.414 -19.285  -8.460  1.00  0.00    -0.237 OA
ATOM     79  O   UNL     1       0.523 -17.909  -9.241  1.00  0.00    -0.744 OA
ENDBRANCH  75  76
ENDBRANCH  54  68
BRANCH  55  80
ATOM     80  C   UNL     1      -0.765 -14.047   5.220  1.00  0.00     0.058 A 
ATOM     81  C   UNL     1      -0.357 -14.826   6.313  1.00  0.00     0.135 A 
ATOM     82  C   UNL     1      -1.476 -12.868   5.486  1.00  0.00     0.135 A 
ATOM     83  F   UNL     1       0.320 -15.966   6.108  1.00  0.00    -0.206 F 
ATOM     84  C   UNL     1      -0.667 -14.467   7.620  1.00  0.00     0.059 A 
ATOM     85  C   UNL     1      -1.778 -12.475   6.786  1.00  0.00     0.059 A 
ATOM     86  F   UNL     1      -1.872 -12.079   4.475  1.00  0.00    -0.206 F 
ATOM     87  C   UNL     1      -1.383 -13.290   7.847  1.00  0.00     0.060 A 
BRANCH  87  88
ATOM     88  S   UNL     1      -1.762 -12.815   9.548  1.00  0.00     0.124 S 
ATOM     89  O   UNL     1      -2.882 -13.697   9.855  1.00  0.00    -0.237 OA
ATOM     90  O   UNL     1      -0.510 -13.109  10.239  1.00  0.00    -0.237 OA
ATOM     91  O   UNL     1      -2.086 -11.396   9.432  1.00  0.00    -0.744 OA
ENDBRANCH  87  88
ENDBRANCH  55  80
BRANCH  67  92
ATOM     92  C   UNL     1      -3.128 -19.214   1.190  1.00  0.00     0.058 A 
ATOM     93  C   UNL     1      -4.513 -19.000   1.245  1.00  0.00     0.135 A 
ATOM     94  C   UNL     1      -2.658 -20.530   1.321  1.00  0.00     0.135 A 
ATOM     95  F   UNL     1      -5.010 -17.758   1.131  1.00  0.00    -0.206 F 
ATOM     96  C   UNL     1      -5.401 -20.052   1.440  1.00  0.00     0.059 A 
ATOM     97  C   UNL     1      -3.530 -21.600   1.495  1.00  0.00     0.059 A 
ATOM     98  F   UNL     1      -1.342 -20.787   1.265  1.00  0.00    -0.206 F 
ATOM     99  C   UNL     1      -4.900 -21.350   1.563  1.00  0.00     0.060 A 
BRANCH  99 100
ATOM    100  S   UNL     1      -6.063 -22.714   1.774  1.00  0.00     0.124 S 
ATOM    101  O   UNL     1      -6.417 -22.583   3.183  1.00  0.00    -0.237 OA
ATOM    102  O   UNL     1      -7.117 -22.381   0.821  1.00  0.00    -0.237 OA
ATOM    103  O   UNL     1      -5.269 -23.891   1.432  1.00  0.00    -0.744 OA
ENDBRANCH  99 100
ENDBRANCH  67  92
ENDBRANCH  41  42
ENDBRANCH  33  36
ENDBRANCH  31  32
ENDBRANCH  30  31
ENDBRANCH  29  30
ENDBRANCH   1  29
TORSDOF 19
