REMARK SMILES C[N@@H+]1CC[C@H]2CN(C(=O)c3csc(-c4ccncc4)n3)C[C@@]2(C(=O)NCCCCCCNC(=O)c2ccc(-c3c4nc(c(-c5c(F)cc(S(=O)(=O)[O-])cc5F)c5ccc([nH]5)c(-c5c(F)cc(S(=O)(=O)[O-])cc5F)c5nc(c(-c6c(F)cc(S(=O)(=O)[O-])cc6F)c6ccc3[nH]6)C=C5)C=C4)cc2)C1
REMARK SMILES IDX 28 1 27 2 26 3 25 4 23 5 24 6 22 8 1 9 2 10 3 11 101 12 4 14
REMARK SMILES IDX 5 15 21 16 6 17 7 18 8 19 9 20 10 21 11 22 20 23 12 24 13 25
REMARK SMILES IDX 14 26 15 27 19 28 16 29 18 30 17 31 29 32 30 33 31 34 32 35
REMARK SMILES IDX 33 36 34 38 35 39 36 40 100 41 37 42 99 43 38 44 39 45 40 46
REMARK SMILES IDX 93 47 41 48 98 49 92 50 94 51 42 52 97 53 91 54 90 55 43 57
REMARK SMILES IDX 77 58 56 59 76 60 57 61 60 62 75 63 95 64 58 65 59 66 74 68
REMARK SMILES IDX 96 69 61 70 44 71 45 72 54 73 46 74 47 75 53 76 55 77 48 78
REMARK SMILES IDX 49 79 50 80 51 81 52 82 78 83 79 84 88 85 80 86 81 87 87 88
REMARK SMILES IDX 89 89 82 90 83 91 84 92 85 93 86 94 62 95 63 96 72 97 64 98
REMARK SMILES IDX 65 99 71 100 73 101 66 102 67 103 68 104 69 105 70 106
REMARK H PARENT 25 7 2 13 32 37 94 56 60 67
REMARK Flexibility Score: inf
ROOT
ATOM      1  C   UNL     1      -2.147   3.648   2.844  1.00  0.00     0.002 C 
ENDROOT
BRANCH   1   2
ATOM      2  C   UNL     1      -2.611   2.200   3.002  1.00  0.00     0.021 C 
BRANCH   2   3
ATOM      3  C   UNL     1      -3.333   1.602   1.793  1.00  0.00     0.116 C 
BRANCH   3   4
ATOM      4  N   UNL     1      -2.526   1.059   0.685  1.00  0.00    -0.355 N 
ATOM      5  C   UNL     1      -2.089  -0.207   0.330  1.00  0.00     0.234 C 
ATOM      6  O   UNL     1      -1.812  -0.387  -0.859  1.00  0.00    -0.274 OA
ATOM      7  H   UNL     1      -2.231   1.754   0.054  1.00  0.00     0.163 HD
BRANCH   5   8
ATOM      8  C   UNL     1      -1.807  -1.292   1.391  1.00  0.00     0.120 C 
ATOM      9  C   UNL     1       1.242  -0.116   0.511  1.00  0.00     0.332 C 
ATOM     10  N   UNL     1       0.782  -1.073   1.520  1.00  0.00    -0.336 N 
ATOM     11  C   UNL     1       0.935  -2.432   0.996  1.00  0.00     0.262 C 
ATOM     12  C   UNL     1      -0.542  -0.766   2.128  1.00  0.00     0.281 C 
ATOM     13  H   UNL     1       1.385  -0.986   2.337  1.00  0.00     0.347 HD
ATOM     14  C   UNL     1      -0.195  -3.339   1.416  1.00  0.00     0.068 C 
ATOM     15  C   UNL     1      -1.536  -2.773   0.928  1.00  0.00     0.037 C 
ATOM     16  C   UNL     1      -3.131  -1.445   2.156  1.00  0.00     0.143 C 
ATOM     17  C   UNL     1      -2.628  -3.660   1.537  1.00  0.00     0.125 C 
ATOM     18  N   UNL     1      -3.671  -2.753   1.867  1.00  0.00    -0.336 N 
BRANCH  18  19
ATOM     19  C   UNL     1      -5.001  -3.150   1.915  1.00  0.00     0.273 C 
ATOM     20  O   UNL     1      -5.316  -4.332   2.036  1.00  0.00    -0.267 OA
BRANCH  19  21
ATOM     21  C   UNL     1      -6.028  -2.102   1.779  1.00  0.00     0.139 A 
ATOM     22  C   UNL     1      -7.116  -1.977   2.621  1.00  0.00     0.101 A 
ATOM     23  N   UNL     1      -6.031  -1.197   0.705  1.00  0.00    -0.231 NA
ATOM     24  S   UNL     1      -8.132  -0.699   2.102  1.00  0.00    -0.122 S 
ATOM     25  C   UNL     1      -7.112  -0.443   0.738  1.00  0.00     0.124 A 
BRANCH  25  26
ATOM     26  C   UNL     1      -7.516   0.501  -0.310  1.00  0.00     0.013 A 
ATOM     27  C   UNL     1      -7.677   0.046  -1.622  1.00  0.00     0.031 A 
ATOM     28  C   UNL     1      -7.764   1.849  -0.037  1.00  0.00     0.031 A 
ATOM     29  C   UNL     1      -8.086   0.946  -2.593  1.00  0.00     0.111 A 
ATOM     30  C   UNL     1      -8.161   2.674  -1.079  1.00  0.00     0.111 A 
ATOM     31  N   UNL     1      -8.318   2.252  -2.352  1.00  0.00    -0.265 NA
ENDBRANCH  25  26
ENDBRANCH  19  21
ENDBRANCH  18  19
ENDBRANCH   5   8
ENDBRANCH   3   4
ENDBRANCH   2   3
ENDBRANCH   1   2
BRANCH   1  32
ATOM     32  C   UNL     1      -3.168   4.612   2.227  1.00  0.00     0.002 C 
BRANCH  32  33
ATOM     33  C   UNL     1      -4.566   4.614   2.858  1.00  0.00     0.021 C 
BRANCH  33  34
ATOM     34  C   UNL     1      -4.618   5.053   4.316  1.00  0.00     0.116 C 
BRANCH  34  35
ATOM     35  N   UNL     1      -4.207   6.436   4.479  1.00  0.00    -0.352 N 
ATOM     36  C   UNL     1      -4.913   7.507   4.971  1.00  0.00     0.251 C 
ATOM     37  H   UNL     1      -3.286   6.636   4.194  1.00  0.00     0.163 HD
ATOM     38  O   UNL     1      -4.480   8.642   4.816  1.00  0.00    -0.269 OA
BRANCH  36  39
ATOM     39  C   UNL     1      -6.198   7.290   5.674  1.00  0.00     0.039 A 
ATOM     40  C   UNL     1      -7.269   8.146   5.406  1.00  0.00     0.014 A 
ATOM     41  C   UNL     1      -6.340   6.265   6.614  1.00  0.00     0.014 A 
ATOM     42  C   UNL     1      -8.496   7.942   6.042  1.00  0.00     0.010 A 
ATOM     43  C   UNL     1      -7.583   6.017   7.191  1.00  0.00     0.010 A 
ATOM     44  C   UNL     1      -8.672   6.859   6.920  1.00  0.00    -0.014 A 
BRANCH  44  45
ATOM     45  C   UNL     1      -9.983   6.600   7.570  1.00  0.00     0.031 A 
ATOM     46  C   UNL     1     -10.114   6.684   9.068  1.00  0.00     0.074 A 
ATOM     47  C   UNL     1     -11.039   6.232   6.819  1.00  0.00     0.049 A 
ATOM     48  N   UNL     1     -11.154   6.438   9.821  1.00  0.00    -0.248 NA
ATOM     49  C   UNL     1      -8.907   7.067   9.819  1.00  0.00     0.031 C 
ATOM     50  C   UNL     1     -11.025   6.067   5.364  1.00  0.00     0.029 A 
ATOM     51  N   UNL     1     -12.327   5.920   7.175  1.00  0.00    -0.354 N 
ATOM     52  C   UNL     1     -10.727   6.622  11.132  1.00  0.00     0.074 A 
ATOM     53  C   UNL     1      -9.318   6.944  11.073  1.00  0.00     0.031 C 
ATOM     54  C   UNL     1     -12.251   5.707   4.950  1.00  0.00     0.029 A 
ATOM     55  C   UNL     1     -13.128   5.579   6.110  1.00  0.00     0.049 A 
ATOM     56  H   UNL     1     -12.648   5.938   8.105  1.00  0.00     0.167 HD
ATOM     57  C   UNL     1     -11.447   6.553  12.277  1.00  0.00     0.037 A 
ATOM     58  C   UNL     1     -14.420   5.200   6.072  1.00  0.00     0.037 A 
ATOM     59  C   UNL     1     -12.855   6.255  12.324  1.00  0.00     0.049 A 
ATOM     60  C   UNL     1     -15.203   5.133   7.355  1.00  0.00     0.074 A 
ATOM     61  C   UNL     1     -13.691   6.222  13.427  1.00  0.00     0.029 A 
ATOM     62  N   UNL     1     -13.636   5.936  11.222  1.00  0.00    -0.354 N 
ATOM     63  N   UNL     1     -14.799   5.377   8.579  1.00  0.00    -0.248 NA
ATOM     64  C   UNL     1     -16.617   4.750   7.253  1.00  0.00     0.031 C 
ATOM     65  C   UNL     1     -14.966   5.836  12.998  1.00  0.00     0.029 A 
ATOM     66  C   UNL     1     -14.938   5.682  11.621  1.00  0.00     0.049 A 
ATOM     67  H   UNL     1     -13.312   5.897  10.293  1.00  0.00     0.167 HD
ATOM     68  C   UNL     1     -15.915   5.202   9.390  1.00  0.00     0.074 A 
ATOM     69  C   UNL     1     -17.013   4.844   8.515  1.00  0.00     0.031 C 
ATOM     70  C   UNL     1     -16.022   5.329  10.736  1.00  0.00     0.037 A 
BRANCH  57  71
ATOM     71  C   UNL     1     -10.722   6.802  13.572  1.00  0.00     0.058 A 
ATOM     72  C   UNL     1     -10.234   8.074  13.914  1.00  0.00     0.135 A 
ATOM     73  C   UNL     1     -10.528   5.761  14.495  1.00  0.00     0.135 A 
ATOM     74  F   UNL     1     -10.378   9.104  13.064  1.00  0.00    -0.206 F 
ATOM     75  C   UNL     1      -9.547   8.297  15.102  1.00  0.00     0.059 A 
ATOM     76  C   UNL     1      -9.871   5.967  15.705  1.00  0.00     0.059 A 
ATOM     77  F   UNL     1     -10.974   4.524  14.223  1.00  0.00    -0.206 F 
ATOM     78  C   UNL     1      -9.367   7.235  15.991  1.00  0.00     0.060 A 
BRANCH  78  79
ATOM     79  S   UNL     1      -8.463   7.538  17.524  1.00  0.00     0.124 S 
ATOM     80  O   UNL     1      -7.094   7.660  17.033  1.00  0.00    -0.237 OA
ATOM     81  O   UNL     1      -9.075   8.771  18.009  1.00  0.00    -0.237 OA
ATOM     82  O   UNL     1      -8.739   6.347  18.322  1.00  0.00    -0.744 OA
ENDBRANCH  78  79
ENDBRANCH  57  71
BRANCH  58  83
ATOM     83  C   UNL     1     -15.058   4.881   4.767  1.00  0.00     0.058 A 
ATOM     84  C   UNL     1     -16.017   5.737   4.205  1.00  0.00     0.135 A 
ATOM     85  C   UNL     1     -14.703   3.733   4.043  1.00  0.00     0.135 A 
ATOM     86  F   UNL     1     -16.394   6.845   4.861  1.00  0.00    -0.206 F 
ATOM     87  C   UNL     1     -16.610   5.462   2.977  1.00  0.00     0.059 A 
ATOM     88  C   UNL     1     -15.264   3.448   2.801  1.00  0.00     0.059 A 
ATOM     89  F   UNL     1     -13.777   2.891   4.528  1.00  0.00    -0.206 F 
ATOM     90  C   UNL     1     -16.223   4.316   2.280  1.00  0.00     0.060 A 
BRANCH  90  91
ATOM     91  S   UNL     1     -16.955   4.000   0.660  1.00  0.00     0.124 S 
ATOM     92  O   UNL     1     -18.310   3.602   1.023  1.00  0.00    -0.237 OA
ATOM     93  O   UNL     1     -16.823   5.299   0.007  1.00  0.00    -0.237 OA
ATOM     94  O   UNL     1     -16.111   2.943   0.112  1.00  0.00    -0.744 OA
ENDBRANCH  90  91
ENDBRANCH  58  83
BRANCH  70  95
ATOM     95  C   UNL     1     -17.379   5.111  11.347  1.00  0.00     0.058 A 
ATOM     96  C   UNL     1     -17.948   3.832  11.447  1.00  0.00     0.135 A 
ATOM     97  C   UNL     1     -18.095   6.191  11.888  1.00  0.00     0.135 A 
ATOM     98  F   UNL     1     -17.307   2.766  10.941  1.00  0.00    -0.206 F 
ATOM     99  C   UNL     1     -19.190   3.634  12.041  1.00  0.00     0.059 A 
ATOM    100  C   UNL     1     -19.326   6.013  12.511  1.00  0.00     0.059 A 
ATOM    101  F   UNL     1     -17.592   7.435  11.828  1.00  0.00    -0.206 F 
ATOM    102  C   UNL     1     -19.871   4.732  12.572  1.00  0.00     0.060 A 
BRANCH 102 103
ATOM    103  S   UNL     1     -21.467   4.457  13.370  1.00  0.00     0.124 S 
ATOM    104  O   UNL     1     -22.332   4.212  12.220  1.00  0.00    -0.237 OA
ATOM    105  O   UNL     1     -21.197   3.300  14.217  1.00  0.00    -0.237 OA
ATOM    106  O   UNL     1     -21.710   5.706  14.084  1.00  0.00    -0.744 OA
ENDBRANCH 102 103
ENDBRANCH  70  95
ENDBRANCH  44  45
ENDBRANCH  36  39
ENDBRANCH  34  35
ENDBRANCH  33  34
ENDBRANCH  32  33
ENDBRANCH   1  32
TORSDOF 19
