REMARK SMILES O=C(CCC(=O)N1CCCn2nc(-c3ccccc3)cc21)NCCCCCCNC(=O)c1ccc(-c2c3nc(c(-c4c(F)cc(S(=O)(=O)[O-])cc4F)c4ccc([nH]4)c(-c4c(F)cc(S(=O)(=O)[O-])cc4F)c4nc(c(-c5c(F)cc(S(=O)(=O)[O-])cc5F)c5ccc2[nH]5)C=C4)C=C3)cc1
REMARK SMILES IDX 25 1 24 2 23 3 22 4 1 5 2 6 3 8 4 9 5 10 6 11 7 12 8 13
REMARK SMILES IDX 21 14 9 15 11 16 20 17 10 18 12 19 13 20 14 21 15 22 19 23
REMARK SMILES IDX 16 24 18 25 17 26 26 27 27 28 28 29 29 30 30 31 31 33 32 34
REMARK SMILES IDX 33 35 97 36 34 37 96 38 35 39 36 40 37 41 90 42 38 43 95 44
REMARK SMILES IDX 89 45 91 46 39 47 94 48 88 49 87 50 40 52 74 53 53 54 73 55
REMARK SMILES IDX 54 56 57 57 72 58 92 59 55 60 56 61 71 63 93 64 58 65 41 66
REMARK SMILES IDX 42 67 51 68 43 69 44 70 50 71 52 72 45 73 46 74 47 75 48 76
REMARK SMILES IDX 49 77 75 78 76 79 85 80 77 81 78 82 84 83 86 84 79 85 80 86
REMARK SMILES IDX 81 87 82 88 83 89 59 90 60 91 69 92 61 93 62 94 68 95 70 96
REMARK SMILES IDX 63 97 64 98 65 99 66 100 67 101
REMARK H PARENT 22 7 29 32 91 51 57 62
REMARK Flexibility Score: inf
ROOT
ATOM      1  C   UNL     1       3.794   4.166  -0.080  1.00  0.00     0.002 C 
ENDROOT
BRANCH   1   2
ATOM      2  C   UNL     1       2.271   3.954  -0.076  1.00  0.00     0.021 C 
BRANCH   2   3
ATOM      3  C   UNL     1       1.685   2.538   0.029  1.00  0.00     0.116 C 
BRANCH   3   4
ATOM      4  N   UNL     1       2.511   1.550   0.697  1.00  0.00    -0.356 N 
ATOM      5  O   UNL     1       1.094  -0.208   0.292  1.00  0.00    -0.275 OA
ATOM      6  C   UNL     1       2.180   0.214   0.677  1.00  0.00     0.220 C 
ATOM      7  H   UNL     1       3.323   1.840   1.173  1.00  0.00     0.163 HD
BRANCH   6   8
ATOM      8  C   UNL     1       3.330  -0.720   0.995  1.00  0.00     0.110 C 
BRANCH   8   9
ATOM      9  C   UNL     1       3.530  -1.730  -0.144  1.00  0.00     0.110 C 
BRANCH   9  10
ATOM     10  C   UNL     1       4.592  -1.323  -1.150  1.00  0.00     0.228 C 
ATOM     11  O   UNL     1       5.785  -1.573  -0.945  1.00  0.00    -0.274 OA
BRANCH  10  12
ATOM     12  N   UNL     1       4.217  -0.627  -2.366  1.00  0.00    -0.297 N 
ATOM     13  C   UNL     1       2.841  -0.111  -2.581  1.00  0.00     0.129 C 
ATOM     14  C   UNL     1       5.113  -0.409  -3.427  1.00  0.00     0.134 A 
ATOM     15  C   UNL     1       2.899   1.265  -3.231  1.00  0.00     0.046 C 
ATOM     16  N   UNL     1       4.811   0.436  -4.461  1.00  0.00    -0.249 N 
ATOM     17  C   UNL     1       6.349  -0.931  -3.751  1.00  0.00     0.077 A 
ATOM     18  C   UNL     1       3.574   1.173  -4.582  1.00  0.00     0.148 C 
ATOM     19  N   UNL     1       5.732   0.521  -5.406  1.00  0.00    -0.171 NA
ATOM     20  C   UNL     1       6.676  -0.344  -5.016  1.00  0.00     0.095 A 
BRANCH  20  21
ATOM     21  C   UNL     1       7.783  -0.568  -5.932  1.00  0.00     0.002 A 
ATOM     22  C   UNL     1       8.748   0.433  -6.108  1.00  0.00     0.010 A 
ATOM     23  C   UNL     1       7.731  -1.643  -6.829  1.00  0.00     0.010 A 
ATOM     24  C   UNL     1       9.633   0.373  -7.185  1.00  0.00     0.001 A 
ATOM     25  C   UNL     1       8.615  -1.696  -7.909  1.00  0.00     0.001 A 
ATOM     26  C   UNL     1       9.558  -0.684  -8.092  1.00  0.00     0.000 A 
ENDBRANCH  20  21
ENDBRANCH  10  12
ENDBRANCH   9  10
ENDBRANCH   8   9
ENDBRANCH   6   8
ENDBRANCH   3   4
ENDBRANCH   2   3
ENDBRANCH   1   2
BRANCH   1  27
ATOM     27  C   UNL     1       4.610   4.101  -1.380  1.00  0.00     0.002 C 
BRANCH  27  28
ATOM     28  C   UNL     1       4.004   4.667  -2.670  1.00  0.00     0.021 C 
BRANCH  28  29
ATOM     29  C   UNL     1       4.131   6.179  -2.850  1.00  0.00     0.116 C 
BRANCH  29  30
ATOM     30  N   UNL     1       5.508   6.601  -3.081  1.00  0.00    -0.352 N 
ATOM     31  C   UNL     1       6.012   7.548  -3.943  1.00  0.00     0.251 C 
ATOM     32  H   UNL     1       6.182   6.136  -2.534  1.00  0.00     0.163 HD
ATOM     33  O   UNL     1       7.231   7.654  -4.070  1.00  0.00    -0.269 OA
BRANCH  31  34
ATOM     34  C   UNL     1       5.109   8.412  -4.741  1.00  0.00     0.039 A 
ATOM     35  C   UNL     1       5.445   8.699  -6.070  1.00  0.00     0.014 A 
ATOM     36  C   UNL     1       3.945   8.951  -4.190  1.00  0.00     0.014 A 
ATOM     37  C   UNL     1       4.578   9.457  -6.863  1.00  0.00     0.010 A 
ATOM     38  C   UNL     1       3.049   9.645  -4.999  1.00  0.00     0.010 A 
ATOM     39  C   UNL     1       3.353   9.902  -6.344  1.00  0.00    -0.014 A 
BRANCH  39  40
ATOM     40  C   UNL     1       2.364  10.625  -7.185  1.00  0.00     0.031 A 
ATOM     41  C   UNL     1       1.974  12.037  -6.845  1.00  0.00     0.074 A 
ATOM     42  C   UNL     1       1.745   9.974  -8.189  1.00  0.00     0.049 A 
ATOM     43  N   UNL     1       1.041  12.787  -7.371  1.00  0.00    -0.248 NA
ATOM     44  C   UNL     1       2.707  12.675  -5.740  1.00  0.00     0.031 C 
ATOM     45  C   UNL     1       1.992   8.583  -8.574  1.00  0.00     0.029 A 
ATOM     46  N   UNL     1       0.762  10.387  -9.053  1.00  0.00    -0.354 N 
ATOM     47  C   UNL     1       1.060  13.975  -6.650  1.00  0.00     0.074 A 
ATOM     48  C   UNL     1       2.059  13.824  -5.615  1.00  0.00     0.031 C 
ATOM     49  C   UNL     1       1.187   8.259  -9.598  1.00  0.00     0.029 A 
ATOM     50  C   UNL     1       0.344   9.406  -9.921  1.00  0.00     0.049 A 
ATOM     51  H   UNL     1       0.391  11.299  -9.052  1.00  0.00     0.167 HD
ATOM     52  C   UNL     1       0.328  15.099  -6.847  1.00  0.00     0.037 A 
ATOM     53  C   UNL     1      -0.620   9.423 -10.863  1.00  0.00     0.037 A 
ATOM     54  C   UNL     1      -0.644  15.250  -7.898  1.00  0.00     0.049 A 
ATOM     55  C   UNL     1      -1.400  10.686 -11.088  1.00  0.00     0.074 A 
ATOM     56  C   UNL     1      -1.393  16.366  -8.228  1.00  0.00     0.029 A 
ATOM     57  N   UNL     1      -1.002  14.250  -8.793  1.00  0.00    -0.354 N 
ATOM     58  N   UNL     1      -1.326  11.823 -10.437  1.00  0.00    -0.248 NA
ATOM     59  C   UNL     1      -2.386  10.676 -12.177  1.00  0.00     0.031 C 
ATOM     60  C   UNL     1      -2.227  16.030  -9.301  1.00  0.00     0.029 A 
ATOM     61  C   UNL     1      -1.972  14.717  -9.664  1.00  0.00     0.049 A 
ATOM     62  H   UNL     1      -0.621  13.342  -8.806  1.00  0.00     0.167 HD
ATOM     63  C   UNL     1      -2.251  12.667 -11.040  1.00  0.00     0.074 A 
ATOM     64  C   UNL     1      -2.858  11.915 -12.121  1.00  0.00     0.031 C 
ATOM     65  C   UNL     1      -2.571  13.947 -10.726  1.00  0.00     0.037 A 
BRANCH  52  66
ATOM     66  C   UNL     1       0.562  16.246  -5.902  1.00  0.00     0.058 A 
ATOM     67  C   UNL     1       1.761  16.977  -5.917  1.00  0.00     0.135 A 
ATOM     68  C   UNL     1      -0.412  16.608  -4.958  1.00  0.00     0.135 A 
ATOM     69  F   UNL     1       2.732  16.665  -6.790  1.00  0.00    -0.206 F 
ATOM     70  C   UNL     1       2.009  17.989  -4.996  1.00  0.00     0.059 A 
ATOM     71  C   UNL     1      -0.197  17.637  -4.045  1.00  0.00     0.059 A 
ATOM     72  F   UNL     1      -1.579  15.946  -4.901  1.00  0.00    -0.206 F 
ATOM     73  C   UNL     1       1.028  18.303  -4.055  1.00  0.00     0.060 A 
BRANCH  73  74
ATOM     74  S   UNL     1       1.381  19.583  -2.832  1.00  0.00     0.124 S 
ATOM     75  O   UNL     1       2.258  18.865  -1.911  1.00  0.00    -0.237 OA
ATOM     76  O   UNL     1       2.020  20.620  -3.635  1.00  0.00    -0.237 OA
ATOM     77  O   UNL     1       0.062  19.922  -2.307  1.00  0.00    -0.744 OA
ENDBRANCH  73  74
ENDBRANCH  52  66
BRANCH  53  78
ATOM     78  C   UNL     1      -0.877   8.198 -11.665  1.00  0.00     0.058 A 
ATOM     79  C   UNL     1      -0.448   8.104 -12.996  1.00  0.00     0.135 A 
ATOM     80  C   UNL     1      -1.494   7.074 -11.093  1.00  0.00     0.135 A 
ATOM     81  F   UNL     1       0.141   9.154 -13.586  1.00  0.00    -0.206 F 
ATOM     82  C   UNL     1      -0.614   6.935 -13.733  1.00  0.00     0.059 A 
ATOM     83  C   UNL     1      -1.654   5.889 -11.804  1.00  0.00     0.059 A 
ATOM     84  F   UNL     1      -1.903   7.108  -9.816  1.00  0.00    -0.206 F 
ATOM     85  C   UNL     1      -1.210   5.829 -13.124  1.00  0.00     0.060 A 
BRANCH  85  86
ATOM     86  S   UNL     1      -1.326   4.282 -14.051  1.00  0.00     0.124 S 
ATOM     87  O   UNL     1      -2.430   4.566 -14.959  1.00  0.00    -0.237 OA
ATOM     88  O   UNL     1      -0.003   4.188 -14.659  1.00  0.00    -0.237 OA
ATOM     89  O   UNL     1      -1.598   3.292 -13.012  1.00  0.00    -0.744 OA
ENDBRANCH  85  86
ENDBRANCH  53  78
BRANCH  65  90
ATOM     90  C   UNL     1      -3.626  14.615 -11.559  1.00  0.00     0.058 A 
ATOM     91  C   UNL     1      -4.986  14.306 -11.399  1.00  0.00     0.135 A 
ATOM     92  C   UNL     1      -3.281  15.615 -12.482  1.00  0.00     0.135 A 
ATOM     93  F   UNL     1      -5.364  13.351 -10.535  1.00  0.00    -0.206 F 
ATOM     94  C   UNL     1      -5.968  14.956 -12.137  1.00  0.00     0.059 A 
ATOM     95  C   UNL     1      -4.249  16.294 -13.215  1.00  0.00     0.059 A 
ATOM     96  F   UNL     1      -1.995  15.951 -12.665  1.00  0.00    -0.206 F 
ATOM     97  C   UNL     1      -5.590  15.951 -13.041  1.00  0.00     0.060 A 
BRANCH  97  98
ATOM     98  S   UNL     1      -6.878  16.820 -13.960  1.00  0.00     0.124 S 
ATOM     99  O   UNL     1      -7.249  15.821 -14.957  1.00  0.00    -0.237 OA
ATOM    100  O   UNL     1      -7.875  17.085 -12.927  1.00  0.00    -0.237 OA
ATOM    101  O   UNL     1      -6.190  17.999 -14.476  1.00  0.00    -0.744 OA
ENDBRANCH  97  98
ENDBRANCH  65  90
ENDBRANCH  39  40
ENDBRANCH  31  34
ENDBRANCH  29  30
ENDBRANCH  28  29
ENDBRANCH  27  28
ENDBRANCH   1  27
TORSDOF 20
