REMARK SMILES O=C(NCCCCCCNC(=O)[C@H](CCC(F)(F)F)Cc1ccccc1)c1ccc(-c2c3nc(c(-c4c(F)cc(S(=O)(=O)[O-])cc4F)c4ccc([nH]4)c(-c4c(F)cc(S(=O)(=O)[O-])cc4F)c4nc(c(-c5c(F)cc(S(=O)(=O)[O-])cc5F)c5ccc2[nH]5)C=C4)C=C3)cc1
REMARK SMILES IDX 6 1 5 2 4 3 3 4 1 5 2 6 27 8 28 9 92 10 29 11 91 12 30 13
REMARK SMILES IDX 31 14 32 15 85 16 33 17 90 18 84 19 86 20 34 21 89 22 83 23
REMARK SMILES IDX 82 24 35 26 69 27 48 28 68 29 49 30 52 31 67 32 87 33 50 34
REMARK SMILES IDX 51 35 66 37 88 38 53 39 36 40 37 41 46 42 38 43 39 44 45 45
REMARK SMILES IDX 47 46 40 47 41 48 42 49 43 50 44 51 70 52 71 53 80 54 72 55
REMARK SMILES IDX 73 56 79 57 81 58 74 59 75 60 76 61 77 62 78 63 54 64 55 65
REMARK SMILES IDX 64 66 56 67 57 68 63 69 65 70 58 71 59 72 60 73 61 74 62 75
REMARK SMILES IDX 7 76 8 77 9 78 10 79 11 80 12 82 13 83 20 84 21 85 22 86
REMARK SMILES IDX 26 87 23 88 25 89 24 90 14 91 15 92 16 93 17 94 18 95 19 96
REMARK H PARENT 3 7 86 25 52 36 10 81
REMARK Flexibility Score: inf
ROOT
ATOM      1  C   UNL     1       6.239  -7.751   3.172  1.00  0.00     0.002 C 
ENDROOT
BRANCH   1   2
ATOM      2  C   UNL     1       5.104  -8.425   3.946  1.00  0.00     0.021 C 
BRANCH   2   3
ATOM      3  C   UNL     1       3.716  -7.896   3.598  1.00  0.00     0.116 C 
BRANCH   3   4
ATOM      4  N   UNL     1       3.359  -8.228   2.229  1.00  0.00    -0.352 N 
ATOM      5  O   UNL     1       2.410  -9.524   0.639  1.00  0.00    -0.269 OA
ATOM      6  C   UNL     1       2.407  -9.115   1.800  1.00  0.00     0.251 C 
ATOM      7  H   UNL     1       3.862  -7.759   1.524  1.00  0.00     0.163 HD
BRANCH   6   8
ATOM      8  C   UNL     1       1.380  -9.573   2.754  1.00  0.00     0.039 A 
ATOM      9  C   UNL     1       0.692  -8.639   3.537  1.00  0.00     0.014 A 
ATOM     10  C   UNL     1       1.105 -10.936   2.867  1.00  0.00     0.014 A 
ATOM     11  C   UNL     1      -0.204  -9.076   4.505  1.00  0.00     0.010 A 
ATOM     12  C   UNL     1       0.152 -11.367   3.789  1.00  0.00     0.010 A 
ATOM     13  C   UNL     1      -0.500 -10.442   4.623  1.00  0.00    -0.014 A 
BRANCH  13  14
ATOM     14  C   UNL     1      -1.554 -10.896   5.561  1.00  0.00     0.031 A 
ATOM     15  C   UNL     1      -1.220 -11.790   6.718  1.00  0.00     0.074 A 
ATOM     16  C   UNL     1      -2.829 -10.534   5.321  1.00  0.00     0.049 A 
ATOM     17  N   UNL     1      -2.026 -12.374   7.566  1.00  0.00    -0.248 NA
ATOM     18  C   UNL     1       0.204 -12.075   6.944  1.00  0.00     0.031 C 
ATOM     19  C   UNL     1      -3.264  -9.672   4.219  1.00  0.00     0.029 A 
ATOM     20  N   UNL     1      -3.992 -10.860   5.968  1.00  0.00    -0.354 N 
ATOM     21  C   UNL     1      -1.213 -13.119   8.411  1.00  0.00     0.074 A 
ATOM     22  C   UNL     1       0.149 -12.927   7.959  1.00  0.00     0.031 C 
ATOM     23  C   UNL     1      -4.596  -9.540   4.264  1.00  0.00     0.029 A 
ATOM     24  C   UNL     1      -5.115 -10.361   5.352  1.00  0.00     0.049 A 
ATOM     25  H   UNL     1      -4.021 -11.398   6.792  1.00  0.00     0.167 HD
ATOM     26  C   UNL     1      -1.577 -13.892   9.464  1.00  0.00     0.037 A 
ATOM     27  C   UNL     1      -6.420 -10.575   5.601  1.00  0.00     0.037 A 
ATOM     28  C   UNL     1      -2.941 -14.073   9.891  1.00  0.00     0.049 A 
ATOM     29  C   UNL     1      -6.806 -11.463   6.747  1.00  0.00     0.074 A 
ATOM     30  C   UNL     1      -3.416 -14.800  10.968  1.00  0.00     0.029 A 
ATOM     31  N   UNL     1      -4.052 -13.539   9.249  1.00  0.00    -0.354 N 
ATOM     32  N   UNL     1      -6.026 -12.127   7.567  1.00  0.00    -0.248 NA
ATOM     33  C   UNL     1      -8.240 -11.632   7.008  1.00  0.00     0.031 C 
ATOM     34  C   UNL     1      -4.814 -14.754  10.943  1.00  0.00     0.029 A 
ATOM     35  C   UNL     1      -5.211 -13.944   9.890  1.00  0.00     0.049 A 
ATOM     36  H   UNL     1      -4.019 -12.958   8.455  1.00  0.00     0.167 HD
ATOM     37  C   UNL     1      -6.872 -12.773   8.458  1.00  0.00     0.074 A 
ATOM     38  C   UNL     1      -8.226 -12.420   8.076  1.00  0.00     0.031 C 
ATOM     39  C   UNL     1      -6.553 -13.576   9.503  1.00  0.00     0.037 A 
BRANCH  26  40
ATOM     40  C   UNL     1      -0.486 -14.633  10.192  1.00  0.00     0.058 A 
ATOM     41  C   UNL     1       0.481 -13.968  10.964  1.00  0.00     0.135 A 
ATOM     42  C   UNL     1      -0.404 -16.033  10.112  1.00  0.00     0.135 A 
ATOM     43  F   UNL     1       0.458 -12.630  11.071  1.00  0.00    -0.206 F 
ATOM     44  C   UNL     1       1.519 -14.658  11.583  1.00  0.00     0.059 A 
ATOM     45  C   UNL     1       0.607 -16.747  10.748  1.00  0.00     0.059 A 
ATOM     46  F   UNL     1      -1.306 -16.723   9.396  1.00  0.00    -0.206 F 
ATOM     47  C   UNL     1       1.580 -16.047  11.459  1.00  0.00     0.060 A 
BRANCH  47  48
ATOM     48  S   UNL     1       2.965 -16.921  12.218  1.00  0.00     0.124 S 
ATOM     49  O   UNL     1       4.061 -16.556  11.324  1.00  0.00    -0.237 OA
ATOM     50  O   UNL     1       3.015 -16.330  13.552  1.00  0.00    -0.237 OA
ATOM     51  O   UNL     1       2.554 -18.320  12.169  1.00  0.00    -0.744 OA
ENDBRANCH  47  48
ENDBRANCH  26  40
BRANCH  27  52
ATOM     52  C   UNL     1      -7.432  -9.938   4.720  1.00  0.00     0.058 A 
ATOM     53  C   UNL     1      -8.191  -8.847   5.162  1.00  0.00     0.135 A 
ATOM     54  C   UNL     1      -7.581 -10.344   3.383  1.00  0.00     0.135 A 
ATOM     55  F   UNL     1      -8.085  -8.425   6.431  1.00  0.00    -0.206 F 
ATOM     56  C   UNL     1      -9.055  -8.171   4.306  1.00  0.00     0.059 A 
ATOM     57  C   UNL     1      -8.418  -9.668   2.503  1.00  0.00     0.059 A 
ATOM     58  F   UNL     1      -6.858 -11.371   2.908  1.00  0.00    -0.206 F 
ATOM     59  C   UNL     1      -9.151  -8.580   2.974  1.00  0.00     0.060 A 
BRANCH  59  60
ATOM     60  S   UNL     1     -10.195  -7.628   1.850  1.00  0.00     0.124 S 
ATOM     61  O   UNL     1     -11.530  -7.992   2.311  1.00  0.00    -0.237 OA
ATOM     62  O   UNL     1      -9.774  -6.259   2.130  1.00  0.00    -0.237 OA
ATOM     63  O   UNL     1      -9.821  -8.134   0.533  1.00  0.00    -0.744 OA
ENDBRANCH  59  60
ENDBRANCH  27  52
BRANCH  39  64
ATOM     64  C   UNL     1      -7.678 -14.102  10.350  1.00  0.00     0.058 A 
ATOM     65  C   UNL     1      -8.511 -15.143   9.913  1.00  0.00     0.135 A 
ATOM     66  C   UNL     1      -7.851 -13.627  11.660  1.00  0.00     0.135 A 
ATOM     67  F   UNL     1      -8.396 -15.623   8.665  1.00  0.00    -0.206 F 
ATOM     68  C   UNL     1      -9.472 -15.701  10.750  1.00  0.00     0.059 A 
ATOM     69  C   UNL     1      -8.787 -14.187  12.522  1.00  0.00     0.059 A 
ATOM     70  F   UNL     1      -7.077 -12.634  12.126  1.00  0.00    -0.206 F 
ATOM     71  C   UNL     1      -9.593 -15.226  12.058  1.00  0.00     0.060 A 
BRANCH  71  72
ATOM     72  S   UNL     1     -10.779 -16.021  13.163  1.00  0.00     0.124 S 
ATOM     73  O   UNL     1     -12.049 -15.542  12.626  1.00  0.00    -0.237 OA
ATOM     74  O   UNL     1     -10.496 -17.438  12.955  1.00  0.00    -0.237 OA
ATOM     75  O   UNL     1     -10.419 -15.503  14.479  1.00  0.00    -0.744 OA
ENDBRANCH  71  72
ENDBRANCH  39  64
ENDBRANCH  13  14
ENDBRANCH   6   8
ENDBRANCH   3   4
ENDBRANCH   2   3
ENDBRANCH   1   2
BRANCH   1  76
ATOM     76  C   UNL     1       6.257  -6.226   3.279  1.00  0.00     0.002 C 
BRANCH  76  77
ATOM     77  C   UNL     1       6.262  -5.702   4.716  1.00  0.00     0.021 C 
BRANCH  77  78
ATOM     78  C   UNL     1       7.581  -5.930   5.457  1.00  0.00     0.116 C 
BRANCH  78  79
ATOM     79  N   UNL     1       8.659  -5.149   4.881  1.00  0.00    -0.356 N 
ATOM     80  C   UNL     1       9.166  -3.936   5.234  1.00  0.00     0.223 C 
ATOM     81  H   UNL     1       9.098  -5.566   4.105  1.00  0.00     0.163 HD
ATOM     82  O   UNL     1      10.097  -3.492   4.561  1.00  0.00    -0.275 OA
BRANCH  80  83
ATOM     83  C   UNL     1       8.627  -3.194   6.460  1.00  0.00     0.083 C 
BRANCH  83  84
ATOM     84  C   UNL     1       9.538  -1.993   6.803  1.00  0.00     0.049 C 
BRANCH  84  85
ATOM     85  C   UNL     1       9.275  -1.370   8.159  1.00  0.00    -0.047 A 
ATOM     86  C   UNL     1       9.145   0.021   8.278  1.00  0.00     0.004 A 
ATOM     87  C   UNL     1       9.182  -2.155   9.318  1.00  0.00     0.004 A 
ATOM     88  C   UNL     1       8.887   0.606   9.519  1.00  0.00     0.000 A 
ATOM     89  C   UNL     1       8.911  -1.571  10.556  1.00  0.00     0.000 A 
ATOM     90  C   UNL     1       8.759  -0.191  10.655  1.00  0.00     0.000 A 
ENDBRANCH  84  85
ENDBRANCH  83  84
BRANCH  83  91
ATOM     91  C   UNL     1       7.136  -2.802   6.418  1.00  0.00     0.023 C 
BRANCH  91  92
ATOM     92  C   UNL     1       6.584  -1.828   5.366  1.00  0.00     0.116 C 
BRANCH  92  93
ATOM     93  C   UNL     1       7.118  -1.852   3.949  1.00  0.00     0.389 C 
ATOM     94  F   UNL     1       7.100  -3.083   3.408  1.00  0.00    -0.171 F 
ATOM     95  F   UNL     1       6.349  -1.062   3.161  1.00  0.00    -0.171 F 
ATOM     96  F   UNL     1       8.373  -1.369   3.886  1.00  0.00    -0.171 F 
ENDBRANCH  92  93
ENDBRANCH  91  92
ENDBRANCH  83  91
ENDBRANCH  80  83
ENDBRANCH  78  79
ENDBRANCH  77  78
ENDBRANCH  76  77
ENDBRANCH   1  76
TORSDOF 21
