REMARK SMILES Cc1nc(CCC(=O)NCCCCCCNC(=O)c2ccc(-c3c4nc(c(-c5c(F)cc(S(=O)(=O)[O-])cc5F)c5ccc([nH]5)c(-c5c(F)cc(S(=O)(=O)[O-])cc5F)c5nc(c(-c6c(F)cc(S(=O)(=O)[O-])cc6F)c6ccc3[nH]6)C=C5)C=C4)cc2)cc([C@@H]2CCC[N@@H+]2C(C)C)n1
REMARK SMILES IDX 12 1 11 2 10 3 9 4 7 5 8 6 6 8 5 9 4 10 1 11 2 12 3 13 95 14
REMARK SMILES IDX 86 15 85 16 87 17 88 18 91 19 89 20 90 21 92 23 93 24 94 25
REMARK SMILES IDX 13 26 14 27 15 28 16 29 17 30 18 32 19 33 20 34 84 35 21 36
REMARK SMILES IDX 83 37 22 38 23 39 24 40 77 41 25 42 82 43 76 44 78 45 26 46
REMARK SMILES IDX 81 47 75 48 74 49 27 51 61 52 40 53 60 54 41 55 44 56 59 57
REMARK SMILES IDX 79 58 42 59 43 60 58 62 80 63 45 64 28 65 29 66 38 67 30 68
REMARK SMILES IDX 31 69 37 70 39 71 32 72 33 73 34 74 35 75 36 76 62 77 63 78
REMARK SMILES IDX 72 79 64 80 65 81 71 82 73 83 66 84 67 85 68 86 69 87 70 88
REMARK SMILES IDX 46 89 47 90 56 91 48 92 49 93 55 94 57 95 50 96 51 97 52 98
REMARK SMILES IDX 53 99 54 100
REMARK H PARENT 9 7 91 22 16 31 78 50 44 61
REMARK Flexibility Score: inf
ROOT
ATOM      1  C   UNL     1      -3.803  -0.925   0.474  1.00  0.00     0.002 C 
ENDROOT
BRANCH   1   2
ATOM      2  C   UNL     1      -2.602  -1.901   0.436  1.00  0.00     0.021 C 
BRANCH   2   3
ATOM      3  C   UNL     1      -1.543  -1.973   1.550  1.00  0.00     0.116 C 
BRANCH   3   4
ATOM      4  N   UNL     1      -0.897  -3.293   1.469  1.00  0.00    -0.356 N 
ATOM      5  C   UNL     1       0.358  -3.700   1.141  1.00  0.00     0.220 C 
ATOM      6  O   UNL     1       0.499  -4.879   0.796  1.00  0.00    -0.275 OA
ATOM      7  H   UNL     1      -1.500  -4.036   1.701  1.00  0.00     0.163 HD
BRANCH   5   8
ATOM      8  C   UNL     1       1.572  -2.810   1.306  1.00  0.00     0.106 C 
BRANCH   8   9
ATOM      9  C   UNL     1       2.193  -2.341  -0.012  1.00  0.00     0.066 C 
BRANCH   9  10
ATOM     10  C   UNL     1       1.724  -0.949  -0.322  1.00  0.00     0.045 A 
ATOM     11  C   UNL     1      -1.354   0.526  -1.595  1.00  0.00     0.089 C 
ATOM     12  C   UNL     1      -0.052   0.323  -0.913  1.00  0.00     0.126 A 
ATOM     13  N   UNL     1       0.489  -0.887  -0.852  1.00  0.00    -0.238 NA
ATOM     14  N   UNL     1       0.499   1.411  -0.391  1.00  0.00    -0.232 NA
ATOM     15  C   UNL     1       1.808   1.398  -0.113  1.00  0.00     0.102 A 
ATOM     16  C   UNL     1       2.466   0.188  -0.006  1.00  0.00     0.054 A 
BRANCH  15  17
ATOM     17  C   UNL     1       2.480   2.765  -0.005  1.00  0.00     0.234 C 
ATOM     18  C   UNL     1       2.305   3.447   1.349  1.00  0.00     0.078 C 
ATOM     19  N   UNL     1       2.118   3.815  -1.024  1.00  0.00    -0.325 N 
ATOM     20  C   UNL     1       2.554   4.924   1.077  1.00  0.00     0.068 C 
ATOM     21  C   UNL     1       2.557   5.089  -0.437  1.00  0.00     0.263 C 
ATOM     22  H   UNL     1       2.591   3.579  -1.896  1.00  0.00     0.348 HD
BRANCH  19  23
ATOM     23  C   UNL     1       0.722   3.863  -1.511  1.00  0.00     0.178 C 
ATOM     24  C   UNL     1      -0.354   4.211  -0.474  1.00  0.00     0.075 C 
ATOM     25  C   UNL     1       0.538   4.763  -2.742  1.00  0.00     0.075 C 
ENDBRANCH  19  23
ENDBRANCH  15  17
ENDBRANCH   9  10
ENDBRANCH   8   9
ENDBRANCH   5   8
ENDBRANCH   3   4
ENDBRANCH   2   3
ENDBRANCH   1   2
BRANCH   1  26
ATOM     26  C   UNL     1      -4.022   0.059   1.625  1.00  0.00     0.002 C 
BRANCH  26  27
ATOM     27  C   UNL     1      -3.308   1.420   1.609  1.00  0.00     0.021 C 
BRANCH  27  28
ATOM     28  C   UNL     1      -3.640   2.457   0.519  1.00  0.00     0.116 C 
BRANCH  28  29
ATOM     29  N   UNL     1      -5.045   2.768   0.337  1.00  0.00    -0.352 N 
ATOM     30  C   UNL     1      -5.642   3.970   0.009  1.00  0.00     0.251 C 
ATOM     31  H   UNL     1      -5.663   2.012   0.466  1.00  0.00     0.163 HD
ATOM     32  O   UNL     1      -6.856   4.013  -0.155  1.00  0.00    -0.269 OA
BRANCH  30  33
ATOM     33  C   UNL     1      -4.849   5.223  -0.102  1.00  0.00     0.039 A 
ATOM     34  C   UNL     1      -5.262   6.337   0.635  1.00  0.00     0.014 A 
ATOM     35  C   UNL     1      -3.747   5.340  -0.949  1.00  0.00     0.014 A 
ATOM     36  C   UNL     1      -4.530   7.532   0.582  1.00  0.00     0.010 A 
ATOM     37  C   UNL     1      -2.984   6.520  -0.959  1.00  0.00     0.010 A 
ATOM     38  C   UNL     1      -3.355   7.631  -0.183  1.00  0.00    -0.014 A 
BRANCH  38  39
ATOM     39  C   UNL     1      -2.522   8.876  -0.146  1.00  0.00     0.031 A 
ATOM     40  C   UNL     1      -2.295   9.707  -1.387  1.00  0.00     0.074 A 
ATOM     41  C   UNL     1      -1.949   9.269   1.013  1.00  0.00     0.049 A 
ATOM     42  N   UNL     1      -1.619  10.822  -1.524  1.00  0.00    -0.248 NA
ATOM     43  C   UNL     1      -2.888   9.214  -2.640  1.00  0.00     0.031 C 
ATOM     44  C   UNL     1      -2.035   8.548   2.284  1.00  0.00     0.029 A 
ATOM     45  N   UNL     1      -1.183  10.373   1.316  1.00  0.00    -0.354 N 
ATOM     46  C   UNL     1      -1.706  11.164  -2.870  1.00  0.00     0.074 A 
ATOM     47  C   UNL     1      -2.451  10.106  -3.519  1.00  0.00     0.031 C 
ATOM     48  C   UNL     1      -1.383   9.241   3.233  1.00  0.00     0.029 A 
ATOM     49  C   UNL     1      -0.795  10.437   2.636  1.00  0.00     0.049 A 
ATOM     50  H   UNL     1      -0.934  11.053   0.650  1.00  0.00     0.167 HD
ATOM     51  C   UNL     1      -1.234  12.265  -3.506  1.00  0.00     0.037 A 
ATOM     52  C   UNL     1      -0.050  11.347   3.299  1.00  0.00     0.037 A 
ATOM     53  C   UNL     1      -0.506  13.332  -2.865  1.00  0.00     0.049 A 
ATOM     54  C   UNL     1       0.478  12.553   2.566  1.00  0.00     0.074 A 
ATOM     55  C   UNL     1      -0.038  14.510  -3.424  1.00  0.00     0.029 A 
ATOM     56  N   UNL     1      -0.134  13.354  -1.529  1.00  0.00    -0.354 N 
ATOM     57  N   UNL     1       0.320  12.889   1.308  1.00  0.00    -0.248 NA
ATOM     58  C   UNL     1       1.283  13.508   3.343  1.00  0.00     0.031 C 
ATOM     59  C   UNL     1       0.664  15.217  -2.443  1.00  0.00     0.029 A 
ATOM     60  C   UNL     1       0.581  14.511  -1.255  1.00  0.00     0.049 A 
ATOM     61  H   UNL     1      -0.346  12.652  -0.872  1.00  0.00     0.167 HD
ATOM     62  C   UNL     1       0.978  14.106   1.153  1.00  0.00     0.074 A 
ATOM     63  C   UNL     1       1.522  14.456   2.447  1.00  0.00     0.031 C 
ATOM     64  C   UNL     1       1.116  14.864   0.037  1.00  0.00     0.037 A 
BRANCH  51  65
ATOM     65  C   UNL     1      -1.496  12.391  -4.986  1.00  0.00     0.058 A 
ATOM     66  C   UNL     1      -2.785  12.636  -5.487  1.00  0.00     0.135 A 
ATOM     67  C   UNL     1      -0.438  12.335  -5.909  1.00  0.00     0.135 A 
ATOM     68  F   UNL     1      -3.836  12.691  -4.653  1.00  0.00    -0.206 F 
ATOM     69  C   UNL     1      -3.019  12.795  -6.849  1.00  0.00     0.059 A 
ATOM     70  C   UNL     1      -0.645  12.521  -7.273  1.00  0.00     0.059 A 
ATOM     71  F   UNL     1       0.816  12.110  -5.486  1.00  0.00    -0.206 F 
ATOM     72  C   UNL     1      -1.942  12.739  -7.735  1.00  0.00     0.060 A 
BRANCH  72  73
ATOM     73  S   UNL     1      -2.264  12.964  -9.497  1.00  0.00     0.124 S 
ATOM     74  O   UNL     1      -2.957  11.722  -9.827  1.00  0.00    -0.237 OA
ATOM     75  O   UNL     1      -3.085  14.170  -9.511  1.00  0.00    -0.237 OA
ATOM     76  O   UNL     1      -0.931  13.109 -10.072  1.00  0.00    -0.744 OA
ENDBRANCH  72  73
ENDBRANCH  51  65
BRANCH  52  77
ATOM     77  C   UNL     1       0.243  11.163   4.749  1.00  0.00     0.058 A 
ATOM     78  C   UNL     1      -0.284  12.033   5.716  1.00  0.00     0.135 A 
ATOM     79  C   UNL     1       1.076  10.124   5.196  1.00  0.00     0.135 A 
ATOM     80  F   UNL     1      -1.077  13.050   5.342  1.00  0.00    -0.206 F 
ATOM     81  C   UNL     1       0.021  11.898   7.067  1.00  0.00     0.059 A 
ATOM     82  C   UNL     1       1.371   9.949   6.544  1.00  0.00     0.059 A 
ATOM     83  F   UNL     1       1.599   9.255   4.316  1.00  0.00    -0.206 F 
ATOM     84  C   UNL     1       0.850  10.850   7.471  1.00  0.00     0.060 A 
BRANCH  84  85
ATOM     85  S   UNL     1       1.216  10.662   9.230  1.00  0.00     0.124 S 
ATOM     86  O   UNL     1       2.117  11.784   9.465  1.00  0.00    -0.237 OA
ATOM     87  O   UNL     1      -0.109  10.768   9.831  1.00  0.00    -0.237 OA
ATOM     88  O   UNL     1       1.825   9.337   9.305  1.00  0.00    -0.744 OA
ENDBRANCH  84  85
ENDBRANCH  52  77
BRANCH  64  89
ATOM     89  C   UNL     1       1.856  16.170   0.162  1.00  0.00     0.058 A 
ATOM     90  C   UNL     1       3.244  16.221   0.364  1.00  0.00     0.135 A 
ATOM     91  C   UNL     1       1.173  17.391   0.026  1.00  0.00     0.135 A 
ATOM     92  F   UNL     1       3.948  15.087   0.508  1.00  0.00    -0.206 F 
ATOM     93  C   UNL     1       3.924  17.433   0.452  1.00  0.00     0.059 A 
ATOM     94  C   UNL     1       1.837  18.613   0.080  1.00  0.00     0.059 A 
ATOM     95  F   UNL     1      -0.154  17.404  -0.178  1.00  0.00    -0.206 F 
ATOM     96  C   UNL     1       3.212  18.624   0.305  1.00  0.00     0.060 A 
BRANCH  96  97
ATOM     97  S   UNL     1       4.113  20.187   0.387  1.00  0.00     0.124 S 
ATOM     98  O   UNL     1       4.432  20.269   1.809  1.00  0.00    -0.237 OA
ATOM     99  O   UNL     1       5.243  19.942  -0.503  1.00  0.00    -0.237 OA
ATOM    100  O   UNL     1       3.143  21.166  -0.096  1.00  0.00    -0.744 OA
ENDBRANCH  96  97
ENDBRANCH  64  89
ENDBRANCH  38  39
ENDBRANCH  30  33
ENDBRANCH  28  29
ENDBRANCH  27  28
ENDBRANCH  26  27
ENDBRANCH   1  26
TORSDOF 20
