REMARK SMILES COc1cccc(CC2(CO)CCN(c3nc(C)ccc3C(=O)NCCCCCCNC(=O)c3ccc(-c4c5nc(c(-c6c(F)cc(S(=O)(=O)[O-])cc6F)c6ccc([nH]6)c(-c6c(F)cc(S(=O)(=O)[O-])cc6F)c6nc(c(-c7c(F)cc(S(=O)(=O)[O-])cc7F)c7ccc4[nH]7)C=C6)C=C5)cc3)CC2)c1
REMARK SMILES IDX 27 1 26 2 25 3 24 4 22 5 23 6 21 8 15 9 16 10 17 11 20 12
REMARK SMILES IDX 18 13 19 14 14 15 9 16 12 17 101 18 13 19 100 20 8 21 7 22
REMARK SMILES IDX 3 23 4 24 102 25 5 26 6 27 2 28 1 29 10 30 11 31 28 33 29 34
REMARK SMILES IDX 30 35 31 36 32 37 33 39 34 40 35 41 99 42 36 43 98 44 37 45
REMARK SMILES IDX 38 46 39 47 92 48 40 49 97 50 91 51 93 52 41 53 96 54 90 55
REMARK SMILES IDX 89 56 42 58 76 59 55 60 75 61 56 62 59 63 74 64 94 65 57 66
REMARK SMILES IDX 58 67 73 69 95 70 60 71 43 72 44 73 53 74 45 75 46 76 52 77
REMARK SMILES IDX 54 78 47 79 48 80 49 81 50 82 51 83 77 84 78 85 87 86 79 87
REMARK SMILES IDX 80 88 86 89 88 90 81 91 82 92 83 93 84 94 85 95 61 96 62 97
REMARK SMILES IDX 71 98 63 99 64 100 70 101 72 102 65 103 66 104 67 105 68 106
REMARK SMILES IDX 69 107
REMARK H PARENT 24 7 11 32 31 38 93 57 59 68
REMARK Flexibility Score: inf
ROOT
ATOM      1  C   UNL     1      -2.134  -0.768   6.677  1.00  0.00     0.002 C 
ENDROOT
BRANCH   1   2
ATOM      2  C   UNL     1      -1.569  -2.080   7.246  1.00  0.00     0.021 C 
BRANCH   2   3
ATOM      3  C   UNL     1      -1.843  -3.295   6.362  1.00  0.00     0.116 C 
BRANCH   3   4
ATOM      4  N   UNL     1      -0.969  -3.298   5.209  1.00  0.00    -0.352 N 
ATOM      5  C   UNL     1       0.157  -3.965   4.799  1.00  0.00     0.255 C 
ATOM      6  O   UNL     1       0.429  -3.722   3.624  1.00  0.00    -0.269 OA
ATOM      7  H   UNL     1      -1.263  -2.643   4.535  1.00  0.00     0.163 HD
BRANCH   5   8
ATOM      8  C   UNL     1       0.954  -4.961   5.593  1.00  0.00     0.082 A 
ATOM      9  C   UNL     1       2.002  -5.709   5.008  1.00  0.00     0.141 A 
ATOM     10  N   UNL     1       2.462  -6.851   5.600  1.00  0.00    -0.235 NA
ATOM     11  C   UNL     1       1.993  -7.231   6.804  1.00  0.00     0.040 A 
ATOM     12  C   UNL     1       0.610  -5.298   6.908  1.00  0.00     0.019 A 
ATOM     13  C   UNL     1       2.501  -8.532   7.342  1.00  0.00     0.067 C 
ATOM     14  C   UNL     1       1.113  -6.447   7.516  1.00  0.00     0.024 A 
BRANCH   9  15
ATOM     15  N   UNL     1       2.720  -5.393   3.874  1.00  0.00    -0.356 N 
ATOM     16  C   UNL     1       4.558  -5.034   1.623  1.00  0.00     0.001 C 
ATOM     17  C   UNL     1       3.870  -6.387   1.951  1.00  0.00     0.031 C 
ATOM     18  C   UNL     1       4.535  -4.110   2.870  1.00  0.00     0.031 C 
ATOM     19  C   UNL     1       2.575  -6.310   2.761  1.00  0.00     0.119 C 
ATOM     20  C   UNL     1       3.196  -4.049   3.602  1.00  0.00     0.119 C 
BRANCH  16  21
ATOM     21  C   UNL     1       3.993  -4.357   0.324  1.00  0.00     0.045 C 
BRANCH  21  22
ATOM     22  C   UNL     1       2.563  -3.876   0.275  1.00  0.00    -0.044 A 
ATOM     23  C   UNL     1       0.913  -2.117   0.567  1.00  0.00     0.119 A 
ATOM     24  C   UNL     1      -0.114  -3.029   0.344  1.00  0.00     0.046 A 
ATOM     25  C   UNL     1       2.246  -2.535   0.545  1.00  0.00     0.050 A 
ATOM     26  C   UNL     1       0.192  -4.348   0.017  1.00  0.00     0.004 A 
ATOM     27  C   UNL     1       1.524  -4.761  -0.045  1.00  0.00     0.004 A 
BRANCH  23  28
ATOM     28  O   UNL     1       0.548  -0.838   0.895  1.00  0.00    -0.497 OA
ATOM     29  C   UNL     1       1.103   0.120  -0.002  1.00  0.00     0.278 C 
ENDBRANCH  23  28
ENDBRANCH  21  22
ENDBRANCH  16  21
BRANCH  16  30
ATOM     30  C   UNL     1       6.065  -5.321   1.331  1.00  0.00     0.163 C 
BRANCH  30  31
ATOM     31  O   UNL     1       6.246  -6.189   0.217  1.00  0.00    -0.396 OA
ATOM     32  H   UNL     1       5.828  -7.044   0.403  1.00  0.00     0.210 HD
ENDBRANCH  30  31
ENDBRANCH  16  30
ENDBRANCH   9  15
ENDBRANCH   5   8
ENDBRANCH   3   4
ENDBRANCH   2   3
ENDBRANCH   1   2
BRANCH   1  33
ATOM     33  C   UNL     1      -3.650  -0.752   6.439  1.00  0.00     0.002 C 
BRANCH  33  34
ATOM     34  C   UNL     1      -4.505  -1.210   7.624  1.00  0.00     0.021 C 
BRANCH  34  35
ATOM     35  C   UNL     1      -4.331  -0.381   8.892  1.00  0.00     0.116 C 
BRANCH  35  36
ATOM     36  N   UNL     1      -4.798   0.982   8.713  1.00  0.00    -0.352 N 
ATOM     37  C   UNL     1      -5.659   1.713   9.489  1.00  0.00     0.251 C 
ATOM     38  H   UNL     1      -4.447   1.448   7.920  1.00  0.00     0.163 HD
ATOM     39  O   UNL     1      -6.106   2.777   9.061  1.00  0.00    -0.269 OA
BRANCH  37  40
ATOM     40  C   UNL     1      -6.059   1.230  10.829  1.00  0.00     0.039 A 
ATOM     41  C   UNL     1      -7.388   1.389  11.231  1.00  0.00     0.014 A 
ATOM     42  C   UNL     1      -5.126   0.672  11.709  1.00  0.00     0.014 A 
ATOM     43  C   UNL     1      -7.786   0.969  12.502  1.00  0.00     0.010 A 
ATOM     44  C   UNL     1      -5.537   0.193  12.951  1.00  0.00     0.010 A 
ATOM     45  C   UNL     1      -6.866   0.357  13.369  1.00  0.00    -0.014 A 
BRANCH  45  46
ATOM     46  C   UNL     1      -7.279  -0.081  14.727  1.00  0.00     0.031 A 
ATOM     47  C   UNL     1      -6.704   0.592  15.945  1.00  0.00     0.074 A 
ATOM     48  C   UNL     1      -8.137  -1.109  14.864  1.00  0.00     0.049 A 
ATOM     49  N   UNL     1      -6.931   0.344  17.210  1.00  0.00    -0.248 NA
ATOM     50  C   UNL     1      -5.723   1.664  15.713  1.00  0.00     0.031 C 
ATOM     51  C   UNL     1      -8.711  -1.883  13.762  1.00  0.00     0.029 A 
ATOM     52  N   UNL     1      -8.671  -1.686  15.989  1.00  0.00    -0.354 N 
ATOM     53  C   UNL     1      -6.110   1.212  17.921  1.00  0.00     0.074 A 
ATOM     54  C   UNL     1      -5.343   1.958  16.948  1.00  0.00     0.031 C 
ATOM     55  C   UNL     1      -9.529  -2.822  14.264  1.00  0.00     0.029 A 
ATOM     56  C   UNL     1      -9.524  -2.730  15.721  1.00  0.00     0.049 A 
ATOM     57  H   UNL     1      -8.463  -1.380  16.901  1.00  0.00     0.167 HD
ATOM     58  C   UNL     1      -6.019   1.386  19.262  1.00  0.00     0.037 A 
ATOM     59  C   UNL     1     -10.224  -3.522  16.555  1.00  0.00     0.037 A 
ATOM     60  C   UNL     1      -6.813   0.667  20.223  1.00  0.00     0.049 A 
ATOM     61  C   UNL     1     -10.153  -3.273  18.036  1.00  0.00     0.074 A 
ATOM     62  C   UNL     1      -6.856   0.826  21.597  1.00  0.00     0.029 A 
ATOM     63  N   UNL     1      -7.705  -0.349  19.910  1.00  0.00    -0.354 N 
ATOM     64  N   UNL     1      -9.433  -2.391  18.688  1.00  0.00    -0.248 NA
ATOM     65  C   UNL     1     -11.002  -4.111  18.893  1.00  0.00     0.031 C 
ATOM     66  C   UNL     1      -7.748  -0.119  22.119  1.00  0.00     0.029 A 
ATOM     67  C   UNL     1      -8.291  -0.838  21.066  1.00  0.00     0.049 A 
ATOM     68  H   UNL     1      -7.893  -0.675  19.000  1.00  0.00     0.167 HD
ATOM     69  C   UNL     1      -9.756  -2.554  20.031  1.00  0.00     0.074 A 
ATOM     70  C   UNL     1     -10.748  -3.609  20.095  1.00  0.00     0.031 C 
ATOM     71  C   UNL     1      -9.276  -1.890  21.112  1.00  0.00     0.037 A 
BRANCH  58  72
ATOM     72  C   UNL     1      -5.024   2.397  19.764  1.00  0.00     0.058 A 
ATOM     73  C   UNL     1      -5.215   3.776  19.583  1.00  0.00     0.135 A 
ATOM     74  C   UNL     1      -3.870   1.982  20.448  1.00  0.00     0.135 A 
ATOM     75  F   UNL     1      -6.294   4.228  18.923  1.00  0.00    -0.206 F 
ATOM     76  C   UNL     1      -4.280   4.706  20.026  1.00  0.00     0.059 A 
ATOM     77  C   UNL     1      -2.934   2.897  20.925  1.00  0.00     0.059 A 
ATOM     78  F   UNL     1      -3.636   0.676  20.652  1.00  0.00    -0.206 F 
ATOM     79  C   UNL     1      -3.139   4.256  20.692  1.00  0.00     0.060 A 
BRANCH  79  80
ATOM     80  S   UNL     1      -1.927   5.471  21.250  1.00  0.00     0.124 S 
ATOM     81  O   UNL     1      -1.269   5.822  19.994  1.00  0.00    -0.237 OA
ATOM     82  O   UNL     1      -2.768   6.510  21.835  1.00  0.00    -0.237 OA
ATOM     83  O   UNL     1      -1.109   4.723  22.199  1.00  0.00    -0.744 OA
ENDBRANCH  79  80
ENDBRANCH  58  72
BRANCH  59  84
ATOM     84  C   UNL     1     -11.082  -4.599  15.996  1.00  0.00     0.058 A 
ATOM     85  C   UNL     1     -12.479  -4.478  15.984  1.00  0.00     0.135 A 
ATOM     86  C   UNL     1     -10.520  -5.751  15.426  1.00  0.00     0.135 A 
ATOM     87  F   UNL     1     -13.063  -3.396  16.523  1.00  0.00    -0.206 F 
ATOM     88  C   UNL     1     -13.291  -5.464  15.433  1.00  0.00     0.059 A 
ATOM     89  C   UNL     1     -11.309  -6.741  14.848  1.00  0.00     0.059 A 
ATOM     90  F   UNL     1      -9.187  -5.905  15.396  1.00  0.00    -0.206 F 
ATOM     91  C   UNL     1     -12.696  -6.590  14.862  1.00  0.00     0.060 A 
BRANCH  91  92
ATOM     92  S   UNL     1     -13.753  -7.830  14.083  1.00  0.00     0.124 S 
ATOM     93  O   UNL     1     -14.316  -8.508  15.245  1.00  0.00    -0.237 OA
ATOM     94  O   UNL     1     -14.679  -7.005  13.313  1.00  0.00    -0.237 OA
ATOM     95  O   UNL     1     -12.815  -8.615  13.285  1.00  0.00    -0.744 OA
ENDBRANCH  91  92
ENDBRANCH  59  84
BRANCH  71  96
ATOM     96  C   UNL     1      -9.835  -2.269  22.454  1.00  0.00     0.058 A 
ATOM     97  C   UNL     1      -9.485  -3.473  23.084  1.00  0.00     0.135 A 
ATOM     98  C   UNL     1     -10.702  -1.399  23.135  1.00  0.00     0.135 A 
ATOM     99  F   UNL     1      -8.664  -4.341  22.473  1.00  0.00    -0.206 F 
ATOM    100  C   UNL     1      -9.998  -3.816  24.331  1.00  0.00     0.059 A 
ATOM    101  C   UNL     1     -11.207  -1.710  24.393  1.00  0.00     0.059 A 
ATOM    102  F   UNL     1     -11.058  -0.229  22.581  1.00  0.00    -0.206 F 
ATOM    103  C   UNL     1     -10.861  -2.928  24.977  1.00  0.00     0.060 A 
BRANCH 103 104
ATOM    104  S   UNL     1     -11.508  -3.374  26.602  1.00  0.00     0.124 S 
ATOM    105  O   UNL     1     -12.537  -4.347  26.251  1.00  0.00    -0.237 OA
ATOM    106  O   UNL     1     -10.329  -3.911  27.274  1.00  0.00    -0.237 OA
ATOM    107  O   UNL     1     -11.998  -2.104  27.131  1.00  0.00    -0.744 OA
ENDBRANCH 103 104
ENDBRANCH  71  96
ENDBRANCH  45  46
ENDBRANCH  37  40
ENDBRANCH  35  36
ENDBRANCH  34  35
ENDBRANCH  33  34
ENDBRANCH   1  33
TORSDOF 22
