REMARK SMILES Nc1cc(C(=O)NCCCCCCNC(=O)c2ccc(-c3c4nc(c(-c5c(F)cc(S(=O)(=O)[O-])cc5F)c5ccc([nH]5)c(-c5c(F)cc(S(=O)(=O)[O-])cc5F)c5nc(c(-c6c(F)cc(S(=O)(=O)[O-])cc6F)c6ccc3[nH]6)C=C5)C=C4)cc2)ccc1N1CC2(CCOCC2)C1
REMARK SMILES IDX 11 1 10 2 9 3 8 4 7 5 5 6 6 7 4 9 2 10 3 11 85 12 84 13
REMARK SMILES IDX 83 14 1 15 86 18 87 19 94 20 88 21 89 22 93 23 90 24 92 25
REMARK SMILES IDX 91 26 12 27 13 28 14 29 15 30 16 32 17 33 18 34 82 35 19 36
REMARK SMILES IDX 81 37 20 38 21 39 22 40 75 41 23 42 80 43 74 44 76 45 24 46
REMARK SMILES IDX 79 47 73 48 72 49 25 51 59 52 38 53 58 54 39 55 42 56 57 57
REMARK SMILES IDX 77 58 40 59 41 60 56 62 78 63 43 64 26 65 27 66 36 67 28 68
REMARK SMILES IDX 29 69 35 70 37 71 30 72 31 73 32 74 33 75 34 76 60 77 61 78
REMARK SMILES IDX 70 79 62 80 63 81 69 82 71 83 64 84 65 85 66 86 67 87 68 88
REMARK SMILES IDX 44 89 45 90 54 91 46 92 47 93 53 94 55 95 48 96 49 97 50 98
REMARK SMILES IDX 51 99 52 100
REMARK H PARENT 7 8 1 16 1 17 14 31 76 50 42 61
REMARK Flexibility Score: inf
ROOT
ATOM      1  C   UNL     1      -7.085  -2.693  -0.081  1.00  0.00     0.002 C 
ENDROOT
BRANCH   1   2
ATOM      2  C   UNL     1      -6.015  -2.612  -1.179  1.00  0.00     0.002 C 
BRANCH   2   3
ATOM      3  C   UNL     1      -5.016  -1.456  -1.013  1.00  0.00     0.021 C 
BRANCH   3   4
ATOM      4  C   UNL     1      -4.246  -1.530   0.306  1.00  0.00     0.116 C 
BRANCH   4   5
ATOM      5  N   UNL     1      -3.137  -2.447   0.174  1.00  0.00    -0.352 N 
ATOM      6  C   UNL     1      -1.806  -2.302  -0.093  1.00  0.00     0.251 C 
ATOM      7  O   UNL     1      -1.171  -3.353  -0.223  1.00  0.00    -0.269 OA
ATOM      8  H   UNL     1      -3.400  -3.386   0.307  1.00  0.00     0.163 HD
BRANCH   6   9
ATOM      9  C   UNL     1      -1.073  -1.000  -0.175  1.00  0.00     0.041 A 
ATOM     10  C   UNL     1       1.152   0.026  -0.131  1.00  0.00     0.056 A 
ATOM     11  C   UNL     1       0.328  -1.102  -0.177  1.00  0.00     0.041 A 
ATOM     12  C   UNL     1       0.572   1.311  -0.112  1.00  0.00     0.060 A 
ATOM     13  C   UNL     1      -0.818   1.421  -0.151  1.00  0.00     0.029 A 
ATOM     14  C   UNL     1      -1.629   0.279  -0.226  1.00  0.00     0.016 A 
BRANCH  10  15
ATOM     15  N   UNL     1       2.537  -0.148  -0.167  1.00  0.00    -0.397 N 
ATOM     16  H   UNL     1       2.919  -1.055  -0.179  1.00  0.00     0.156 HD
ATOM     17  H   UNL     1       3.131   0.637  -0.180  1.00  0.00     0.156 HD
ENDBRANCH  10  15
BRANCH  12  18
ATOM     18  N   UNL     1       1.378   2.447   0.015  1.00  0.00    -0.369 N 
ATOM     19  C   UNL     1       2.310   3.032  -0.890  1.00  0.00     0.125 C 
ATOM     20  C   UNL     1       1.262   3.623   0.814  1.00  0.00     0.125 C 
ATOM     21  C   UNL     1       2.681   3.977   0.287  1.00  0.00     0.010 C 
ATOM     22  C   UNL     1       2.942   5.439  -0.058  1.00  0.00     0.039 C 
ATOM     23  C   UNL     1       3.818   3.443   1.179  1.00  0.00     0.039 C 
ATOM     24  C   UNL     1       4.321   5.547  -0.704  1.00  0.00     0.161 C 
ATOM     25  C   UNL     1       5.140   3.645   0.452  1.00  0.00     0.161 C 
ATOM     26  O   UNL     1       5.335   5.032   0.166  1.00  0.00    -0.381 OA
ENDBRANCH  12  18
ENDBRANCH   6   9
ENDBRANCH   4   5
ENDBRANCH   3   4
ENDBRANCH   2   3
ENDBRANCH   1   2
BRANCH   1  27
ATOM     27  C   UNL     1      -7.850  -1.389   0.161  1.00  0.00     0.021 C 
BRANCH  27  28
ATOM     28  C   UNL     1      -8.634  -0.902  -1.052  1.00  0.00     0.116 C 
BRANCH  28  29
ATOM     29  N   UNL     1      -9.677  -1.848  -1.419  1.00  0.00    -0.352 N 
ATOM     30  C   UNL     1     -11.031  -1.648  -1.510  1.00  0.00     0.251 C 
ATOM     31  H   UNL     1      -9.367  -2.757  -1.633  1.00  0.00     0.163 HD
ATOM     32  O   UNL     1     -11.791  -2.608  -1.570  1.00  0.00    -0.269 OA
BRANCH  30  33
ATOM     33  C   UNL     1     -11.561  -0.270  -1.529  1.00  0.00     0.039 A 
ATOM     34  C   UNL     1     -12.686   0.037  -0.762  1.00  0.00     0.014 A 
ATOM     35  C   UNL     1     -10.951   0.714  -2.314  1.00  0.00     0.014 A 
ATOM     36  C   UNL     1     -13.170   1.346  -0.744  1.00  0.00     0.010 A 
ATOM     37  C   UNL     1     -11.388   2.031  -2.235  1.00  0.00     0.010 A 
ATOM     38  C   UNL     1     -12.508   2.359  -1.457  1.00  0.00    -0.014 A 
BRANCH  38  39
ATOM     39  C   UNL     1     -12.975   3.767  -1.407  1.00  0.00     0.031 A 
ATOM     40  C   UNL     1     -13.463   4.444  -2.660  1.00  0.00     0.074 A 
ATOM     41  C   UNL     1     -12.899   4.452  -0.249  1.00  0.00     0.049 A 
ATOM     42  N   UNL     1     -13.846   5.682  -2.833  1.00  0.00    -0.248 NA
ATOM     43  C   UNL     1     -13.500   3.628  -3.885  1.00  0.00     0.031 C 
ATOM     44  C   UNL     1     -12.398   3.916   1.019  1.00  0.00     0.029 A 
ATOM     45  N   UNL     1     -13.233   5.749   0.049  1.00  0.00    -0.354 N 
ATOM     46  C   UNL     1     -14.156   5.798  -4.183  1.00  0.00     0.074 A 
ATOM     47  C   UNL     1     -13.863   4.520  -4.795  1.00  0.00     0.031 C 
ATOM     48  C   UNL     1     -12.479   4.868   1.962  1.00  0.00     0.029 A 
ATOM     49  C   UNL     1     -12.996   6.093   1.359  1.00  0.00     0.049 A 
ATOM     50  H   UNL     1     -13.606   6.375  -0.613  1.00  0.00     0.167 HD
ATOM     51  C   UNL     1     -14.662   6.864  -4.846  1.00  0.00     0.037 A 
ATOM     52  C   UNL     1     -13.168   7.265   2.001  1.00  0.00     0.037 A 
ATOM     53  C   UNL     1     -14.972   8.125  -4.223  1.00  0.00     0.049 A 
ATOM     54  C   UNL     1     -13.727   8.438   1.241  1.00  0.00     0.074 A 
ATOM     55  C   UNL     1     -15.539   9.250  -4.793  1.00  0.00     0.029 A 
ATOM     56  N   UNL     1     -14.738   8.428  -2.889  1.00  0.00    -0.354 N 
ATOM     57  N   UNL     1     -14.075   8.511  -0.022  1.00  0.00    -0.248 NA
ATOM     58  C   UNL     1     -13.924   9.685   1.992  1.00  0.00     0.031 C 
ATOM     59  C   UNL     1     -15.602  10.250  -3.818  1.00  0.00     0.029 A 
ATOM     60  C   UNL     1     -15.129   9.730  -2.624  1.00  0.00     0.049 A 
ATOM     61  H   UNL     1     -14.351   7.809  -2.228  1.00  0.00     0.167 HD
ATOM     62  C   UNL     1     -14.562   9.800  -0.208  1.00  0.00     0.074 A 
ATOM     63  C   UNL     1     -14.471  10.469   1.073  1.00  0.00     0.031 C 
ATOM     64  C   UNL     1     -15.043  10.377  -1.338  1.00  0.00     0.037 A 
BRANCH  51  65
ATOM     65  C   UNL     1     -14.917   6.715  -6.322  1.00  0.00     0.058 A 
ATOM     66  C   UNL     1     -15.937   5.887  -6.816  1.00  0.00     0.135 A 
ATOM     67  C   UNL     1     -14.157   7.441  -7.255  1.00  0.00     0.135 A 
ATOM     68  F   UNL     1     -16.685   5.158  -5.972  1.00  0.00    -0.206 F 
ATOM     69  C   UNL     1     -16.176   5.760  -8.181  1.00  0.00     0.059 A 
ATOM     70  C   UNL     1     -14.399   7.353  -8.623  1.00  0.00     0.059 A 
ATOM     71  F   UNL     1     -13.168   8.248  -6.840  1.00  0.00    -0.206 F 
ATOM     72  C   UNL     1     -15.402   6.498  -9.077  1.00  0.00     0.060 A 
BRANCH  72  73
ATOM     73  S   UNL     1     -15.732   6.328 -10.843  1.00  0.00     0.124 S 
ATOM     74  O   UNL     1     -15.216   4.988 -11.108  1.00  0.00    -0.237 OA
ATOM     75  O   UNL     1     -17.183   6.472 -10.904  1.00  0.00    -0.237 OA
ATOM     76  O   UNL     1     -14.971   7.421 -11.439  1.00  0.00    -0.744 OA
ENDBRANCH  72  73
ENDBRANCH  51  65
BRANCH  52  77
ATOM     77  C   UNL     1     -12.827   7.380   3.444  1.00  0.00     0.058 A 
ATOM     78  C   UNL     1     -13.829   7.534   4.414  1.00  0.00     0.135 A 
ATOM     79  C   UNL     1     -11.495   7.325   3.885  1.00  0.00     0.135 A 
ATOM     80  F   UNL     1     -15.117   7.596   4.043  1.00  0.00    -0.206 F 
ATOM     81  C   UNL     1     -13.524   7.649   5.766  1.00  0.00     0.059 A 
ATOM     82  C   UNL     1     -11.167   7.410   5.234  1.00  0.00     0.059 A 
ATOM     83  F   UNL     1     -10.500   7.159   3.000  1.00  0.00    -0.206 F 
ATOM     84  C   UNL     1     -12.188   7.583   6.167  1.00  0.00     0.060 A 
BRANCH  84  85
ATOM     85  S   UNL     1     -11.806   7.691   7.928  1.00  0.00     0.124 S 
ATOM     86  O   UNL     1     -12.066   9.100   8.199  1.00  0.00    -0.237 OA
ATOM     87  O   UNL     1     -12.755   6.744   8.505  1.00  0.00    -0.237 OA
ATOM     88  O   UNL     1     -10.406   7.282   7.993  1.00  0.00    -0.744 OA
ENDBRANCH  84  85
ENDBRANCH  52  77
BRANCH  64  89
ATOM     89  C   UNL     1     -15.551  11.789  -1.234  1.00  0.00     0.058 A 
ATOM     90  C   UNL     1     -14.683  12.880  -1.075  1.00  0.00     0.135 A 
ATOM     91  C   UNL     1     -16.925  12.056  -1.357  1.00  0.00     0.135 A 
ATOM     92  F   UNL     1     -13.362  12.680  -0.945  1.00  0.00    -0.206 F 
ATOM     93  C   UNL     1     -15.161  14.185  -1.019  1.00  0.00     0.059 A 
ATOM     94  C   UNL     1     -17.422  13.355  -1.335  1.00  0.00     0.059 A 
ATOM     95  F   UNL     1     -17.798  11.049  -1.522  1.00  0.00    -0.206 F 
ATOM     96  C   UNL     1     -16.532  14.413  -1.155  1.00  0.00     0.060 A 
BRANCH  96  97
ATOM     97  S   UNL     1     -17.134  16.115  -1.122  1.00  0.00     0.124 S 
ATOM     98  O   UNL     1     -16.988  16.451   0.291  1.00  0.00    -0.237 OA
ATOM     99  O   UNL     1     -16.213  16.788  -2.032  1.00  0.00    -0.237 OA
ATOM    100  O   UNL     1     -18.508  16.000  -1.601  1.00  0.00    -0.744 OA
ENDBRANCH  96  97
ENDBRANCH  64  89
ENDBRANCH  38  39
ENDBRANCH  30  33
ENDBRANCH  28  29
ENDBRANCH  27  28
ENDBRANCH   1  27
TORSDOF 18
