REMARK SMILES CC(C)(CC(=O)NCCCCCCNC(=O)c1ccc(-c2c3nc(c(-c4c(F)cc(S(=O)(=O)[O-])cc4F)c4ccc([nH]4)c(-c4c(F)cc(S(=O)(=O)[O-])cc4F)c4nc(c(-c5c(F)cc(S(=O)(=O)[O-])cc5F)c5ccc2[nH]5)C=C4)C=C3)cc1)NC(=O)c1nc(C(C)(C)C)n[nH]1
REMARK SMILES IDX 10 1 9 2 8 3 7 4 5 5 6 6 4 8 2 9 1 10 3 11 83 12 84 13 85 15
REMARK SMILES IDX 86 16 87 17 94 18 88 19 93 20 89 22 90 23 91 24 92 25 11 26
REMARK SMILES IDX 12 27 13 28 14 29 15 30 16 32 17 33 18 34 82 35 19 36 81 37
REMARK SMILES IDX 20 38 21 39 22 40 75 41 23 42 80 43 74 44 76 45 24 46 79 47
REMARK SMILES IDX 73 48 72 49 25 51 59 52 38 53 58 54 39 55 42 56 57 57 77 58
REMARK SMILES IDX 40 59 41 60 56 62 78 63 43 64 26 65 27 66 36 67 28 68 29 69
REMARK SMILES IDX 35 70 37 71 30 72 31 73 32 74 33 75 34 76 60 77 61 78 70 79
REMARK SMILES IDX 62 80 63 81 69 82 71 83 64 84 65 85 66 86 67 87 68 88 44 89
REMARK SMILES IDX 45 90 54 91 46 92 47 93 53 94 55 95 48 96 49 97 50 98 51 99
REMARK SMILES IDX 52 100
REMARK H PARENT 7 7 83 14 94 21 14 31 76 50 42 61
REMARK Flexibility Score: inf
ROOT
ATOM      1  C   UNL     1      -0.648  -0.131   3.700  1.00  0.00     0.002 C 
ENDROOT
BRANCH   1   2
ATOM      2  C   UNL     1      -0.354  -0.674   2.307  1.00  0.00     0.021 C 
BRANCH   2   3
ATOM      3  C   UNL     1      -1.543  -0.685   1.354  1.00  0.00     0.116 C 
BRANCH   3   4
ATOM      4  N   UNL     1      -1.837   0.661   0.894  1.00  0.00    -0.356 N 
ATOM      5  C   UNL     1      -1.484   1.297  -0.253  1.00  0.00     0.222 C 
ATOM      6  O   UNL     1      -1.740   2.498  -0.359  1.00  0.00    -0.275 OA
ATOM      7  H   UNL     1      -2.381   1.199   1.514  1.00  0.00     0.163 HD
BRANCH   5   8
ATOM      8  C   UNL     1      -0.880   0.539  -1.416  1.00  0.00     0.127 C 
BRANCH   8   9
ATOM      9  C   UNL     1       0.663   0.571  -1.594  1.00  0.00     0.044 C 
ATOM     10  C   UNL     1       1.350  -0.559  -0.822  1.00  0.00     0.035 C 
ATOM     11  C   UNL     1       0.927   0.237  -3.090  1.00  0.00     0.035 C 
BRANCH   9  12
ATOM     12  N   UNL     1       1.224   1.929  -1.379  1.00  0.00    -0.344 N 
ATOM     13  C   UNL     1       1.691   2.657  -0.304  1.00  0.00     0.289 C 
ATOM     14  H   UNL     1       1.275   2.441  -2.219  1.00  0.00     0.164 HD
ATOM     15  O   UNL     1       1.679   3.882  -0.452  1.00  0.00    -0.266 OA
BRANCH  13  16
ATOM     16  C   UNL     1       2.288   2.027   0.849  1.00  0.00     0.214 A 
ATOM     17  N   UNL     1       2.059   2.328   2.120  1.00  0.00    -0.207 NA
ATOM     18  N   UNL     1       3.375   1.208   0.798  1.00  0.00    -0.255 N 
ATOM     19  C   UNL     1       3.028   1.632   2.809  1.00  0.00     0.156 A 
ATOM     20  N   UNL     1       3.833   0.905   2.019  1.00  0.00    -0.158 NA
ATOM     21  H   UNL     1       3.777   0.878  -0.038  1.00  0.00     0.192 HD
BRANCH  19  22
ATOM     22  C   UNL     1       3.231   1.692   4.312  1.00  0.00     0.024 C 
ATOM     23  C   UNL     1       4.337   2.702   4.667  1.00  0.00     0.019 C 
ATOM     24  C   UNL     1       1.965   2.111   5.090  1.00  0.00     0.019 C 
ATOM     25  C   UNL     1       3.687   0.314   4.825  1.00  0.00     0.019 C 
ENDBRANCH  19  22
ENDBRANCH  13  16
ENDBRANCH   9  12
ENDBRANCH   8   9
ENDBRANCH   5   8
ENDBRANCH   3   4
ENDBRANCH   2   3
ENDBRANCH   1   2
BRANCH   1  26
ATOM     26  C   UNL     1      -1.296  -1.094   4.691  1.00  0.00     0.002 C 
BRANCH  26  27
ATOM     27  C   UNL     1      -0.474  -2.337   5.065  1.00  0.00     0.021 C 
BRANCH  27  28
ATOM     28  C   UNL     1       0.911  -2.094   5.668  1.00  0.00     0.116 C 
BRANCH  28  29
ATOM     29  N   UNL     1       0.904  -1.410   6.950  1.00  0.00    -0.352 N 
ATOM     30  C   UNL     1       1.732  -1.602   8.034  1.00  0.00     0.251 C 
ATOM     31  H   UNL     1       0.213  -0.717   7.059  1.00  0.00     0.163 HD
ATOM     32  O   UNL     1       1.583  -0.925   9.050  1.00  0.00    -0.269 OA
BRANCH  30  33
ATOM     33  C   UNL     1       2.772  -2.655   8.005  1.00  0.00     0.039 A 
ATOM     34  C   UNL     1       2.751  -3.642   8.993  1.00  0.00     0.014 A 
ATOM     35  C   UNL     1       3.761  -2.683   7.018  1.00  0.00     0.014 A 
ATOM     36  C   UNL     1       3.674  -4.692   8.946  1.00  0.00     0.010 A 
ATOM     37  C   UNL     1       4.659  -3.750   6.950  1.00  0.00     0.010 A 
ATOM     38  C   UNL     1       4.611  -4.777   7.901  1.00  0.00    -0.014 A 
BRANCH  38  39
ATOM     39  C   UNL     1       5.470  -5.981   7.745  1.00  0.00     0.031 A 
ATOM     40  C   UNL     1       6.965  -5.900   7.884  1.00  0.00     0.074 A 
ATOM     41  C   UNL     1       4.888  -7.151   7.409  1.00  0.00     0.049 A 
ATOM     42  N   UNL     1       7.854  -6.855   7.781  1.00  0.00    -0.248 NA
ATOM     43  C   UNL     1       7.540  -4.573   8.152  1.00  0.00     0.031 C 
ATOM     44  C   UNL     1       3.455  -7.339   7.171  1.00  0.00     0.029 A 
ATOM     45  N   UNL     1       5.423  -8.398   7.202  1.00  0.00    -0.354 N 
ATOM     46  C   UNL     1       9.091  -6.250   7.972  1.00  0.00     0.074 A 
ATOM     47  C   UNL     1       8.841  -4.835   8.145  1.00  0.00     0.031 C 
ATOM     48  C   UNL     1       3.221  -8.628   6.882  1.00  0.00     0.029 A 
ATOM     49  C   UNL     1       4.487  -9.352   6.877  1.00  0.00     0.049 A 
ATOM     50  H   UNL     1       6.385  -8.591   7.279  1.00  0.00     0.167 HD
ATOM     51  C   UNL     1      10.318  -6.826   8.019  1.00  0.00     0.037 A 
ATOM     52  C   UNL     1       4.629 -10.664   6.603  1.00  0.00     0.037 A 
ATOM     53  C   UNL     1      10.555  -8.238   7.850  1.00  0.00     0.049 A 
ATOM     54  C   UNL     1       6.000 -11.280   6.667  1.00  0.00     0.074 A 
ATOM     55  C   UNL     1      11.752  -8.927   7.944  1.00  0.00     0.029 A 
ATOM     56  N   UNL     1       9.581  -9.177   7.540  1.00  0.00    -0.354 N 
ATOM     57  N   UNL     1       7.148 -10.708   6.940  1.00  0.00    -0.248 NA
ATOM     58  C   UNL     1       6.095 -12.721   6.396  1.00  0.00     0.031 C 
ATOM     59  C   UNL     1      11.511 -10.271   7.639  1.00  0.00     0.029 A 
ATOM     60  C   UNL     1      10.154 -10.433   7.414  1.00  0.00     0.049 A 
ATOM     61  H   UNL     1       8.623  -8.980   7.427  1.00  0.00     0.167 HD
ATOM     62  C   UNL     1       8.097 -11.723   6.902  1.00  0.00     0.074 A 
ATOM     63  C   UNL     1       7.387 -12.946   6.592  1.00  0.00     0.031 C 
ATOM     64  C   UNL     1       9.436 -11.646   7.106  1.00  0.00     0.037 A 
BRANCH  51  65
ATOM     65  C   UNL     1      11.506  -5.932   8.267  1.00  0.00     0.058 A 
ATOM     66  C   UNL     1      11.716  -5.313   9.510  1.00  0.00     0.135 A 
ATOM     67  C   UNL     1      12.475  -5.734   7.269  1.00  0.00     0.135 A 
ATOM     68  F   UNL     1      10.820  -5.460  10.499  1.00  0.00    -0.206 F 
ATOM     69  C   UNL     1      12.825  -4.506   9.745  1.00  0.00     0.059 A 
ATOM     70  C   UNL     1      13.608  -4.955   7.491  1.00  0.00     0.059 A 
ATOM     71  F   UNL     1      12.330  -6.304   6.062  1.00  0.00    -0.206 F 
ATOM     72  C   UNL     1      13.767  -4.333   8.729  1.00  0.00     0.060 A 
BRANCH  72  73
ATOM     73  S   UNL     1      15.203  -3.288   9.053  1.00  0.00     0.124 S 
ATOM     74  O   UNL     1      14.597  -1.959   9.073  1.00  0.00    -0.237 OA
ATOM     75  O   UNL     1      15.669  -3.790  10.341  1.00  0.00    -0.237 OA
ATOM     76  O   UNL     1      16.084  -3.557   7.922  1.00  0.00    -0.744 OA
ENDBRANCH  72  73
ENDBRANCH  51  65
BRANCH  52  77
ATOM     77  C   UNL     1       3.433 -11.484   6.270  1.00  0.00     0.058 A 
ATOM     78  C   UNL     1       2.951 -12.456   7.158  1.00  0.00     0.135 A 
ATOM     79  C   UNL     1       2.735 -11.295   5.066  1.00  0.00     0.135 A 
ATOM     80  F   UNL     1       3.586 -12.678   8.319  1.00  0.00    -0.206 F 
ATOM     81  C   UNL     1       1.829 -13.224   6.860  1.00  0.00     0.059 A 
ATOM     82  C   UNL     1       1.595 -12.031   4.759  1.00  0.00     0.059 A 
ATOM     83  F   UNL     1       3.143 -10.364   4.190  1.00  0.00    -0.206 F 
ATOM     84  C   UNL     1       1.156 -13.001   5.658  1.00  0.00     0.060 A 
BRANCH  84  85
ATOM     85  S   UNL     1      -0.329 -13.966   5.304  1.00  0.00     0.124 S 
ATOM     86  O   UNL     1       0.237 -15.279   5.015  1.00  0.00    -0.237 OA
ATOM     87  O   UNL     1      -1.074 -13.851   6.553  1.00  0.00    -0.237 OA
ATOM     88  O   UNL     1      -0.918 -13.268   4.165  1.00  0.00    -0.744 OA
ENDBRANCH  84  85
ENDBRANCH  52  77
BRANCH  64  89
ATOM     89  C   UNL     1      10.222 -12.928   7.035  1.00  0.00     0.058 A 
ATOM     90  C   UNL     1      10.456 -13.588   5.819  1.00  0.00     0.135 A 
ATOM     91  C   UNL     1      10.790 -13.477   8.197  1.00  0.00     0.135 A 
ATOM     92  F   UNL     1       9.929 -13.111   4.679  1.00  0.00    -0.206 F 
ATOM     93  C   UNL     1      11.204 -14.759   5.759  1.00  0.00     0.059 A 
ATOM     94  C   UNL     1      11.567 -14.631   8.156  1.00  0.00     0.059 A 
ATOM     95  F   UNL     1      10.605 -12.883   9.387  1.00  0.00    -0.206 F 
ATOM     96  C   UNL     1      11.758 -15.271   6.933  1.00  0.00     0.060 A 
BRANCH  96  97
ATOM     97  S   UNL     1      12.756 -16.773   6.836  1.00  0.00     0.124 S 
ATOM     98  O   UNL     1      11.735 -17.790   6.604  1.00  0.00    -0.237 OA
ATOM     99  O   UNL     1      13.636 -16.489   5.707  1.00  0.00    -0.237 OA
ATOM    100  O   UNL     1      13.414 -16.830   8.137  1.00  0.00    -0.744 OA
ENDBRANCH  96  97
ENDBRANCH  64  89
ENDBRANCH  38  39
ENDBRANCH  30  33
ENDBRANCH  28  29
ENDBRANCH  27  28
ENDBRANCH  26  27
ENDBRANCH   1  26
TORSDOF 20
