REMARK SMILES Cn1nc(C(=O)NCCCCCCNC(=O)c2ccc(-c3c4nc(c(-c5c(F)cc(S(=O)(=O)[O-])cc5F)c5ccc([nH]5)c(-c5c(F)cc(S(=O)(=O)[O-])cc5F)c5nc(c(-c6c(F)cc(S(=O)(=O)[O-])cc6F)c6ccc3[nH]6)C=C5)C=C4)cc2)cc1C1CC1
REMARK SMILES IDX 11 1 10 2 9 3 8 4 7 5 5 6 6 7 4 9 1 10 2 11 3 12 84 13 83 14
REMARK SMILES IDX 85 15 86 16 87 17 12 18 13 19 14 20 15 21 16 23 17 24 18 25
REMARK SMILES IDX 82 26 19 27 81 28 20 29 21 30 22 31 75 32 23 33 80 34 74 35
REMARK SMILES IDX 76 36 24 37 79 38 73 39 72 40 25 42 59 43 38 44 58 45 39 46
REMARK SMILES IDX 42 47 57 48 77 49 40 50 41 51 56 53 78 54 43 55 26 56 27 57
REMARK SMILES IDX 36 58 28 59 29 60 35 61 37 62 30 63 31 64 32 65 33 66 34 67
REMARK SMILES IDX 60 68 61 69 70 70 62 71 63 72 69 73 71 74 64 75 65 76 66 77
REMARK SMILES IDX 67 78 68 79 44 80 45 81 54 82 46 83 47 84 53 85 55 86 48 87
REMARK SMILES IDX 49 88 50 89 51 90 52 91
REMARK H PARENT 7 8 14 22 76 41 42 52
REMARK Flexibility Score: inf
ROOT
ATOM      1  C   UNL     1       7.322  -0.096  -0.308  1.00  0.00     0.002 C 
ENDROOT
BRANCH   1   2
ATOM      2  C   UNL     1       6.287   0.278  -1.378  1.00  0.00     0.002 C 
BRANCH   2   3
ATOM      3  C   UNL     1       4.913  -0.385  -1.199  1.00  0.00     0.021 C 
BRANCH   3   4
ATOM      4  C   UNL     1       4.244  -0.006   0.122  1.00  0.00     0.116 C 
BRANCH   4   5
ATOM      5  N   UNL     1       3.523   1.240  -0.011  1.00  0.00    -0.351 N 
ATOM      6  C   UNL     1       2.189   1.538  -0.167  1.00  0.00     0.271 C 
ATOM      7  O   UNL     1       1.927   2.742  -0.254  1.00  0.00    -0.267 OA
ATOM      8  H   UNL     1       4.104   2.035   0.015  1.00  0.00     0.163 HD
BRANCH   6   9
ATOM      9  C   UNL     1       1.138   0.494  -0.192  1.00  0.00     0.150 A 
ATOM     10  C   UNL     1      -2.294  -0.182  -0.066  1.00  0.00     0.174 C 
ATOM     11  N   UNL     1      -0.859  -0.299  -0.083  1.00  0.00    -0.272 N 
ATOM     12  N   UNL     1      -0.160   0.854  -0.105  1.00  0.00    -0.168 NA
ATOM     13  C   UNL     1      -0.056  -1.401  -0.075  1.00  0.00     0.042 A 
ATOM     14  C   UNL     1       1.216  -0.917  -0.290  1.00  0.00     0.059 A 
BRANCH  13  15
ATOM     15  C   UNL     1      -0.307  -2.884   0.140  1.00  0.00     0.038 C 
ATOM     16  C   UNL     1      -1.447  -3.330   1.026  1.00  0.00     0.010 C 
ATOM     17  C   UNL     1      -1.501  -3.586  -0.444  1.00  0.00     0.010 C 
ENDBRANCH  13  15
ENDBRANCH   6   9
ENDBRANCH   4   5
ENDBRANCH   3   4
ENDBRANCH   2   3
ENDBRANCH   1   2
BRANCH   1  18
ATOM     18  C   UNL     1       7.547  -1.599  -0.128  1.00  0.00     0.021 C 
BRANCH  18  19
ATOM     19  C   UNL     1       8.079  -2.298  -1.374  1.00  0.00     0.116 C 
BRANCH  19  20
ATOM     20  N   UNL     1       9.392  -1.796  -1.748  1.00  0.00    -0.352 N 
ATOM     21  C   UNL     1      10.587  -2.467  -1.833  1.00  0.00     0.251 C 
ATOM     22  H   UNL     1       9.430  -0.838  -1.972  1.00  0.00     0.163 HD
ATOM     23  O   UNL     1      11.639  -1.844  -1.917  1.00  0.00    -0.269 OA
BRANCH  21  24
ATOM     24  C   UNL     1      10.592  -3.944  -1.810  1.00  0.00     0.039 A 
ATOM     25  C   UNL     1      11.523  -4.609  -1.010  1.00  0.00     0.014 A 
ATOM     26  C   UNL     1       9.674  -4.668  -2.576  1.00  0.00     0.014 A 
ATOM     27  C   UNL     1      11.491  -6.003  -0.931  1.00  0.00     0.010 A 
ATOM     28  C   UNL     1       9.592  -6.049  -2.434  1.00  0.00     0.010 A 
ATOM     29  C   UNL     1      10.502  -6.732  -1.614  1.00  0.00    -0.014 A 
BRANCH  29  30
ATOM     30  C   UNL     1      10.404  -8.208  -1.478  1.00  0.00     0.031 A 
ATOM     31  C   UNL     1      10.600  -9.092  -2.680  1.00  0.00     0.074 A 
ATOM     32  C   UNL     1      10.081  -8.746  -0.285  1.00  0.00     0.049 A 
ATOM     33  N   UNL     1      10.498 -10.393  -2.772  1.00  0.00    -0.248 NA
ATOM     34  C   UNL     1      10.925  -8.426  -3.952  1.00  0.00     0.031 C 
ATOM     35  C   UNL     1       9.819  -7.989   0.941  1.00  0.00     0.029 A 
ATOM     36  N   UNL     1       9.909 -10.054   0.093  1.00  0.00    -0.354 N 
ATOM     37  C   UNL     1      10.739 -10.699  -4.106  1.00  0.00     0.074 A 
ATOM     38  C   UNL     1      10.932  -9.444  -4.800  1.00  0.00     0.031 C 
ATOM     39  C   UNL     1       9.546  -8.845   1.938  1.00  0.00     0.029 A 
ATOM     40  C   UNL     1       9.570 -10.208   1.417  1.00  0.00     0.049 A 
ATOM     41  H   UNL     1      10.019 -10.812  -0.526  1.00  0.00     0.167 HD
ATOM     42  C   UNL     1      10.819 -11.916  -4.695  1.00  0.00     0.037 A 
ATOM     43  C   UNL     1       9.300 -11.319   2.129  1.00  0.00     0.037 A 
ATOM     44  C   UNL     1      10.646 -13.161  -3.992  1.00  0.00     0.049 A 
ATOM     45  C   UNL     1       9.380 -12.660   1.448  1.00  0.00     0.074 A 
ATOM     46  C   UNL     1      10.760 -14.449  -4.486  1.00  0.00     0.029 A 
ATOM     47  N   UNL     1      10.318 -13.276  -2.649  1.00  0.00    -0.354 N 
ATOM     48  N   UNL     1       9.678 -12.935   0.200  1.00  0.00    -0.248 NA
ATOM     49  C   UNL     1       9.095 -13.843   2.272  1.00  0.00     0.031 C 
ATOM     50  C   UNL     1      10.447 -15.341  -3.455  1.00  0.00     0.029 A 
ATOM     51  C   UNL     1      10.200 -14.612  -2.303  1.00  0.00     0.049 A 
ATOM     52  H   UNL     1      10.188 -12.519  -2.033  1.00  0.00     0.167 HD
ATOM     53  C   UNL     1       9.648 -14.321   0.098  1.00  0.00     0.074 A 
ATOM     54  C   UNL     1       9.314 -14.829   1.413  1.00  0.00     0.031 C 
ATOM     55  C   UNL     1       9.880 -15.103  -0.986  1.00  0.00     0.037 A 
BRANCH  42  56
ATOM     56  C   UNL     1      11.111 -11.965  -6.170  1.00  0.00     0.058 A 
ATOM     57  C   UNL     1      12.365 -11.600  -6.687  1.00  0.00     0.135 A 
ATOM     58  C   UNL     1      10.141 -12.427  -7.076  1.00  0.00     0.135 A 
ATOM     59  F   UNL     1      13.325 -11.137  -5.871  1.00  0.00    -0.206 F 
ATOM     60  C   UNL     1      12.638 -11.665  -8.050  1.00  0.00     0.059 A 
ATOM     61  C   UNL     1      10.403 -12.530  -8.439  1.00  0.00     0.059 A 
ATOM     62  F   UNL     1       8.925 -12.788  -6.638  1.00  0.00    -0.206 F 
ATOM     63  C   UNL     1      11.651 -12.134  -8.918  1.00  0.00     0.060 A 
BRANCH  63  64
ATOM     64  S   UNL     1      12.028 -12.225 -10.680  1.00  0.00     0.124 S 
ATOM     65  O   UNL     1      12.057 -10.812 -11.045  1.00  0.00    -0.237 OA
ATOM     66  O   UNL     1      13.319 -12.907 -10.687  1.00  0.00    -0.237 OA
ATOM     67  O   UNL     1      10.914 -12.991 -11.229  1.00  0.00    -0.744 OA
ENDBRANCH  63  64
ENDBRANCH  42  56
BRANCH  43  68
ATOM     68  C   UNL     1       8.943 -11.215   3.570  1.00  0.00     0.058 A 
ATOM     69  C   UNL     1       9.809 -11.689   4.567  1.00  0.00     0.135 A 
ATOM     70  C   UNL     1       7.731 -10.637   3.980  1.00  0.00     0.135 A 
ATOM     71  F   UNL     1      10.977 -12.255   4.226  1.00  0.00    -0.206 F 
ATOM     72  C   UNL     1       9.478 -11.618   5.916  1.00  0.00     0.059 A 
ATOM     73  C   UNL     1       7.391 -10.527   5.325  1.00  0.00     0.059 A 
ATOM     74  F   UNL     1       6.874 -10.150   3.069  1.00  0.00    -0.206 F 
ATOM     75  C   UNL     1       8.265 -11.033   6.285  1.00  0.00     0.060 A 
BRANCH  75  76
ATOM     76  S   UNL     1       7.860 -10.913   8.041  1.00  0.00     0.124 S 
ATOM     77  O   UNL     1       7.576 -12.305   8.372  1.00  0.00    -0.237 OA
ATOM     78  O   UNL     1       9.089 -10.361   8.601  1.00  0.00    -0.237 OA
ATOM     79  O   UNL     1       6.711 -10.012   8.059  1.00  0.00    -0.744 OA
ENDBRANCH  75  76
ENDBRANCH  43  68
BRANCH  55  80
ATOM     80  C   UNL     1       9.825 -16.595  -0.794  1.00  0.00     0.058 A 
ATOM     81  C   UNL     1       8.613 -17.272  -0.591  1.00  0.00     0.135 A 
ATOM     82  C   UNL     1      10.998 -17.363  -0.885  1.00  0.00     0.135 A 
ATOM     83  F   UNL     1       7.463 -16.586  -0.489  1.00  0.00    -0.206 F 
ATOM     84  C   UNL     1       8.568 -18.657  -0.465  1.00  0.00     0.059 A 
ATOM     85  C   UNL     1      10.972 -18.750  -0.793  1.00  0.00     0.059 A 
ATOM     86  F   UNL     1      12.183 -16.766  -1.089  1.00  0.00    -0.206 F 
ATOM     87  C   UNL     1       9.752 -19.388  -0.574  1.00  0.00     0.060 A 
BRANCH  87  88
ATOM     88  S   UNL     1       9.671 -21.187  -0.456  1.00  0.00     0.124 S 
ATOM     89  O   UNL     1       9.399 -21.378   0.965  1.00  0.00    -0.237 OA
ATOM     90  O   UNL     1       8.572 -21.509  -1.361  1.00  0.00    -0.237 OA
ATOM     91  O   UNL     1      10.992 -21.618  -0.905  1.00  0.00    -0.744 OA
ENDBRANCH  87  88
ENDBRANCH  55  80
ENDBRANCH  29  30
ENDBRANCH  21  24
ENDBRANCH  19  20
ENDBRANCH  18  19
ENDBRANCH   1  18
TORSDOF 17
