REMARK SMILES CCOc1ccc(-c2cc(Cl)cc3c2O[C@H](C(F)(F)F)C(C(=O)NCCCCCCNC(=O)c2ccc(-c4c5nc(c(-c6c(F)cc(S(=O)(=O)[O-])cc6F)c6ccc([nH]6)c(-c6c(F)cc(S(=O)(=O)[O-])cc6F)c6nc(c(-c7c(F)cc(S(=O)(=O)[O-])cc7F)c7ccc4[nH]7)C=C6)C=C5)cc2)=C3)cc1
REMARK SMILES IDX 27 1 26 2 25 3 24 4 22 5 23 6 21 8 8 9 9 10 14 11 10 12
REMARK SMILES IDX 13 13 15 14 11 15 12 16 100 17 16 18 7 19 4 20 5 21 102 22
REMARK SMILES IDX 6 23 101 24 3 25 2 26 1 27 17 28 18 29 19 30 20 31 28 32
REMARK SMILES IDX 29 33 30 34 31 35 32 36 33 38 34 39 35 40 99 41 36 42 98 43
REMARK SMILES IDX 37 44 38 45 39 46 92 47 40 48 97 49 91 50 93 51 41 52 96 53
REMARK SMILES IDX 90 54 89 55 42 57 76 58 55 59 75 60 56 61 59 62 74 63 94 64
REMARK SMILES IDX 57 65 58 66 73 68 95 69 60 70 43 71 44 72 53 73 45 74 46 75
REMARK SMILES IDX 52 76 54 77 47 78 48 79 49 80 50 81 51 82 77 83 78 84 87 85
REMARK SMILES IDX 79 86 80 87 86 88 88 89 81 90 82 91 83 92 84 93 85 94 61 95
REMARK SMILES IDX 62 96 71 97 63 98 64 99 70 100 72 101 65 102 66 103 67 104
REMARK SMILES IDX 68 105 69 106
REMARK H PARENT 24 7 31 37 93 56 59 67
REMARK Flexibility Score: inf
ROOT
ATOM      1  C   UNL     1      14.734   5.505   4.726  1.00  0.00     0.002 C 
ENDROOT
BRANCH   1   2
ATOM      2  C   UNL     1      13.665   6.207   3.871  1.00  0.00     0.021 C 
BRANCH   2   3
ATOM      3  C   UNL     1      13.051   5.334   2.767  1.00  0.00     0.116 C 
BRANCH   3   4
ATOM      4  N   UNL     1      12.411   4.176   3.360  1.00  0.00    -0.352 N 
ATOM      5  C   UNL     1      11.084   3.907   3.280  1.00  0.00     0.251 C 
ATOM      6  O   UNL     1      10.436   3.661   4.291  1.00  0.00    -0.270 OA
ATOM      7  H   UNL     1      12.979   3.542   3.855  1.00  0.00     0.163 HD
BRANCH   5   8
ATOM      8  C   UNL     1      10.523   3.767   1.903  1.00  0.00     0.067 C 
ATOM      9  C   UNL     1       6.954   2.074   2.866  1.00  0.00     0.026 A 
ATOM     10  C   UNL     1       7.191   1.029   3.793  1.00  0.00     0.033 A 
ATOM     11  C   UNL     1       8.075   2.588   2.196  1.00  0.00     0.135 A 
ATOM     12  C   UNL     1       8.441   0.427   3.929  1.00  0.00     0.042 A 
ATOM     13  C   UNL     1       9.307   1.895   2.263  1.00  0.00     0.019 A 
ATOM     14  O   UNL     1       8.037   3.781   1.490  1.00  0.00    -0.475 OA
ATOM     15  Cl  UNL     1       8.660  -0.828   5.084  1.00  0.00    -0.084 Cl
ATOM     16  C   UNL     1       9.493   0.812   3.117  1.00  0.00     0.032 A 
ATOM     17  C   UNL     1      10.456   2.472   1.531  1.00  0.00     0.025 C 
ATOM     18  C   UNL     1       9.269   4.600   1.661  1.00  0.00     0.314 C 
BRANCH   9  19
ATOM     19  C   UNL     1       5.533   2.345   2.547  1.00  0.00    -0.014 A 
ATOM     20  C   UNL     1       2.795   1.873   2.038  1.00  0.00     0.119 A 
ATOM     21  C   UNL     1       3.209   2.254   3.311  1.00  0.00     0.047 A 
ATOM     22  C   UNL     1       3.712   1.860   0.992  1.00  0.00     0.047 A 
ATOM     23  C   UNL     1       4.567   2.494   3.563  1.00  0.00     0.013 A 
ATOM     24  C   UNL     1       5.069   2.097   1.244  1.00  0.00     0.013 A 
BRANCH  20  25
ATOM     25  O   UNL     1       1.472   1.589   1.846  1.00  0.00    -0.494 OA
BRANCH  25  26
ATOM     26  C   UNL     1       1.224   0.228   1.458  1.00  0.00     0.226 C 
ATOM     27  C   UNL     1       0.989   0.117  -0.040  1.00  0.00     0.049 C 
ENDBRANCH  25  26
ENDBRANCH  20  25
ENDBRANCH   9  19
BRANCH  18  28
ATOM     28  C   UNL     1       9.509   5.522   0.448  1.00  0.00     0.429 C 
ATOM     29  F   UNL     1       8.841   5.112  -0.655  1.00  0.00    -0.167 F 
ATOM     30  F   UNL     1       9.120   6.792   0.715  1.00  0.00    -0.167 F 
ATOM     31  F   UNL     1      10.821   5.589   0.103  1.00  0.00    -0.167 F 
ENDBRANCH  18  28
ENDBRANCH   5   8
ENDBRANCH   3   4
ENDBRANCH   2   3
ENDBRANCH   1   2
BRANCH   1  32
ATOM     32  C   UNL     1      15.896   4.897   3.937  1.00  0.00     0.002 C 
BRANCH  32  33
ATOM     33  C   UNL     1      16.676   5.897   3.084  1.00  0.00     0.021 C 
BRANCH  33  34
ATOM     34  C   UNL     1      17.255   7.073   3.860  1.00  0.00     0.116 C 
BRANCH  34  35
ATOM     35  N   UNL     1      18.237   6.662   4.853  1.00  0.00    -0.352 N 
ATOM     36  C   UNL     1      19.444   7.252   5.144  1.00  0.00     0.251 C 
ATOM     37  H   UNL     1      18.009   5.863   5.381  1.00  0.00     0.163 HD
ATOM     38  O   UNL     1      20.237   6.715   5.911  1.00  0.00    -0.269 OA
BRANCH  36  39
ATOM     39  C   UNL     1      19.782   8.530   4.487  1.00  0.00     0.039 A 
ATOM     40  C   UNL     1      20.985   8.641   3.787  1.00  0.00     0.014 A 
ATOM     41  C   UNL     1      18.869   9.589   4.509  1.00  0.00     0.014 A 
ATOM     42  C   UNL     1      21.243   9.796   3.044  1.00  0.00     0.010 A 
ATOM     43  C   UNL     1      19.098  10.707   3.715  1.00  0.00     0.010 A 
ATOM     44  C   UNL     1      20.284  10.819   2.971  1.00  0.00    -0.014 A 
BRANCH  44  45
ATOM     45  C   UNL     1      20.484  12.024   2.128  1.00  0.00     0.031 A 
ATOM     46  C   UNL     1      20.556  13.379   2.776  1.00  0.00     0.074 A 
ATOM     47  C   UNL     1      20.497  11.912   0.785  1.00  0.00     0.049 A 
ATOM     48  N   UNL     1      20.555  14.563   2.221  1.00  0.00    -0.248 NA
ATOM     49  C   UNL     1      20.599  13.403   4.247  1.00  0.00     0.031 C 
ATOM     50  C   UNL     1      20.399  10.656   0.037  1.00  0.00     0.029 A 
ATOM     51  N   UNL     1      20.571  12.873  -0.193  1.00  0.00    -0.354 N 
ATOM     52  C   UNL     1      20.576  15.471   3.273  1.00  0.00     0.074 A 
ATOM     53  C   UNL     1      20.540  14.702   4.498  1.00  0.00     0.031 C 
ATOM     54  C   UNL     1      20.423  10.924  -1.278  1.00  0.00     0.029 A 
ATOM     55  C   UNL     1      20.492  12.370  -1.470  1.00  0.00     0.049 A 
ATOM     56  H   UNL     1      20.670  13.833   0.003  1.00  0.00     0.167 HD
ATOM     57  C   UNL     1      20.637  16.823   3.222  1.00  0.00     0.037 A 
ATOM     58  C   UNL     1      20.458  13.002  -2.659  1.00  0.00     0.037 A 
ATOM     59  C   UNL     1      20.698  17.579   1.998  1.00  0.00     0.049 A 
ATOM     60  C   UNL     1      20.528  14.505  -2.693  1.00  0.00     0.074 A 
ATOM     61  C   UNL     1      20.804  18.950   1.838  1.00  0.00     0.029 A 
ATOM     62  N   UNL     1      20.663  17.029   0.725  1.00  0.00    -0.354 N 
ATOM     63  N   UNL     1      20.584  15.350  -1.691  1.00  0.00    -0.248 NA
ATOM     64  C   UNL     1      20.537  15.143  -4.017  1.00  0.00     0.031 C 
ATOM     65  C   UNL     1      20.798  19.231   0.467  1.00  0.00     0.029 A 
ATOM     66  C   UNL     1      20.736  18.032  -0.226  1.00  0.00     0.049 A 
ATOM     67  H   UNL     1      20.596  16.067   0.527  1.00  0.00     0.167 HD
ATOM     68  C   UNL     1      20.666  16.614  -2.262  1.00  0.00     0.074 A 
ATOM     69  C   UNL     1      20.656  16.425  -3.698  1.00  0.00     0.031 C 
ATOM     70  C   UNL     1      20.745  17.823  -1.653  1.00  0.00     0.037 A 
BRANCH  57  71
ATOM     71  C   UNL     1      20.645  17.567   4.529  1.00  0.00     0.058 A 
ATOM     72  C   UNL     1      21.750  17.524   5.394  1.00  0.00     0.135 A 
ATOM     73  C   UNL     1      19.542  18.345   4.915  1.00  0.00     0.135 A 
ATOM     74  F   UNL     1      22.824  16.782   5.082  1.00  0.00    -0.206 F 
ATOM     75  C   UNL     1      21.748  18.195   6.611  1.00  0.00     0.059 A 
ATOM     76  C   UNL     1      19.530  19.050   6.116  1.00  0.00     0.059 A 
ATOM     77  F   UNL     1      18.458  18.422   4.127  1.00  0.00    -0.206 F 
ATOM     78  C   UNL     1      20.631  18.954   6.965  1.00  0.00     0.060 A 
BRANCH  78  79
ATOM     79  S   UNL     1      20.641  19.814   8.552  1.00  0.00     0.124 S 
ATOM     80  O   UNL     1      20.441  18.707   9.483  1.00  0.00    -0.237 OA
ATOM     81  O   UNL     1      21.966  20.425   8.569  1.00  0.00    -0.237 OA
ATOM     82  O   UNL     1      19.525  20.748   8.439  1.00  0.00    -0.744 OA
ENDBRANCH  78  79
ENDBRANCH  57  71
BRANCH  58  83
ATOM     83  C   UNL     1      20.366  12.213  -3.917  1.00  0.00     0.058 A 
ATOM     84  C   UNL     1      21.463  12.111  -4.785  1.00  0.00     0.135 A 
ATOM     85  C   UNL     1      19.190  11.531  -4.266  1.00  0.00     0.135 A 
ATOM     86  F   UNL     1      22.607  12.750  -4.497  1.00  0.00    -0.206 F 
ATOM     87  C   UNL     1      21.395  11.374  -5.963  1.00  0.00     0.059 A 
ATOM     88  C   UNL     1      19.105  10.768  -5.426  1.00  0.00     0.059 A 
ATOM     89  F   UNL     1      18.118  11.583  -3.461  1.00  0.00    -0.206 F 
ATOM     90  C   UNL     1      20.211  10.703  -6.274  1.00  0.00     0.060 A 
BRANCH  90  91
ATOM     91  S   UNL     1      20.150   9.704  -7.777  1.00  0.00     0.124 S 
ATOM     92  O   UNL     1      20.074  10.732  -8.809  1.00  0.00    -0.237 OA
ATOM     93  O   UNL     1      21.405   8.963  -7.705  1.00  0.00    -0.237 OA
ATOM     94  O   UNL     1      18.945   8.900  -7.596  1.00  0.00    -0.744 OA
ENDBRANCH  90  91
ENDBRANCH  58  83
BRANCH  70  95
ATOM     95  C   UNL     1      20.881  19.037  -2.530  1.00  0.00     0.058 A 
ATOM     96  C   UNL     1      19.797  19.547  -3.260  1.00  0.00     0.135 A 
ATOM     97  C   UNL     1      22.097  19.737  -2.582  1.00  0.00     0.135 A 
ATOM     98  F   UNL     1      18.615  18.912  -3.249  1.00  0.00    -0.206 F 
ATOM     99  C   UNL     1      19.919  20.703  -4.024  1.00  0.00     0.059 A 
ATOM    100  C   UNL     1      22.234  20.908  -3.319  1.00  0.00     0.059 A 
ATOM    101  F   UNL     1      23.162  19.294  -1.894  1.00  0.00    -0.206 F 
ATOM    102  C   UNL     1      21.141  21.380  -4.044  1.00  0.00     0.060 A 
BRANCH 102 103
ATOM    103  S   UNL     1      21.272  22.906  -4.999  1.00  0.00     0.124 S 
ATOM    104  O   UNL     1      21.318  22.395  -6.365  1.00  0.00    -0.237 OA
ATOM    105  O   UNL     1      20.050  23.613  -4.627  1.00  0.00    -0.237 OA
ATOM    106  O   UNL     1      22.510  23.507  -4.511  1.00  0.00    -0.744 OA
ENDBRANCH 102 103
ENDBRANCH  70  95
ENDBRANCH  44  45
ENDBRANCH  36  39
ENDBRANCH  34  35
ENDBRANCH  33  34
ENDBRANCH  32  33
ENDBRANCH   1  32
TORSDOF 20
