REMARK SMILES COc1c[nH]c(C[N@H+]2CCC[C@@H](c3ccc(C(=O)NCCCCCCNC(=O)c4ccc(-c5c6nc(c(-c7c(F)cc(S(=O)(=O)[O-])cc7F)c7ccc([nH]7)c(-c7c(F)cc(S(=O)(=O)[O-])cc7F)c7nc(c(-c8c(F)cc(S(=O)(=O)[O-])cc8F)c8ccc5[nH]8)C=C7)C=C6)cc4)cc3)C2)cc1=O
REMARK SMILES IDX 22 1 21 2 20 3 19 4 17 5 18 6 16 8 13 9 14 10 96 11 15 12
REMARK SMILES IDX 95 13 12 14 8 15 9 16 97 17 10 19 11 20 7 21 6 22 3 23 4 24
REMARK SMILES IDX 99 25 5 26 98 27 100 28 2 30 1 31 23 32 24 33 25 34 26 35
REMARK SMILES IDX 27 36 28 38 29 39 30 40 94 41 31 42 93 43 32 44 33 45 34 46
REMARK SMILES IDX 87 47 35 48 92 49 86 50 88 51 36 52 91 53 85 54 84 55 37 57
REMARK SMILES IDX 71 58 50 59 70 60 51 61 54 62 69 63 89 64 52 65 53 66 68 68
REMARK SMILES IDX 90 69 55 70 38 71 39 72 48 73 40 74 41 75 47 76 49 77 42 78
REMARK SMILES IDX 43 79 44 80 45 81 46 82 72 83 73 84 82 85 74 86 75 87 81 88
REMARK SMILES IDX 83 89 76 90 77 91 78 92 79 93 80 94 56 95 57 96 66 97 58 98
REMARK SMILES IDX 59 99 65 100 67 101 60 102 61 103 62 104 63 105 64 106
REMARK H PARENT 19 7 8 18 5 29 26 37 88 56 54 67
REMARK Flexibility Score: inf
ROOT
ATOM      1  C   UNL     1      -8.668   3.350 -10.415  1.00  0.00     0.002 C 
ENDROOT
BRANCH   1   2
ATOM      2  C   UNL     1      -7.154   3.458 -10.192  1.00  0.00     0.021 C 
BRANCH   2   3
ATOM      3  C   UNL     1      -6.782   3.682  -8.726  1.00  0.00     0.116 C 
BRANCH   3   4
ATOM      4  N   UNL     1      -6.881   2.430  -8.004  1.00  0.00    -0.352 N 
ATOM      5  C   UNL     1      -5.934   1.512  -7.635  1.00  0.00     0.251 C 
ATOM      6  O   UNL     1      -6.315   0.497  -7.050  1.00  0.00    -0.269 OA
ATOM      7  H   UNL     1      -7.797   2.195  -7.728  1.00  0.00     0.163 HD
BRANCH   5   8
ATOM      8  C   UNL     1      -4.475   1.734  -7.832  1.00  0.00     0.039 A 
ATOM      9  C   UNL     1      -1.694   2.223  -7.895  1.00  0.00    -0.039 A 
ATOM     10  C   UNL     1      -2.257   1.394  -6.913  1.00  0.00     0.005 A 
ATOM     11  C   UNL     1      -2.527   2.716  -8.904  1.00  0.00     0.005 A 
ATOM     12  C   UNL     1      -3.631   1.170  -6.870  1.00  0.00     0.014 A 
ATOM     13  C   UNL     1      -3.901   2.445  -8.889  1.00  0.00     0.014 A 
BRANCH   9  14
ATOM     14  C   UNL     1      -0.218   2.600  -7.869  1.00  0.00     0.074 C 
ATOM     15  N   UNL     1       1.619   3.385  -6.302  1.00  0.00    -0.329 N 
ATOM     16  C   UNL     1       2.431   2.221  -6.680  1.00  0.00     0.262 C 
ATOM     17  C   UNL     1       0.184   3.123  -6.472  1.00  0.00     0.270 C 
ATOM     18  H   UNL     1       1.858   4.140  -6.944  1.00  0.00     0.348 HD
ATOM     19  C   UNL     1       2.134   1.762  -8.109  1.00  0.00     0.062 C 
ATOM     20  C   UNL     1       0.659   1.413  -8.281  1.00  0.00     0.020 C 
BRANCH  15  21
ATOM     21  C   UNL     1       1.947   3.875  -4.943  1.00  0.00     0.317 C 
BRANCH  21  22
ATOM     22  C   UNL     1       1.717   2.893  -3.793  1.00  0.00     0.074 A 
ATOM     23  C   UNL     1       1.023   0.878  -1.892  1.00  0.00     0.182 A 
ATOM     24  C   UNL     1       0.107   1.626  -2.522  1.00  0.00     0.133 A 
ATOM     25  C   UNL     1       2.465   1.212  -2.171  1.00  0.00     0.223 A 
ATOM     26  N   UNL     1       0.419   2.644  -3.380  1.00  0.00    -0.357 N 
ATOM     27  C   UNL     1       2.745   2.255  -3.202  1.00  0.00     0.083 A 
ATOM     28  O   UNL     1       3.401   0.647  -1.612  1.00  0.00    -0.286 OA
ATOM     29  H   UNL     1      -0.305   3.219  -3.717  1.00  0.00     0.166 HD
BRANCH  23  30
ATOM     30  O   UNL     1       0.647  -0.192  -1.104  1.00  0.00    -0.491 OA
ATOM     31  C   UNL     1       1.093  -0.051   0.239  1.00  0.00     0.278 C 
ENDBRANCH  23  30
ENDBRANCH  21  22
ENDBRANCH  15  21
ENDBRANCH   9  14
ENDBRANCH   5   8
ENDBRANCH   3   4
ENDBRANCH   2   3
ENDBRANCH   1   2
BRANCH   1  32
ATOM     32  C   UNL     1      -9.452   4.622 -10.071  1.00  0.00     0.002 C 
BRANCH  32  33
ATOM     33  C   UNL     1      -8.969   5.884 -10.790  1.00  0.00     0.021 C 
BRANCH  33  34
ATOM     34  C   UNL     1      -9.054   5.803 -12.311  1.00  0.00     0.116 C 
BRANCH  34  35
ATOM     35  N   UNL     1     -10.433   5.678 -12.758  1.00  0.00    -0.352 N 
ATOM     36  C   UNL     1     -11.148   6.499 -13.593  1.00  0.00     0.251 C 
ATOM     37  H   UNL     1     -10.921   4.896 -12.413  1.00  0.00     0.163 HD
ATOM     38  O   UNL     1     -12.369   6.398 -13.657  1.00  0.00    -0.269 OA
BRANCH  36  39
ATOM     39  C   UNL     1     -10.438   7.508 -14.407  1.00  0.00     0.039 A 
ATOM     40  C   UNL     1     -10.962   8.799 -14.498  1.00  0.00     0.014 A 
ATOM     41  C   UNL     1      -9.265   7.172 -15.089  1.00  0.00     0.014 A 
ATOM     42  C   UNL     1     -10.280   9.768 -15.236  1.00  0.00     0.010 A 
ATOM     43  C   UNL     1      -8.550   8.156 -15.763  1.00  0.00     0.010 A 
ATOM     44  C   UNL     1      -9.054   9.462 -15.851  1.00  0.00    -0.014 A 
BRANCH  44  45
ATOM     45  C   UNL     1      -8.289  10.494 -16.595  1.00  0.00     0.031 A 
ATOM     46  C   UNL     1      -8.057  10.341 -18.074  1.00  0.00     0.074 A 
ATOM     47  C   UNL     1      -7.751  11.533 -15.926  1.00  0.00     0.049 A 
ATOM     48  N   UNL     1      -7.363  11.099 -18.883  1.00  0.00    -0.248 NA
ATOM     49  C   UNL     1      -8.665   9.169 -18.724  1.00  0.00     0.031 C 
ATOM     50  C   UNL     1      -7.866  11.761 -14.484  1.00  0.00     0.029 A 
ATOM     51  N   UNL     1      -6.992  12.587 -16.368  1.00  0.00    -0.354 N 
ATOM     52  C   UNL     1      -7.438  10.491 -20.130  1.00  0.00     0.074 A 
ATOM     53  C   UNL     1      -8.200   9.273 -19.961  1.00  0.00     0.031 C 
ATOM     54  C   UNL     1      -7.221  12.894 -14.164  1.00  0.00     0.029 A 
ATOM     55  C   UNL     1      -6.613  13.452 -15.368  1.00  0.00     0.049 A 
ATOM     56  H   UNL     1      -6.741  12.712 -17.312  1.00  0.00     0.167 HD
ATOM     57  C   UNL     1      -6.939  10.921 -21.314  1.00  0.00     0.037 A 
ATOM     58  C   UNL     1      -5.856  14.565 -15.416  1.00  0.00     0.037 A 
ATOM     59  C   UNL     1      -6.202  12.147 -21.477  1.00  0.00     0.049 A 
ATOM     60  C   UNL     1      -5.309  15.022 -16.741  1.00  0.00     0.074 A 
ATOM     61  C   UNL     1      -5.703  12.703 -22.642  1.00  0.00     0.029 A 
ATOM     62  N   UNL     1      -5.854  13.007 -20.444  1.00  0.00    -0.354 N 
ATOM     63  N   UNL     1      -5.446  14.469 -17.923  1.00  0.00    -0.248 NA
ATOM     64  C   UNL     1      -4.512  16.255 -16.742  1.00  0.00     0.031 C 
ATOM     65  C   UNL     1      -5.015  13.874 -22.308  1.00  0.00     0.029 A 
ATOM     66  C   UNL     1      -5.128  14.076 -20.942  1.00  0.00     0.049 A 
ATOM     67  H   UNL     1      -6.089  12.876 -19.497  1.00  0.00     0.167 HD
ATOM     68  C   UNL     1      -4.774  15.300 -18.812  1.00  0.00     0.074 A 
ATOM     69  C   UNL     1      -4.243  16.401 -18.033  1.00  0.00     0.031 C 
ATOM     70  C   UNL     1      -4.611  15.166 -20.152  1.00  0.00     0.037 A 
BRANCH  57  71
ATOM     71  C   UNL     1      -7.176  10.062 -22.526  1.00  0.00     0.058 A 
ATOM     72  C   UNL     1      -8.454   9.920 -23.091  1.00  0.00     0.135 A 
ATOM     73  C   UNL     1      -6.108   9.400 -23.153  1.00  0.00     0.135 A 
ATOM     74  F   UNL     1      -9.514  10.518 -22.524  1.00  0.00    -0.206 F 
ATOM     75  C   UNL     1      -8.670   9.128 -24.214  1.00  0.00     0.059 A 
ATOM     76  C   UNL     1      -6.296   8.627 -24.296  1.00  0.00     0.059 A 
ATOM     77  F   UNL     1      -4.865   9.501 -22.657  1.00  0.00    -0.206 F 
ATOM     78  C   UNL     1      -7.584   8.485 -24.810  1.00  0.00     0.060 A 
BRANCH  78  79
ATOM     79  S   UNL     1      -7.881   7.466 -26.270  1.00  0.00     0.124 S 
ATOM     80  O   UNL     1      -8.551   6.309 -25.684  1.00  0.00    -0.237 OA
ATOM     81  O   UNL     1      -8.719   8.334 -27.091  1.00  0.00    -0.237 OA
ATOM     82  O   UNL     1      -6.541   7.218 -26.791  1.00  0.00    -0.744 OA
ENDBRANCH  78  79
ENDBRANCH  57  71
BRANCH  58  83
ATOM     83  C   UNL     1      -5.587  15.334 -14.171  1.00  0.00     0.058 A 
ATOM     84  C   UNL     1      -6.162  16.596 -13.963  1.00  0.00     0.135 A 
ATOM     85  C   UNL     1      -4.764  14.817 -13.158  1.00  0.00     0.135 A 
ATOM     86  F   UNL     1      -6.952  17.135 -14.904  1.00  0.00    -0.206 F 
ATOM     87  C   UNL     1      -5.919  17.327 -12.805  1.00  0.00     0.059 A 
ATOM     88  C   UNL     1      -4.526  15.517 -11.980  1.00  0.00     0.059 A 
ATOM     89  F   UNL     1      -4.203  13.605 -13.299  1.00  0.00    -0.206 F 
ATOM     90  C   UNL     1      -5.101  16.777 -11.817  1.00  0.00     0.060 A 
BRANCH  90  91
ATOM     91  S   UNL     1      -4.830  17.712 -10.296  1.00  0.00     0.124 S 
ATOM     92  O   UNL     1      -3.938  18.769 -10.757  1.00  0.00    -0.237 OA
ATOM     93  O   UNL     1      -6.186  18.127  -9.946  1.00  0.00    -0.237 OA
ATOM     94  O   UNL     1      -4.234  16.727  -9.399  1.00  0.00    -0.744 OA
ENDBRANCH  90  91
ENDBRANCH  58  83
BRANCH  70  95
ATOM     95  C   UNL     1      -3.853  16.250 -20.868  1.00  0.00     0.058 A 
ATOM     96  C   UNL     1      -2.462  16.389 -20.736  1.00  0.00     0.135 A 
ATOM     97  C   UNL     1      -4.520  17.127 -21.738  1.00  0.00     0.135 A 
ATOM     98  F   UNL     1      -1.777  15.580 -19.912  1.00  0.00    -0.206 F 
ATOM     99  C   UNL     1      -1.763  17.375 -21.424  1.00  0.00     0.059 A 
ATOM    100  C   UNL     1      -3.837  18.102 -22.458  1.00  0.00     0.059 A 
ATOM    101  F   UNL     1      -5.848  17.030 -21.909  1.00  0.00    -0.206 F 
ATOM    102  C   UNL     1      -2.459  18.226 -22.285  1.00  0.00     0.060 A 
BRANCH 102 103
ATOM    103  S   UNL     1      -1.534  19.479 -23.197  1.00  0.00     0.124 S 
ATOM    104  O   UNL     1      -1.234  20.445 -22.146  1.00  0.00    -0.237 OA
ATOM    105  O   UNL     1      -0.396  18.719 -23.705  1.00  0.00    -0.237 OA
ATOM    106  O   UNL     1      -2.482  19.930 -24.212  1.00  0.00    -0.744 OA
ENDBRANCH 102 103
ENDBRANCH  70  95
ENDBRANCH  44  45
ENDBRANCH  36  39
ENDBRANCH  34  35
ENDBRANCH  33  34
ENDBRANCH  32  33
ENDBRANCH   1  32
TORSDOF 20
