REMARK SMILES COc1ccc(CCNC(=O)[C@@]2(C)CC[C@@H](C(=O)NCCCCCCNC(=O)c3ccc(-c4c5nc(c(-c6c(F)cc(S(=O)(=O)[O-])cc6F)c6ccc([nH]6)c(-c6c(F)cc(S(=O)(=O)[O-])cc6F)c6nc(c(-c7c(F)cc(S(=O)(=O)[O-])cc7F)c7ccc4[nH]7)C=C6)C=C5)cc3)C2(C)C)cc1OC
REMARK SMILES IDX 21 1 20 2 19 3 17 4 18 5 16 7 12 8 13 9 14 10 95 11 15 12
REMARK SMILES IDX 96 13 97 14 10 15 9 16 11 18 8 19 7 20 6 21 3 22 4 23 99 24
REMARK SMILES IDX 5 25 98 26 2 27 1 28 100 29 101 30 22 31 23 32 24 33 25 34
REMARK SMILES IDX 26 35 27 36 28 38 29 39 30 40 94 41 31 42 93 43 32 44 33 45
REMARK SMILES IDX 34 46 87 47 35 48 92 49 86 50 88 51 36 52 91 53 85 54 84 55
REMARK SMILES IDX 37 57 71 58 50 59 70 60 51 61 54 62 69 63 89 64 52 65 53 66
REMARK SMILES IDX 68 68 90 69 55 70 38 71 39 72 48 73 40 74 41 75 47 76 49 77
REMARK SMILES IDX 42 78 43 79 44 80 45 81 46 82 72 83 73 84 82 85 74 86 75 87
REMARK SMILES IDX 81 88 83 89 76 90 77 91 78 92 79 93 80 94 56 95 57 96 66 97
REMARK SMILES IDX 58 98 59 99 65 100 67 101 60 102 61 103 62 104 63 105 64 106
REMARK H PARENT 19 6 9 17 26 37 88 56 54 67
REMARK Flexibility Score: inf
ROOT
ATOM      1  C   UNL     1      -1.485  -9.943   4.151  1.00  0.00     0.021 C 
ENDROOT
BRANCH   1   2
ATOM      2  C   UNL     1      -0.377 -10.662   3.388  1.00  0.00     0.116 C 
BRANCH   2   3
ATOM      3  N   UNL     1      -0.661 -12.062   3.196  1.00  0.00    -0.356 N 
ATOM      4  C   UNL     1      -0.746 -12.814   2.075  1.00  0.00     0.223 C 
ATOM      5  O   UNL     1      -1.067 -13.999   2.236  1.00  0.00    -0.275 OA
ATOM      6  H   UNL     1      -0.823 -12.560   4.030  1.00  0.00     0.163 HD
BRANCH   4   7
ATOM      7  C   UNL     1      -0.414 -12.316   0.658  1.00  0.00     0.085 C 
ATOM      8  C   UNL     1      -0.213  -9.935  -0.230  1.00  0.00     0.052 C 
ATOM      9  C   UNL     1      -0.021  -9.543  -1.712  1.00  0.00     0.022 C 
ATOM     10  C   UNL     1       1.142 -10.469   0.313  1.00  0.00     0.018 C 
ATOM     11  C   UNL     1      -1.237 -11.192  -0.049  1.00  0.00    -0.010 C 
ATOM     12  C   UNL     1       1.051 -11.974   0.460  1.00  0.00     0.015 C 
ATOM     13  C   UNL     1      -2.572 -10.942   0.676  1.00  0.00     0.013 C 
ATOM     14  C   UNL     1      -1.703 -11.765  -1.423  1.00  0.00     0.013 C 
BRANCH   8  15
ATOM     15  C   UNL     1      -0.623  -8.615   0.505  1.00  0.00     0.226 C 
ATOM     16  N   UNL     1       0.228  -7.573   0.707  1.00  0.00    -0.355 N 
ATOM     17  H   UNL     1      -0.156  -6.872   1.282  1.00  0.00     0.163 HD
ATOM     18  O   UNL     1      -1.766  -8.414   0.920  1.00  0.00    -0.274 OA
BRANCH  16  19
ATOM     19  C   UNL     1       1.582  -7.262   0.264  1.00  0.00     0.120 C 
BRANCH  19  20
ATOM     20  C   UNL     1       1.604  -6.252  -0.892  1.00  0.00     0.057 C 
BRANCH  20  21
ATOM     21  C   UNL     1       1.406  -4.824  -0.447  1.00  0.00    -0.042 A 
ATOM     22  C   UNL     1       1.114  -2.173   0.448  1.00  0.00     0.160 A 
ATOM     23  C   UNL     1      -0.005  -3.006   0.312  1.00  0.00     0.051 A 
ATOM     24  C   UNL     1       2.388  -2.654   0.133  1.00  0.00     0.160 A 
ATOM     25  C   UNL     1       0.138  -4.319  -0.146  1.00  0.00     0.008 A 
ATOM     26  C   UNL     1       2.517  -3.980  -0.306  1.00  0.00     0.054 A 
BRANCH  22  27
ATOM     27  O   UNL     1       0.938  -0.946   1.024  1.00  0.00    -0.493 OA
ATOM     28  C   UNL     1       0.312  -0.010   0.148  1.00  0.00     0.278 C 
ENDBRANCH  22  27
BRANCH  24  29
ATOM     29  O   UNL     1       3.592  -2.009   0.213  1.00  0.00    -0.493 OA
ATOM     30  C   UNL     1       3.590  -0.593   0.324  1.00  0.00     0.278 C 
ENDBRANCH  24  29
ENDBRANCH  20  21
ENDBRANCH  19  20
ENDBRANCH  16  19
ENDBRANCH   8  15
ENDBRANCH   4   7
ENDBRANCH   2   3
ENDBRANCH   1   2
BRANCH   1  31
ATOM     31  C   UNL     1      -1.555 -10.284   5.638  1.00  0.00     0.002 C 
BRANCH  31  32
ATOM     32  C   UNL     1      -0.291  -9.952   6.431  1.00  0.00     0.002 C 
BRANCH  32  33
ATOM     33  C   UNL     1       0.223  -8.521   6.259  1.00  0.00     0.021 C 
BRANCH  33  34
ATOM     34  C   UNL     1      -0.820  -7.435   6.498  1.00  0.00     0.116 C 
BRANCH  34  35
ATOM     35  N   UNL     1      -1.375  -7.499   7.840  1.00  0.00    -0.352 N 
ATOM     36  C   UNL     1      -1.428  -6.512   8.790  1.00  0.00     0.251 C 
ATOM     37  H   UNL     1      -1.764  -8.365   8.101  1.00  0.00     0.163 HD
ATOM     38  O   UNL     1      -1.743  -6.777   9.947  1.00  0.00    -0.269 OA
BRANCH  36  39
ATOM     39  C   UNL     1      -1.085  -5.130   8.404  1.00  0.00     0.039 A 
ATOM     40  C   UNL     1      -0.187  -4.404   9.189  1.00  0.00     0.014 A 
ATOM     41  C   UNL     1      -1.637  -4.566   7.249  1.00  0.00     0.014 A 
ATOM     42  C   UNL     1       0.196  -3.123   8.789  1.00  0.00     0.010 A 
ATOM     43  C   UNL     1      -1.195  -3.324   6.813  1.00  0.00     0.010 A 
ATOM     44  C   UNL     1      -0.286  -2.583   7.585  1.00  0.00    -0.014 A 
BRANCH  44  45
ATOM     45  C   UNL     1       0.109  -1.230   7.122  1.00  0.00     0.031 A 
ATOM     46  C   UNL     1      -0.943  -0.162   6.986  1.00  0.00     0.074 A 
ATOM     47  C   UNL     1       1.381  -0.985   6.754  1.00  0.00     0.049 A 
ATOM     48  N   UNL     1      -0.844   1.038   6.476  1.00  0.00    -0.248 NA
ATOM     49  C   UNL     1      -2.295  -0.502   7.460  1.00  0.00     0.031 C 
ATOM     50  C   UNL     1       2.482  -1.948   6.815  1.00  0.00     0.029 A 
ATOM     51  N   UNL     1       1.960   0.146   6.233  1.00  0.00    -0.354 N 
ATOM     52  C   UNL     1      -2.119   1.584   6.547  1.00  0.00     0.074 A 
ATOM     53  C   UNL     1      -2.986   0.569   7.100  1.00  0.00     0.031 C 
ATOM     54  C   UNL     1       3.603  -1.365   6.359  1.00  0.00     0.029 A 
ATOM     55  C   UNL     1       3.292  -0.005   5.928  1.00  0.00     0.049 A 
ATOM     56  H   UNL     1       1.467   0.986   6.091  1.00  0.00     0.167 HD
ATOM     57  C   UNL     1      -2.526   2.828   6.200  1.00  0.00     0.037 A 
ATOM     58  C   UNL     1       4.160   0.849   5.349  1.00  0.00     0.037 A 
ATOM     59  C   UNL     1      -1.647   3.838   5.671  1.00  0.00     0.049 A 
ATOM     60  C   UNL     1       3.682   2.221   4.955  1.00  0.00     0.074 A 
ATOM     61  C   UNL     1      -1.948   5.145   5.331  1.00  0.00     0.029 A 
ATOM     62  N   UNL     1      -0.297   3.654   5.407  1.00  0.00    -0.354 N 
ATOM     63  N   UNL     1       2.481   2.739   5.066  1.00  0.00    -0.248 NA
ATOM     64  C   UNL     1       4.674   3.129   4.363  1.00  0.00     0.031 C 
ATOM     65  C   UNL     1      -0.792   5.736   4.811  1.00  0.00     0.029 A 
ATOM     66  C   UNL     1       0.244   4.819   4.890  1.00  0.00     0.049 A 
ATOM     67  H   UNL     1       0.201   2.820   5.563  1.00  0.00     0.167 HD
ATOM     68  C   UNL     1       2.585   4.046   4.602  1.00  0.00     0.074 A 
ATOM     69  C   UNL     1       3.964   4.238   4.202  1.00  0.00     0.031 C 
ATOM     70  C   UNL     1       1.627   5.002   4.523  1.00  0.00     0.037 A 
BRANCH  57  71
ATOM     71  C   UNL     1      -3.982   3.164   6.376  1.00  0.00     0.058 A 
ATOM     72  C   UNL     1      -4.565   3.288   7.647  1.00  0.00     0.135 A 
ATOM     73  C   UNL     1      -4.798   3.401   5.258  1.00  0.00     0.135 A 
ATOM     74  F   UNL     1      -3.836   3.058   8.752  1.00  0.00    -0.206 F 
ATOM     75  C   UNL     1      -5.911   3.603   7.804  1.00  0.00     0.059 A 
ATOM     76  C   UNL     1      -6.139   3.749   5.391  1.00  0.00     0.059 A 
ATOM     77  F   UNL     1      -4.295   3.296   4.018  1.00  0.00    -0.206 F 
ATOM     78  C   UNL     1      -6.689   3.833   6.669  1.00  0.00     0.060 A 
BRANCH  78  79
ATOM     79  S   UNL     1      -8.432   4.248   6.891  1.00  0.00     0.124 S 
ATOM     80  O   UNL     1      -8.982   2.970   7.329  1.00  0.00    -0.237 OA
ATOM     81  O   UNL     1      -8.375   5.295   7.906  1.00  0.00    -0.237 OA
ATOM     82  O   UNL     1      -8.849   4.688   5.563  1.00  0.00    -0.744 OA
ENDBRANCH  78  79
ENDBRANCH  57  71
BRANCH  58  83
ATOM     83  C   UNL     1       5.572   0.437   5.125  1.00  0.00     0.058 A 
ATOM     84  C   UNL     1       6.618   1.015   5.860  1.00  0.00     0.135 A 
ATOM     85  C   UNL     1       5.905  -0.546   4.181  1.00  0.00     0.135 A 
ATOM     86  F   UNL     1       6.353   1.966   6.769  1.00  0.00    -0.206 F 
ATOM     87  C   UNL     1       7.944   0.648   5.656  1.00  0.00     0.059 A 
ATOM     88  C   UNL     1       7.221  -0.952   3.978  1.00  0.00     0.059 A 
ATOM     89  F   UNL     1       4.942  -1.140   3.459  1.00  0.00    -0.206 F 
ATOM     90  C   UNL     1       8.235  -0.340   4.713  1.00  0.00     0.060 A 
BRANCH  90  91
ATOM     91  S   UNL     1       9.957  -0.836   4.485  1.00  0.00     0.124 S 
ATOM     92  O   UNL     1      10.510   0.329   3.806  1.00  0.00    -0.237 OA
ATOM     93  O   UNL     1      10.400  -1.044   5.860  1.00  0.00    -0.237 OA
ATOM     94  O   UNL     1       9.853  -2.048   3.678  1.00  0.00    -0.744 OA
ENDBRANCH  90  91
ENDBRANCH  58  83
BRANCH  70  95
ATOM     95  C   UNL     1       2.035   6.370   4.050  1.00  0.00     0.058 A 
ATOM     96  C   UNL     1       2.330   6.636   2.705  1.00  0.00     0.135 A 
ATOM     97  C   UNL     1       2.034   7.450   4.949  1.00  0.00     0.135 A 
ATOM     98  F   UNL     1       2.351   5.639   1.806  1.00  0.00    -0.206 F 
ATOM     99  C   UNL     1       2.616   7.926   2.268  1.00  0.00     0.059 A 
ATOM    100  C   UNL     1       2.288   8.751   4.529  1.00  0.00     0.059 A 
ATOM    101  F   UNL     1       1.750   7.250   6.246  1.00  0.00    -0.206 F 
ATOM    102  C   UNL     1       2.583   8.978   3.186  1.00  0.00     0.060 A 
BRANCH 102 103
ATOM    103  S   UNL     1       2.886  10.655   2.590  1.00  0.00     0.124 S 
ATOM    104  O   UNL     1       4.319  10.616   2.319  1.00  0.00    -0.237 OA
ATOM    105  O   UNL     1       2.021  10.728   1.417  1.00  0.00    -0.237 OA
ATOM    106  O   UNL     1       2.482  11.495   3.714  1.00  0.00    -0.744 OA
ENDBRANCH 102 103
ENDBRANCH  70  95
ENDBRANCH  44  45
ENDBRANCH  36  39
ENDBRANCH  34  35
ENDBRANCH  33  34
ENDBRANCH  32  33
ENDBRANCH  31  32
ENDBRANCH   1  31
TORSDOF 22
