REMARK SMILES COc1cccc(-c2nn(-c3cc4c(cc3C(N)=O)OCO4)cc2C(=O)NCCCCCCNC(=O)c2ccc(-c3c4nc(c(-c5c(F)cc(S(=O)(=O)[O-])cc5F)c5ccc([nH]5)c(-c5c(F)cc(S(=O)(=O)[O-])cc5F)c5nc(c(-c6c(F)cc(S(=O)(=O)[O-])cc6F)c6ccc3[nH]6)C=C5)C=C4)cc2)c1
REMARK SMILES IDX 31 1 30 2 29 3 28 4 27 5 25 6 26 7 24 9 8 10 9 11 10 12
REMARK SMILES IDX 23 13 7 14 3 15 4 16 103 17 5 18 6 19 2 20 1 21 11 22 12 23
REMARK SMILES IDX 16 24 13 25 15 26 14 27 22 28 20 29 21 30 17 31 18 32 19 33
REMARK SMILES IDX 32 36 33 37 34 38 35 39 36 41 37 42 38 43 102 44 39 45
REMARK SMILES IDX 101 46 40 47 41 48 42 49 95 50 43 51 100 52 94 53 96 54
REMARK SMILES IDX 44 55 99 56 93 57 92 58 45 60 79 61 58 62 78 63 59 64 62 65
REMARK SMILES IDX 77 66 97 67 60 68 61 69 76 71 98 72 63 73 46 74 47 75 56 76
REMARK SMILES IDX 48 77 49 78 55 79 57 80 50 81 51 82 52 83 53 84 54 85 80 86
REMARK SMILES IDX 81 87 90 88 82 89 83 90 89 91 91 92 84 93 85 94 86 95 87 96
REMARK SMILES IDX 88 97 64 98 65 99 74 100 66 101 67 102 73 103 75 104 68 105
REMARK SMILES IDX 69 106 70 107 71 108 72 109
REMARK H PARENT 27 8 18 34 18 35 34 40 96 59 62 70
REMARK Flexibility Score: inf
ROOT
ATOM      1  C   UNL     1       5.689 -10.275  -0.596  1.00  0.00     0.002 C 
ENDROOT
BRANCH   1   2
ATOM      2  C   UNL     1       5.261  -9.924   0.838  1.00  0.00     0.002 C 
BRANCH   2   3
ATOM      3  C   UNL     1       5.860  -8.627   1.399  1.00  0.00     0.021 C 
BRANCH   3   4
ATOM      4  C   UNL     1       5.572  -7.410   0.522  1.00  0.00     0.116 C 
BRANCH   4   5
ATOM      5  N   UNL     1       4.202  -6.978   0.691  1.00  0.00    -0.352 N 
ATOM      6  C   UNL     1       3.624  -5.902   1.312  1.00  0.00     0.255 C 
ATOM      7  O   UNL     1       2.397  -5.850   1.227  1.00  0.00    -0.269 OA
ATOM      8  H   UNL     1       3.548  -7.584   0.273  1.00  0.00     0.163 HD
BRANCH   6   9
ATOM      9  C   UNL     1       4.407  -4.858   1.960  1.00  0.00     0.086 A 
ATOM     10  C   UNL     1       3.956  -3.564   2.401  1.00  0.00     0.106 A 
ATOM     11  N   UNL     1       4.987  -2.780   2.787  1.00  0.00    -0.167 NA
ATOM     12  N   UNL     1       6.074  -3.528   2.494  1.00  0.00    -0.239 N 
ATOM     13  C   UNL     1       5.735  -4.847   2.328  1.00  0.00     0.129 A 
BRANCH  10  14
ATOM     14  C   UNL     1       2.574  -3.087   2.457  1.00  0.00     0.007 A 
ATOM     15  C   UNL     1       0.832  -1.556   1.748  1.00  0.00     0.119 A 
ATOM     16  C   UNL     1      -0.105  -2.291   2.482  1.00  0.00     0.046 A 
ATOM     17  C   UNL     1       2.175  -1.948   1.745  1.00  0.00     0.056 A 
ATOM     18  C   UNL     1       0.286  -3.417   3.202  1.00  0.00     0.005 A 
ATOM     19  C   UNL     1       1.624  -3.807   3.197  1.00  0.00     0.011 A 
BRANCH  15  20
ATOM     20  O   UNL     1       0.324  -0.455   1.113  1.00  0.00    -0.497 OA
ATOM     21  C   UNL     1       0.987  -0.074  -0.086  1.00  0.00     0.278 C 
ENDBRANCH  15  20
ENDBRANCH  10  14
BRANCH  12  22
ATOM     22  C   UNL     1       7.398  -3.027   2.506  1.00  0.00     0.081 A 
ATOM     23  C   UNL     1       7.803  -2.261   3.615  1.00  0.00     0.079 A 
ATOM     24  C   UNL     1       8.325  -3.370   1.475  1.00  0.00     0.069 A 
ATOM     25  C   UNL     1       9.140  -1.930   3.702  1.00  0.00     0.167 A 
ATOM     26  C   UNL     1       9.688  -3.087   1.662  1.00  0.00     0.066 A 
ATOM     27  C   UNL     1      10.054  -2.356   2.768  1.00  0.00     0.166 A 
ATOM     28  O   UNL     1       9.725  -1.184   4.677  1.00  0.00    -0.454 OA
ATOM     29  O   UNL     1      11.318  -1.933   3.034  1.00  0.00    -0.454 OA
ATOM     30  C   UNL     1      11.074  -1.080   4.171  1.00  0.00     0.468 C 
BRANCH  24  31
ATOM     31  C   UNL     1       7.881  -3.831   0.112  1.00  0.00     0.251 C 
ATOM     32  N   UNL     1       8.752  -3.686  -0.934  1.00  0.00    -0.366 N 
ATOM     33  O   UNL     1       6.761  -4.255  -0.143  1.00  0.00    -0.269 OA
ATOM     34  H   UNL     1       9.663  -3.348  -0.773  1.00  0.00     0.159 HD
ATOM     35  H   UNL     1       8.469  -3.920  -1.848  1.00  0.00     0.159 HD
ENDBRANCH  24  31
ENDBRANCH  12  22
ENDBRANCH   6   9
ENDBRANCH   4   5
ENDBRANCH   3   4
ENDBRANCH   2   3
ENDBRANCH   1   2
BRANCH   1  36
ATOM     36  C   UNL     1       7.201 -10.250  -0.865  1.00  0.00     0.021 C 
BRANCH  36  37
ATOM     37  C   UNL     1       7.968 -11.324  -0.107  1.00  0.00     0.116 C 
BRANCH  37  38
ATOM     38  N   UNL     1       7.630 -12.658  -0.591  1.00  0.00    -0.352 N 
ATOM     39  C   UNL     1       8.079 -13.879  -0.139  1.00  0.00     0.251 C 
ATOM     40  H   UNL     1       6.996 -12.690  -1.343  1.00  0.00     0.163 HD
ATOM     41  O   UNL     1       8.024 -14.861  -0.863  1.00  0.00    -0.269 OA
BRANCH  39  42
ATOM     42  C   UNL     1       8.627 -13.985   1.226  1.00  0.00     0.039 A 
ATOM     43  C   UNL     1       9.745 -14.787   1.472  1.00  0.00     0.014 A 
ATOM     44  C   UNL     1       8.011 -13.284   2.262  1.00  0.00     0.014 A 
ATOM     45  C   UNL     1      10.284 -14.819   2.755  1.00  0.00     0.010 A 
ATOM     46  C   UNL     1       8.605 -13.230   3.502  1.00  0.00     0.010 A 
ATOM     47  C   UNL     1       9.723 -14.019   3.763  1.00  0.00    -0.014 A 
BRANCH  47  48
ATOM     48  C   UNL     1      10.435 -13.840   5.031  1.00  0.00     0.031 A 
ATOM     49  C   UNL     1      11.813 -13.300   4.841  1.00  0.00     0.074 A 
ATOM     50  C   UNL     1       9.825 -13.892   6.237  1.00  0.00     0.049 A 
ATOM     51  N   UNL     1      12.943 -13.881   5.079  1.00  0.00    -0.248 NA
ATOM     52  C   UNL     1      11.957 -12.025   4.108  1.00  0.00     0.031 C 
ATOM     53  C   UNL     1       8.385 -14.061   6.477  1.00  0.00     0.029 A 
ATOM     54  N   UNL     1      10.309 -13.671   7.496  1.00  0.00    -0.354 N 
ATOM     55  C   UNL     1      13.917 -12.915   4.814  1.00  0.00     0.074 A 
ATOM     56  C   UNL     1      13.282 -11.937   3.980  1.00  0.00     0.031 C 
ATOM     57  C   UNL     1       8.087 -13.683   7.738  1.00  0.00     0.029 A 
ATOM     58  C   UNL     1       9.323 -13.413   8.449  1.00  0.00     0.049 A 
ATOM     59  H   UNL     1      11.270 -13.693   7.711  1.00  0.00     0.167 HD
ATOM     60  C   UNL     1      15.020 -12.821   5.611  1.00  0.00     0.037 A 
ATOM     61  C   UNL     1       9.496 -12.986   9.727  1.00  0.00     0.037 A 
ATOM     62  C   UNL     1      15.160 -14.026   6.391  1.00  0.00     0.049 A 
ATOM     63  C   UNL     1      10.891 -13.304  10.112  1.00  0.00     0.074 A 
ATOM     64  C   UNL     1      15.528 -15.335   6.170  1.00  0.00     0.029 A 
ATOM     65  N   UNL     1      14.476 -13.986   7.577  1.00  0.00    -0.354 N 
ATOM     66  N   UNL     1      11.349 -14.523  10.216  1.00  0.00    -0.248 NA
ATOM     67  C   UNL     1      11.907 -12.259  10.042  1.00  0.00     0.031 C 
ATOM     68  C   UNL     1      14.913 -16.101   7.204  1.00  0.00     0.029 A 
ATOM     69  C   UNL     1      14.232 -15.239   8.061  1.00  0.00     0.049 A 
ATOM     70  H   UNL     1      14.196 -13.155   8.025  1.00  0.00     0.167 HD
ATOM     71  C   UNL     1      12.660 -14.432   9.795  1.00  0.00     0.074 A 
ATOM     72  C   UNL     1      12.994 -13.015   9.871  1.00  0.00     0.031 C 
ATOM     73  C   UNL     1      13.239 -15.448   9.094  1.00  0.00     0.037 A 
BRANCH  60  74
ATOM     74  C   UNL     1      15.631 -11.510   6.115  1.00  0.00     0.058 A 
ATOM     75  C   UNL     1      16.709 -11.579   7.030  1.00  0.00     0.135 A 
ATOM     76  C   UNL     1      15.037 -10.233   6.000  1.00  0.00     0.135 A 
ATOM     77  F   UNL     1      17.383 -12.726   7.212  1.00  0.00    -0.206 F 
ATOM     78  C   UNL     1      17.088 -10.503   7.840  1.00  0.00     0.059 A 
ATOM     79  C   UNL     1      15.422  -9.140   6.771  1.00  0.00     0.059 A 
ATOM     80  F   UNL     1      14.004  -9.977   5.194  1.00  0.00    -0.206 F 
ATOM     81  C   UNL     1      16.420  -9.291   7.716  1.00  0.00     0.060 A 
BRANCH  81  82
ATOM     82  S   UNL     1      16.841  -7.921   8.806  1.00  0.00     0.124 S 
ATOM     83  O   UNL     1      16.378  -8.421  10.095  1.00  0.00    -0.237 OA
ATOM     84  O   UNL     1      18.287  -7.833   8.632  1.00  0.00    -0.237 OA
ATOM     85  O   UNL     1      16.081  -6.806   8.248  1.00  0.00    -0.744 OA
ENDBRANCH  81  82
ENDBRANCH  60  74
BRANCH  61  86
ATOM     86  C   UNL     1       8.621 -12.113  10.559  1.00  0.00     0.058 A 
ATOM     87  C   UNL     1       8.810 -11.998  11.949  1.00  0.00     0.135 A 
ATOM     88  C   UNL     1       7.770 -11.156   9.971  1.00  0.00     0.135 A 
ATOM     89  F   UNL     1       9.611 -12.859  12.595  1.00  0.00    -0.206 F 
ATOM     90  C   UNL     1       8.241 -10.961  12.700  1.00  0.00     0.059 A 
ATOM     91  C   UNL     1       7.184 -10.120  10.700  1.00  0.00     0.059 A 
ATOM     92  F   UNL     1       7.555 -11.145   8.646  1.00  0.00    -0.206 F 
ATOM     93  C   UNL     1       7.448 -10.011  12.060  1.00  0.00     0.060 A 
BRANCH  93  94
ATOM     94  S   UNL     1       6.864  -8.568  12.985  1.00  0.00     0.124 S 
ATOM     95  O   UNL     1       5.889  -9.164  13.891  1.00  0.00    -0.237 OA
ATOM     96  O   UNL     1       8.092  -8.079  13.602  1.00  0.00    -0.237 OA
ATOM     97  O   UNL     1       6.305  -7.705  11.947  1.00  0.00    -0.744 OA
ENDBRANCH  93  94
ENDBRANCH  61  86
BRANCH  73  98
ATOM     98  C   UNL     1      12.736 -16.841   9.319  1.00  0.00     0.058 A 
ATOM     99  C   UNL     1      11.469 -17.322   8.956  1.00  0.00     0.135 A 
ATOM    100  C   UNL     1      13.648 -17.762   9.859  1.00  0.00     0.135 A 
ATOM    101  F   UNL     1      10.569 -16.521   8.364  1.00  0.00    -0.206 F 
ATOM    102  C   UNL     1      11.116 -18.660   9.150  1.00  0.00     0.059 A 
ATOM    103  C   UNL     1      13.332 -19.102  10.028  1.00  0.00     0.059 A 
ATOM    104  F   UNL     1      14.890 -17.366  10.187  1.00  0.00    -0.206 F 
ATOM    105  C   UNL     1      12.058 -19.543   9.683  1.00  0.00     0.060 A 
BRANCH 105 106
ATOM    106  S   UNL     1      11.633 -21.287   9.872  1.00  0.00     0.124 S 
ATOM    107  O   UNL     1      10.664 -21.250  10.962  1.00  0.00    -0.237 OA
ATOM    108  O   UNL     1      11.098 -21.626   8.557  1.00  0.00    -0.237 OA
ATOM    109  O   UNL     1      12.912 -21.917  10.196  1.00  0.00    -0.744 OA
ENDBRANCH 105 106
ENDBRANCH  73  98
ENDBRANCH  47  48
ENDBRANCH  39  42
ENDBRANCH  37  38
ENDBRANCH  36  37
ENDBRANCH   1  36
TORSDOF 20
