REMARK SMILES C[C@H]1OCC[C@@H]1C(=O)Nc1sc2c(c1C(=O)NCCCCCCNC(=O)c1ccc(-c3c4nc(c(-c5c(F)cc(S(=O)(=O)[O-])cc5F)c5ccc([nH]5)c(-c5c(F)cc(S(=O)(=O)[O-])cc5F)c5nc(c(-c6c(F)cc(S(=O)(=O)[O-])cc6F)c6ccc3[nH]6)C=C5)C=C4)cc1)CCC2
REMARK SMILES IDX 21 1 20 2 19 3 18 4 17 5 15 6 16 7 14 9 10 10 11 11 12 12
REMARK SMILES IDX 13 13 95 14 93 15 94 16 9 17 7 18 8 19 6 21 1 22 2 23 3 24
REMARK SMILES IDX 4 25 5 26 22 27 23 28 24 29 25 30 26 32 27 33 28 34 92 35
REMARK SMILES IDX 29 36 91 37 30 38 31 39 32 40 85 41 33 42 90 43 84 44 86 45
REMARK SMILES IDX 34 46 89 47 83 48 82 49 35 51 69 52 48 53 68 54 49 55 52 56
REMARK SMILES IDX 67 57 87 58 50 59 51 60 66 62 88 63 53 64 36 65 37 66 46 67
REMARK SMILES IDX 38 68 39 69 45 70 47 71 40 72 41 73 42 74 43 75 44 76 70 77
REMARK SMILES IDX 71 78 80 79 72 80 73 81 79 82 81 83 74 84 75 85 76 86 77 87
REMARK SMILES IDX 78 88 54 89 55 90 64 91 56 92 57 93 63 94 65 95 58 96 59 97
REMARK SMILES IDX 60 98 61 99 62 100
REMARK H PARENT 17 8 9 20 24 31 86 50 52 61
REMARK Flexibility Score: inf
ROOT
ATOM      1  C   UNL     1      -6.070   2.929  -1.140  1.00  0.00     0.002 C 
ENDROOT
BRANCH   1   2
ATOM      2  C   UNL     1      -4.540   2.789  -1.222  1.00  0.00     0.002 C 
BRANCH   2   3
ATOM      3  C   UNL     1      -3.813   2.812   0.129  1.00  0.00     0.021 C 
BRANCH   3   4
ATOM      4  C   UNL     1      -4.341   1.787   1.128  1.00  0.00     0.116 C 
BRANCH   4   5
ATOM      5  N   UNL     1      -3.895   0.442   0.893  1.00  0.00    -0.352 N 
ATOM      6  C   UNL     1      -3.054  -0.400   1.570  1.00  0.00     0.254 C 
ATOM      7  O   UNL     1      -3.249  -1.594   1.312  1.00  0.00    -0.269 OA
ATOM      8  H   UNL     1      -4.272   0.043   0.076  1.00  0.00     0.163 HD
BRANCH   6   9
ATOM      9  C   UNL     1      -2.003  -0.004   2.522  1.00  0.00     0.078 A 
ATOM     10  C   UNL     1      -0.984  -0.916   2.839  1.00  0.00     0.108 A 
ATOM     11  S   UNL     1      -0.194  -0.589   4.324  1.00  0.00    -0.122 S 
ATOM     12  C   UNL     1      -0.897   0.914   4.365  1.00  0.00     0.011 A 
ATOM     13  C   UNL     1      -1.802   1.156   3.358  1.00  0.00    -0.019 A 
ATOM     14  C   UNL     1      -0.744   2.002   5.360  1.00  0.00     0.047 C 
ATOM     15  C   UNL     1      -2.366   2.524   3.565  1.00  0.00     0.038 C 
ATOM     16  C   UNL     1      -1.415   3.173   4.611  1.00  0.00     0.010 C 
BRANCH  10  17
ATOM     17  N   UNL     1      -0.573  -2.125   2.330  1.00  0.00    -0.317 N 
ATOM     18  C   UNL     1      -0.117  -2.469   1.097  1.00  0.00     0.230 C 
ATOM     19  O   UNL     1       0.099  -3.679   0.915  1.00  0.00    -0.274 OA
ATOM     20  H   UNL     1      -0.616  -2.871   2.971  1.00  0.00     0.170 HD
BRANCH  18  21
ATOM     21  C   UNL     1       0.276  -1.504  -0.020  1.00  0.00     0.110 C 
ATOM     22  C   UNL     1       2.352  -0.111  -0.416  1.00  0.00     0.039 C 
ATOM     23  C   UNL     1       1.090  -0.298   0.428  1.00  0.00     0.127 C 
ATOM     24  O   UNL     1       0.238   0.841   0.241  1.00  0.00    -0.378 OA
ATOM     25  C   UNL     1      -0.655   0.547  -0.832  1.00  0.00     0.161 C 
ATOM     26  C   UNL     1      -0.846  -0.951  -0.864  1.00  0.00     0.044 C 
ENDBRANCH  18  21
ENDBRANCH  10  17
ENDBRANCH   6   9
ENDBRANCH   4   5
ENDBRANCH   3   4
ENDBRANCH   2   3
ENDBRANCH   1   2
BRANCH   1  27
ATOM     27  C   UNL     1      -6.590   4.048  -0.223  1.00  0.00     0.021 C 
BRANCH  27  28
ATOM     28  C   UNL     1      -6.254   5.445  -0.724  1.00  0.00     0.116 C 
BRANCH  28  29
ATOM     29  N   UNL     1      -6.990   5.751  -1.942  1.00  0.00    -0.352 N 
ATOM     30  C   UNL     1      -6.954   6.890  -2.712  1.00  0.00     0.251 C 
ATOM     31  H   UNL     1      -7.598   5.044  -2.259  1.00  0.00     0.163 HD
ATOM     32  O   UNL     1      -7.874   7.136  -3.478  1.00  0.00    -0.269 OA
BRANCH  30  33
ATOM     33  C   UNL     1      -5.810   7.812  -2.594  1.00  0.00     0.039 A 
ATOM     34  C   UNL     1      -6.033   9.191  -2.621  1.00  0.00     0.014 A 
ATOM     35  C   UNL     1      -4.516   7.302  -2.478  1.00  0.00     0.014 A 
ATOM     36  C   UNL     1      -4.956  10.056  -2.459  1.00  0.00     0.010 A 
ATOM     37  C   UNL     1      -3.463   8.154  -2.226  1.00  0.00     0.010 A 
ATOM     38  C   UNL     1      -3.673   9.533  -2.240  1.00  0.00    -0.014 A 
BRANCH  38  39
ATOM     39  C   UNL     1      -2.578  10.429  -1.875  1.00  0.00     0.031 A 
ATOM     40  C   UNL     1      -2.826  11.258  -0.662  1.00  0.00     0.074 A 
ATOM     41  C   UNL     1      -1.352  10.366  -2.435  1.00  0.00     0.049 A 
ATOM     42  N   UNL     1      -2.894  12.546  -0.583  1.00  0.00    -0.248 NA
ATOM     43  C   UNL     1      -3.167  10.571   0.595  1.00  0.00     0.031 C 
ATOM     44  C   UNL     1      -0.873   9.414  -3.441  1.00  0.00     0.029 A 
ATOM     45  N   UNL     1      -0.227  11.069  -2.125  1.00  0.00    -0.354 N 
ATOM     46  C   UNL     1      -3.067  12.845   0.767  1.00  0.00     0.074 A 
ATOM     47  C   UNL     1      -3.411  11.602   1.406  1.00  0.00     0.031 C 
ATOM     48  C   UNL     1       0.476   9.444  -3.479  1.00  0.00     0.029 A 
ATOM     49  C   UNL     1       0.950  10.506  -2.609  1.00  0.00     0.049 A 
ATOM     50  H   UNL     1      -0.245  11.903  -1.603  1.00  0.00     0.167 HD
ATOM     51  C   UNL     1      -2.690  14.050   1.281  1.00  0.00     0.037 A 
ATOM     52  C   UNL     1       2.221  10.857  -2.282  1.00  0.00     0.037 A 
ATOM     53  C   UNL     1      -2.470  15.013   0.230  1.00  0.00     0.049 A 
ATOM     54  C   UNL     1       2.160  12.245  -1.754  1.00  0.00     0.074 A 
ATOM     55  C   UNL     1      -3.246  15.528  -0.792  1.00  0.00     0.029 A 
ATOM     56  N   UNL     1      -1.170  15.318  -0.097  1.00  0.00    -0.354 N 
ATOM     57  N   UNL     1       1.863  13.285  -2.485  1.00  0.00    -0.248 NA
ATOM     58  C   UNL     1       2.004  12.433  -0.319  1.00  0.00     0.031 C 
ATOM     59  C   UNL     1      -2.355  15.668  -1.895  1.00  0.00     0.029 A 
ATOM     60  C   UNL     1      -1.080  15.301  -1.465  1.00  0.00     0.049 A 
ATOM     61  H   UNL     1      -0.440  15.512   0.534  1.00  0.00     0.167 HD
ATOM     62  C   UNL     1       1.071  14.076  -1.667  1.00  0.00     0.074 A 
ATOM     63  C   UNL     1       1.290  13.562  -0.317  1.00  0.00     0.031 C 
ATOM     64  C   UNL     1       0.097  14.877  -2.190  1.00  0.00     0.037 A 
BRANCH  51  65
ATOM     65  C   UNL     1      -2.163  14.271   2.684  1.00  0.00     0.058 A 
ATOM     66  C   UNL     1      -1.899  15.590   3.117  1.00  0.00     0.135 A 
ATOM     67  C   UNL     1      -1.631  13.251   3.502  1.00  0.00     0.135 A 
ATOM     68  F   UNL     1      -2.363  16.644   2.427  1.00  0.00    -0.206 F 
ATOM     69  C   UNL     1      -1.083  15.871   4.213  1.00  0.00     0.059 A 
ATOM     70  C   UNL     1      -0.861  13.509   4.631  1.00  0.00     0.059 A 
ATOM     71  F   UNL     1      -1.744  11.953   3.197  1.00  0.00    -0.206 F 
ATOM     72  C   UNL     1      -0.550  14.819   4.950  1.00  0.00     0.060 A 
BRANCH  72  73
ATOM     73  S   UNL     1       0.606  15.169   6.286  1.00  0.00     0.124 S 
ATOM     74  O   UNL     1       1.776  15.623   5.544  1.00  0.00    -0.237 OA
ATOM     75  O   UNL     1      -0.108  16.190   7.045  1.00  0.00    -0.237 OA
ATOM     76  O   UNL     1       0.742  13.879   6.956  1.00  0.00    -0.744 OA
ENDBRANCH  72  73
ENDBRANCH  51  65
BRANCH  52  77
ATOM     77  C   UNL     1       3.427   9.992  -2.148  1.00  0.00     0.058 A 
ATOM     78  C   UNL     1       4.695  10.555  -1.906  1.00  0.00     0.135 A 
ATOM     79  C   UNL     1       3.332   8.596  -1.969  1.00  0.00     0.135 A 
ATOM     80  F   UNL     1       4.886  11.876  -2.046  1.00  0.00    -0.206 F 
ATOM     81  C   UNL     1       5.774   9.798  -1.435  1.00  0.00     0.059 A 
ATOM     82  C   UNL     1       4.399   7.819  -1.520  1.00  0.00     0.059 A 
ATOM     83  F   UNL     1       2.170   7.948  -2.127  1.00  0.00    -0.206 F 
ATOM     84  C   UNL     1       5.606   8.433  -1.216  1.00  0.00     0.060 A 
BRANCH  84  85
ATOM     85  S   UNL     1       6.909   7.494  -0.384  1.00  0.00     0.124 S 
ATOM     86  O   UNL     1       7.918   7.383  -1.430  1.00  0.00    -0.237 OA
ATOM     87  O   UNL     1       7.244   8.361   0.740  1.00  0.00    -0.237 OA
ATOM     88  O   UNL     1       6.244   6.244  -0.021  1.00  0.00    -0.744 OA
ENDBRANCH  84  85
ENDBRANCH  52  77
BRANCH  64  89
ATOM     89  C   UNL     1       0.103  15.139  -3.674  1.00  0.00     0.058 A 
ATOM     90  C   UNL     1      -0.072  14.151  -4.659  1.00  0.00     0.135 A 
ATOM     91  C   UNL     1       0.124  16.474  -4.106  1.00  0.00     0.135 A 
ATOM     92  F   UNL     1      -0.211  12.860  -4.327  1.00  0.00    -0.206 F 
ATOM     93  C   UNL     1      -0.179  14.472  -6.012  1.00  0.00     0.059 A 
ATOM     94  C   UNL     1      -0.015  16.820  -5.447  1.00  0.00     0.059 A 
ATOM     95  F   UNL     1       0.225  17.470  -3.209  1.00  0.00    -0.206 F 
ATOM     96  C   UNL     1      -0.152  15.811  -6.397  1.00  0.00     0.060 A 
BRANCH  96  97
ATOM     97  S   UNL     1      -0.379  16.230  -8.138  1.00  0.00     0.124 S 
ATOM     98  O   UNL     1       0.907  15.851  -8.714  1.00  0.00    -0.237 OA
ATOM     99  O   UNL     1      -1.515  15.397  -8.523  1.00  0.00    -0.237 OA
ATOM    100  O   UNL     1      -0.652  17.665  -8.111  1.00  0.00    -0.744 OA
ENDBRANCH  96  97
ENDBRANCH  64  89
ENDBRANCH  38  39
ENDBRANCH  30  33
ENDBRANCH  28  29
ENDBRANCH  27  28
ENDBRANCH   1  27
TORSDOF 18
