REMARK SMILES CCSCC[C@@H]1CCC[C@@]1([NH3+])C(=O)NCCCCCCNC(=O)c1ccc(-c2c3nc(c(-c4c(F)cc(S(=O)(=O)[O-])cc4F)c4ccc([nH]4)c(-c4c(F)cc(S(=O)(=O)[O-])cc4F)c4nc(c(-c5c(F)cc(S(=O)(=O)[O-])cc5F)c5ccc2[nH]5)C=C4)C=C3)cc1
REMARK SMILES IDX 17 1 16 2 15 3 14 4 12 5 13 6 10 8 6 9 7 10 8 11 9 12 5 13
REMARK SMILES IDX 4 14 3 15 2 16 1 17 11 18 18 22 19 23 20 24 21 25 22 26
REMARK SMILES IDX 23 28 24 29 25 30 89 31 26 32 88 33 27 34 28 35 29 36 82 37
REMARK SMILES IDX 30 38 87 39 81 40 83 41 31 42 86 43 80 44 79 45 32 47 66 48
REMARK SMILES IDX 45 49 65 50 46 51 49 52 64 53 84 54 47 55 48 56 63 58 85 59
REMARK SMILES IDX 50 60 33 61 34 62 43 63 35 64 36 65 42 66 44 67 37 68 38 69
REMARK SMILES IDX 39 70 40 71 41 72 67 73 68 74 77 75 69 76 70 77 76 78 78 79
REMARK SMILES IDX 71 80 72 81 73 82 74 83 75 84 51 85 52 86 61 87 53 88 54 89
REMARK SMILES IDX 60 90 62 91 55 92 56 93 57 94 58 95 59 96
REMARK H PARENT 14 7 11 19 11 20 11 21 21 27 83 46 49 57
REMARK Flexibility Score: inf
ROOT
ATOM      1  C   UNL     1       6.782   0.924   3.654  1.00  0.00     0.002 C 
ENDROOT
BRANCH   1   2
ATOM      2  C   UNL     1       6.567   2.091   2.682  1.00  0.00     0.021 C 
BRANCH   2   3
ATOM      3  C   UNL     1       6.521   1.694   1.210  1.00  0.00     0.116 C 
BRANCH   3   4
ATOM      4  N   UNL     1       5.465   0.740   0.972  1.00  0.00    -0.351 N 
ATOM      5  C   UNL     1       4.416   0.750   0.114  1.00  0.00     0.281 C 
ATOM      6  O   UNL     1       3.626  -0.185   0.240  1.00  0.00    -0.268 OA
ATOM      7  H   UNL     1       5.516  -0.065   1.535  1.00  0.00     0.163 HD
BRANCH   5   8
ATOM      8  C   UNL     1       4.249   1.861  -0.952  1.00  0.00     0.176 C 
ATOM      9  C   UNL     1       2.998   1.666  -1.858  1.00  0.00     0.061 C 
ATOM     10  C   UNL     1       2.805   3.064  -2.477  1.00  0.00     0.011 C 
ATOM     11  C   UNL     1       3.268   4.052  -1.409  1.00  0.00     0.008 C 
ATOM     12  C   UNL     1       3.873   3.204  -0.293  1.00  0.00     0.079 C 
BRANCH   9  13
ATOM     13  C   UNL     1       3.032   0.572  -2.943  1.00  0.00     0.021 C 
BRANCH  13  14
ATOM     14  C   UNL     1       2.407  -0.778  -2.565  1.00  0.00     0.070 C 
BRANCH  14  15
ATOM     15  S   UNL     1       0.603  -0.941  -2.854  1.00  0.00    -0.162 SA
BRANCH  15  16
ATOM     16  C   UNL     1      -0.128   0.148  -1.588  1.00  0.00     0.066 C 
ATOM     17  C   UNL     1       0.189  -0.233  -0.153  1.00  0.00     0.015 C 
ENDBRANCH  15  16
ENDBRANCH  14  15
ENDBRANCH  13  14
ENDBRANCH   9  13
BRANCH   8  18
ATOM     18  N   UNL     1       5.468   1.989  -1.784  1.00  0.00    -0.345 N 
ATOM     19  H   UNL     1       5.332   2.725  -2.476  1.00  0.00     0.345 HD
ATOM     20  H   UNL     1       5.648   1.105  -2.260  1.00  0.00     0.345 HD
ATOM     21  H   UNL     1       6.262   2.224  -1.189  1.00  0.00     0.345 HD
ENDBRANCH   8  18
ENDBRANCH   5   8
ENDBRANCH   3   4
ENDBRANCH   2   3
ENDBRANCH   1   2
BRANCH   1  22
ATOM     22  C   UNL     1       7.950  -0.007   3.313  1.00  0.00     0.002 C 
BRANCH  22  23
ATOM     23  C   UNL     1       9.292   0.690   3.085  1.00  0.00     0.021 C 
BRANCH  23  24
ATOM     24  C   UNL     1       9.732   1.603   4.220  1.00  0.00     0.116 C 
BRANCH  24  25
ATOM     25  N   UNL     1       9.944   0.875   5.457  1.00  0.00    -0.352 N 
ATOM     26  C   UNL     1      11.042   0.889   6.282  1.00  0.00     0.251 C 
ATOM     27  H   UNL     1       9.203   0.293   5.742  1.00  0.00     0.163 HD
ATOM     28  O   UNL     1      11.141   0.075   7.190  1.00  0.00    -0.269 OA
BRANCH  26  29
ATOM     29  C   UNL     1      12.111   1.883   6.041  1.00  0.00     0.039 A 
ATOM     30  C   UNL     1      13.440   1.456   6.045  1.00  0.00     0.014 A 
ATOM     31  C   UNL     1      11.800   3.223   5.791  1.00  0.00     0.014 A 
ATOM     32  C   UNL     1      14.455   2.366   5.744  1.00  0.00     0.010 A 
ATOM     33  C   UNL     1      12.805   4.107   5.412  1.00  0.00     0.010 A 
ATOM     34  C   UNL     1      14.144   3.690   5.392  1.00  0.00    -0.014 A 
BRANCH  34  35
ATOM     35  C   UNL     1      15.209   4.654   5.010  1.00  0.00     0.031 A 
ATOM     36  C   UNL     1      15.447   5.884   5.843  1.00  0.00     0.074 A 
ATOM     37  C   UNL     1      15.924   4.446   3.886  1.00  0.00     0.049 A 
ATOM     38  N   UNL     1      16.287   6.866   5.643  1.00  0.00    -0.248 NA
ATOM     39  C   UNL     1      14.613   6.046   7.046  1.00  0.00     0.031 C 
ATOM     40  C   UNL     1      15.753   3.314   2.971  1.00  0.00     0.029 A 
ATOM     41  N   UNL     1      16.932   5.182   3.316  1.00  0.00    -0.354 N 
ATOM     42  C   UNL     1      16.079   7.762   6.685  1.00  0.00     0.074 A 
ATOM     43  C   UNL     1      14.992   7.238   7.482  1.00  0.00     0.031 C 
ATOM     44  C   UNL     1      16.642   3.419   1.971  1.00  0.00     0.029 A 
ATOM     45  C   UNL     1      17.416   4.644   2.146  1.00  0.00     0.049 A 
ATOM     46  H   UNL     1      17.276   6.017   3.707  1.00  0.00     0.167 HD
ATOM     47  C   UNL     1      16.750   8.904   6.967  1.00  0.00     0.037 A 
ATOM     48  C   UNL     1      18.369   5.091   1.305  1.00  0.00     0.037 A 
ATOM     49  C   UNL     1      17.846   9.408   6.180  1.00  0.00     0.049 A 
ATOM     50  C   UNL     1      19.090   6.372   1.632  1.00  0.00     0.074 A 
ATOM     51  C   UNL     1      18.626  10.527   6.410  1.00  0.00     0.029 A 
ATOM     52  N   UNL     1      18.315   8.828   5.010  1.00  0.00    -0.354 N 
ATOM     53  N   UNL     1      18.923   7.173   2.658  1.00  0.00    -0.248 NA
ATOM     54  C   UNL     1      20.132   6.808   0.692  1.00  0.00     0.031 C 
ATOM     55  C   UNL     1      19.530  10.655   5.352  1.00  0.00     0.029 A 
ATOM     56  C   UNL     1      19.357   9.581   4.493  1.00  0.00     0.049 A 
ATOM     57  H   UNL     1      17.960   8.004   4.606  1.00  0.00     0.167 HD
ATOM     58  C   UNL     1      19.860   8.189   2.502  1.00  0.00     0.074 A 
ATOM     59  C   UNL     1      20.598   7.894   1.292  1.00  0.00     0.031 C 
ATOM     60  C   UNL     1      20.089   9.269   3.291  1.00  0.00     0.037 A 
BRANCH  47  61
ATOM     61  C   UNL     1      16.324   9.688   8.179  1.00  0.00     0.058 A 
ATOM     62  C   UNL     1      16.540   9.209   9.482  1.00  0.00     0.135 A 
ATOM     63  C   UNL     1      15.737  10.956   8.040  1.00  0.00     0.135 A 
ATOM     64  F   UNL     1      17.082   7.996   9.675  1.00  0.00    -0.206 F 
ATOM     65  C   UNL     1      16.166   9.946  10.601  1.00  0.00     0.059 A 
ATOM     66  C   UNL     1      15.384  11.725   9.145  1.00  0.00     0.059 A 
ATOM     67  F   UNL     1      15.505  11.464   6.819  1.00  0.00    -0.206 F 
ATOM     68  C   UNL     1      15.591  11.205  10.422  1.00  0.00     0.060 A 
BRANCH  68  69
ATOM     69  S   UNL     1      15.129  12.155  11.886  1.00  0.00     0.124 S 
ATOM     70  O   UNL     1      13.977  11.399  12.370  1.00  0.00    -0.237 OA
ATOM     71  O   UNL     1      16.333  12.068  12.706  1.00  0.00    -0.237 OA
ATOM     72  O   UNL     1      14.829  13.480  11.352  1.00  0.00    -0.744 OA
ENDBRANCH  68  69
ENDBRANCH  47  61
BRANCH  48  73
ATOM     73  C   UNL     1      18.706   4.318   0.078  1.00  0.00     0.058 A 
ATOM     74  C   UNL     1      19.947   3.679  -0.057  1.00  0.00     0.135 A 
ATOM     75  C   UNL     1      17.796   4.205  -0.985  1.00  0.00     0.135 A 
ATOM     76  F   UNL     1      20.855   3.761   0.928  1.00  0.00    -0.206 F 
ATOM     77  C   UNL     1      20.285   2.976  -1.209  1.00  0.00     0.059 A 
ATOM     78  C   UNL     1      18.098   3.483  -2.135  1.00  0.00     0.059 A 
ATOM     79  F   UNL     1      16.587   4.782  -0.900  1.00  0.00    -0.206 F 
ATOM     80  C   UNL     1      19.352   2.883  -2.243  1.00  0.00     0.060 A 
BRANCH  80  81
ATOM     81  S   UNL     1      19.787   1.940  -3.721  1.00  0.00     0.124 S 
ATOM     82  O   UNL     1      20.765   2.819  -4.352  1.00  0.00    -0.237 OA
ATOM     83  O   UNL     1      20.313   0.704  -3.150  1.00  0.00    -0.237 OA
ATOM     84  O   UNL     1      18.513   1.807  -4.420  1.00  0.00    -0.744 OA
ENDBRANCH  80  81
ENDBRANCH  48  73
BRANCH  60  85
ATOM     85  C   UNL     1      21.209  10.193   2.895  1.00  0.00     0.058 A 
ATOM     86  C   UNL     1      21.112  11.039   1.780  1.00  0.00     0.135 A 
ATOM     87  C   UNL     1      22.373  10.271   3.678  1.00  0.00     0.135 A 
ATOM     88  F   UNL     1      20.024  11.001   0.994  1.00  0.00    -0.206 F 
ATOM     89  C   UNL     1      22.141  11.911   1.438  1.00  0.00     0.059 A 
ATOM     90  C   UNL     1      23.400  11.159   3.374  1.00  0.00     0.059 A 
ATOM     91  F   UNL     1      22.513   9.492   4.762  1.00  0.00    -0.206 F 
ATOM     92  C   UNL     1      23.280  11.966   2.244  1.00  0.00     0.060 A 
BRANCH  92  93
ATOM     93  S   UNL     1      24.591  13.128   1.809  1.00  0.00     0.124 S 
ATOM     94  O   UNL     1      25.166  12.494   0.628  1.00  0.00    -0.237 OA
ATOM     95  O   UNL     1      23.847  14.361   1.568  1.00  0.00    -0.237 OA
ATOM     96  O   UNL     1      25.443  13.139   2.994  1.00  0.00    -0.744 OA
ENDBRANCH  92  93
ENDBRANCH  60  85
ENDBRANCH  34  35
ENDBRANCH  26  29
ENDBRANCH  24  25
ENDBRANCH  23  24
ENDBRANCH  22  23
ENDBRANCH   1  22
TORSDOF 21
