REMARK SMILES O=C(NCCCCCCNC(=O)c1cccnc1NC[C@H](c1ccccc1)[NH+]1CCOCC1)c1ccc(-c2c3nc(c(-c4c(F)cc(S(=O)(=O)[O-])cc4F)c4ccc([nH]4)c(-c4c(F)cc(S(=O)(=O)[O-])cc4F)c4nc(c(-c5c(F)cc(S(=O)(=O)[O-])cc5F)c5ccc2[nH]5)C=C4)C=C3)cc1
REMARK SMILES IDX 7 1 6 2 5 3 4 4 3 5 1 6 2 7 34 9 35 10 99 11 36 12 98 13
REMARK SMILES IDX 37 14 38 15 39 16 92 17 40 18 97 19 91 20 93 21 41 22 96 23
REMARK SMILES IDX 90 24 89 25 42 27 76 28 55 29 75 30 56 31 59 32 74 33 94 34
REMARK SMILES IDX 57 35 58 36 73 38 95 39 60 40 43 41 44 42 53 43 45 44 46 45
REMARK SMILES IDX 52 46 54 47 47 48 48 49 49 50 50 51 51 52 77 53 78 54 87 55
REMARK SMILES IDX 79 56 80 57 86 58 88 59 81 60 82 61 83 62 84 63 85 64 61 65
REMARK SMILES IDX 62 66 71 67 63 68 64 69 70 70 72 71 65 72 66 73 67 74 68 75
REMARK SMILES IDX 69 76 8 77 9 78 10 79 11 80 12 82 13 83 14 84 18 85 15 86
REMARK SMILES IDX 17 87 16 88 19 89 20 91 21 92 28 93 29 94 33 95 30 97 32 98
REMARK SMILES IDX 31 99 22 100 23 101 27 102 24 103 26 104 25 105
REMARK H PARENT 3 8 93 26 59 37 10 81 19 90 28 96
REMARK Flexibility Score: inf
ROOT
ATOM      1  C   UNL     1       3.444  -8.484  -9.508  1.00  0.00     0.002 C 
ENDROOT
BRANCH   1   2
ATOM      2  C   UNL     1       2.643  -8.975  -8.298  1.00  0.00     0.002 C 
BRANCH   2   3
ATOM      3  C   UNL     1       1.168  -8.579  -8.270  1.00  0.00     0.021 C 
BRANCH   3   4
ATOM      4  C   UNL     1       0.360  -8.974  -9.499  1.00  0.00     0.116 C 
BRANCH   4   5
ATOM      5  N   UNL     1       0.239 -10.413  -9.657  1.00  0.00    -0.352 N 
ATOM      6  O   UNL     1      -0.818 -12.399  -9.804  1.00  0.00    -0.269 OA
ATOM      7  C   UNL     1      -0.894 -11.177  -9.826  1.00  0.00     0.251 C 
ATOM      8  H   UNL     1       1.087 -10.913  -9.642  1.00  0.00     0.163 HD
BRANCH   7   9
ATOM      9  C   UNL     1      -2.208 -10.515 -10.004  1.00  0.00     0.039 A 
ATOM     10  C   UNL     1      -2.352  -9.428 -10.868  1.00  0.00     0.014 A 
ATOM     11  C   UNL     1      -3.312 -10.992  -9.290  1.00  0.00     0.014 A 
ATOM     12  C   UNL     1      -3.554  -8.729 -10.906  1.00  0.00     0.010 A 
ATOM     13  C   UNL     1      -4.545 -10.338  -9.395  1.00  0.00     0.010 A 
ATOM     14  C   UNL     1      -4.667  -9.179 -10.177  1.00  0.00    -0.014 A 
BRANCH  14  15
ATOM     15  C   UNL     1      -5.955  -8.446 -10.291  1.00  0.00     0.031 A 
ATOM     16  C   UNL     1      -6.557  -7.735  -9.109  1.00  0.00     0.074 A 
ATOM     17  C   UNL     1      -6.564  -8.394 -11.492  1.00  0.00     0.049 A 
ATOM     18  N   UNL     1      -7.646  -7.009  -9.053  1.00  0.00    -0.248 NA
ATOM     19  C   UNL     1      -5.855  -7.858  -7.823  1.00  0.00     0.031 C 
ATOM     20  C   UNL     1      -6.084  -9.058 -12.707  1.00  0.00     0.029 A 
ATOM     21  N   UNL     1      -7.698  -7.739 -11.899  1.00  0.00    -0.354 N 
ATOM     22  C   UNL     1      -7.773  -6.608  -7.728  1.00  0.00     0.074 A 
ATOM     23  C   UNL     1      -6.660  -7.189  -7.008  1.00  0.00     0.031 C 
ATOM     24  C   UNL     1      -6.882  -8.730 -13.733  1.00  0.00     0.029 A 
ATOM     25  C   UNL     1      -7.961  -7.881 -13.241  1.00  0.00     0.049 A 
ATOM     26  H   UNL     1      -8.268  -7.218 -11.289  1.00  0.00     0.167 HD
ATOM     27  C   UNL     1      -8.725  -5.823  -7.167  1.00  0.00     0.037 A 
ATOM     28  C   UNL     1      -8.962  -7.388 -13.994  1.00  0.00     0.037 A 
ATOM     29  C   UNL     1      -9.820  -5.231  -7.895  1.00  0.00     0.049 A 
ATOM     30  C   UNL     1     -10.006  -6.525 -13.347  1.00  0.00     0.074 A 
ATOM     31  C   UNL     1     -10.812  -4.387  -7.425  1.00  0.00     0.029 A 
ATOM     32  N   UNL     1     -10.071  -5.424  -9.246  1.00  0.00    -0.354 N 
ATOM     33  N   UNL     1     -10.088  -6.130 -12.099  1.00  0.00    -0.248 NA
ATOM     34  C   UNL     1     -11.094  -6.046 -14.208  1.00  0.00     0.031 C 
ATOM     35  C   UNL     1     -11.683  -4.101  -8.483  1.00  0.00     0.029 A 
ATOM     36  C   UNL     1     -11.211  -4.732  -9.622  1.00  0.00     0.049 A 
ATOM     37  H   UNL     1      -9.519  -5.973  -9.850  1.00  0.00     0.167 HD
ATOM     38  C   UNL     1     -11.230  -5.341 -12.028  1.00  0.00     0.074 A 
ATOM     39  C   UNL     1     -11.796  -5.303 -13.362  1.00  0.00     0.031 C 
ATOM     40  C   UNL     1     -11.763  -4.707 -10.954  1.00  0.00     0.037 A 
BRANCH  27  41
ATOM     41  C   UNL     1      -8.638  -5.572  -5.686  1.00  0.00     0.058 A 
ATOM     42  C   UNL     1      -7.662  -4.727  -5.134  1.00  0.00     0.135 A 
ATOM     43  C   UNL     1      -9.564  -6.162  -4.809  1.00  0.00     0.135 A 
ATOM     44  F   UNL     1      -6.745  -4.147  -5.924  1.00  0.00    -0.206 F 
ATOM     45  C   UNL     1      -7.586  -4.502  -3.763  1.00  0.00     0.059 A 
ATOM     46  C   UNL     1      -9.521  -5.932  -3.436  1.00  0.00     0.059 A 
ATOM     47  F   UNL     1     -10.520  -6.975  -5.283  1.00  0.00    -0.206 F 
ATOM     48  C   UNL     1      -8.517  -5.114  -2.921  1.00  0.00     0.060 A 
BRANCH  48  49
ATOM     49  S   UNL     1      -8.396  -4.825  -1.142  1.00  0.00     0.124 S 
ATOM     50  O   UNL     1      -7.255  -5.665  -0.790  1.00  0.00    -0.237 OA
ATOM     51  O   UNL     1      -8.168  -3.386  -1.072  1.00  0.00    -0.237 OA
ATOM     52  O   UNL     1      -9.688  -5.278  -0.636  1.00  0.00    -0.744 OA
ENDBRANCH  48  49
ENDBRANCH  27  41
BRANCH  28  53
ATOM     53  C   UNL     1      -9.008  -7.693 -15.447  1.00  0.00     0.058 A 
ATOM     54  C   UNL     1      -8.730  -6.702 -16.399  1.00  0.00     0.135 A 
ATOM     55  C   UNL     1      -9.292  -8.987 -15.910  1.00  0.00     0.135 A 
ATOM     56  F   UNL     1      -8.456  -5.449 -16.003  1.00  0.00    -0.206 F 
ATOM     57  C   UNL     1      -8.738  -6.980 -17.761  1.00  0.00     0.059 A 
ATOM     58  C   UNL     1      -9.281  -9.295 -17.266  1.00  0.00     0.059 A 
ATOM     59  F   UNL     1      -9.546  -9.973 -15.036  1.00  0.00    -0.206 F 
ATOM     60  C   UNL     1      -9.011  -8.282 -18.185  1.00  0.00     0.060 A 
BRANCH  60  61
ATOM     61  S   UNL     1      -8.956  -8.650 -19.951  1.00  0.00     0.124 S 
ATOM     62  O   UNL     1     -10.219  -8.083 -20.408  1.00  0.00    -0.237 OA
ATOM     63  O   UNL     1      -7.749  -7.948 -20.376  1.00  0.00    -0.237 OA
ATOM     64  O   UNL     1      -8.867 -10.107 -19.985  1.00  0.00    -0.744 OA
ENDBRANCH  60  61
ENDBRANCH  28  53
BRANCH  40  65
ATOM     65  C   UNL     1     -13.008  -3.900 -11.189  1.00  0.00     0.058 A 
ATOM     66  C   UNL     1     -14.254  -4.513 -11.392  1.00  0.00     0.135 A 
ATOM     67  C   UNL     1     -12.956  -2.497 -11.191  1.00  0.00     0.135 A 
ATOM     68  F   UNL     1     -14.354  -5.851 -11.408  1.00  0.00    -0.206 F 
ATOM     69  C   UNL     1     -15.403  -3.762 -11.618  1.00  0.00     0.059 A 
ATOM     70  C   UNL     1     -14.096  -1.726 -11.391  1.00  0.00     0.059 A 
ATOM     71  F   UNL     1     -11.789  -1.863 -10.993  1.00  0.00    -0.206 F 
ATOM     72  C   UNL     1     -15.313  -2.368 -11.619  1.00  0.00     0.060 A 
BRANCH  72  73
ATOM     73  S   UNL     1     -16.811  -1.401 -11.898  1.00  0.00     0.124 S 
ATOM     74  O   UNL     1     -16.975  -1.523 -13.342  1.00  0.00    -0.237 OA
ATOM     75  O   UNL     1     -17.798  -2.107 -11.086  1.00  0.00    -0.237 OA
ATOM     76  O   UNL     1     -16.449  -0.071 -11.415  1.00  0.00    -0.744 OA
ENDBRANCH  72  73
ENDBRANCH  40  65
ENDBRANCH  14  15
ENDBRANCH   7   9
ENDBRANCH   4   5
ENDBRANCH   3   4
ENDBRANCH   2   3
ENDBRANCH   1   2
BRANCH   1  77
ATOM     77  C   UNL     1       3.362  -6.983  -9.807  1.00  0.00     0.021 C 
BRANCH  77  78
ATOM     78  C   UNL     1       3.685  -6.055  -8.637  1.00  0.00     0.116 C 
BRANCH  78  79
ATOM     79  N   UNL     1       5.035  -6.247  -8.136  1.00  0.00    -0.352 N 
ATOM     80  C   UNL     1       6.046  -5.326  -8.012  1.00  0.00     0.255 C 
ATOM     81  H   UNL     1       5.255  -7.162  -7.847  1.00  0.00     0.163 HD
ATOM     82  O   UNL     1       7.185  -5.695  -7.733  1.00  0.00    -0.269 OA
BRANCH  80  83
ATOM     83  C   UNL     1       5.766  -3.892  -8.221  1.00  0.00     0.082 A 
ATOM     84  C   UNL     1       4.770  -3.263  -7.464  1.00  0.00     0.019 A 
ATOM     85  C   UNL     1       6.510  -3.152  -9.149  1.00  0.00     0.139 A 
ATOM     86  C   UNL     1       4.488  -1.925  -7.698  1.00  0.00     0.021 A 
ATOM     87  N   UNL     1       6.208  -1.854  -9.391  1.00  0.00    -0.239 NA
ATOM     88  C   UNL     1       5.221  -1.273  -8.671  1.00  0.00     0.113 A 
BRANCH  85  89
ATOM     89  N   UNL     1       7.512  -3.753  -9.896  1.00  0.00    -0.363 N 
ATOM     90  H   UNL     1       7.719  -4.705  -9.748  1.00  0.00     0.162 HD
BRANCH  89  91
ATOM     91  C   UNL     1       8.266  -3.007 -10.897  1.00  0.00     0.184 C 
BRANCH  91  92
ATOM     92  C   UNL     1       9.791  -2.895 -10.550  1.00  0.00     0.234 C 
BRANCH  92  93
ATOM     93  N   UNL     1      10.733  -2.422 -11.609  1.00  0.00    -0.323 N 
ATOM     94  C   UNL     1      11.088  -0.992 -11.628  1.00  0.00     0.291 C 
ATOM     95  C   UNL     1      10.398  -2.837 -12.986  1.00  0.00     0.291 C 
ATOM     96  H   UNL     1      11.562  -2.923 -11.290  1.00  0.00     0.348 HD
ATOM     97  C   UNL     1      10.055  -0.104 -12.329  1.00  0.00     0.221 C 
ATOM     98  C   UNL     1       9.440  -1.887 -13.741  1.00  0.00     0.221 C 
ATOM     99  O   UNL     1       9.880  -0.524 -13.688  1.00  0.00    -0.370 OA
ENDBRANCH  92  93
BRANCH  92 100
ATOM    100  C   UNL     1      10.040  -2.235  -9.186  1.00  0.00     0.011 A 
ATOM    101  C   UNL     1       9.418  -1.026  -8.824  1.00  0.00     0.010 A 
ATOM    102  C   UNL     1      10.933  -2.818  -8.273  1.00  0.00     0.010 A 
ATOM    103  C   UNL     1       9.697  -0.409  -7.603  1.00  0.00     0.001 A 
ATOM    104  C   UNL     1      11.196  -2.211  -7.042  1.00  0.00     0.001 A 
ATOM    105  C   UNL     1      10.586  -1.002  -6.712  1.00  0.00     0.000 A 
ENDBRANCH  92 100
ENDBRANCH  91  92
ENDBRANCH  89  91
ENDBRANCH  85  89
ENDBRANCH  80  83
ENDBRANCH  78  79
ENDBRANCH  77  78
ENDBRANCH   1  77
TORSDOF 21
