REMARK SMILES C[C@@H]1CCC[C@@](Cc2ncccn2)(C(=O)NCCCCCCNC(=O)c2ccc(-c3c4nc(c(-c5c(F)cc(S(=O)(=O)[O-])cc5F)c5ccc([nH]5)c(-c5c(F)cc(S(=O)(=O)[O-])cc5F)c5nc(c(-c6c(F)cc(S(=O)(=O)[O-])cc6F)c6ccc3[nH]6)C=C5)C=C4)cc2)C1
REMARK SMILES IDX 20 1 19 2 18 3 17 4 16 5 14 6 15 7 6 9 1 10 2 11 3 12 92 13
REMARK SMILES IDX 4 14 5 15 7 16 8 17 9 18 13 19 10 20 12 21 11 22 21 23 22 24
REMARK SMILES IDX 23 25 24 26 25 28 26 29 27 30 91 31 28 32 90 33 29 34 30 35
REMARK SMILES IDX 31 36 84 37 32 38 89 39 83 40 85 41 33 42 88 43 82 44 81 45
REMARK SMILES IDX 34 47 68 48 47 49 67 50 48 51 51 52 66 53 86 54 49 55 50 56
REMARK SMILES IDX 65 58 87 59 52 60 35 61 36 62 45 63 37 64 38 65 44 66 46 67
REMARK SMILES IDX 39 68 40 69 41 70 42 71 43 72 69 73 70 74 79 75 71 76 72 77
REMARK SMILES IDX 78 78 80 79 73 80 74 81 75 82 76 83 77 84 53 85 54 86 63 87
REMARK SMILES IDX 55 88 56 89 62 90 64 91 57 92 58 93 59 94 60 95 61 96
REMARK H PARENT 16 8 23 27 85 46 51 57
REMARK Flexibility Score: inf
ROOT
ATOM      1  C   UNL     1      -6.862  -3.478   0.065  1.00  0.00     0.002 C 
ENDROOT
BRANCH   1   2
ATOM      2  C   UNL     1      -6.313  -2.780  -1.187  1.00  0.00     0.002 C 
BRANCH   2   3
ATOM      3  C   UNL     1      -5.440  -1.546  -0.944  1.00  0.00     0.021 C 
BRANCH   3   4
ATOM      4  C   UNL     1      -4.292  -1.756   0.034  1.00  0.00     0.116 C 
BRANCH   4   5
ATOM      5  N   UNL     1      -3.146  -2.417  -0.549  1.00  0.00    -0.356 N 
ATOM      6  C   UNL     1      -1.810  -2.283  -0.339  1.00  0.00     0.226 C 
ATOM      7  O   UNL     1      -1.123  -3.205  -0.801  1.00  0.00    -0.274 OA
ATOM      8  H   UNL     1      -3.377  -3.091  -1.228  1.00  0.00     0.163 HD
BRANCH   6   9
ATOM      9  C   UNL     1      -1.139  -1.095   0.418  1.00  0.00     0.056 C 
ATOM     10  C   UNL     1       1.743   0.173   1.768  1.00  0.00     0.007 C 
ATOM     11  C   UNL     1       1.278   0.061   0.314  1.00  0.00    -0.013 C 
ATOM     12  C   UNL     1       0.617   1.350  -0.170  1.00  0.00     0.003 C 
ATOM     13  C   UNL     1       0.389  -1.163   0.020  1.00  0.00     0.020 C 
ATOM     14  C   UNL     1      -0.817   1.478   0.317  1.00  0.00     0.001 C 
ATOM     15  C   UNL     1      -1.667   0.273  -0.077  1.00  0.00     0.017 C 
BRANCH   9  16
ATOM     16  C   UNL     1      -1.225  -1.339   1.948  1.00  0.00     0.094 C 
BRANCH  16  17
ATOM     17  C   UNL     1      -2.563  -1.327   2.631  1.00  0.00     0.129 A 
ATOM     18  N   UNL     1      -3.136  -0.132   2.871  1.00  0.00    -0.241 NA
ATOM     19  N   UNL     1      -3.079  -2.509   3.023  1.00  0.00    -0.241 NA
ATOM     20  C   UNL     1      -4.300  -0.147   3.553  1.00  0.00     0.115 A 
ATOM     21  C   UNL     1      -4.243  -2.465   3.701  1.00  0.00     0.115 A 
ATOM     22  C   UNL     1      -4.907  -1.298   3.994  1.00  0.00     0.040 A 
ENDBRANCH  16  17
ENDBRANCH   9  16
ENDBRANCH   6   9
ENDBRANCH   4   5
ENDBRANCH   3   4
ENDBRANCH   2   3
ENDBRANCH   1   2
BRANCH   1  23
ATOM     23  C   UNL     1      -7.549  -2.579   1.099  1.00  0.00     0.021 C 
BRANCH  23  24
ATOM     24  C   UNL     1      -8.726  -1.753   0.588  1.00  0.00     0.116 C 
BRANCH  24  25
ATOM     25  N   UNL     1      -9.772  -2.575   0.011  1.00  0.00    -0.352 N 
ATOM     26  C   UNL     1     -11.128  -2.552   0.203  1.00  0.00     0.251 C 
ATOM     27  H   UNL     1      -9.457  -3.260  -0.622  1.00  0.00     0.163 HD
ATOM     28  O   UNL     1     -11.810  -3.455  -0.286  1.00  0.00    -0.269 OA
BRANCH  26  29
ATOM     29  C   UNL     1     -11.783  -1.487   0.997  1.00  0.00     0.039 A 
ATOM     30  C   UNL     1     -12.862  -1.844   1.812  1.00  0.00     0.014 A 
ATOM     31  C   UNL     1     -11.400  -0.144   0.908  1.00  0.00     0.014 A 
ATOM     32  C   UNL     1     -13.526  -0.871   2.563  1.00  0.00     0.010 A 
ATOM     33  C   UNL     1     -12.025   0.819   1.706  1.00  0.00     0.010 A 
ATOM     34  C   UNL     1     -13.099   0.466   2.536  1.00  0.00    -0.014 A 
BRANCH  34  35
ATOM     35  C   UNL     1     -13.778   1.486   3.377  1.00  0.00     0.031 A 
ATOM     36  C   UNL     1     -14.578   2.595   2.747  1.00  0.00     0.074 A 
ATOM     37  C   UNL     1     -13.667   1.413   4.719  1.00  0.00     0.049 A 
ATOM     38  N   UNL     1     -15.252   3.557   3.325  1.00  0.00    -0.248 NA
ATOM     39  C   UNL     1     -14.611   2.643   1.276  1.00  0.00     0.031 C 
ATOM     40  C   UNL     1     -12.879   0.416   5.448  1.00  0.00     0.029 A 
ATOM     41  N   UNL     1     -14.220   2.184   5.709  1.00  0.00    -0.354 N 
ATOM     42  C   UNL     1     -15.793   4.318   2.295  1.00  0.00     0.074 A 
ATOM     43  C   UNL     1     -15.323   3.740   1.054  1.00  0.00     0.031 C 
ATOM     44  C   UNL     1     -13.023   0.619   6.768  1.00  0.00     0.029 A 
ATOM     45  C   UNL     1     -13.893   1.771   6.980  1.00  0.00     0.049 A 
ATOM     46  H   UNL     1     -14.798   2.961   5.528  1.00  0.00     0.167 HD
ATOM     47  C   UNL     1     -16.627   5.383   2.374  1.00  0.00     0.037 A 
ATOM     48  C   UNL     1     -14.258   2.261   8.180  1.00  0.00     0.037 A 
ATOM     49  C   UNL     1     -17.110   5.944   3.610  1.00  0.00     0.049 A 
ATOM     50  C   UNL     1     -15.198   3.434   8.237  1.00  0.00     0.074 A 
ATOM     51  C   UNL     1     -17.983   7.005   3.793  1.00  0.00     0.029 A 
ATOM     52  N   UNL     1     -16.772   5.486   4.875  1.00  0.00    -0.354 N 
ATOM     53  N   UNL     1     -15.736   4.109   7.249  1.00  0.00    -0.248 NA
ATOM     54  C   UNL     1     -15.591   3.904   9.573  1.00  0.00     0.031 C 
ATOM     55  C   UNL     1     -18.151   7.204   5.168  1.00  0.00     0.029 A 
ATOM     56  C   UNL     1     -17.412   6.245   5.841  1.00  0.00     0.049 A 
ATOM     57  H   UNL     1     -16.166   4.733   5.058  1.00  0.00     0.167 HD
ATOM     58  C   UNL     1     -16.546   5.070   7.845  1.00  0.00     0.074 A 
ATOM     59  C   UNL     1     -16.446   4.872   9.276  1.00  0.00     0.031 C 
ATOM     60  C   UNL     1     -17.301   6.033   7.261  1.00  0.00     0.037 A 
BRANCH  47  61
ATOM     61  C   UNL     1     -17.097   6.002   1.087  1.00  0.00     0.058 A 
ATOM     62  C   UNL     1     -18.041   5.357   0.271  1.00  0.00     0.135 A 
ATOM     63  C   UNL     1     -16.655   7.276   0.696  1.00  0.00     0.135 A 
ATOM     64  F   UNL     1     -18.484   4.131   0.590  1.00  0.00    -0.206 F 
ATOM     65  C   UNL     1     -18.520   5.947  -0.894  1.00  0.00     0.059 A 
ATOM     66  C   UNL     1     -17.138   7.896  -0.454  1.00  0.00     0.059 A 
ATOM     67  F   UNL     1     -15.752   7.935   1.438  1.00  0.00    -0.206 F 
ATOM     68  C   UNL     1     -18.065   7.219  -1.246  1.00  0.00     0.060 A 
BRANCH  68  69
ATOM     69  S   UNL     1     -18.722   7.985  -2.744  1.00  0.00     0.124 S 
ATOM     70  O   UNL     1     -18.041   7.219  -3.784  1.00  0.00    -0.237 OA
ATOM     71  O   UNL     1     -20.156   7.742  -2.616  1.00  0.00    -0.237 OA
ATOM     72  O   UNL     1     -18.312   9.379  -2.621  1.00  0.00    -0.744 OA
ENDBRANCH  68  69
ENDBRANCH  47  61
BRANCH  48  73
ATOM     73  C   UNL     1     -13.755   1.636   9.431  1.00  0.00     0.058 A 
ATOM     74  C   UNL     1     -14.612   0.914  10.275  1.00  0.00     0.135 A 
ATOM     75  C   UNL     1     -12.414   1.770   9.820  1.00  0.00     0.135 A 
ATOM     76  F   UNL     1     -15.904   0.762   9.946  1.00  0.00    -0.206 F 
ATOM     77  C   UNL     1     -14.168   0.378  11.479  1.00  0.00     0.059 A 
ATOM     78  C   UNL     1     -11.940   1.221  11.006  1.00  0.00     0.059 A 
ATOM     79  F   UNL     1     -11.548   2.432   9.036  1.00  0.00    -0.206 F 
ATOM     80  C   UNL     1     -12.829   0.542  11.839  1.00  0.00     0.060 A 
BRANCH  80  81
ATOM     81  S   UNL     1     -12.251  -0.168  13.395  1.00  0.00     0.124 S 
ATOM     82  O   UNL     1     -12.745   0.806  14.361  1.00  0.00    -0.237 OA
ATOM     83  O   UNL     1     -12.908  -1.471  13.406  1.00  0.00    -0.237 OA
ATOM     84  O   UNL     1     -10.802  -0.209  13.221  1.00  0.00    -0.744 OA
ENDBRANCH  80  81
ENDBRANCH  48  73
BRANCH  60  85
ATOM     85  C   UNL     1     -18.091   6.926   8.177  1.00  0.00     0.058 A 
ATOM     86  C   UNL     1     -17.468   7.911   8.958  1.00  0.00     0.135 A 
ATOM     87  C   UNL     1     -19.485   6.795   8.272  1.00  0.00     0.135 A 
ATOM     88  F   UNL     1     -16.136   8.072   8.906  1.00  0.00    -0.206 F 
ATOM     89  C   UNL     1     -18.195   8.709   9.835  1.00  0.00     0.059 A 
ATOM     90  C   UNL     1     -20.235   7.599   9.123  1.00  0.00     0.059 A 
ATOM     91  F   UNL     1     -20.131   5.876   7.536  1.00  0.00    -0.206 F 
ATOM     92  C   UNL     1     -19.578   8.539   9.916  1.00  0.00     0.060 A 
BRANCH  92  93
ATOM     93  S   UNL     1     -20.514   9.573  11.063  1.00  0.00     0.124 S 
ATOM     94  O   UNL     1     -20.239   8.919  12.338  1.00  0.00    -0.237 OA
ATOM     95  O   UNL     1     -19.900  10.885  10.879  1.00  0.00    -0.237 OA
ATOM     96  O   UNL     1     -21.886   9.458  10.579  1.00  0.00    -0.744 OA
ENDBRANCH  92  93
ENDBRANCH  60  85
ENDBRANCH  34  35
ENDBRANCH  26  29
ENDBRANCH  24  25
ENDBRANCH  23  24
ENDBRANCH   1  23
TORSDOF 18
