REMARK SMILES O=C(NCCCCCCNC(=O)c1ccc(C[NH2+]CCOc2ccccc2)nc1)c1ccc(-c2c3nc(c(-c4c(F)cc(S(=O)(=O)[O-])cc4F)c4ccc([nH]4)c(-c4c(F)cc(S(=O)(=O)[O-])cc4F)c4nc(c(-c5c(F)cc(S(=O)(=O)[O-])cc5F)c5ccc2[nH]5)C=C4)C=C3)cc1
REMARK SMILES IDX 8 1 7 2 6 3 5 4 4 5 3 6 1 7 2 8 30 10 31 11 95 12 32 13
REMARK SMILES IDX 94 14 33 15 34 16 35 17 88 18 36 19 93 20 87 21 89 22 37 23
REMARK SMILES IDX 92 24 86 25 85 26 38 28 72 29 51 30 71 31 52 32 55 33 70 34
REMARK SMILES IDX 90 35 53 36 54 37 69 39 91 40 56 41 39 42 40 43 49 44 41 45
REMARK SMILES IDX 42 46 48 47 50 48 43 49 44 50 45 51 46 52 47 53 73 54 74 55
REMARK SMILES IDX 83 56 75 57 76 58 82 59 84 60 77 61 78 62 79 63 80 64 81 65
REMARK SMILES IDX 57 66 58 67 67 68 59 69 60 70 66 71 68 72 61 73 62 74 63 75
REMARK SMILES IDX 64 76 65 77 9 78 10 79 11 80 12 82 13 83 14 84 29 85 15 86
REMARK SMILES IDX 28 87 16 88 17 89 18 90 19 93 20 94 21 95 22 96 23 97 27 98
REMARK SMILES IDX 24 99 26 100 25 101
REMARK H PARENT 3 9 89 27 55 38 10 81 18 91 18 92
REMARK Flexibility Score: inf
ROOT
ATOM      1  C   UNL     1       6.200   2.698  -3.493  1.00  0.00     0.021 C 
ENDROOT
BRANCH   1   2
ATOM      2  C   UNL     1       4.676   2.627  -3.623  1.00  0.00     0.002 C 
BRANCH   2   3
ATOM      3  C   UNL     1       4.085   1.234  -3.861  1.00  0.00     0.002 C 
BRANCH   3   4
ATOM      4  C   UNL     1       4.540   0.142  -2.894  1.00  0.00     0.021 C 
BRANCH   4   5
ATOM      5  C   UNL     1       4.326   0.448  -1.419  1.00  0.00     0.116 C 
BRANCH   5   6
ATOM      6  N   UNL     1       2.923   0.516  -1.048  1.00  0.00    -0.352 N 
ATOM      7  O   UNL     1       1.054  -0.049   0.081  1.00  0.00    -0.269 OA
ATOM      8  C   UNL     1       2.272  -0.112  -0.009  1.00  0.00     0.251 C 
ATOM      9  H   UNL     1       2.361   1.089  -1.618  1.00  0.00     0.163 HD
BRANCH   8  10
ATOM     10  C   UNL     1       3.057  -0.889   0.981  1.00  0.00     0.039 A 
ATOM     11  C   UNL     1       4.244  -0.376   1.506  1.00  0.00     0.014 A 
ATOM     12  C   UNL     1       2.605  -2.152   1.378  1.00  0.00     0.014 A 
ATOM     13  C   UNL     1       5.052  -1.182   2.297  1.00  0.00     0.010 A 
ATOM     14  C   UNL     1       3.376  -2.925   2.255  1.00  0.00     0.010 A 
ATOM     15  C   UNL     1       4.622  -2.459   2.698  1.00  0.00    -0.014 A 
BRANCH  15  16
ATOM     16  C   UNL     1       5.475  -3.234   3.638  1.00  0.00     0.031 A 
ATOM     17  C   UNL     1       6.113  -4.536   3.238  1.00  0.00     0.074 A 
ATOM     18  C   UNL     1       5.724  -2.703   4.852  1.00  0.00     0.049 A 
ATOM     19  N   UNL     1       6.948  -5.282   3.917  1.00  0.00    -0.248 NA
ATOM     20  C   UNL     1       5.770  -5.078   1.914  1.00  0.00     0.031 C 
ATOM     21  C   UNL     1       5.132  -1.462   5.362  1.00  0.00     0.029 A 
ATOM     22  N   UNL     1       6.556  -3.110   5.861  1.00  0.00    -0.354 N 
ATOM     23  C   UNL     1       7.225  -6.381   3.112  1.00  0.00     0.074 A 
ATOM     24  C   UNL     1       6.445  -6.221   1.903  1.00  0.00     0.031 C 
ATOM     25  C   UNL     1       5.665  -1.178   6.558  1.00  0.00     0.029 A 
ATOM     26  C   UNL     1       6.590  -2.242   6.927  1.00  0.00     0.049 A 
ATOM     27  H   UNL     1       7.079  -3.943   5.827  1.00  0.00     0.167 HD
ATOM     28  C   UNL     1       8.062  -7.420   3.356  1.00  0.00     0.037 A 
ATOM     29  C   UNL     1       7.280  -2.297   8.081  1.00  0.00     0.037 A 
ATOM     30  C   UNL     1       8.840  -7.569   4.561  1.00  0.00     0.049 A 
ATOM     31  C   UNL     1       8.211  -3.450   8.316  1.00  0.00     0.074 A 
ATOM     32  C   UNL     1       9.718  -8.585   4.901  1.00  0.00     0.029 A 
ATOM     33  N   UNL     1       8.837  -6.677   5.624  1.00  0.00    -0.354 N 
ATOM     34  N   UNL     1       8.470  -4.469   7.533  1.00  0.00    -0.248 NA
ATOM     35  C   UNL     1       8.943  -3.461   9.588  1.00  0.00     0.031 C 
ATOM     36  C   UNL     1      10.224  -8.322   6.180  1.00  0.00     0.029 A 
ATOM     37  C   UNL     1       9.692  -7.121   6.621  1.00  0.00     0.049 A 
ATOM     38  H   UNL     1       8.306  -5.849   5.665  1.00  0.00     0.167 HD
ATOM     39  C   UNL     1       9.394  -5.247   8.219  1.00  0.00     0.074 A 
ATOM     40  C   UNL     1       9.675  -4.559   9.464  1.00  0.00     0.031 C 
ATOM     41  C   UNL     1       9.949  -6.430   7.859  1.00  0.00     0.037 A 
BRANCH  28  42
ATOM     42  C   UNL     1       8.188  -8.483   2.298  1.00  0.00     0.058 A 
ATOM     43  C   UNL     1       8.890  -8.252   1.105  1.00  0.00     0.135 A 
ATOM     44  C   UNL     1       7.656  -9.767   2.504  1.00  0.00     0.135 A 
ATOM     45  F   UNL     1       9.406  -7.039   0.850  1.00  0.00    -0.206 F 
ATOM     46  C   UNL     1       9.048  -9.249   0.148  1.00  0.00     0.059 A 
ATOM     47  C   UNL     1       7.821 -10.787   1.569  1.00  0.00     0.059 A 
ATOM     48  F   UNL     1       6.976 -10.044   3.628  1.00  0.00    -0.206 F 
ATOM     49  C   UNL     1       8.511 -10.514   0.389  1.00  0.00     0.060 A 
BRANCH  49  50
ATOM     50  S   UNL     1       8.742 -11.801  -0.857  1.00  0.00     0.124 S 
ATOM     51  O   UNL     1       7.817 -11.365  -1.899  1.00  0.00    -0.237 OA
ATOM     52  O   UNL     1      10.160 -11.675  -1.177  1.00  0.00    -0.237 OA
ATOM     53  O   UNL     1       8.366 -13.025  -0.156  1.00  0.00    -0.744 OA
ENDBRANCH  49  50
ENDBRANCH  28  42
BRANCH  29  54
ATOM     54  C   UNL     1       7.099  -1.230   9.098  1.00  0.00     0.058 A 
ATOM     55  C   UNL     1       8.117  -0.308   9.378  1.00  0.00     0.135 A 
ATOM     56  C   UNL     1       5.886  -1.098   9.793  1.00  0.00     0.135 A 
ATOM     57  F   UNL     1       9.295  -0.394   8.740  1.00  0.00    -0.206 F 
ATOM     58  C   UNL     1       7.947   0.698  10.324  1.00  0.00     0.059 A 
ATOM     59  C   UNL     1       5.682  -0.084  10.721  1.00  0.00     0.059 A 
ATOM     60  F   UNL     1       4.873  -1.943   9.544  1.00  0.00    -0.206 F 
ATOM     61  C   UNL     1       6.724   0.801  10.990  1.00  0.00     0.060 A 
BRANCH  61  62
ATOM     62  S   UNL     1       6.488   2.137  12.181  1.00  0.00     0.124 S 
ATOM     63  O   UNL     1       7.197   1.618  13.345  1.00  0.00    -0.237 OA
ATOM     64  O   UNL     1       7.113   3.270  11.505  1.00  0.00    -0.237 OA
ATOM     65  O   UNL     1       5.036   2.217  12.307  1.00  0.00    -0.744 OA
ENDBRANCH  61  62
ENDBRANCH  29  54
BRANCH  41  66
ATOM     66  C   UNL     1      10.918  -7.043   8.829  1.00  0.00     0.058 A 
ATOM     67  C   UNL     1      10.482  -7.630  10.027  1.00  0.00     0.135 A 
ATOM     68  C   UNL     1      12.296  -7.043   8.559  1.00  0.00     0.135 A 
ATOM     69  F   UNL     1       9.175  -7.648  10.333  1.00  0.00    -0.206 F 
ATOM     70  C   UNL     1      11.381  -8.162  10.944  1.00  0.00     0.059 A 
ATOM     71  C   UNL     1      13.211  -7.592   9.451  1.00  0.00     0.059 A 
ATOM     72  F   UNL     1      12.763  -6.502   7.423  1.00  0.00    -0.206 F 
ATOM     73  C   UNL     1      12.745  -8.132  10.650  1.00  0.00     0.060 A 
BRANCH  73  74
ATOM     74  S   UNL     1      13.907  -8.820  11.848  1.00  0.00     0.124 S 
ATOM     75  O   UNL     1      13.960  -7.758  12.847  1.00  0.00    -0.237 OA
ATOM     76  O   UNL     1      13.239 -10.050  12.265  1.00  0.00    -0.237 OA
ATOM     77  O   UNL     1      15.125  -9.010  11.066  1.00  0.00    -0.744 OA
ENDBRANCH  73  74
ENDBRANCH  41  66
ENDBRANCH  15  16
ENDBRANCH   8  10
ENDBRANCH   5   6
ENDBRANCH   4   5
ENDBRANCH   3   4
ENDBRANCH   2   3
ENDBRANCH   1   2
BRANCH   1  78
ATOM     78  C   UNL     1       6.987   2.060  -4.635  1.00  0.00     0.116 C 
BRANCH  78  79
ATOM     79  N   UNL     1       6.756   2.727  -5.905  1.00  0.00    -0.352 N 
ATOM     80  C   UNL     1       7.662   3.342  -6.733  1.00  0.00     0.252 C 
ATOM     81  H   UNL     1       5.822   2.739  -6.215  1.00  0.00     0.163 HD
ATOM     82  O   UNL     1       7.285   3.994  -7.701  1.00  0.00    -0.269 OA
BRANCH  80  83
ATOM     83  C   UNL     1       9.098   3.233  -6.444  1.00  0.00     0.058 A 
ATOM     84  C   UNL     1       9.733   2.002  -6.295  1.00  0.00     0.017 A 
ATOM     85  C   UNL     1       9.852   4.387  -6.321  1.00  0.00     0.125 A 
ATOM     86  C   UNL     1      11.084   1.977  -5.958  1.00  0.00     0.030 A 
ATOM     87  N   UNL     1      11.167   4.388  -5.995  1.00  0.00    -0.255 NA
ATOM     88  C   UNL     1      11.768   3.184  -5.800  1.00  0.00     0.094 A 
BRANCH  88  89
ATOM     89  C   UNL     1      13.242   3.177  -5.421  1.00  0.00     0.318 C 
BRANCH  89  90
ATOM     90  N   UNL     1      14.095   3.717  -6.485  1.00  0.00    -0.338 N 
ATOM     91  H   UNL     1      14.241   4.710  -6.307  1.00  0.00     0.346 HD
ATOM     92  H   UNL     1      13.613   3.544  -7.368  1.00  0.00     0.346 HD
BRANCH  90  93
ATOM     93  C   UNL     1      15.405   3.068  -6.582  1.00  0.00     0.302 C 
BRANCH  93  94
ATOM     94  C   UNL     1      15.411   1.617  -7.106  1.00  0.00     0.290 C 
BRANCH  94  95
ATOM     95  O   UNL     1      15.151   1.575  -8.518  1.00  0.00    -0.488 OA
BRANCH  95  96
ATOM     96  C   UNL     1      13.855   1.252  -8.809  1.00  0.00     0.119 A 
ATOM     97  C   UNL     1      13.341  -0.021  -8.569  1.00  0.00     0.046 A 
ATOM     98  C   UNL     1      13.071   2.226  -9.423  1.00  0.00     0.046 A 
ATOM     99  C   UNL     1      12.010  -0.297  -8.891  1.00  0.00     0.004 A 
ATOM    100  C   UNL     1      11.737   1.958  -9.720  1.00  0.00     0.004 A 
ATOM    101  C   UNL     1      11.206   0.697  -9.453  1.00  0.00     0.000 A 
ENDBRANCH  95  96
ENDBRANCH  94  95
ENDBRANCH  93  94
ENDBRANCH  90  93
ENDBRANCH  89  90
ENDBRANCH  88  89
ENDBRANCH  80  83
ENDBRANCH  78  79
ENDBRANCH   1  78
TORSDOF 22
