REMARK SMILES C[C@H](C(=O)NCCCCCCNC(=O)c1ccc(-c2c3nc(c(-c4c(F)cc(S(=O)(=O)[O-])cc4F)c4ccc([nH]4)c(-c4c(F)cc(S(=O)(=O)[O-])cc4F)c4nc(c(-c5c(F)cc(S(=O)(=O)[O-])cc5F)c5ccc2[nH]5)C=C4)C=C3)cc1)[N@@H+]1CCc2ccccc2C1
REMARK SMILES IDX 9 1 8 2 7 3 6 4 5 5 3 6 4 7 2 9 1 10 81 11 82 12 90 13 83 15
REMARK SMILES IDX 89 16 84 17 88 18 85 19 87 20 86 21 10 22 11 23 12 24 13 25
REMARK SMILES IDX 14 27 15 28 16 29 80 30 17 31 79 32 18 33 19 34 20 35 73 36
REMARK SMILES IDX 21 37 78 38 72 39 74 40 22 41 77 42 71 43 70 44 23 46 57 47
REMARK SMILES IDX 36 48 56 49 37 50 40 51 55 52 75 53 38 54 39 55 54 57 76 58
REMARK SMILES IDX 41 59 24 60 25 61 34 62 26 63 27 64 33 65 35 66 28 67 29 68
REMARK SMILES IDX 30 69 31 70 32 71 58 72 59 73 68 74 60 75 61 76 67 77 69 78
REMARK SMILES IDX 62 79 63 80 64 81 65 82 66 83 42 84 43 85 52 86 44 87 45 88
REMARK SMILES IDX 51 89 53 90 46 91 47 92 48 93 49 94 50 95
REMARK H PARENT 5 8 81 14 12 26 74 45 40 56
REMARK Flexibility Score: inf
ROOT
ATOM      1  C   UNL     1       0.694   3.825   3.316  1.00  0.00     0.002 C 
ENDROOT
BRANCH   1   2
ATOM      2  C   UNL     1      -0.345   2.740   3.011  1.00  0.00     0.002 C 
BRANCH   2   3
ATOM      3  C   UNL     1      -0.848   2.709   1.563  1.00  0.00     0.021 C 
BRANCH   3   4
ATOM      4  C   UNL     1       0.269   2.715   0.524  1.00  0.00     0.116 C 
BRANCH   4   5
ATOM      5  N   UNL     1       1.027   1.482   0.567  1.00  0.00    -0.351 N 
ATOM      6  C   UNL     1       1.083   0.465  -0.346  1.00  0.00     0.278 C 
ATOM      7  O   UNL     1       1.825  -0.484  -0.093  1.00  0.00    -0.268 OA
ATOM      8  H   UNL     1       1.583   1.357   1.370  1.00  0.00     0.163 HD
BRANCH   6   9
ATOM      9  C   UNL     1       0.277   0.610  -1.655  1.00  0.00     0.271 C 
ATOM     10  C   UNL     1       1.271   1.176  -2.686  1.00  0.00     0.086 C 
BRANCH   9  11
ATOM     11  N   UNL     1      -0.548  -0.562  -2.043  1.00  0.00    -0.321 N 
ATOM     12  C   UNL     1      -1.193  -1.292  -0.917  1.00  0.00     0.267 C 
ATOM     13  C   UNL     1       0.031  -1.461  -3.033  1.00  0.00     0.299 C 
ATOM     14  H   UNL     1      -1.308  -0.097  -2.539  1.00  0.00     0.349 HD
ATOM     15  C   UNL     1      -1.182  -2.848  -1.026  1.00  0.00     0.097 C 
ATOM     16  C   UNL     1       0.864  -2.520  -2.375  1.00  0.00     0.010 A 
ATOM     17  C   UNL     1       0.209  -3.302  -1.407  1.00  0.00    -0.034 A 
ATOM     18  C   UNL     1       2.228  -2.676  -2.603  1.00  0.00     0.010 A 
ATOM     19  C   UNL     1       0.884  -4.350  -0.788  1.00  0.00     0.004 A 
ATOM     20  C   UNL     1       2.923  -3.668  -1.918  1.00  0.00     0.001 A 
ATOM     21  C   UNL     1       2.246  -4.528  -1.047  1.00  0.00     0.000 A 
ENDBRANCH   9  11
ENDBRANCH   6   9
ENDBRANCH   4   5
ENDBRANCH   3   4
ENDBRANCH   2   3
ENDBRANCH   1   2
BRANCH   1  22
ATOM     22  C   UNL     1       0.316   5.237   2.861  1.00  0.00     0.021 C 
BRANCH  22  23
ATOM     23  C   UNL     1      -0.998   5.749   3.427  1.00  0.00     0.116 C 
BRANCH  23  24
ATOM     24  N   UNL     1      -0.938   5.907   4.867  1.00  0.00    -0.352 N 
ATOM     25  C   UNL     1      -1.268   7.004   5.622  1.00  0.00     0.251 C 
ATOM     26  H   UNL     1      -0.617   5.124   5.369  1.00  0.00     0.163 HD
ATOM     27  O   UNL     1      -0.953   7.049   6.806  1.00  0.00    -0.269 OA
BRANCH  25  28
ATOM     28  C   UNL     1      -1.991   8.133   4.994  1.00  0.00     0.039 A 
ATOM     29  C   UNL     1      -1.611   9.438   5.312  1.00  0.00     0.014 A 
ATOM     30  C   UNL     1      -3.053   7.904   4.113  1.00  0.00     0.014 A 
ATOM     31  C   UNL     1      -2.284  10.513   4.731  1.00  0.00     0.010 A 
ATOM     32  C   UNL     1      -3.663   8.975   3.468  1.00  0.00     0.010 A 
ATOM     33  C   UNL     1      -3.309  10.291   3.796  1.00  0.00    -0.014 A 
BRANCH  33  34
ATOM     34  C   UNL     1      -4.067  11.424   3.208  1.00  0.00     0.031 A 
ATOM     35  C   UNL     1      -5.540  11.565   3.496  1.00  0.00     0.074 A 
ATOM     36  C   UNL     1      -3.446  12.300   2.395  1.00  0.00     0.049 A 
ATOM     37  N   UNL     1      -6.384  12.466   3.064  1.00  0.00    -0.248 NA
ATOM     38  C   UNL     1      -6.151  10.540   4.359  1.00  0.00     0.031 C 
ATOM     39  C   UNL     1      -2.036  12.240   2.005  1.00  0.00     0.029 A 
ATOM     40  N   UNL     1      -3.922  13.413   1.750  1.00  0.00    -0.354 N 
ATOM     41  C   UNL     1      -7.623  12.104   3.583  1.00  0.00     0.074 A 
ATOM     42  C   UNL     1      -7.433  10.870   4.311  1.00  0.00     0.031 C 
ATOM     43  C   UNL     1      -1.753  13.291   1.217  1.00  0.00     0.029 A 
ATOM     44  C   UNL     1      -2.966  14.079   1.020  1.00  0.00     0.049 A 
ATOM     45  H   UNL     1      -4.859  13.708   1.804  1.00  0.00     0.167 HD
ATOM     46  C   UNL     1      -8.806  12.755   3.486  1.00  0.00     0.037 A 
ATOM     47  C   UNL     1      -3.058  15.202   0.281  1.00  0.00     0.037 A 
ATOM     48  C   UNL     1      -8.978  14.005   2.793  1.00  0.00     0.049 A 
ATOM     49  C   UNL     1      -4.379  15.919   0.204  1.00  0.00     0.074 A 
ATOM     50  C   UNL     1     -10.117  14.783   2.690  1.00  0.00     0.029 A 
ATOM     51  N   UNL     1      -7.980  14.659   2.085  1.00  0.00    -0.354 N 
ATOM     52  N   UNL     1      -5.526  15.600   0.756  1.00  0.00    -0.248 NA
ATOM     53  C   UNL     1      -4.416  17.158  -0.585  1.00  0.00     0.031 C 
ATOM     54  C   UNL     1      -9.821  15.884   1.880  1.00  0.00     0.029 A 
ATOM     55  C   UNL     1      -8.482  15.823   1.527  1.00  0.00     0.049 A 
ATOM     56  H   UNL     1      -7.052  14.343   1.993  1.00  0.00     0.167 HD
ATOM     57  C   UNL     1      -6.409  16.619   0.417  1.00  0.00     0.074 A 
ATOM     58  C   UNL     1      -5.662  17.566  -0.385  1.00  0.00     0.031 C 
ATOM     59  C   UNL     1      -7.718  16.763   0.745  1.00  0.00     0.037 A 
BRANCH  46  60
ATOM     60  C   UNL     1     -10.006  12.127   4.144  1.00  0.00     0.058 A 
ATOM     61  C   UNL     1     -10.126  12.039   5.541  1.00  0.00     0.135 A 
ATOM     62  C   UNL     1     -11.062  11.624   3.366  1.00  0.00     0.135 A 
ATOM     63  F   UNL     1      -9.141  12.488   6.335  1.00  0.00    -0.206 F 
ATOM     64  C   UNL     1     -11.230  11.442   6.142  1.00  0.00     0.059 A 
ATOM     65  C   UNL     1     -12.191  11.052   3.946  1.00  0.00     0.059 A 
ATOM     66  F   UNL     1     -11.001  11.681   2.027  1.00  0.00    -0.206 F 
ATOM     67  C   UNL     1     -12.257  10.950   5.335  1.00  0.00     0.060 A 
BRANCH  67  68
ATOM     68  S   UNL     1     -13.682  10.178   6.129  1.00  0.00     0.124 S 
ATOM     69  O   UNL     1     -13.114   8.909   6.576  1.00  0.00    -0.237 OA
ATOM     70  O   UNL     1     -14.008  11.132   7.183  1.00  0.00    -0.237 OA
ATOM     71  O   UNL     1     -14.661  10.080   5.051  1.00  0.00    -0.744 OA
ENDBRANCH  67  68
ENDBRANCH  46  60
BRANCH  47  72
ATOM     72  C   UNL     1      -1.854  15.744  -0.405  1.00  0.00     0.058 A 
ATOM     73  C   UNL     1      -1.250  16.933   0.033  1.00  0.00     0.135 A 
ATOM     74  C   UNL     1      -1.277  15.085  -1.502  1.00  0.00     0.135 A 
ATOM     75  F   UNL     1      -1.766  17.602   1.075  1.00  0.00    -0.206 F 
ATOM     76  C   UNL     1      -0.133  17.462  -0.604  1.00  0.00     0.059 A 
ATOM     77  C   UNL     1      -0.143  15.580  -2.139  1.00  0.00     0.059 A 
ATOM     78  F   UNL     1      -1.804  13.934  -1.948  1.00  0.00    -0.206 F 
ATOM     79  C   UNL     1       0.415  16.776  -1.689  1.00  0.00     0.060 A 
BRANCH  79  80
ATOM     80  S   UNL     1       1.891  17.450  -2.482  1.00  0.00     0.124 S 
ATOM     81  O   UNL     1       1.345  18.604  -3.186  1.00  0.00    -0.237 OA
ATOM     82  O   UNL     1       2.746  17.744  -1.337  1.00  0.00    -0.237 OA
ATOM     83  O   UNL     1       2.347  16.351  -3.329  1.00  0.00    -0.744 OA
ENDBRANCH  79  80
ENDBRANCH  47  72
BRANCH  59  84
ATOM     84  C   UNL     1      -8.412  18.017   0.289  1.00  0.00     0.058 A 
ATOM     85  C   UNL     1      -8.736  18.243  -1.058  1.00  0.00     0.135 A 
ATOM     86  C   UNL     1      -8.793  18.992   1.227  1.00  0.00     0.135 A 
ATOM     87  F   UNL     1      -8.393  17.345  -1.995  1.00  0.00    -0.206 F 
ATOM     88  C   UNL     1      -9.383  19.406  -1.463  1.00  0.00     0.059 A 
ATOM     89  C   UNL     1      -9.468  20.147   0.848  1.00  0.00     0.059 A 
ATOM     90  F   UNL     1      -8.520  18.819   2.530  1.00  0.00    -0.206 F 
ATOM     91  C   UNL     1      -9.743  20.353  -0.503  1.00  0.00     0.060 A 
BRANCH  91  92
ATOM     92  S   UNL     1     -10.596  21.851  -1.039  1.00  0.00     0.124 S 
ATOM     93  O   UNL     1      -9.508  22.602  -1.657  1.00  0.00    -0.237 OA
ATOM     94  O   UNL     1     -11.604  21.326  -1.954  1.00  0.00    -0.237 OA
ATOM     95  O   UNL     1     -11.117  22.409   0.205  1.00  0.00    -0.744 OA
ENDBRANCH  91  92
ENDBRANCH  59  84
ENDBRANCH  33  34
ENDBRANCH  25  28
ENDBRANCH  23  24
ENDBRANCH  22  23
ENDBRANCH   1  22
TORSDOF 17
