REMARK SMILES O=C(NCCCCCCNC(=O)[C@H]1[C@H]2CC[C@H](CC2)[C@@H]1C(=O)Nc1ccc(Cc2ccncc2)cc1)c1ccc(-c2c3nc(c(-c4c(F)cc(S(=O)(=O)[O-])cc4F)c4ccc([nH]4)c(-c4c(F)cc(S(=O)(=O)[O-])cc4F)c4nc(c(-c5c(F)cc(S(=O)(=O)[O-])cc5F)c5ccc2[nH]5)C=C4)C=C3)cc1
REMARK SMILES IDX 7 1 6 2 5 3 4 4 3 5 1 6 2 7 37 9 38 10 102 11 39 12 101 13
REMARK SMILES IDX 40 14 41 15 42 16 95 17 43 18 100 19 94 20 96 21 44 22 99 23
REMARK SMILES IDX 93 24 92 25 45 27 79 28 58 29 78 30 59 31 62 32 77 33 97 34
REMARK SMILES IDX 60 35 61 36 76 38 98 39 63 40 46 41 47 42 56 43 48 44 49 45
REMARK SMILES IDX 55 46 57 47 50 48 51 49 52 50 53 51 54 52 80 53 81 54 90 55
REMARK SMILES IDX 82 56 83 57 89 58 91 59 84 60 85 61 86 62 87 63 88 64 64 65
REMARK SMILES IDX 65 66 74 67 66 68 67 69 73 70 75 71 68 72 69 73 70 74 71 75
REMARK SMILES IDX 72 76 8 77 9 78 10 79 11 80 12 82 13 83 14 84 20 85 15 86
REMARK SMILES IDX 19 87 17 88 16 89 18 90 21 91 22 92 23 93 24 95 25 96 36 97
REMARK SMILES IDX 26 98 35 99 27 100 28 101 29 102 30 103 34 104 31 105 33 106
REMARK SMILES IDX 32 107
REMARK H PARENT 3 8 96 26 62 37 10 81 23 94
REMARK Flexibility Score: inf
ROOT
ATOM      1  C   UNL     1       4.737  -3.671   2.263  1.00  0.00     0.002 C 
ENDROOT
BRANCH   1   2
ATOM      2  C   UNL     1       4.158  -2.424   2.938  1.00  0.00     0.002 C 
BRANCH   2   3
ATOM      3  C   UNL     1       4.631  -1.094   2.349  1.00  0.00     0.021 C 
BRANCH   3   4
ATOM      4  C   UNL     1       4.391  -0.949   0.851  1.00  0.00     0.116 C 
BRANCH   4   5
ATOM      5  N   UNL     1       2.976  -1.000   0.521  1.00  0.00    -0.352 N 
ATOM      6  O   UNL     1       0.979  -0.178  -0.120  1.00  0.00    -0.269 OA
ATOM      7  C   UNL     1       2.202  -0.061  -0.110  1.00  0.00     0.251 C 
ATOM      8  H   UNL     1       2.509  -1.824   0.788  1.00  0.00     0.163 HD
BRANCH   7   9
ATOM      9  C   UNL     1       2.845   1.099  -0.760  1.00  0.00     0.039 A 
ATOM     10  C   UNL     1       3.967   0.928  -1.577  1.00  0.00     0.014 A 
ATOM     11  C   UNL     1       2.310   2.373  -0.554  1.00  0.00     0.014 A 
ATOM     12  C   UNL     1       4.625   2.040  -2.092  1.00  0.00     0.010 A 
ATOM     13  C   UNL     1       2.929   3.481  -1.134  1.00  0.00     0.010 A 
ATOM     14  C   UNL     1       4.105   3.326  -1.887  1.00  0.00    -0.014 A 
BRANCH  14  15
ATOM     15  C   UNL     1       4.762   4.506  -2.501  1.00  0.00     0.031 A 
ATOM     16  C   UNL     1       5.362   5.582  -1.641  1.00  0.00     0.074 A 
ATOM     17  C   UNL     1       4.780   4.619  -3.843  1.00  0.00     0.049 A 
ATOM     18  N   UNL     1       5.888   6.726  -1.998  1.00  0.00    -0.248 NA
ATOM     19  C   UNL     1       5.363   5.347  -0.190  1.00  0.00     0.031 C 
ATOM     20  C   UNL     1       4.229   3.635  -4.777  1.00  0.00     0.029 A 
ATOM     21  N   UNL     1       5.265   5.613  -4.653  1.00  0.00    -0.354 N 
ATOM     22  C   UNL     1       6.259   7.360  -0.818  1.00  0.00     0.074 A 
ATOM     23  C   UNL     1       5.875   6.481   0.267  1.00  0.00     0.031 C 
ATOM     24  C   UNL     1       4.412   4.071  -6.032  1.00  0.00     0.029 A 
ATOM     25  C   UNL     1       5.032   5.391  -5.989  1.00  0.00     0.049 A 
ATOM     26  H   UNL     1       5.734   6.408  -4.311  1.00  0.00     0.167 HD
ATOM     27  C   UNL     1       6.865   8.562  -0.659  1.00  0.00     0.037 A 
ATOM     28  C   UNL     1       5.256   6.175  -7.061  1.00  0.00     0.037 A 
ATOM     29  C   UNL     1       7.238   9.424  -1.752  1.00  0.00     0.049 A 
ATOM     30  C   UNL     1       5.891   7.521  -6.861  1.00  0.00     0.074 A 
ATOM     31  C   UNL     1       7.883  10.648  -1.702  1.00  0.00     0.029 A 
ATOM     32  N   UNL     1       6.987   9.162  -3.093  1.00  0.00    -0.354 N 
ATOM     33  N   UNL     1       6.263   8.095  -5.742  1.00  0.00    -0.248 NA
ATOM     34  C   UNL     1       6.140   8.325  -8.064  1.00  0.00     0.031 C 
ATOM     35  C   UNL     1       7.971  11.150  -3.004  1.00  0.00     0.029 A 
ATOM     36  C   UNL     1       7.442  10.211  -3.876  1.00  0.00     0.049 A 
ATOM     37  H   UNL     1       6.549   8.350  -3.437  1.00  0.00     0.167 HD
ATOM     38  C   UNL     1       6.820   9.315  -6.107  1.00  0.00     0.074 A 
ATOM     39  C   UNL     1       6.733   9.396  -7.552  1.00  0.00     0.031 C 
ATOM     40  C   UNL     1       7.362  10.273  -5.316  1.00  0.00     0.037 A 
BRANCH  27  41
ATOM     41  C   UNL     1       7.126   9.029   0.749  1.00  0.00     0.058 A 
ATOM     42  C   UNL     1       8.072   8.405   1.578  1.00  0.00     0.135 A 
ATOM     43  C   UNL     1       6.422  10.125   1.275  1.00  0.00     0.135 A 
ATOM     44  F   UNL     1       8.768   7.347   1.133  1.00  0.00    -0.206 F 
ATOM     45  C   UNL     1       8.274   8.817   2.892  1.00  0.00     0.059 A 
ATOM     46  C   UNL     1       6.630  10.575   2.576  1.00  0.00     0.059 A 
ATOM     47  F   UNL     1       5.510  10.767   0.527  1.00  0.00    -0.206 F 
ATOM     48  C   UNL     1       7.541   9.898   3.385  1.00  0.00     0.060 A 
BRANCH  48  49
ATOM     49  S   UNL     1       7.784  10.393   5.104  1.00  0.00     0.124 S 
ATOM     50  O   UNL     1       7.117   9.306   5.815  1.00  0.00    -0.237 OA
ATOM     51  O   UNL     1       9.238  10.425   5.219  1.00  0.00    -0.237 OA
ATOM     52  O   UNL     1       7.123  11.692   5.182  1.00  0.00    -0.744 OA
ENDBRANCH  48  49
ENDBRANCH  27  41
BRANCH  28  53
ATOM     53  C   UNL     1       4.865   5.687  -8.409  1.00  0.00     0.058 A 
ATOM     54  C   UNL     1       5.832   5.289  -9.341  1.00  0.00     0.135 A 
ATOM     55  C   UNL     1       3.513   5.537  -8.760  1.00  0.00     0.135 A 
ATOM     56  F   UNL     1       7.136   5.417  -9.053  1.00  0.00    -0.206 F 
ATOM     57  C   UNL     1       5.474   4.754 -10.575  1.00  0.00     0.059 A 
ATOM     58  C   UNL     1       3.131   4.981  -9.976  1.00  0.00     0.059 A 
ATOM     59  F   UNL     1       2.550   5.887  -7.893  1.00  0.00    -0.206 F 
ATOM     60  C   UNL     1       4.120   4.594 -10.878  1.00  0.00     0.060 A 
BRANCH  60  61
ATOM     61  S   UNL     1       3.673   3.817 -12.446  1.00  0.00     0.124 S 
ATOM     62  O   UNL     1       4.019   4.863 -13.401  1.00  0.00    -0.237 OA
ATOM     63  O   UNL     1       4.528   2.634 -12.455  1.00  0.00    -0.237 OA
ATOM     64  O   UNL     1       2.246   3.548 -12.293  1.00  0.00    -0.744 OA
ENDBRANCH  60  61
ENDBRANCH  28  53
BRANCH  40  65
ATOM     65  C   UNL     1       7.961  11.478  -5.989  1.00  0.00     0.058 A 
ATOM     66  C   UNL     1       7.168  12.484  -6.559  1.00  0.00     0.135 A 
ATOM     67  C   UNL     1       9.354  11.664  -5.981  1.00  0.00     0.135 A 
ATOM     68  F   UNL     1       5.833  12.350  -6.603  1.00  0.00    -0.206 F 
ATOM     69  C   UNL     1       7.735  13.633  -7.104  1.00  0.00     0.059 A 
ATOM     70  C   UNL     1       9.940  12.816  -6.495  1.00  0.00     0.059 A 
ATOM     71  F   UNL     1      10.158  10.733  -5.443  1.00  0.00    -0.206 F 
ATOM     72  C   UNL     1       9.121  13.794  -7.058  1.00  0.00     0.060 A 
BRANCH  72  73
ATOM     73  S   UNL     1       9.838  15.320  -7.703  1.00  0.00     0.124 S 
ATOM     74  O   UNL     1       9.678  15.137  -9.141  1.00  0.00    -0.237 OA
ATOM     75  O   UNL     1       8.992  16.343  -7.095  1.00  0.00    -0.237 OA
ATOM     76  O   UNL     1      11.214  15.283  -7.215  1.00  0.00    -0.744 OA
ENDBRANCH  72  73
ENDBRANCH  40  65
ENDBRANCH  14  15
ENDBRANCH   7   9
ENDBRANCH   4   5
ENDBRANCH   3   4
ENDBRANCH   2   3
ENDBRANCH   1   2
BRANCH   1  77
ATOM     77  C   UNL     1       6.268  -3.718   2.199  1.00  0.00     0.021 C 
BRANCH  77  78
ATOM     78  C   UNL     1       6.948  -3.590   3.557  1.00  0.00     0.116 C 
BRANCH  78  79
ATOM     79  N   UNL     1       6.606  -4.707   4.419  1.00  0.00    -0.356 N 
ATOM     80  C   UNL     1       7.424  -5.619   5.015  1.00  0.00     0.224 C 
ATOM     81  H   UNL     1       5.644  -4.822   4.599  1.00  0.00     0.163 HD
ATOM     82  O   UNL     1       6.910  -6.553   5.630  1.00  0.00    -0.275 OA
BRANCH  80  83
ATOM     83  C   UNL     1       8.929  -5.395   4.946  1.00  0.00     0.094 C 
ATOM     84  C   UNL     1       9.320  -4.186   5.846  1.00  0.00     0.002 C 
ATOM     85  C   UNL     1       9.739  -6.670   5.357  1.00  0.00     0.094 C 
ATOM     86  C   UNL     1       9.056  -4.518   7.323  1.00  0.00     0.005 C 
ATOM     87  C   UNL     1      10.823  -3.921   5.663  1.00  0.00     0.005 C 
ATOM     88  C   UNL     1      10.676  -6.274   6.536  1.00  0.00     0.002 C 
ATOM     89  C   UNL     1       9.800  -5.795   7.709  1.00  0.00     0.005 C 
ATOM     90  C   UNL     1      11.624  -5.141   6.115  1.00  0.00     0.005 C 
BRANCH  85  91
ATOM     91  C   UNL     1      10.460  -7.267   4.128  1.00  0.00     0.228 C 
ATOM     92  O   UNL     1      10.282  -6.829   2.987  1.00  0.00    -0.274 OA
ATOM     93  N   UNL     1      11.362  -8.287   4.248  1.00  0.00    -0.326 N 
ATOM     94  H   UNL     1      11.821  -8.543   3.416  1.00  0.00     0.169 HD
BRANCH  93  95
ATOM     95  C   UNL     1      11.727  -9.017   5.378  1.00  0.00     0.041 A 
ATOM     96  C   UNL     1      13.088  -9.107   5.656  1.00  0.00     0.026 A 
ATOM     97  C   UNL     1      10.794  -9.571   6.256  1.00  0.00     0.026 A 
ATOM     98  C   UNL     1      13.507  -9.616   6.882  1.00  0.00     0.006 A 
ATOM     99  C   UNL     1      11.222 -10.131   7.463  1.00  0.00     0.006 A 
ATOM    100  C   UNL     1      12.581 -10.123   7.805  1.00  0.00    -0.043 A 
BRANCH 100 101
ATOM    101  C   UNL     1      13.046 -10.634   9.150  1.00  0.00     0.071 C 
BRANCH 101 102
ATOM    102  C   UNL     1      13.715 -11.986   9.091  1.00  0.00    -0.041 A 
ATOM    103  C   UNL     1      15.008 -12.129   8.579  1.00  0.00     0.024 A 
ATOM    104  C   UNL     1      13.050 -13.133   9.530  1.00  0.00     0.024 A 
ATOM    105  C   UNL     1      15.564 -13.395   8.502  1.00  0.00     0.111 A 
ATOM    106  C   UNL     1      13.698 -14.355   9.429  1.00  0.00     0.111 A 
ATOM    107  N   UNL     1      14.939 -14.514   8.922  1.00  0.00    -0.265 NA
ENDBRANCH 101 102
ENDBRANCH 100 101
ENDBRANCH  93  95
ENDBRANCH  85  91
ENDBRANCH  80  83
ENDBRANCH  78  79
ENDBRANCH  77  78
ENDBRANCH   1  77
TORSDOF 20
