REMARK SMILES COCCn1cc(NC(=O)N[C@H]2C=C[C@H](C(=O)NCCCCCCNC(=O)c3ccc(-c4c5nc(c(-c6c(F)cc(S(=O)(=O)[O-])cc6F)c6ccc([nH]6)c(-c6c(F)cc(S(=O)(=O)[O-])cc6F)c6nc(c(-c7c(F)cc(S(=O)(=O)[O-])cc7F)c7ccc4[nH]7)C=C6)C=C5)cc3)C2)cn1
REMARK SMILES IDX 20 1 19 2 18 3 16 4 17 5 15 7 12 8 13 9 94 10 14 11 11 12
REMARK SMILES IDX 8 13 9 14 10 16 7 18 5 19 6 20 96 21 95 22 4 23 3 24 2 25
REMARK SMILES IDX 1 26 21 27 22 28 23 29 24 30 25 31 26 32 27 34 28 35 29 36
REMARK SMILES IDX 93 37 30 38 92 39 31 40 32 41 33 42 86 43 34 44 91 45 85 46
REMARK SMILES IDX 87 47 35 48 90 49 84 50 83 51 36 53 70 54 49 55 69 56 50 57
REMARK SMILES IDX 53 58 68 59 88 60 51 61 52 62 67 64 89 65 54 66 37 67 38 68
REMARK SMILES IDX 47 69 39 70 40 71 46 72 48 73 41 74 42 75 43 76 44 77 45 78
REMARK SMILES IDX 71 79 72 80 81 81 73 82 74 83 80 84 82 85 75 86 76 87 77 88
REMARK SMILES IDX 78 89 79 90 55 91 56 92 65 93 57 94 58 95 64 96 66 97 59 98
REMARK SMILES IDX 60 99 61 100 62 101 63 102
REMARK H PARENT 18 6 8 15 11 17 25 33 87 52 53 63
REMARK Flexibility Score: inf
ROOT
ATOM      1  C   UNL     1      -2.957   0.189   1.985  1.00  0.00     0.021 C 
ENDROOT
BRANCH   1   2
ATOM      2  C   UNL     1      -2.247  -0.966   2.691  1.00  0.00     0.116 C 
BRANCH   2   3
ATOM      3  N   UNL     1      -1.123  -1.497   1.938  1.00  0.00    -0.356 N 
ATOM      4  C   UNL     1       0.156  -1.751   2.371  1.00  0.00     0.227 C 
ATOM      5  O   UNL     1       0.937  -2.309   1.601  1.00  0.00    -0.274 OA
ATOM      6  H   UNL     1      -1.301  -1.701   0.992  1.00  0.00     0.163 HD
BRANCH   4   7
ATOM      7  C   UNL     1       0.533  -1.322   3.795  1.00  0.00     0.103 C 
ATOM      8  C   UNL     1       2.152   0.480   3.832  1.00  0.00     0.107 C 
ATOM      9  C   UNL     1       2.746  -0.764   4.400  1.00  0.00    -0.006 C 
ATOM     10  C   UNL     1       0.653   0.206   3.887  1.00  0.00     0.047 C 
ATOM     11  C   UNL     1       1.883  -1.782   4.279  1.00  0.00    -0.016 C 
BRANCH   8  12
ATOM     12  N   UNL     1       2.563   1.651   4.546  1.00  0.00    -0.332 N 
ATOM     13  N   UNL     1       1.873   3.446   3.133  1.00  0.00    -0.305 N 
ATOM     14  C   UNL     1       2.350   2.956   4.295  1.00  0.00     0.319 C 
ATOM     15  H   UNL     1       1.381   4.291   3.247  1.00  0.00     0.171 HD
ATOM     16  O   UNL     1       2.510   3.729   5.242  1.00  0.00    -0.248 OA
ATOM     17  H   UNL     1       3.091   1.472   5.358  1.00  0.00     0.165 HD
BRANCH  13  18
ATOM     18  C   UNL     1       1.919   3.024   1.820  1.00  0.00     0.081 A 
ATOM     19  N   UNL     1       1.343   2.819  -0.292  1.00  0.00    -0.268 N 
ATOM     20  C   UNL     1       1.129   3.571   0.831  1.00  0.00     0.135 A 
ATOM     21  N   UNL     1       2.399   1.996  -0.167  1.00  0.00    -0.179 NA
ATOM     22  C   UNL     1       2.733   2.111   1.121  1.00  0.00     0.161 A 
BRANCH  19  23
ATOM     23  C   UNL     1       0.544   2.835  -1.506  1.00  0.00     0.172 C 
BRANCH  23  24
ATOM     24  C   UNL     1       0.742   1.636  -2.442  1.00  0.00     0.183 C 
BRANCH  24  25
ATOM     25  O   UNL     1      -0.070   0.499  -2.114  1.00  0.00    -0.383 OA
ATOM     26  C   UNL     1       0.437  -0.256  -1.019  1.00  0.00     0.194 C 
ENDBRANCH  24  25
ENDBRANCH  23  24
ENDBRANCH  19  23
ENDBRANCH  13  18
ENDBRANCH   8  12
ENDBRANCH   4   7
ENDBRANCH   2   3
ENDBRANCH   1   2
BRANCH   1  27
ATOM     27  C   UNL     1      -3.649  -0.153   0.660  1.00  0.00     0.002 C 
BRANCH  27  28
ATOM     28  C   UNL     1      -4.623  -1.341   0.664  1.00  0.00     0.002 C 
BRANCH  28  29
ATOM     29  C   UNL     1      -5.720  -1.358   1.737  1.00  0.00     0.021 C 
BRANCH  29  30
ATOM     30  C   UNL     1      -6.686  -0.184   1.689  1.00  0.00     0.116 C 
BRANCH  30  31
ATOM     31  N   UNL     1      -7.579  -0.204   0.531  1.00  0.00    -0.352 N 
ATOM     32  C   UNL     1      -8.565   0.718   0.203  1.00  0.00     0.251 C 
ATOM     33  H   UNL     1      -7.468  -0.961  -0.090  1.00  0.00     0.163 HD
ATOM     34  O   UNL     1      -9.484   0.415  -0.537  1.00  0.00    -0.269 OA
BRANCH  32  35
ATOM     35  C   UNL     1      -8.473   2.075   0.781  1.00  0.00     0.039 A 
ATOM     36  C   UNL     1      -9.600   2.760   1.241  1.00  0.00     0.014 A 
ATOM     37  C   UNL     1      -7.208   2.639   0.898  1.00  0.00     0.014 A 
ATOM     38  C   UNL     1      -9.422   3.973   1.906  1.00  0.00     0.010 A 
ATOM     39  C   UNL     1      -7.021   3.728   1.710  1.00  0.00     0.010 A 
ATOM     40  C   UNL     1      -8.122   4.441   2.167  1.00  0.00    -0.014 A 
BRANCH  40  41
ATOM     41  C   UNL     1      -7.898   5.622   2.998  1.00  0.00     0.031 A 
ATOM     42  C   UNL     1      -8.636   5.630   4.291  1.00  0.00     0.074 A 
ATOM     43  C   UNL     1      -6.953   6.555   2.738  1.00  0.00     0.049 A 
ATOM     44  N   UNL     1      -9.615   6.400   4.633  1.00  0.00    -0.248 NA
ATOM     45  C   UNL     1      -8.348   4.568   5.269  1.00  0.00     0.031 C 
ATOM     46  C   UNL     1      -5.932   6.564   1.682  1.00  0.00     0.029 A 
ATOM     47  N   UNL     1      -6.644   7.673   3.449  1.00  0.00    -0.354 N 
ATOM     48  C   UNL     1      -9.916   6.078   5.953  1.00  0.00     0.074 A 
ATOM     49  C   UNL     1      -9.243   4.834   6.224  1.00  0.00     0.031 C 
ATOM     50  C   UNL     1      -4.988   7.487   1.966  1.00  0.00     0.029 A 
ATOM     51  C   UNL     1      -5.430   8.260   3.111  1.00  0.00     0.049 A 
ATOM     52  H   UNL     1      -7.234   8.038   4.147  1.00  0.00     0.167 HD
ATOM     53  C   UNL     1     -10.504   6.983   6.786  1.00  0.00     0.037 A 
ATOM     54  C   UNL     1      -4.824   9.305   3.728  1.00  0.00     0.037 A 
ATOM     55  C   UNL     1     -11.086   8.075   6.045  1.00  0.00     0.049 A 
ATOM     56  C   UNL     1      -5.885  10.039   4.466  1.00  0.00     0.074 A 
ATOM     57  C   UNL     1     -12.029   8.161   5.037  1.00  0.00     0.029 A 
ATOM     58  N   UNL     1     -10.408   9.271   6.016  1.00  0.00    -0.354 N 
ATOM     59  N   UNL     1      -6.862  10.677   3.881  1.00  0.00    -0.248 NA
ATOM     60  C   UNL     1      -6.124   9.667   5.851  1.00  0.00     0.031 C 
ATOM     61  C   UNL     1     -11.523   9.154   4.146  1.00  0.00     0.029 A 
ATOM     62  C   UNL     1     -10.352   9.672   4.704  1.00  0.00     0.049 A 
ATOM     63  H   UNL     1     -10.034   9.750   6.790  1.00  0.00     0.167 HD
ATOM     64  C   UNL     1      -7.979  10.403   4.658  1.00  0.00     0.074 A 
ATOM     65  C   UNL     1      -7.446   9.851   5.903  1.00  0.00     0.031 C 
ATOM     66  C   UNL     1      -9.235  10.384   4.120  1.00  0.00     0.037 A 
BRANCH  53  67
ATOM     67  C   UNL     1     -10.248   7.058   8.273  1.00  0.00     0.058 A 
ATOM     68  C   UNL     1     -11.046   7.898   9.077  1.00  0.00     0.135 A 
ATOM     69  C   UNL     1      -9.085   6.550   8.894  1.00  0.00     0.135 A 
ATOM     70  F   UNL     1     -12.165   8.453   8.585  1.00  0.00    -0.206 F 
ATOM     71  C   UNL     1     -10.685   8.252  10.378  1.00  0.00     0.059 A 
ATOM     72  C   UNL     1      -8.736   6.844  10.207  1.00  0.00     0.059 A 
ATOM     73  F   UNL     1      -8.180   5.823   8.229  1.00  0.00    -0.206 F 
ATOM     74  C   UNL     1      -9.519   7.728  10.929  1.00  0.00     0.060 A 
BRANCH  74  75
ATOM     75  S   UNL     1      -8.998   8.254  12.570  1.00  0.00     0.124 S 
ATOM     76  O   UNL     1      -8.618   9.640  12.323  1.00  0.00    -0.237 OA
ATOM     77  O   UNL     1     -10.213   8.052  13.352  1.00  0.00    -0.237 OA
ATOM     78  O   UNL     1      -7.901   7.343  12.881  1.00  0.00    -0.744 OA
ENDBRANCH  74  75
ENDBRANCH  53  67
BRANCH  54  79
ATOM     79  C   UNL     1      -3.373   9.509   3.979  1.00  0.00     0.058 A 
ATOM     80  C   UNL     1      -2.883  10.743   4.445  1.00  0.00     0.135 A 
ATOM     81  C   UNL     1      -2.479   8.421   4.046  1.00  0.00     0.135 A 
ATOM     82  F   UNL     1      -3.670  11.829   4.434  1.00  0.00    -0.206 F 
ATOM     83  C   UNL     1      -1.605  10.877   4.999  1.00  0.00     0.059 A 
ATOM     84  C   UNL     1      -1.198   8.533   4.586  1.00  0.00     0.059 A 
ATOM     85  F   UNL     1      -2.856   7.189   3.669  1.00  0.00    -0.206 F 
ATOM     86  C   UNL     1      -0.778   9.758   5.087  1.00  0.00     0.060 A 
BRANCH  86  87
ATOM     87  S   UNL     1       0.798   9.885   5.966  1.00  0.00     0.124 S 
ATOM     88  O   UNL     1       1.581  10.718   5.059  1.00  0.00    -0.237 OA
ATOM     89  O   UNL     1       0.400  10.508   7.223  1.00  0.00    -0.237 OA
ATOM     90  O   UNL     1       1.234   8.495   6.071  1.00  0.00    -0.744 OA
ENDBRANCH  86  87
ENDBRANCH  54  79
BRANCH  66  91
ATOM     91  C   UNL     1      -9.435  10.941   2.730  1.00  0.00     0.058 A 
ATOM     92  C   UNL     1      -8.835  10.428   1.564  1.00  0.00     0.135 A 
ATOM     93  C   UNL     1     -10.399  11.946   2.555  1.00  0.00     0.135 A 
ATOM     94  F   UNL     1      -7.981   9.398   1.622  1.00  0.00    -0.206 F 
ATOM     95  C   UNL     1      -9.147  10.920   0.294  1.00  0.00     0.059 A 
ATOM     96  C   UNL     1     -10.750  12.429   1.297  1.00  0.00     0.059 A 
ATOM     97  F   UNL     1     -11.055  12.439   3.618  1.00  0.00    -0.206 F 
ATOM     98  C   UNL     1     -10.108  11.922   0.170  1.00  0.00     0.060 A 
BRANCH  98  99
ATOM     99  S   UNL     1     -10.560  12.512  -1.476  1.00  0.00     0.124 S 
ATOM    100  O   UNL     1      -9.373  13.262  -1.870  1.00  0.00    -0.237 OA
ATOM    101  O   UNL     1     -10.795  11.269  -2.207  1.00  0.00    -0.237 OA
ATOM    102  O   UNL     1     -11.755  13.317  -1.235  1.00  0.00    -0.744 OA
ENDBRANCH  98  99
ENDBRANCH  66  91
ENDBRANCH  40  41
ENDBRANCH  32  35
ENDBRANCH  30  31
ENDBRANCH  29  30
ENDBRANCH  28  29
ENDBRANCH  27  28
ENDBRANCH   1  27
TORSDOF 21
