REMARK SMILES CC(C)(C)N(CC(=O)NCCCCCCNC(=O)c1ccc(-c2c3nc(c(-c4c(F)cc(S(=O)(=O)[O-])cc4F)c4ccc([nH]4)c(-c4c(F)cc(S(=O)(=O)[O-])cc4F)c4nc(c(-c5c(F)cc(S(=O)(=O)[O-])cc5F)c5ccc2[nH]5)C=C4)C=C3)cc1)C(=O)c1cc2ccccc2o1
REMARK SMILES IDX 12 1 11 2 10 3 9 4 7 5 8 6 6 8 5 9 2 10 1 11 3 12 4 13 85 14
REMARK SMILES IDX 86 15 87 16 88 17 95 18 89 19 94 20 90 21 93 22 91 23 92 24
REMARK SMILES IDX 13 25 14 26 15 27 16 28 17 29 18 31 19 32 20 33 84 34 21 35
REMARK SMILES IDX 83 36 22 37 23 38 24 39 77 40 25 41 82 42 76 43 78 44 26 45
REMARK SMILES IDX 81 46 75 47 74 48 27 50 61 51 40 52 60 53 41 54 44 55 59 56
REMARK SMILES IDX 79 57 42 58 43 59 58 61 80 62 45 63 28 64 29 65 38 66 30 67
REMARK SMILES IDX 31 68 37 69 39 70 32 71 33 72 34 73 35 74 36 75 62 76 63 77
REMARK SMILES IDX 72 78 64 79 65 80 71 81 73 82 66 83 67 84 68 85 69 86 70 87
REMARK SMILES IDX 46 88 47 89 56 90 48 91 49 92 55 93 57 94 50 95 51 96 52 97
REMARK SMILES IDX 53 98 54 99
REMARK H PARENT 9 7 16 30 78 49 44 60
REMARK Flexibility Score: inf
ROOT
ATOM      1  C   UNL     1       5.406   3.626  -0.553  1.00  0.00     0.002 C 
ENDROOT
BRANCH   1   2
ATOM      2  C   UNL     1       4.003   3.042  -0.375  1.00  0.00     0.021 C 
BRANCH   2   3
ATOM      3  C   UNL     1       3.942   1.745   0.433  1.00  0.00     0.116 C 
BRANCH   3   4
ATOM      4  N   UNL     1       3.921   1.998   1.863  1.00  0.00    -0.355 N 
ATOM      5  C   UNL     1       2.909   1.863   2.768  1.00  0.00     0.239 C 
ATOM      6  O   UNL     1       3.193   2.027   3.959  1.00  0.00    -0.273 OA
ATOM      7  H   UNL     1       4.774   2.316   2.239  1.00  0.00     0.163 HD
BRANCH   5   8
ATOM      8  C   UNL     1       1.504   1.353   2.368  1.00  0.00     0.220 C 
BRANCH   8   9
ATOM      9  N   UNL     1       0.967   1.924   1.128  1.00  0.00    -0.322 N 
BRANCH   9  10
ATOM     10  C   UNL     1       0.182   1.096   0.145  1.00  0.00     0.035 C 
ATOM     11  C   UNL     1       0.521  -0.409   0.198  1.00  0.00     0.034 C 
ATOM     12  C   UNL     1       0.414   1.537  -1.322  1.00  0.00     0.034 C 
ATOM     13  C   UNL     1      -1.322   1.251   0.459  1.00  0.00     0.034 C 
ENDBRANCH   9  10
BRANCH   9  14
ATOM     14  C   UNL     1       0.840   3.314   1.038  1.00  0.00     0.290 C 
ATOM     15  O   UNL     1       0.957   3.895  -0.040  1.00  0.00    -0.265 OA
BRANCH  14  16
ATOM     16  C   UNL     1       0.457   4.081   2.207  1.00  0.00     0.192 A 
ATOM     17  C   UNL     1       1.153   5.118   2.809  1.00  0.00     0.065 A 
ATOM     18  O   UNL     1      -0.890   4.337   2.292  1.00  0.00    -0.451 OA
ATOM     19  C   UNL     1       0.249   6.220   2.762  1.00  0.00     0.021 A 
ATOM     20  C   UNL     1      -0.991   5.685   2.437  1.00  0.00     0.135 A 
ATOM     21  C   UNL     1       0.383   7.618   2.809  1.00  0.00     0.012 A 
ATOM     22  C   UNL     1      -2.127   6.433   2.149  1.00  0.00     0.048 A 
ATOM     23  C   UNL     1      -0.718   8.402   2.432  1.00  0.00     0.001 A 
ATOM     24  C   UNL     1      -1.947   7.819   2.105  1.00  0.00     0.004 A 
ENDBRANCH  14  16
ENDBRANCH   9  14
ENDBRANCH   8   9
ENDBRANCH   5   8
ENDBRANCH   3   4
ENDBRANCH   2   3
ENDBRANCH   1   2
BRANCH   1  25
ATOM     25  C   UNL     1       6.400   2.738  -1.306  1.00  0.00     0.002 C 
BRANCH  25  26
ATOM     26  C   UNL     1       5.926   2.214  -2.665  1.00  0.00     0.021 C 
BRANCH  26  27
ATOM     27  C   UNL     1       5.537   3.290  -3.677  1.00  0.00     0.116 C 
BRANCH  27  28
ATOM     28  N   UNL     1       6.660   4.146  -4.028  1.00  0.00    -0.352 N 
ATOM     29  C   UNL     1       7.213   4.400  -5.259  1.00  0.00     0.251 C 
ATOM     30  H   UNL     1       7.086   4.610  -3.272  1.00  0.00     0.163 HD
ATOM     31  O   UNL     1       8.282   5.002  -5.337  1.00  0.00    -0.269 OA
BRANCH  29  32
ATOM     32  C   UNL     1       6.534   3.937  -6.488  1.00  0.00     0.039 A 
ATOM     33  C   UNL     1       7.285   3.299  -7.480  1.00  0.00     0.014 A 
ATOM     34  C   UNL     1       5.164   4.146  -6.670  1.00  0.00     0.014 A 
ATOM     35  C   UNL     1       6.650   2.812  -8.626  1.00  0.00     0.010 A 
ATOM     36  C   UNL     1       4.524   3.612  -7.786  1.00  0.00     0.010 A 
ATOM     37  C   UNL     1       5.260   2.937  -8.774  1.00  0.00    -0.014 A 
BRANCH  37  38
ATOM     38  C   UNL     1       4.546   2.379  -9.951  1.00  0.00     0.031 A 
ATOM     39  C   UNL     1       3.859   3.304 -10.917  1.00  0.00     0.074 A 
ATOM     40  C   UNL     1       4.449   1.043 -10.105  1.00  0.00     0.049 A 
ATOM     41  N   UNL     1       3.062   3.016 -11.913  1.00  0.00    -0.248 NA
ATOM     42  C   UNL     1       4.079   4.746 -10.720  1.00  0.00     0.031 C 
ATOM     43  C   UNL     1       5.052   0.042  -9.223  1.00  0.00     0.029 A 
ATOM     44  N   UNL     1       3.787   0.297 -11.049  1.00  0.00    -0.354 N 
ATOM     45  C   UNL     1       2.675   4.237 -12.453  1.00  0.00     0.074 A 
ATOM     46  C   UNL     1       3.289   5.269 -11.647  1.00  0.00     0.031 C 
ATOM     47  C   UNL     1       4.734  -1.185  -9.668  1.00  0.00     0.029 A 
ATOM     48  C   UNL     1       3.874  -1.060 -10.840  1.00  0.00     0.049 A 
ATOM     49  H   UNL     1       3.297   0.696 -11.803  1.00  0.00     0.167 HD
ATOM     50  C   UNL     1       1.893   4.475 -13.534  1.00  0.00     0.037 A 
ATOM     51  C   UNL     1       3.306  -2.085 -11.505  1.00  0.00     0.037 A 
ATOM     52  C   UNL     1       1.300   3.444 -14.344  1.00  0.00     0.049 A 
ATOM     53  C   UNL     1       2.426  -1.794 -12.692  1.00  0.00     0.074 A 
ATOM     54  C   UNL     1       0.509   3.582 -15.471  1.00  0.00     0.029 A 
ATOM     55  N   UNL     1       1.440   2.082 -14.119  1.00  0.00    -0.354 N 
ATOM     56  N   UNL     1       2.089  -0.634 -13.203  1.00  0.00    -0.248 NA
ATOM     57  C   UNL     1       1.850  -2.950 -13.394  1.00  0.00     0.031 C 
ATOM     58  C   UNL     1       0.149   2.305 -15.913  1.00  0.00     0.029 A 
ATOM     59  C   UNL     1       0.747   1.370 -15.083  1.00  0.00     0.049 A 
ATOM     60  H   UNL     1       1.956   1.682 -13.383  1.00  0.00     0.167 HD
ATOM     61  C   UNL     1       1.289  -0.921 -14.303  1.00  0.00     0.074 A 
ATOM     62  C   UNL     1       1.194  -2.364 -14.387  1.00  0.00     0.031 C 
ATOM     63  C   UNL     1       0.686  -0.067 -15.165  1.00  0.00     0.037 A 
BRANCH  50  64
ATOM     64  C   UNL     1       1.644   5.909 -13.908  1.00  0.00     0.058 A 
ATOM     65  C   UNL     1       2.655   6.702 -14.475  1.00  0.00     0.135 A 
ATOM     66  C   UNL     1       0.378   6.489 -13.730  1.00  0.00     0.135 A 
ATOM     67  F   UNL     1       3.888   6.201 -14.651  1.00  0.00    -0.206 F 
ATOM     68  C   UNL     1       2.427   8.028 -14.827  1.00  0.00     0.059 A 
ATOM     69  C   UNL     1       0.121   7.807 -14.099  1.00  0.00     0.059 A 
ATOM     70  F   UNL     1      -0.624   5.775 -13.193  1.00  0.00    -0.206 F 
ATOM     71  C   UNL     1       1.157   8.572 -14.633  1.00  0.00     0.060 A 
BRANCH  71  72
ATOM     72  S   UNL     1       0.876  10.294 -15.098  1.00  0.00     0.124 S 
ATOM     73  O   UNL     1       1.552  11.001 -14.014  1.00  0.00    -0.237 OA
ATOM     74  O   UNL     1       1.520  10.376 -16.405  1.00  0.00    -0.237 OA
ATOM     75  O   UNL     1      -0.579  10.410 -15.111  1.00  0.00    -0.744 OA
ENDBRANCH  71  72
ENDBRANCH  50  64
BRANCH  51  76
ATOM     76  C   UNL     1       3.550  -3.485 -11.069  1.00  0.00     0.058 A 
ATOM     77  C   UNL     1       4.340  -4.352 -11.840  1.00  0.00     0.135 A 
ATOM     78  C   UNL     1       2.994  -3.988  -9.883  1.00  0.00     0.135 A 
ATOM     79  F   UNL     1       4.888  -3.918 -12.985  1.00  0.00    -0.206 F 
ATOM     80  C   UNL     1       4.551  -5.674 -11.464  1.00  0.00     0.059 A 
ATOM     81  C   UNL     1       3.210  -5.300  -9.473  1.00  0.00     0.059 A 
ATOM     82  F   UNL     1       2.246  -3.194  -9.101  1.00  0.00    -0.206 F 
ATOM     83  C   UNL     1       3.978  -6.140 -10.279  1.00  0.00     0.060 A 
BRANCH  83  84
ATOM     84  S   UNL     1       4.278  -7.850  -9.782  1.00  0.00     0.124 S 
ATOM     85  O   UNL     1       3.381  -8.575 -10.674  1.00  0.00    -0.237 OA
ATOM     86  O   UNL     1       5.705  -8.004 -10.047  1.00  0.00    -0.237 OA
ATOM     87  O   UNL     1       3.908  -7.856  -8.370  1.00  0.00    -0.744 OA
ENDBRANCH  83  84
ENDBRANCH  51  76
BRANCH  63  88
ATOM     88  C   UNL     1      -0.089  -0.663 -16.306  1.00  0.00     0.058 A 
ATOM     89  C   UNL     1      -1.360  -1.226 -16.118  1.00  0.00     0.135 A 
ATOM     90  C   UNL     1       0.418  -0.601 -17.614  1.00  0.00     0.135 A 
ATOM     91  F   UNL     1      -1.884  -1.315 -14.886  1.00  0.00    -0.206 F 
ATOM     92  C   UNL     1      -2.100  -1.715 -17.189  1.00  0.00     0.059 A 
ATOM     93  C   UNL     1      -0.313  -1.065 -18.702  1.00  0.00     0.059 A 
ATOM     94  F   UNL     1       1.628  -0.066 -17.845  1.00  0.00    -0.206 F 
ATOM     95  C   UNL     1      -1.570  -1.626 -18.479  1.00  0.00     0.060 A 
BRANCH  95  96
ATOM     96  S   UNL     1      -2.566  -2.209 -19.868  1.00  0.00     0.124 S 
ATOM     97  O   UNL     1      -2.431  -3.657 -19.738  1.00  0.00    -0.237 OA
ATOM     98  O   UNL     1      -3.884  -1.665 -19.559  1.00  0.00    -0.237 OA
ATOM     99  O   UNL     1      -1.907  -1.619 -21.029  1.00  0.00    -0.744 OA
ENDBRANCH  95  96
ENDBRANCH  63  88
ENDBRANCH  37  38
ENDBRANCH  29  32
ENDBRANCH  27  28
ENDBRANCH  26  27
ENDBRANCH  25  26
ENDBRANCH   1  25
TORSDOF 20
