REMARK SMILES C[C@H]1C[N@H+]2CCC[C@@H]2CN1c1cc(Cl)ccc1C(=O)NCCCCCCNC(=O)c1ccc(-c2c3nc(c(-c4c(F)cc(S(=O)(=O)[O-])cc4F)c4ccc([nH]4)c(-c4c(F)cc(S(=O)(=O)[O-])cc4F)c4nc(c(-c5c(F)cc(S(=O)(=O)[O-])cc5F)c5ccc2[nH]5)C=C4)C=C3)cc1
REMARK SMILES IDX 24 1 23 2 22 3 21 4 20 5 18 6 19 7 17 9 11 10 12 11 13 12
REMARK SMILES IDX 16 13 14 14 15 15 10 16 1 17 2 18 3 19 4 20 9 21 5 22 8 23
REMARK SMILES IDX 6 25 7 26 25 27 26 28 27 29 28 30 29 32 30 33 31 34 95 35
REMARK SMILES IDX 32 36 94 37 33 38 34 39 35 40 88 41 36 42 93 43 87 44 89 45
REMARK SMILES IDX 37 46 92 47 86 48 85 49 38 51 72 52 51 53 71 54 52 55 55 56
REMARK SMILES IDX 70 57 90 58 53 59 54 60 69 62 91 63 56 64 39 65 40 66 49 67
REMARK SMILES IDX 41 68 42 69 48 70 50 71 43 72 44 73 45 74 46 75 47 76 73 77
REMARK SMILES IDX 74 78 83 79 75 80 76 81 82 82 84 83 77 84 78 85 79 86 80 87
REMARK SMILES IDX 81 88 57 89 58 90 67 91 59 92 60 93 66 94 68 95 61 96 62 97
REMARK SMILES IDX 63 98 64 99 65 100
REMARK H PARENT 20 8 4 24 27 31 89 50 55 61
REMARK Flexibility Score: inf
ROOT
ATOM      1  C   UNL     1      -3.296  -3.075  -2.038  1.00  0.00     0.002 C 
ENDROOT
BRANCH   1   2
ATOM      2  C   UNL     1      -2.503  -1.982  -2.772  1.00  0.00     0.002 C 
BRANCH   2   3
ATOM      3  C   UNL     1      -1.232  -1.407  -2.127  1.00  0.00     0.021 C 
BRANCH   3   4
ATOM      4  C   UNL     1      -0.148  -2.391  -1.675  1.00  0.00     0.116 C 
BRANCH   4   5
ATOM      5  N   UNL     1       0.930  -2.696  -2.583  1.00  0.00    -0.352 N 
ATOM      6  C   UNL     1       2.189  -3.199  -2.287  1.00  0.00     0.253 C 
ATOM      7  O   UNL     1       2.613  -4.036  -3.098  1.00  0.00    -0.269 OA
ATOM      8  H   UNL     1       0.750  -2.525  -3.536  1.00  0.00     0.163 HD
BRANCH   6   9
ATOM      9  C   UNL     1       3.160  -2.721  -1.223  1.00  0.00     0.063 A 
ATOM     10  C   UNL     1       2.963  -2.364   0.135  1.00  0.00     0.052 A 
ATOM     11  C   UNL     1       4.092  -1.980   0.910  1.00  0.00     0.047 A 
ATOM     12  C   UNL     1       5.379  -1.946   0.384  1.00  0.00     0.043 A 
ATOM     13  C   UNL     1       4.496  -2.692  -1.714  1.00  0.00     0.017 A 
ATOM     14  Cl  UNL     1       6.704  -1.467   1.371  1.00  0.00    -0.084 Cl
ATOM     15  C   UNL     1       5.590  -2.310  -0.931  1.00  0.00     0.021 A 
BRANCH  10  16
ATOM     16  N   UNL     1       1.741  -2.429   0.796  1.00  0.00    -0.357 N 
ATOM     17  C   UNL     1       1.450   0.075   0.886  1.00  0.00     0.037 C 
ATOM     18  C   UNL     1       1.230  -1.268   1.601  1.00  0.00     0.134 C 
ATOM     19  C   UNL     1      -0.309  -1.438   1.876  1.00  0.00     0.287 C 
ATOM     20  N   UNL     1      -0.684  -2.781   2.342  1.00  0.00    -0.329 N 
ATOM     21  C   UNL     1       1.419  -3.750   1.392  1.00  0.00     0.182 C 
ATOM     22  C   UNL     1      -2.121  -3.055   2.314  1.00  0.00     0.262 C 
ATOM     23  C   UNL     1      -0.102  -3.827   1.485  1.00  0.00     0.203 C 
ATOM     24  H   UNL     1      -0.338  -2.797   3.301  1.00  0.00     0.348 HD
ATOM     25  C   UNL     1      -2.209  -4.582   2.150  1.00  0.00     0.068 C 
ATOM     26  C   UNL     1      -0.756  -5.060   2.058  1.00  0.00     0.073 C 
ENDBRANCH  10  16
ENDBRANCH   6   9
ENDBRANCH   4   5
ENDBRANCH   3   4
ENDBRANCH   2   3
ENDBRANCH   1   2
BRANCH   1  27
ATOM     27  C   UNL     1      -4.288  -2.793  -0.887  1.00  0.00     0.021 C 
BRANCH  27  28
ATOM     28  C   UNL     1      -4.654  -1.368  -0.450  1.00  0.00     0.116 C 
BRANCH  28  29
ATOM     29  N   UNL     1      -6.091  -1.161  -0.606  1.00  0.00    -0.352 N 
ATOM     30  C   UNL     1      -7.118  -1.211   0.307  1.00  0.00     0.251 C 
ATOM     31  H   UNL     1      -6.373  -0.949  -1.525  1.00  0.00     0.163 HD
ATOM     32  O   UNL     1      -8.228  -1.548  -0.109  1.00  0.00    -0.269 OA
BRANCH  30  33
ATOM     33  C   UNL     1      -6.977  -0.813   1.737  1.00  0.00     0.039 A 
ATOM     34  C   UNL     1      -7.922  -1.304   2.654  1.00  0.00     0.014 A 
ATOM     35  C   UNL     1      -6.088   0.178   2.163  1.00  0.00     0.014 A 
ATOM     36  C   UNL     1      -8.000  -0.790   3.957  1.00  0.00     0.010 A 
ATOM     37  C   UNL     1      -6.138   0.662   3.483  1.00  0.00     0.010 A 
ATOM     38  C   UNL     1      -7.119   0.214   4.385  1.00  0.00    -0.014 A 
BRANCH  38  39
ATOM     39  C   UNL     1      -7.283   0.843   5.732  1.00  0.00     0.031 A 
ATOM     40  C   UNL     1      -7.730   2.284   5.854  1.00  0.00     0.074 A 
ATOM     41  C   UNL     1      -7.057   0.129   6.853  1.00  0.00     0.049 A 
ATOM     42  N   UNL     1      -7.925   3.006   6.930  1.00  0.00    -0.248 NA
ATOM     43  C   UNL     1      -7.976   3.011   4.599  1.00  0.00     0.031 C 
ATOM     44  C   UNL     1      -6.606  -1.263   6.890  1.00  0.00     0.029 A 
ATOM     45  N   UNL     1      -7.175   0.472   8.180  1.00  0.00    -0.354 N 
ATOM     46  C   UNL     1      -8.317   4.266   6.484  1.00  0.00     0.074 A 
ATOM     47  C   UNL     1      -8.276   4.226   5.038  1.00  0.00     0.031 C 
ATOM     48  C   UNL     1      -6.501  -1.659   8.171  1.00  0.00     0.029 A 
ATOM     49  C   UNL     1      -6.854  -0.546   9.048  1.00  0.00     0.049 A 
ATOM     50  H   UNL     1      -7.464   1.364   8.480  1.00  0.00     0.167 HD
ATOM     51  C   UNL     1      -8.704   5.349   7.205  1.00  0.00     0.037 A 
ATOM     52  C   UNL     1      -6.844  -0.583  10.396  1.00  0.00     0.037 A 
ATOM     53  C   UNL     1      -8.764   5.391   8.645  1.00  0.00     0.049 A 
ATOM     54  C   UNL     1      -7.274   0.635  11.175  1.00  0.00     0.074 A 
ATOM     55  C   UNL     1      -9.142   6.442   9.464  1.00  0.00     0.029 A 
ATOM     56  N   UNL     1      -8.451   4.331   9.482  1.00  0.00    -0.354 N 
ATOM     57  N   UNL     1      -7.660   1.807  10.729  1.00  0.00    -0.248 NA
ATOM     58  C   UNL     1      -7.283   0.519  12.641  1.00  0.00     0.031 C 
ATOM     59  C   UNL     1      -9.036   6.025  10.796  1.00  0.00     0.029 A 
ATOM     60  C   UNL     1      -8.630   4.701  10.805  1.00  0.00     0.049 A 
ATOM     61  H   UNL     1      -8.146   3.445   9.180  1.00  0.00     0.167 HD
ATOM     62  C   UNL     1      -7.989   2.553  11.857  1.00  0.00     0.074 A 
ATOM     63  C   UNL     1      -7.773   1.696  13.003  1.00  0.00     0.031 C 
ATOM     64  C   UNL     1      -8.430   3.833  11.938  1.00  0.00     0.037 A 
BRANCH  51  65
ATOM     65  C   UNL     1      -9.117   6.584   6.445  1.00  0.00     0.058 A 
ATOM     66  C   UNL     1     -10.322   6.628   5.725  1.00  0.00     0.135 A 
ATOM     67  C   UNL     1      -8.332   7.748   6.475  1.00  0.00     0.135 A 
ATOM     68  F   UNL     1     -11.105   5.541   5.652  1.00  0.00    -0.206 F 
ATOM     69  C   UNL     1     -10.721   7.772   5.040  1.00  0.00     0.059 A 
ATOM     70  C   UNL     1      -8.725   8.913   5.820  1.00  0.00     0.059 A 
ATOM     71  F   UNL     1      -7.173   7.766   7.152  1.00  0.00    -0.206 F 
ATOM     72  C   UNL     1      -9.915   8.911   5.093  1.00  0.00     0.060 A 
BRANCH  72  73
ATOM     73  S   UNL     1     -10.454  10.388   4.206  1.00  0.00     0.124 S 
ATOM     74  O   UNL     1     -10.209  10.001   2.820  1.00  0.00    -0.237 OA
ATOM     75  O   UNL     1     -11.855  10.495   4.596  1.00  0.00    -0.237 OA
ATOM     76  O   UNL     1      -9.579  11.436   4.727  1.00  0.00    -0.744 OA
ENDBRANCH  72  73
ENDBRANCH  51  65
BRANCH  52  77
ATOM     77  C   UNL     1      -6.431  -1.821  11.113  1.00  0.00     0.058 A 
ATOM     78  C   UNL     1      -7.357  -2.580  11.846  1.00  0.00     0.135 A 
ATOM     79  C   UNL     1      -5.095  -2.251  11.109  1.00  0.00     0.135 A 
ATOM     80  F   UNL     1      -8.645  -2.207  11.888  1.00  0.00    -0.206 F 
ATOM     81  C   UNL     1      -6.969  -3.697  12.579  1.00  0.00     0.059 A 
ATOM     82  C   UNL     1      -4.688  -3.382  11.810  1.00  0.00     0.059 A 
ATOM     83  F   UNL     1      -4.172  -1.571  10.411  1.00  0.00    -0.206 F 
ATOM     84  C   UNL     1      -5.629  -4.088  12.558  1.00  0.00     0.060 A 
BRANCH  84  85
ATOM     85  S   UNL     1      -5.133  -5.547  13.501  1.00  0.00     0.124 S 
ATOM     86  O   UNL     1      -5.123  -5.026  14.862  1.00  0.00    -0.237 OA
ATOM     87  O   UNL     1      -6.198  -6.495  13.187  1.00  0.00    -0.237 OA
ATOM     88  O   UNL     1      -3.826  -5.877  12.940  1.00  0.00    -0.744 OA
ENDBRANCH  84  85
ENDBRANCH  52  77
BRANCH  64  89
ATOM     89  C   UNL     1      -8.758   4.365  13.307  1.00  0.00     0.058 A 
ATOM     90  C   UNL     1      -7.758   4.664  14.246  1.00  0.00     0.135 A 
ATOM     91  C   UNL     1     -10.094   4.588  13.680  1.00  0.00     0.135 A 
ATOM     92  F   UNL     1      -6.465   4.467  13.941  1.00  0.00    -0.206 F 
ATOM     93  C   UNL     1      -8.072   5.124  15.521  1.00  0.00     0.059 A 
ATOM     94  C   UNL     1     -10.429   5.073  14.940  1.00  0.00     0.059 A 
ATOM     95  F   UNL     1     -11.089   4.332  12.816  1.00  0.00    -0.206 F 
ATOM     96  C   UNL     1      -9.412   5.319  15.861  1.00  0.00     0.060 A 
BRANCH  96  97
ATOM     97  S   UNL     1      -9.810   5.913  17.520  1.00  0.00     0.124 S 
ATOM     98  O   UNL     1      -9.626   4.704  18.315  1.00  0.00    -0.237 OA
ATOM     99  O   UNL     1      -8.817   6.963  17.725  1.00  0.00    -0.237 OA
ATOM    100  O   UNL     1     -11.187   6.378  17.391  1.00  0.00    -0.744 OA
ENDBRANCH  96  97
ENDBRANCH  64  89
ENDBRANCH  38  39
ENDBRANCH  30  33
ENDBRANCH  28  29
ENDBRANCH  27  28
ENDBRANCH   1  27
TORSDOF 17
