REMARK SMILES C[C@@H](C(=O)NCCCCCCNC(=O)c1ccc(-c2c3nc(c(-c4c(F)cc(S(=O)(=O)[O-])cc4F)c4ccc([nH]4)c(-c4c(F)cc(S(=O)(=O)[O-])cc4F)c4nc(c(-c5c(F)cc(S(=O)(=O)[O-])cc5F)c5ccc2[nH]5)C=C4)C=C3)cc1)c1ccc(O[C@H]2CCCC2=O)cc1F
REMARK SMILES IDX 8 1 7 2 6 3 5 4 3 5 4 6 2 8 1 9 81 10 82 11 93 12 83 13
REMARK SMILES IDX 92 14 94 15 84 16 85 17 86 18 87 19 90 20 88 21 89 22 91 23
REMARK SMILES IDX 9 24 10 25 11 26 12 27 13 28 14 30 15 31 16 32 80 33 17 34
REMARK SMILES IDX 79 35 18 36 19 37 20 38 73 39 21 40 78 41 72 42 74 43 22 44
REMARK SMILES IDX 77 45 71 46 70 47 23 49 57 50 36 51 56 52 37 53 40 54 55 55
REMARK SMILES IDX 75 56 38 57 39 58 54 60 76 61 41 62 24 63 25 64 34 65 26 66
REMARK SMILES IDX 27 67 33 68 35 69 28 70 29 71 30 72 31 73 32 74 58 75 59 76
REMARK SMILES IDX 68 77 60 78 61 79 67 80 69 81 62 82 63 83 64 84 65 85 66 86
REMARK SMILES IDX 42 87 43 88 52 89 44 90 45 91 51 92 53 93 46 94 47 95 48 96
REMARK SMILES IDX 49 97 50 98
REMARK H PARENT 5 7 12 29 74 48 40 59
REMARK Flexibility Score: inf
ROOT
ATOM      1  C   UNL     1       5.021  -1.330  -2.454  1.00  0.00     0.002 C 
ENDROOT
BRANCH   1   2
ATOM      2  C   UNL     1       4.285  -0.554  -1.352  1.00  0.00     0.021 C 
BRANCH   2   3
ATOM      3  C   UNL     1       3.478   0.640  -1.866  1.00  0.00     0.116 C 
BRANCH   3   4
ATOM      4  N   UNL     1       2.377   0.196  -2.693  1.00  0.00    -0.356 N 
ATOM      5  C   UNL     1       1.044   0.117  -2.424  1.00  0.00     0.227 C 
ATOM      6  O   UNL     1       0.330  -0.327  -3.328  1.00  0.00    -0.274 OA
ATOM      7  H   UNL     1       2.633  -0.097  -3.598  1.00  0.00     0.163 HD
BRANCH   5   8
ATOM      8  C   UNL     1       0.484   0.656  -1.093  1.00  0.00     0.108 C 
ATOM      9  C   UNL     1       0.992  -0.081   0.153  1.00  0.00     0.023 C 
BRANCH   8  10
ATOM     10  C   UNL     1      -1.038   0.641  -1.082  1.00  0.00     0.000 A 
ATOM     11  C   UNL     1      -1.774   1.831  -1.049  1.00  0.00     0.011 A 
ATOM     12  C   UNL     1      -1.743  -0.567  -1.082  1.00  0.00     0.130 A 
ATOM     13  C   UNL     1      -3.172   1.788  -0.999  1.00  0.00     0.047 A 
ATOM     14  C   UNL     1      -3.132  -0.610  -1.030  1.00  0.00     0.086 A 
ATOM     15  F   UNL     1      -1.082  -1.733  -1.114  1.00  0.00    -0.207 F 
ATOM     16  C   UNL     1      -3.861   0.569  -0.990  1.00  0.00     0.123 A 
BRANCH  16  17
ATOM     17  O   UNL     1      -5.216   0.688  -0.926  1.00  0.00    -0.483 OA
BRANCH  17  18
ATOM     18  C   UNL     1      -6.066  -0.420  -1.110  1.00  0.00     0.239 C 
ATOM     19  C   UNL     1      -6.139  -0.913  -2.562  1.00  0.00     0.054 C 
ATOM     20  C   UNL     1      -5.976  -1.707  -0.292  1.00  0.00     0.173 C 
ATOM     21  C   UNL     1      -5.834  -2.409  -2.544  1.00  0.00     0.012 C 
ATOM     22  C   UNL     1      -6.182  -2.922  -1.155  1.00  0.00     0.080 C 
ATOM     23  O   UNL     1      -5.813  -1.761   0.920  1.00  0.00    -0.296 OA
ENDBRANCH  17  18
ENDBRANCH  16  17
ENDBRANCH   8  10
ENDBRANCH   5   8
ENDBRANCH   3   4
ENDBRANCH   2   3
ENDBRANCH   1   2
BRANCH   1  24
ATOM     24  C   UNL     1       5.978  -0.493  -3.309  1.00  0.00     0.002 C 
BRANCH  24  25
ATOM     25  C   UNL     1       7.027   0.296  -2.522  1.00  0.00     0.021 C 
BRANCH  25  26
ATOM     26  C   UNL     1       7.955  -0.560  -1.668  1.00  0.00     0.116 C 
BRANCH  26  27
ATOM     27  N   UNL     1       8.774  -1.447  -2.477  1.00  0.00    -0.352 N 
ATOM     28  C   UNL     1      10.129  -1.649  -2.439  1.00  0.00     0.251 C 
ATOM     29  H   UNL     1       8.286  -1.978  -3.146  1.00  0.00     0.163 HD
ATOM     30  O   UNL     1      10.673  -2.289  -3.339  1.00  0.00    -0.269 OA
BRANCH  28  31
ATOM     31  C   UNL     1      10.937  -1.090  -1.334  1.00  0.00     0.039 A 
ATOM     32  C   UNL     1      12.177  -0.517  -1.627  1.00  0.00     0.014 A 
ATOM     33  C   UNL     1      10.494  -1.160  -0.009  1.00  0.00     0.014 A 
ATOM     34  C   UNL     1      12.957   0.016  -0.598  1.00  0.00     0.010 A 
ATOM     35  C   UNL     1      11.239  -0.564   1.006  1.00  0.00     0.010 A 
ATOM     36  C   UNL     1      12.486   0.012   0.726  1.00  0.00    -0.014 A 
BRANCH  36  37
ATOM     37  C   UNL     1      13.305   0.575   1.831  1.00  0.00     0.031 A 
ATOM     38  C   UNL     1      13.821  -0.327   2.921  1.00  0.00     0.074 A 
ATOM     39  C   UNL     1      13.547   1.899   1.876  1.00  0.00     0.049 A 
ATOM     40  N   UNL     1      14.526  -0.023   3.980  1.00  0.00    -0.248 NA
ATOM     41  C   UNL     1      13.475  -1.754   2.823  1.00  0.00     0.031 C 
ATOM     42  C   UNL     1      13.062   2.882   0.905  1.00  0.00     0.029 A 
ATOM     43  N   UNL     1      14.261   2.648   2.777  1.00  0.00    -0.354 N 
ATOM     44  C   UNL     1      14.689  -1.212   4.683  1.00  0.00     0.074 A 
ATOM     45  C   UNL     1      13.966  -2.233   3.957  1.00  0.00     0.031 C 
ATOM     46  C   UNL     1      13.520   4.098   1.244  1.00  0.00     0.029 A 
ATOM     47  C   UNL     1      14.302   3.989   2.472  1.00  0.00     0.049 A 
ATOM     48  H   UNL     1      14.702   2.263   3.568  1.00  0.00     0.167 HD
ATOM     49  C   UNL     1      15.395  -1.438   5.817  1.00  0.00     0.037 A 
ATOM     50  C   UNL     1      14.906   5.011   3.107  1.00  0.00     0.037 A 
ATOM     51  C   UNL     1      16.144  -0.424   6.513  1.00  0.00     0.049 A 
ATOM     52  C   UNL     1      15.701   4.732   4.354  1.00  0.00     0.074 A 
ATOM     53  C   UNL     1      16.952  -0.564   7.628  1.00  0.00     0.029 A 
ATOM     54  N   UNL     1      16.176   0.917   6.162  1.00  0.00    -0.354 N 
ATOM     55  N   UNL     1      15.903   3.589   4.966  1.00  0.00    -0.248 NA
ATOM     56  C   UNL     1      16.358   5.881   4.992  1.00  0.00     0.031 C 
ATOM     57  C   UNL     1      17.440   0.700   7.976  1.00  0.00     0.029 A 
ATOM     58  C   UNL     1      16.974   1.620   7.049  1.00  0.00     0.049 A 
ATOM     59  H   UNL     1      15.702   1.312   5.395  1.00  0.00     0.167 HD
ATOM     60  C   UNL     1      16.739   3.875   6.040  1.00  0.00     0.074 A 
ATOM     61  C   UNL     1      17.009   5.298   5.990  1.00  0.00     0.031 C 
ATOM     62  C   UNL     1      17.241   3.035   6.979  1.00  0.00     0.037 A 
BRANCH  49  63
ATOM     63  C   UNL     1      15.388  -2.836   6.375  1.00  0.00     0.058 A 
ATOM     64  C   UNL     1      16.045  -3.895   5.729  1.00  0.00     0.135 A 
ATOM     65  C   UNL     1      14.731  -3.116   7.585  1.00  0.00     0.135 A 
ATOM     66  F   UNL     1      16.677  -3.688   4.562  1.00  0.00    -0.206 F 
ATOM     67  C   UNL     1      16.020  -5.189   6.240  1.00  0.00     0.059 A 
ATOM     68  C   UNL     1      14.718  -4.397   8.130  1.00  0.00     0.059 A 
ATOM     69  F   UNL     1      14.088  -2.142   8.247  1.00  0.00    -0.206 F 
ATOM     70  C   UNL     1      15.350  -5.430   7.440  1.00  0.00     0.060 A 
BRANCH  70  71
ATOM     71  S   UNL     1      15.317  -7.115   8.087  1.00  0.00     0.124 S 
ATOM     72  O   UNL     1      14.359  -7.753   7.188  1.00  0.00    -0.237 OA
ATOM     73  O   UNL     1      16.706  -7.537   7.934  1.00  0.00    -0.237 OA
ATOM     74  O   UNL     1      14.866  -6.942   9.464  1.00  0.00    -0.744 OA
ENDBRANCH  70  71
ENDBRANCH  49  63
BRANCH  50  75
ATOM     75  C   UNL     1      14.822   6.387   2.549  1.00  0.00     0.058 A 
ATOM     76  C   UNL     1      15.945   6.993   1.966  1.00  0.00     0.135 A 
ATOM     77  C   UNL     1      13.624   7.116   2.573  1.00  0.00     0.135 A 
ATOM     78  F   UNL     1      17.115   6.337   1.924  1.00  0.00    -0.206 F 
ATOM     79  C   UNL     1      15.889   8.280   1.442  1.00  0.00     0.059 A 
ATOM     80  C   UNL     1      13.537   8.396   2.033  1.00  0.00     0.059 A 
ATOM     81  F   UNL     1      12.517   6.574   3.104  1.00  0.00    -0.206 F 
ATOM     82  C   UNL     1      14.678   8.973   1.478  1.00  0.00     0.060 A 
BRANCH  82  83
ATOM     83  S   UNL     1      14.604  10.625   0.751  1.00  0.00     0.124 S 
ATOM     84  O   UNL     1      15.324  11.415   1.743  1.00  0.00    -0.237 OA
ATOM     85  O   UNL     1      15.283  10.428  -0.526  1.00  0.00    -0.237 OA
ATOM     86  O   UNL     1      13.170  10.884   0.656  1.00  0.00    -0.744 OA
ENDBRANCH  82  83
ENDBRANCH  50  75
BRANCH  62  87
ATOM     87  C   UNL     1      18.171   3.624   8.004  1.00  0.00     0.058 A 
ATOM     88  C   UNL     1      17.707   4.457   9.034  1.00  0.00     0.135 A 
ATOM     89  C   UNL     1      19.542   3.318   7.974  1.00  0.00     0.135 A 
ATOM     90  F   UNL     1      16.407   4.784   9.104  1.00  0.00    -0.206 F 
ATOM     91  C   UNL     1      18.574   4.990   9.982  1.00  0.00     0.059 A 
ATOM     92  C   UNL     1      20.422   3.818   8.929  1.00  0.00     0.059 A 
ATOM     93  F   UNL     1      20.036   2.517   7.017  1.00  0.00    -0.206 F 
ATOM     94  C   UNL     1      19.930   4.666   9.920  1.00  0.00     0.060 A 
BRANCH  94  95
ATOM     95  S   UNL     1      21.043   5.348  11.168  1.00  0.00     0.124 S 
ATOM     96  O   UNL     1      21.177   6.729  10.718  1.00  0.00    -0.237 OA
ATOM     97  O   UNL     1      20.288   5.152  12.402  1.00  0.00    -0.237 OA
ATOM     98  O   UNL     1      22.243   4.526  11.038  1.00  0.00    -0.744 OA
ENDBRANCH  94  95
ENDBRANCH  62  87
ENDBRANCH  36  37
ENDBRANCH  28  31
ENDBRANCH  26  27
ENDBRANCH  25  26
ENDBRANCH  24  25
ENDBRANCH   1  24
TORSDOF 19
