REMARK SMILES C[C@@H](CC(=O)NCCCCCCNC(=O)c1ccc(-c2c3nc(c(-c4c(F)cc(S(=O)(=O)[O-])cc4F)c4ccc([nH]4)c(-c4c(F)cc(S(=O)(=O)[O-])cc4F)c4nc(c(-c5c(F)cc(S(=O)(=O)[O-])cc5F)c5ccc2[nH]5)C=C4)C=C3)cc1)CC(=O)NC[C@@]1(C)CCCO1
REMARK SMILES IDX 8 1 7 2 6 3 4 4 5 5 3 7 2 8 1 9 82 10 83 11 84 12 85 13
REMARK SMILES IDX 86 15 87 16 88 17 89 18 92 19 90 20 91 21 9 22 10 23 11 24
REMARK SMILES IDX 12 25 13 26 14 27 15 29 16 30 17 31 81 32 18 33 80 34 19 35
REMARK SMILES IDX 20 36 21 37 74 38 22 39 79 40 73 41 75 42 23 43 78 44 72 45
REMARK SMILES IDX 71 46 24 48 58 49 37 50 57 51 38 52 41 53 56 54 76 55 39 56
REMARK SMILES IDX 40 57 55 59 77 60 42 61 25 62 26 63 35 64 27 65 28 66 34 67
REMARK SMILES IDX 36 68 29 69 30 70 31 71 32 72 33 73 59 74 60 75 69 76 61 77
REMARK SMILES IDX 62 78 68 79 70 80 63 81 64 82 65 83 66 84 67 85 43 86 44 87
REMARK SMILES IDX 53 88 45 89 46 90 52 91 54 92 47 93 48 94 49 95 50 96 51 97
REMARK H PARENT 6 6 85 14 13 28 75 47 41 58
REMARK Flexibility Score: inf
ROOT
ATOM      1  C   UNL     1       0.652  -2.336  -1.707  1.00  0.00     0.021 C 
ENDROOT
BRANCH   1   2
ATOM      2  C   UNL     1       1.375  -1.189  -2.421  1.00  0.00     0.116 C 
BRANCH   2   3
ATOM      3  N   UNL     1       0.432  -0.416  -3.211  1.00  0.00    -0.356 N 
ATOM      4  C   UNL     1       0.030   0.880  -3.097  1.00  0.00     0.220 C 
ATOM      5  O   UNL     1      -0.908   1.262  -3.799  1.00  0.00    -0.275 OA
ATOM      6  H   UNL     1       0.015  -0.911  -3.953  1.00  0.00     0.163 HD
BRANCH   4   7
ATOM      7  C   UNL     1       0.736   1.841  -2.157  1.00  0.00     0.103 C 
BRANCH   7   8
ATOM      8  C   UNL     1       0.255   1.931  -0.689  1.00  0.00     0.004 C 
ATOM      9  C   UNL     1       1.424   1.609   0.241  1.00  0.00     0.009 C 
BRANCH   8  10
ATOM     10  C   UNL     1      -1.017   1.126  -0.374  1.00  0.00     0.103 C 
BRANCH  10  11
ATOM     11  C   UNL     1      -1.399   1.153   1.097  1.00  0.00     0.220 C 
ATOM     12  O   UNL     1      -2.060   2.080   1.565  1.00  0.00    -0.275 OA
ATOM     13  N   UNL     1      -0.978   0.162   1.936  1.00  0.00    -0.353 N 
ATOM     14  H   UNL     1      -1.185   0.311   2.887  1.00  0.00     0.163 HD
BRANCH  13  15
ATOM     15  C   UNL     1      -0.271  -1.083   1.652  1.00  0.00     0.151 C 
BRANCH  15  16
ATOM     16  C   UNL     1       0.935  -1.427   2.577  1.00  0.00     0.083 C 
ATOM     17  C   UNL     1       2.289  -1.313   1.849  1.00  0.00     0.044 C 
ATOM     18  C   UNL     1       0.963  -0.668   3.901  1.00  0.00     0.039 C 
ATOM     19  O   UNL     1       0.823  -2.816   2.979  1.00  0.00    -0.373 OA
ATOM     20  C   UNL     1       1.804  -1.571   4.770  1.00  0.00     0.031 C 
ATOM     21  C   UNL     1       1.385  -2.953   4.301  1.00  0.00     0.161 C 
ENDBRANCH  15  16
ENDBRANCH  13  15
ENDBRANCH  10  11
ENDBRANCH   8  10
ENDBRANCH   7   8
ENDBRANCH   4   7
ENDBRANCH   2   3
ENDBRANCH   1   2
BRANCH   1  22
ATOM     22  C   UNL     1       0.621  -3.664  -2.463  1.00  0.00     0.002 C 
BRANCH  22  23
ATOM     23  C   UNL     1       1.972  -4.378  -2.581  1.00  0.00     0.002 C 
BRANCH  23  24
ATOM     24  C   UNL     1       2.735  -4.622  -1.271  1.00  0.00     0.021 C 
BRANCH  24  25
ATOM     25  C   UNL     1       1.969  -5.368  -0.177  1.00  0.00     0.116 C 
BRANCH  25  26
ATOM     26  N   UNL     1       1.526  -6.682  -0.614  1.00  0.00    -0.352 N 
ATOM     27  C   UNL     1       1.901  -7.937  -0.207  1.00  0.00     0.251 C 
ATOM     28  H   UNL     1       0.841  -6.668  -1.321  1.00  0.00     0.163 HD
ATOM     29  O   UNL     1       1.541  -8.910  -0.869  1.00  0.00    -0.269 OA
BRANCH  27  30
ATOM     30  C   UNL     1       2.736  -8.143   0.999  1.00  0.00     0.039 A 
ATOM     31  C   UNL     1       3.742  -9.115   0.958  1.00  0.00     0.014 A 
ATOM     32  C   UNL     1       2.499  -7.444   2.187  1.00  0.00     0.014 A 
ATOM     33  C   UNL     1       4.541  -9.346   2.082  1.00  0.00     0.010 A 
ATOM     34  C   UNL     1       3.337  -7.632   3.288  1.00  0.00     0.010 A 
ATOM     35  C   UNL     1       4.365  -8.586   3.249  1.00  0.00    -0.014 A 
BRANCH  35  36
ATOM     36  C   UNL     1       5.254  -8.772   4.428  1.00  0.00     0.031 A 
ATOM     37  C   UNL     1       4.701  -9.285   5.730  1.00  0.00     0.074 A 
ATOM     38  C   UNL     1       6.553  -8.419   4.343  1.00  0.00     0.049 A 
ATOM     39  N   UNL     1       5.308  -9.447   6.879  1.00  0.00    -0.248 NA
ATOM     40  C   UNL     1       3.274  -9.640   5.751  1.00  0.00     0.031 C 
ATOM     41  C   UNL     1       7.202  -7.868   3.151  1.00  0.00     0.029 A 
ATOM     42  N   UNL     1       7.557  -8.458   5.278  1.00  0.00    -0.354 N 
ATOM     43  C   UNL     1       4.337  -9.906   7.762  1.00  0.00     0.074 A 
ATOM     44  C   UNL     1       3.091  -9.954   7.026  1.00  0.00     0.031 C 
ATOM     45  C   UNL     1       8.495  -7.634   3.423  1.00  0.00     0.029 A 
ATOM     46  C   UNL     1       8.762  -7.983   4.816  1.00  0.00     0.049 A 
ATOM     47  H   UNL     1       7.427  -8.794   6.194  1.00  0.00     0.167 HD
ATOM     48  C   UNL     1       4.474 -10.270   9.061  1.00  0.00     0.037 A 
ATOM     49  C   UNL     1       9.946  -7.835   5.441  1.00  0.00     0.037 A 
ATOM     50  C   UNL     1       5.722 -10.244   9.781  1.00  0.00     0.049 A 
ATOM     51  C   UNL     1      10.077  -8.254   6.880  1.00  0.00     0.074 A 
ATOM     52  C   UNL     1       5.974 -10.654  11.080  1.00  0.00     0.029 A 
ATOM     53  N   UNL     1       6.925  -9.781   9.270  1.00  0.00    -0.354 N 
ATOM     54  N   UNL     1       9.161  -8.744   7.681  1.00  0.00    -0.248 NA
ATOM     55  C   UNL     1      11.402  -8.108   7.497  1.00  0.00     0.031 C 
ATOM     56  C   UNL     1       7.319 -10.399  11.367  1.00  0.00     0.029 A 
ATOM     57  C   UNL     1       7.918  -9.874  10.233  1.00  0.00     0.049 A 
ATOM     58  H   UNL     1       7.055  -9.437   8.357  1.00  0.00     0.167 HD
ATOM     59  C   UNL     1       9.805  -8.987   8.890  1.00  0.00     0.074 A 
ATOM     60  C   UNL     1      11.189  -8.601   8.710  1.00  0.00     0.031 C 
ATOM     61  C   UNL     1       9.294  -9.487  10.042  1.00  0.00     0.037 A 
BRANCH  48  62
ATOM     62  C   UNL     1       3.239 -10.725   9.790  1.00  0.00     0.058 A 
ATOM     63  C   UNL     1       2.621 -11.952   9.502  1.00  0.00     0.135 A 
ATOM     64  C   UNL     1       2.683  -9.939  10.813  1.00  0.00     0.135 A 
ATOM     65  F   UNL     1       3.103 -12.739   8.526  1.00  0.00    -0.206 F 
ATOM     66  C   UNL     1       1.475 -12.366  10.174  1.00  0.00     0.059 A 
ATOM     67  C   UNL     1       1.554 -10.346  11.518  1.00  0.00     0.059 A 
ATOM     68  F   UNL     1       3.235  -8.758  11.133  1.00  0.00    -0.206 F 
ATOM     69  C   UNL     1       0.947 -11.554  11.178  1.00  0.00     0.060 A 
BRANCH  69  70
ATOM     70  S   UNL     1      -0.546 -12.098  12.036  1.00  0.00     0.124 S 
ATOM     71  O   UNL     1      -1.567 -11.861  11.018  1.00  0.00    -0.237 OA
ATOM     72  O   UNL     1      -0.251 -13.501  12.318  1.00  0.00    -0.237 OA
ATOM     73  O   UNL     1      -0.607 -11.227  13.201  1.00  0.00    -0.744 OA
ENDBRANCH  69  70
ENDBRANCH  48  62
BRANCH  49  74
ATOM     74  C   UNL     1      11.107  -7.280   4.697  1.00  0.00     0.058 A 
ATOM     75  C   UNL     1      12.181  -8.100   4.321  1.00  0.00     0.135 A 
ATOM     76  C   UNL     1      11.153  -5.928   4.322  1.00  0.00     0.135 A 
ATOM     77  F   UNL     1      12.186  -9.397   4.663  1.00  0.00    -0.206 F 
ATOM     78  C   UNL     1      13.264  -7.599   3.605  1.00  0.00     0.059 A 
ATOM     79  C   UNL     1      12.213  -5.409   3.587  1.00  0.00     0.059 A 
ATOM     80  F   UNL     1      10.142  -5.106   4.645  1.00  0.00    -0.206 F 
ATOM     81  C   UNL     1      13.268  -6.252   3.238  1.00  0.00     0.060 A 
BRANCH  81  82
ATOM     82  S   UNL     1      14.646  -5.626   2.252  1.00  0.00     0.124 S 
ATOM     83  O   UNL     1      15.711  -5.559   3.246  1.00  0.00    -0.237 OA
ATOM     84  O   UNL     1      14.787  -6.660   1.232  1.00  0.00    -0.237 OA
ATOM     85  O   UNL     1      14.152  -4.341   1.766  1.00  0.00    -0.744 OA
ENDBRANCH  81  82
ENDBRANCH  49  74
BRANCH  61  86
ATOM     86  C   UNL     1      10.241  -9.671  11.196  1.00  0.00     0.058 A 
ATOM     87  C   UNL     1      10.732  -8.580  11.929  1.00  0.00     0.135 A 
ATOM     88  C   UNL     1      10.624 -10.960  11.602  1.00  0.00     0.135 A 
ATOM     89  F   UNL     1      10.403  -7.327  11.578  1.00  0.00    -0.206 F 
ATOM     90  C   UNL     1      11.590  -8.759  13.010  1.00  0.00     0.059 A 
ATOM     91  C   UNL     1      11.460 -11.163  12.696  1.00  0.00     0.059 A 
ATOM     92  F   UNL     1      10.175 -12.039  10.941  1.00  0.00    -0.206 F 
ATOM     93  C   UNL     1      11.947 -10.055  13.387  1.00  0.00     0.060 A 
BRANCH  93  94
ATOM     94  S   UNL     1      13.035 -10.275  14.811  1.00  0.00     0.124 S 
ATOM     95  O   UNL     1      14.327  -9.884  14.256  1.00  0.00    -0.237 OA
ATOM     96  O   UNL     1      12.461  -9.356  15.789  1.00  0.00    -0.237 OA
ATOM     97  O   UNL     1      12.892 -11.692  15.132  1.00  0.00    -0.744 OA
ENDBRANCH  93  94
ENDBRANCH  61  86
ENDBRANCH  35  36
ENDBRANCH  27  30
ENDBRANCH  25  26
ENDBRANCH  24  25
ENDBRANCH  23  24
ENDBRANCH  22  23
ENDBRANCH   1  22
TORSDOF 21
