REMARK SMILES C[C@H]1CCC(F)(F)[C@@H]1C(=O)NCCCCCCNC(=O)c1ccc(-c2c3nc(c(-c4c(F)cc(S(=O)(=O)[O-])cc4F)c4ccc([nH]4)c(-c4c(F)cc(S(=O)(=O)[O-])cc4F)c4nc(c(-c5c(F)cc(S(=O)(=O)[O-])cc5F)c5ccc2[nH]5)C=C4)C=C3)cc1
REMARK SMILES IDX 16 1 15 2 14 3 13 4 12 5 11 6 9 7 10 8 8 10 1 11 2 12 3 13
REMARK SMILES IDX 4 14 5 15 6 16 7 17 17 18 18 19 19 20 20 22 21 23 22 24
REMARK SMILES IDX 86 25 23 26 85 27 24 28 25 29 26 30 79 31 27 32 84 33 78 34
REMARK SMILES IDX 80 35 28 36 83 37 77 38 76 39 29 41 63 42 42 43 62 44 43 45
REMARK SMILES IDX 46 46 61 47 81 48 44 49 45 50 60 52 82 53 47 54 30 55 31 56
REMARK SMILES IDX 40 57 32 58 33 59 39 60 41 61 34 62 35 63 36 64 37 65 38 66
REMARK SMILES IDX 64 67 65 68 74 69 66 70 67 71 73 72 75 73 68 74 69 75 70 76
REMARK SMILES IDX 71 77 72 78 48 79 49 80 58 81 50 82 51 83 57 84 59 85 52 86
REMARK SMILES IDX 53 87 54 88 55 89 56 90
REMARK H PARENT 11 9 18 21 80 40 46 51
REMARK Flexibility Score: inf
ROOT
ATOM      1  C   UNL     1       5.053  -4.135   2.985  1.00  0.00     0.021 C 
ENDROOT
BRANCH   1   2
ATOM      2  C   UNL     1       5.520  -2.979   2.097  1.00  0.00     0.002 C 
BRANCH   2   3
ATOM      3  C   UNL     1       4.590  -2.635   0.929  1.00  0.00     0.002 C 
BRANCH   3   4
ATOM      4  C   UNL     1       3.142  -2.312   1.315  1.00  0.00     0.021 C 
BRANCH   4   5
ATOM      5  C   UNL     1       2.983  -1.162   2.308  1.00  0.00     0.116 C 
BRANCH   5   6
ATOM      6  N   UNL     1       3.482   0.087   1.759  1.00  0.00    -0.356 N 
ATOM      7  C   UNL     1       2.866   1.298   1.641  1.00  0.00     0.229 C 
ATOM      8  O   UNL     1       3.478   2.204   1.078  1.00  0.00    -0.275 OA
ATOM      9  H   UNL     1       4.406   0.054   1.421  1.00  0.00     0.163 HD
BRANCH   7  10
ATOM     10  C   UNL     1       1.441   1.444   2.131  1.00  0.00     0.151 C 
ATOM     11  C   UNL     1      -0.862   0.528   1.535  1.00  0.00     0.009 C 
ATOM     12  C   UNL     1       0.451   1.103   1.002  1.00  0.00     0.004 C 
ATOM     13  C   UNL     1       0.229   2.435   0.256  1.00  0.00     0.010 C 
ATOM     14  C   UNL     1       0.753   3.559   1.153  1.00  0.00     0.078 C 
ATOM     15  C   UNL     1       1.108   2.884   2.460  1.00  0.00     0.259 C 
ATOM     16  F   UNL     1       2.076   3.525   3.137  1.00  0.00    -0.206 F 
ATOM     17  F   UNL     1       0.009   2.904   3.267  1.00  0.00    -0.206 F 
ENDBRANCH   7  10
ENDBRANCH   5   6
ENDBRANCH   4   5
ENDBRANCH   3   4
ENDBRANCH   2   3
ENDBRANCH   1   2
BRANCH   1  18
ATOM     18  C   UNL     1       4.813  -5.452   2.254  1.00  0.00     0.116 C 
BRANCH  18  19
ATOM     19  N   UNL     1       6.025  -5.977   1.645  1.00  0.00    -0.352 N 
ATOM     20  C   UNL     1       6.604  -7.214   1.782  1.00  0.00     0.251 C 
ATOM     21  H   UNL     1       6.499  -5.355   1.047  1.00  0.00     0.163 HD
ATOM     22  O   UNL     1       7.729  -7.415   1.327  1.00  0.00    -0.269 OA
BRANCH  20  23
ATOM     23  C   UNL     1       5.890  -8.295   2.496  1.00  0.00     0.039 A 
ATOM     24  C   UNL     1       6.591  -9.066   3.427  1.00  0.00     0.014 A 
ATOM     25  C   UNL     1       4.536  -8.548   2.255  1.00  0.00     0.014 A 
ATOM     26  C   UNL     1       5.917 -10.040   4.167  1.00  0.00     0.010 A 
ATOM     27  C   UNL     1       3.851  -9.470   3.044  1.00  0.00     0.010 A 
ATOM     28  C   UNL     1       4.532 -10.222   4.013  1.00  0.00    -0.014 A 
BRANCH  28  29
ATOM     29  C   UNL     1       3.781 -11.164   4.886  1.00  0.00     0.031 A 
ATOM     30  C   UNL     1       3.071 -12.354   4.296  1.00  0.00     0.074 A 
ATOM     31  C   UNL     1       3.682 -10.905   6.206  1.00  0.00     0.049 A 
ATOM     32  N   UNL     1       2.320 -13.243   4.892  1.00  0.00    -0.248 NA
ATOM     33  C   UNL     1       3.200 -12.558   2.844  1.00  0.00     0.031 C 
ATOM     34  C   UNL     1       4.275  -9.751   6.887  1.00  0.00     0.029 A 
ATOM     35  N   UNL     1       3.033 -11.581   7.210  1.00  0.00    -0.354 N 
ATOM     36  C   UNL     1       1.873 -14.099   3.892  1.00  0.00     0.074 A 
ATOM     37  C   UNL     1       2.407 -13.601   2.643  1.00  0.00     0.031 C 
ATOM     38  C   UNL     1       3.973  -9.806   8.194  1.00  0.00     0.029 A 
ATOM     39  C   UNL     1       3.130 -10.971   8.440  1.00  0.00     0.049 A 
ATOM     40  H   UNL     1       2.544 -12.423   7.064  1.00  0.00     0.167 HD
ATOM     41  C   UNL     1       1.102 -15.206   4.009  1.00  0.00     0.037 A 
ATOM     42  C   UNL     1       2.585 -11.298   9.629  1.00  0.00     0.037 A 
ATOM     43  C   UNL     1       0.602 -15.713   5.262  1.00  0.00     0.049 A 
ATOM     44  C   UNL     1       1.739 -12.540   9.730  1.00  0.00     0.074 A 
ATOM     45  C   UNL     1      -0.109 -16.878   5.492  1.00  0.00     0.029 A 
ATOM     46  N   UNL     1       0.746 -15.085   6.490  1.00  0.00    -0.354 N 
ATOM     47  N   UNL     1       1.411 -13.392   8.788  1.00  0.00    -0.248 NA
ATOM     48  C   UNL     1       1.194 -12.870  11.054  1.00  0.00     0.031 C 
ATOM     49  C   UNL     1      -0.451 -16.923   6.846  1.00  0.00     0.029 A 
ATOM     50  C   UNL     1       0.103 -15.819   7.474  1.00  0.00     0.049 A 
ATOM     51  H   UNL     1       1.233 -14.243   6.640  1.00  0.00     0.167 HD
ATOM     52  C   UNL     1       0.641 -14.368   9.410  1.00  0.00     0.074 A 
ATOM     53  C   UNL     1       0.571 -14.014  10.812  1.00  0.00     0.031 C 
ATOM     54  C   UNL     1       0.043 -15.458   8.869  1.00  0.00     0.037 A 
BRANCH  41  55
ATOM     55  C   UNL     1       0.740 -15.958   2.757  1.00  0.00     0.058 A 
ATOM     56  C   UNL     1       1.684 -16.714   2.046  1.00  0.00     0.135 A 
ATOM     57  C   UNL     1      -0.594 -15.994   2.315  1.00  0.00     0.135 A 
ATOM     58  F   UNL     1       2.975 -16.705   2.414  1.00  0.00    -0.206 F 
ATOM     59  C   UNL     1       1.323 -17.471   0.935  1.00  0.00     0.059 A 
ATOM     60  C   UNL     1      -0.983 -16.766   1.224  1.00  0.00     0.059 A 
ATOM     61  F   UNL     1      -1.538 -15.287   2.956  1.00  0.00    -0.206 F 
ATOM     62  C   UNL     1      -0.015 -17.497   0.537  1.00  0.00     0.060 A 
BRANCH  62  63
ATOM     63  S   UNL     1      -0.473 -18.520  -0.878  1.00  0.00     0.124 S 
ATOM     64  O   UNL     1       0.127 -17.776  -1.982  1.00  0.00    -0.237 OA
ATOM     65  O   UNL     1       0.160 -19.795  -0.556  1.00  0.00    -0.237 OA
ATOM     66  O   UNL     1      -1.932 -18.520  -0.842  1.00  0.00    -0.744 OA
ENDBRANCH  62  63
ENDBRANCH  41  55
BRANCH  42  67
ATOM     67  C   UNL     1       2.808 -10.431  10.819  1.00  0.00     0.058 A 
ATOM     68  C   UNL     1       3.560 -10.875  11.916  1.00  0.00     0.135 A 
ATOM     69  C   UNL     1       2.256  -9.141  10.886  1.00  0.00     0.135 A 
ATOM     70  F   UNL     1       4.103 -12.102  11.904  1.00  0.00    -0.206 F 
ATOM     71  C   UNL     1       3.731 -10.088  13.050  1.00  0.00     0.059 A 
ATOM     72  C   UNL     1       2.441  -8.322  11.996  1.00  0.00     0.059 A 
ATOM     73  F   UNL     1       1.544  -8.658   9.857  1.00  0.00    -0.206 F 
ATOM     74  C   UNL     1       3.166  -8.812  13.081  1.00  0.00     0.060 A 
BRANCH  74  75
ATOM     75  S   UNL     1       3.411  -7.788  14.548  1.00  0.00     0.124 S 
ATOM     76  O   UNL     1       2.541  -8.448  15.514  1.00  0.00    -0.237 OA
ATOM     77  O   UNL     1       4.846  -7.925  14.780  1.00  0.00    -0.237 OA
ATOM     78  O   UNL     1       2.979  -6.464  14.108  1.00  0.00    -0.744 OA
ENDBRANCH  74  75
ENDBRANCH  42  67
BRANCH  54  79
ATOM     79  C   UNL     1      -0.720 -16.365   9.796  1.00  0.00     0.058 A 
ATOM     80  C   UNL     1      -1.944 -15.980  10.365  1.00  0.00     0.135 A 
ATOM     81  C   UNL     1      -0.246 -17.658  10.075  1.00  0.00     0.135 A 
ATOM     82  F   UNL     1      -2.440 -14.753  10.136  1.00  0.00    -0.206 F 
ATOM     83  C   UNL     1      -2.658 -16.834  11.199  1.00  0.00     0.059 A 
ATOM     84  C   UNL     1      -0.960 -18.540  10.880  1.00  0.00     0.059 A 
ATOM     85  F   UNL     1       0.914 -18.082   9.549  1.00  0.00    -0.206 F 
ATOM     86  C   UNL     1      -2.160 -18.114  11.448  1.00  0.00     0.060 A 
BRANCH  86  87
ATOM     87  S   UNL     1      -3.115 -19.223  12.504  1.00  0.00     0.124 S 
ATOM     88  O   UNL     1      -2.910 -18.626  13.820  1.00  0.00    -0.237 OA
ATOM     89  O   UNL     1      -4.460 -19.096  11.953  1.00  0.00    -0.237 OA
ATOM     90  O   UNL     1      -2.479 -20.521  12.299  1.00  0.00    -0.744 OA
ENDBRANCH  86  87
ENDBRANCH  54  79
ENDBRANCH  28  29
ENDBRANCH  20  23
ENDBRANCH  18  19
ENDBRANCH   1  18
TORSDOF 16
