REMARK SMILES CCCC[C@H](C(=O)OC)[C@H](O)C(=O)NCCCCCCNC(=O)c1ccc(-c2c3nc(c(-c4c(F)cc(S(=O)(=O)[O-])cc4F)c4ccc([nH]4)c(-c4c(F)cc(S(=O)(=O)[O-])cc4F)c4nc(c(-c5c(F)cc(S(=O)(=O)[O-])cc5F)c5ccc2[nH]5)C=C4)C=C3)cc1
REMARK SMILES IDX 17 1 16 2 15 3 14 4 12 5 13 6 10 8 5 9 4 10 3 11 2 12 1 13
REMARK SMILES IDX 6 14 7 15 8 16 9 17 11 18 18 20 19 21 20 22 21 23 22 24
REMARK SMILES IDX 23 26 24 27 25 28 89 29 26 30 88 31 27 32 28 33 29 34 82 35
REMARK SMILES IDX 30 36 87 37 81 38 83 39 31 40 86 41 80 42 79 43 32 45 66 46
REMARK SMILES IDX 45 47 65 48 46 49 49 50 64 51 84 52 47 53 48 54 63 56 85 57
REMARK SMILES IDX 50 58 33 59 34 60 43 61 35 62 36 63 42 64 44 65 37 66 38 67
REMARK SMILES IDX 39 68 40 69 41 70 67 71 68 72 77 73 69 74 70 75 76 76 78 77
REMARK SMILES IDX 71 78 72 79 73 80 74 81 75 82 51 83 52 84 61 85 53 86 54 87
REMARK SMILES IDX 60 88 62 89 55 90 56 91 57 92 58 93 59 94
REMARK H PARENT 14 7 11 19 21 25 83 44 49 55
REMARK Flexibility Score: inf
ROOT
ATOM      1  C   UNL     1      -5.064   0.044  -0.101  1.00  0.00     0.002 C 
ENDROOT
BRANCH   1   2
ATOM      2  C   UNL     1      -3.562  -0.029  -0.398  1.00  0.00     0.021 C 
BRANCH   2   3
ATOM      3  C   UNL     1      -2.986  -1.439  -0.341  1.00  0.00     0.116 C 
BRANCH   3   4
ATOM      4  N   UNL     1      -3.507  -2.260  -1.419  1.00  0.00    -0.354 N 
ATOM      5  C   UNL     1      -2.878  -3.028  -2.354  1.00  0.00     0.249 C 
ATOM      6  O   UNL     1      -3.582  -3.612  -3.183  1.00  0.00    -0.272 OA
ATOM      7  H   UNL     1      -4.489  -2.263  -1.487  1.00  0.00     0.163 HD
BRANCH   5   8
ATOM      8  C   UNL     1      -1.341  -3.186  -2.355  1.00  0.00     0.217 C 
BRANCH   8   9
ATOM      9  C   UNL     1      -0.853  -3.840  -1.043  1.00  0.00     0.137 C 
BRANCH   9  10
ATOM     10  C   UNL     1       0.583  -3.462  -0.612  1.00  0.00     0.018 C 
BRANCH  10  11
ATOM     11  C   UNL     1       0.663  -2.952   0.838  1.00  0.00     0.001 C 
BRANCH  11  12
ATOM     12  C   UNL     1       0.220  -3.942   1.919  1.00  0.00    -0.003 C 
ATOM     13  C   UNL     1       1.099  -5.177   2.005  1.00  0.00     0.004 C 
ENDBRANCH  11  12
ENDBRANCH  10  11
ENDBRANCH   9  10
BRANCH   9  14
ATOM     14  C   UNL     1      -1.010  -5.343  -1.227  1.00  0.00     0.311 C 
ATOM     15  O   UNL     1      -0.106  -6.136  -1.452  1.00  0.00    -0.252 OA
BRANCH  14  16
ATOM     16  O   UNL     1      -2.328  -5.675  -1.126  1.00  0.00    -0.469 OA
ATOM     17  C   UNL     1      -2.647  -7.039  -1.404  1.00  0.00     0.282 C 
ENDBRANCH  14  16
ENDBRANCH   9  14
ENDBRANCH   8   9
BRANCH   8  18
ATOM     18  O   UNL     1      -0.683  -1.965  -2.685  1.00  0.00    -0.382 OA
ATOM     19  H   UNL     1      -0.888  -1.296  -2.013  1.00  0.00     0.211 HD
ENDBRANCH   8  18
ENDBRANCH   5   8
ENDBRANCH   3   4
ENDBRANCH   2   3
ENDBRANCH   1   2
BRANCH   1  20
ATOM     20  C   UNL     1      -5.483  -0.521   1.261  1.00  0.00     0.002 C 
BRANCH  20  21
ATOM     21  C   UNL     1      -4.753   0.079   2.464  1.00  0.00     0.021 C 
BRANCH  21  22
ATOM     22  C   UNL     1      -4.856   1.596   2.577  1.00  0.00     0.116 C 
BRANCH  22  23
ATOM     23  N   UNL     1      -6.230   2.039   2.737  1.00  0.00    -0.352 N 
ATOM     24  C   UNL     1      -6.760   2.898   3.667  1.00  0.00     0.251 C 
ATOM     25  H   UNL     1      -6.872   1.673   2.086  1.00  0.00     0.163 HD
ATOM     26  O   UNL     1      -7.978   3.006   3.773  1.00  0.00    -0.269 OA
BRANCH  24  27
ATOM     27  C   UNL     1      -5.863   3.675   4.549  1.00  0.00     0.039 A 
ATOM     28  C   UNL     1      -6.187   3.798   5.902  1.00  0.00     0.014 A 
ATOM     29  C   UNL     1      -4.716   4.296   4.043  1.00  0.00     0.014 A 
ATOM     30  C   UNL     1      -5.340   4.509   6.754  1.00  0.00     0.010 A 
ATOM     31  C   UNL     1      -3.833   4.935   4.909  1.00  0.00     0.010 A 
ATOM     32  C   UNL     1      -4.143   5.064   6.270  1.00  0.00    -0.014 A 
BRANCH  32  33
ATOM     33  C   UNL     1      -3.229   5.819   7.167  1.00  0.00     0.031 A 
ATOM     34  C   UNL     1      -2.970   7.282   6.916  1.00  0.00     0.074 A 
ATOM     35  C   UNL     1      -2.609   5.185   8.183  1.00  0.00     0.049 A 
ATOM     36  N   UNL     1      -2.163   8.098   7.544  1.00  0.00    -0.248 NA
ATOM     37  C   UNL     1      -3.693   7.904   5.794  1.00  0.00     0.031 C 
ATOM     38  C   UNL     1      -2.743   3.761   8.501  1.00  0.00     0.029 A 
ATOM     39  N   UNL     1      -1.735   5.654   9.131  1.00  0.00    -0.354 N 
ATOM     40  C   UNL     1      -2.286   9.324   6.899  1.00  0.00     0.074 A 
ATOM     41  C   UNL     1      -3.185   9.127   5.784  1.00  0.00     0.031 C 
ATOM     42  C   UNL     1      -1.994   3.478   9.579  1.00  0.00     0.029 A 
ATOM     43  C   UNL     1      -1.298   4.687  10.007  1.00  0.00     0.049 A 
ATOM     44  H   UNL     1      -1.448   6.594   9.181  1.00  0.00     0.167 HD
ATOM     45  C   UNL     1      -1.730  10.515   7.227  1.00  0.00     0.037 A 
ATOM     46  C   UNL     1      -0.427   4.766  11.033  1.00  0.00     0.037 A 
ATOM     47  C   UNL     1      -0.848  10.710   8.348  1.00  0.00     0.049 A 
ATOM     48  C   UNL     1       0.189   6.100  11.368  1.00  0.00     0.074 A 
ATOM     49  C   UNL     1      -0.239  11.879   8.771  1.00  0.00     0.029 A 
ATOM     50  N   UNL     1      -0.457   9.714   9.230  1.00  0.00    -0.354 N 
ATOM     51  N   UNL     1       0.032   7.256  10.767  1.00  0.00    -0.248 NA
ATOM     52  C   UNL     1       1.086   6.145  12.530  1.00  0.00     0.031 C 
ATOM     53  C   UNL     1       0.548  11.583   9.889  1.00  0.00     0.029 A 
ATOM     54  C   UNL     1       0.385  10.241  10.195  1.00  0.00     0.049 A 
ATOM     55  H   UNL     1      -0.736   8.772   9.178  1.00  0.00     0.167 HD
ATOM     56  C   UNL     1       0.776   8.172  11.504  1.00  0.00     0.074 A 
ATOM     57  C   UNL     1       1.372   7.437  12.600  1.00  0.00     0.031 C 
ATOM     58  C   UNL     1       0.949   9.501  11.296  1.00  0.00     0.037 A 
BRANCH  45  59
ATOM     59  C   UNL     1      -2.083  11.707   6.379  1.00  0.00     0.058 A 
ATOM     60  C   UNL     1      -3.373  12.264   6.402  1.00  0.00     0.135 A 
ATOM     61  C   UNL     1      -1.116  12.333   5.576  1.00  0.00     0.135 A 
ATOM     62  F   UNL     1      -4.342  11.695   7.136  1.00  0.00    -0.206 F 
ATOM     63  C   UNL     1      -3.696  13.385   5.645  1.00  0.00     0.059 A 
ATOM     64  C   UNL     1      -1.409  13.475   4.834  1.00  0.00     0.059 A 
ATOM     65  F   UNL     1       0.132  11.842   5.513  1.00  0.00    -0.206 F 
ATOM     66  C   UNL     1      -2.706  13.986   4.868  1.00  0.00     0.060 A 
BRANCH  66  67
ATOM     67  S   UNL     1      -3.139  15.457   3.915  1.00  0.00     0.124 S 
ATOM     68  O   UNL     1      -3.994  14.890   2.876  1.00  0.00    -0.237 OA
ATOM     69  O   UNL     1      -3.814  16.284   4.909  1.00  0.00    -0.237 OA
ATOM     70  O   UNL     1      -1.847  15.959   3.458  1.00  0.00    -0.744 OA
ENDBRANCH  66  67
ENDBRANCH  45  59
BRANCH  46  71
ATOM     71  C   UNL     1      -0.086   3.552  11.825  1.00  0.00     0.058 A 
ATOM     72  C   UNL     1      -0.461   3.432  13.172  1.00  0.00     0.135 A 
ATOM     73  C   UNL     1       0.652   2.501  11.259  1.00  0.00     0.135 A 
ATOM     74  F   UNL     1      -1.167   4.409  13.762  1.00  0.00    -0.206 F 
ATOM     75  C   UNL     1      -0.080   2.336  13.941  1.00  0.00     0.059 A 
ATOM     76  C   UNL     1       1.017   1.380  11.998  1.00  0.00     0.059 A 
ATOM     77  F   UNL     1       1.017   2.553   9.968  1.00  0.00    -0.206 F 
ATOM     78  C   UNL     1       0.665   1.318  13.345  1.00  0.00     0.060 A 
BRANCH  78  79
ATOM     79  S   UNL     1       1.155  -0.101  14.349  1.00  0.00     0.124 S 
ATOM     80  O   UNL     1       2.201   0.478  15.183  1.00  0.00    -0.237 OA
ATOM     81  O   UNL     1      -0.091  -0.441  15.029  1.00  0.00    -0.237 OA
ATOM     82  O   UNL     1       1.604  -1.074  13.357  1.00  0.00    -0.744 OA
ENDBRANCH  78  79
ENDBRANCH  46  71
BRANCH  58  83
ATOM     83  C   UNL     1       1.759  10.262  12.310  1.00  0.00     0.058 A 
ATOM     84  C   UNL     1       3.147  10.100  12.432  1.00  0.00     0.135 A 
ATOM     85  C   UNL     1       1.132  11.195  13.154  1.00  0.00     0.135 A 
ATOM     86  F   UNL     1       3.796   9.220  11.653  1.00  0.00    -0.206 F 
ATOM     87  C   UNL     1       3.880  10.805  13.382  1.00  0.00     0.059 A 
ATOM     88  C   UNL     1       1.850  11.935  14.087  1.00  0.00     0.059 A 
ATOM     89  F   UNL     1      -0.192  11.401  13.070  1.00  0.00    -0.206 F 
ATOM     90  C   UNL     1       3.222  11.720  14.206  1.00  0.00     0.060 A 
BRANCH  90  91
ATOM     91  S   UNL     1       4.186  12.636  15.426  1.00  0.00     0.124 S 
ATOM     92  O   UNL     1       4.457  11.604  16.421  1.00  0.00    -0.237 OA
ATOM     93  O   UNL     1       5.335  13.082  14.644  1.00  0.00    -0.237 OA
ATOM     94  O   UNL     1       3.276  13.696  15.851  1.00  0.00    -0.744 OA
ENDBRANCH  90  91
ENDBRANCH  58  83
ENDBRANCH  32  33
ENDBRANCH  24  27
ENDBRANCH  22  23
ENDBRANCH  21  22
ENDBRANCH  20  21
ENDBRANCH   1  20
TORSDOF 23
