REMARK SMILES CC(C)[NH2+][C@@]1(C(=O)NCCCCCCNC(=O)c2ccc(-c3c4nc(c(-c5c(F)cc(S(=O)(=O)[O-])cc5F)c5ccc([nH]5)c(-c5c(F)cc(S(=O)(=O)[O-])cc5F)c5nc(c(-c6c(F)cc(S(=O)(=O)[O-])cc6F)c6ccc3[nH]6)C=C5)C=C4)cc2)CCC[C@@H]1CCOC1CCOCC1
REMARK SMILES IDX 11 1 10 2 9 3 8 4 6 5 7 6 5 8 84 9 87 10 85 11 86 12 4 13
REMARK SMILES IDX 2 16 1 17 3 18 88 19 89 20 90 21 91 22 92 23 96 24 93 25
REMARK SMILES IDX 95 26 94 27 12 28 13 29 14 30 15 31 16 32 17 34 18 35 19 36
REMARK SMILES IDX 83 37 20 38 82 39 21 40 22 41 23 42 76 43 24 44 81 45 75 46
REMARK SMILES IDX 77 47 25 48 80 49 74 50 73 51 26 53 60 54 39 55 59 56 40 57
REMARK SMILES IDX 43 58 58 59 78 60 41 61 42 62 57 64 79 65 44 66 27 67 28 68
REMARK SMILES IDX 37 69 29 70 30 71 36 72 38 73 31 74 32 75 33 76 34 77 35 78
REMARK SMILES IDX 61 79 62 80 71 81 63 82 64 83 70 84 72 85 65 86 66 87 67 88
REMARK SMILES IDX 68 89 69 90 45 91 46 92 55 93 47 94 48 95 54 96 56 97 49 98
REMARK SMILES IDX 50 99 51 100 52 101 53 102
REMARK H PARENT 8 7 4 14 4 15 15 33 77 52 43 63
REMARK Flexibility Score: inf
ROOT
ATOM      1  C   UNL     1      -5.575   3.186  -5.633  1.00  0.00     0.002 C 
ENDROOT
BRANCH   1   2
ATOM      2  C   UNL     1      -4.272   2.894  -4.886  1.00  0.00     0.021 C 
BRANCH   2   3
ATOM      3  C   UNL     1      -4.404   3.018  -3.362  1.00  0.00     0.116 C 
BRANCH   3   4
ATOM      4  N   UNL     1      -4.146   1.760  -2.692  1.00  0.00    -0.351 N 
ATOM      5  C   UNL     1      -3.107   1.163  -2.069  1.00  0.00     0.281 C 
ATOM      6  O   UNL     1      -3.367  -0.004  -1.718  1.00  0.00    -0.268 OA
ATOM      7  H   UNL     1      -4.945   1.184  -2.690  1.00  0.00     0.163 HD
BRANCH   5   8
ATOM      8  C   UNL     1      -1.651   1.756  -1.786  1.00  0.00     0.178 C 
ATOM      9  C   UNL     1      -1.735   2.992  -0.872  1.00  0.00     0.079 C 
ATOM     10  C   UNL     1      -0.867   2.238  -3.042  1.00  0.00     0.063 C 
ATOM     11  C   UNL     1      -1.553   4.221  -1.746  1.00  0.00     0.008 C 
ATOM     12  C   UNL     1      -1.182   3.737  -3.141  1.00  0.00     0.011 C 
BRANCH   8  13
ATOM     13  N   UNL     1      -0.986   0.666  -1.018  1.00  0.00    -0.331 N 
ATOM     14  H   UNL     1      -1.443   0.646  -0.106  1.00  0.00     0.347 HD
ATOM     15  H   UNL     1      -1.086  -0.123  -1.656  1.00  0.00     0.347 HD
BRANCH  13  16
ATOM     16  C   UNL     1       0.443   0.642  -0.749  1.00  0.00     0.176 C 
ATOM     17  C   UNL     1       0.624   0.056   0.657  1.00  0.00     0.075 C 
ATOM     18  C   UNL     1       1.204  -0.254  -1.728  1.00  0.00     0.075 C 
ENDBRANCH  13  16
ENDBRANCH   8  13
BRANCH  10  19
ATOM     19  C   UNL     1      -1.033   1.321  -4.290  1.00  0.00     0.039 C 
BRANCH  19  20
ATOM     20  C   UNL     1      -0.746   1.831  -5.717  1.00  0.00     0.161 C 
BRANCH  20  21
ATOM     21  O   UNL     1       0.633   1.976  -6.080  1.00  0.00    -0.378 OA
BRANCH  21  22
ATOM     22  C   UNL     1       1.258   3.082  -5.455  1.00  0.00     0.122 C 
ATOM     23  C   UNL     1       1.840   4.122  -6.401  1.00  0.00     0.060 C 
ATOM     24  C   UNL     1       2.352   2.600  -4.518  1.00  0.00     0.060 C 
ATOM     25  C   UNL     1       2.365   5.269  -5.531  1.00  0.00     0.163 C 
ATOM     26  C   UNL     1       2.841   3.787  -3.712  1.00  0.00     0.163 C 
ATOM     27  O   UNL     1       3.334   4.806  -4.583  1.00  0.00    -0.381 OA
ENDBRANCH  21  22
ENDBRANCH  20  21
ENDBRANCH  19  20
ENDBRANCH  10  19
ENDBRANCH   5   8
ENDBRANCH   3   4
ENDBRANCH   2   3
ENDBRANCH   1   2
BRANCH   1  28
ATOM     28  C   UNL     1      -6.079   4.626  -5.491  1.00  0.00     0.002 C 
BRANCH  28  29
ATOM     29  C   UNL     1      -5.175   5.701  -6.101  1.00  0.00     0.021 C 
BRANCH  29  30
ATOM     30  C   UNL     1      -4.863   5.518  -7.584  1.00  0.00     0.116 C 
BRANCH  30  31
ATOM     31  N   UNL     1      -6.074   5.404  -8.386  1.00  0.00    -0.352 N 
ATOM     32  C   UNL     1      -6.547   6.226  -9.372  1.00  0.00     0.251 C 
ATOM     33  H   UNL     1      -6.635   4.619  -8.189  1.00  0.00     0.163 HD
ATOM     34  O   UNL     1      -7.711   6.106  -9.768  1.00  0.00    -0.269 OA
BRANCH  32  35
ATOM     35  C   UNL     1      -5.668   7.254  -9.959  1.00  0.00     0.039 A 
ATOM     36  C   UNL     1      -6.161   8.545 -10.164  1.00  0.00     0.014 A 
ATOM     37  C   UNL     1      -4.358   6.932 -10.325  1.00  0.00     0.014 A 
ATOM     38  C   UNL     1      -5.320   9.530 -10.688  1.00  0.00     0.010 A 
ATOM     39  C   UNL     1      -3.503   7.929 -10.780  1.00  0.00     0.010 A 
ATOM     40  C   UNL     1      -3.978   9.235 -10.976  1.00  0.00    -0.014 A 
BRANCH  40  41
ATOM     41  C   UNL     1      -3.051  10.263 -11.512  1.00  0.00     0.031 A 
ATOM     42  C   UNL     1      -2.460  10.085 -12.885  1.00  0.00     0.074 A 
ATOM     43  C   UNL     1      -2.681  11.302 -10.739  1.00  0.00     0.049 A 
ATOM     44  N   UNL     1      -1.532  10.786 -13.482  1.00  0.00    -0.248 NA
ATOM     45  C   UNL     1      -2.957   8.948 -13.677  1.00  0.00     0.031 C 
ATOM     46  C   UNL     1      -3.156  11.557  -9.377  1.00  0.00     0.029 A 
ATOM     47  N   UNL     1      -1.800  12.327 -10.980  1.00  0.00    -0.354 N 
ATOM     48  C   UNL     1      -1.323  10.167 -14.710  1.00  0.00     0.074 A 
ATOM     49  C   UNL     1      -2.180   9.003 -14.748  1.00  0.00     0.031 C 
ATOM     50  C   UNL     1      -2.565  12.667  -8.906  1.00  0.00     0.029 A 
ATOM     51  C   UNL     1      -1.641  13.181  -9.913  1.00  0.00     0.049 A 
ATOM     52  H   UNL     1      -1.327  12.441 -11.835  1.00  0.00     0.167 HD
ATOM     53  C   UNL     1      -0.510  10.550 -15.723  1.00  0.00     0.037 A 
ATOM     54  C   UNL     1      -0.830  14.245  -9.758  1.00  0.00     0.037 A 
ATOM     55  C   UNL     1       0.319  11.726 -15.684  1.00  0.00     0.049 A 
ATOM     56  C   UNL     1       0.065  14.654 -10.899  1.00  0.00     0.074 A 
ATOM     57  C   UNL     1       1.153  12.224 -16.670  1.00  0.00     0.029 A 
ATOM     58  N   UNL     1       0.414  12.592 -14.605  1.00  0.00    -0.354 N 
ATOM     59  N   UNL     1       0.219  14.082 -12.070  1.00  0.00    -0.248 NA
ATOM     60  C   UNL     1       0.888  15.855 -10.704  1.00  0.00     0.031 C 
ATOM     61  C   UNL     1       1.778  13.371 -16.174  1.00  0.00     0.029 A 
ATOM     62  C   UNL     1       1.297  13.617 -14.897  1.00  0.00     0.049 A 
ATOM     63  H   UNL     1      -0.074  12.492 -13.756  1.00  0.00     0.167 HD
ATOM     64  C   UNL     1       1.129  14.872 -12.762  1.00  0.00     0.074 A 
ATOM     65  C   UNL     1       1.487  15.965 -11.882  1.00  0.00     0.031 C 
ATOM     66  C   UNL     1       1.622  14.710 -14.015  1.00  0.00     0.037 A 
BRANCH  53  67
ATOM     67  C   UNL     1      -0.489   9.697 -16.961  1.00  0.00     0.058 A 
ATOM     68  C   UNL     1      -1.590   9.639 -17.831  1.00  0.00     0.135 A 
ATOM     69  C   UNL     1       0.653   8.954 -17.302  1.00  0.00     0.135 A 
ATOM     70  F   UNL     1      -2.714  10.316 -17.546  1.00  0.00    -0.206 F 
ATOM     71  C   UNL     1      -1.570   8.854 -18.979  1.00  0.00     0.059 A 
ATOM     72  C   UNL     1       0.706   8.184 -18.461  1.00  0.00     0.059 A 
ATOM     73  F   UNL     1       1.734   8.971 -16.505  1.00  0.00    -0.206 F 
ATOM     74  C   UNL     1      -0.417   8.130 -19.285  1.00  0.00     0.060 A 
BRANCH  74  75
ATOM     75  S   UNL     1      -0.407   7.122 -20.783  1.00  0.00     0.124 S 
ATOM     76  O   UNL     1      -1.279   6.017 -20.395  1.00  0.00    -0.237 OA
ATOM     77  O   UNL     1      -0.953   8.038 -21.779  1.00  0.00    -0.237 OA
ATOM     78  O   UNL     1       1.001   6.780 -20.953  1.00  0.00    -0.744 OA
ENDBRANCH  74  75
ENDBRANCH  53  67
BRANCH  54  79
ATOM     79  C   UNL     1      -0.832  15.004  -8.479  1.00  0.00     0.058 A 
ATOM     80  C   UNL     1      -1.359  16.302  -8.408  1.00  0.00     0.135 A 
ATOM     81  C   UNL     1      -0.316  14.444  -7.300  1.00  0.00     0.135 A 
ATOM     82  F   UNL     1      -1.862  16.882  -9.508  1.00  0.00    -0.206 F 
ATOM     83  C   UNL     1      -1.354  17.028  -7.221  1.00  0.00     0.059 A 
ATOM     84  C   UNL     1      -0.323  15.139  -6.095  1.00  0.00     0.059 A 
ATOM     85  F   UNL     1       0.181  13.197  -7.308  1.00  0.00    -0.206 F 
ATOM     86  C   UNL     1      -0.833  16.437  -6.069  1.00  0.00     0.060 A 
BRANCH  86  87
ATOM     87  S   UNL     1      -0.865  17.372  -4.524  1.00  0.00     0.124 S 
ATOM     88  O   UNL     1       0.194  18.349  -4.751  1.00  0.00    -0.237 OA
ATOM     89  O   UNL     1      -2.227  17.897  -4.511  1.00  0.00    -0.237 OA
ATOM     90  O   UNL     1      -0.583  16.357  -3.513  1.00  0.00    -0.744 OA
ENDBRANCH  86  87
ENDBRANCH  54  79
BRANCH  66  91
ATOM     91  C   UNL     1       2.560  15.762 -14.537  1.00  0.00     0.058 A 
ATOM     92  C   UNL     1       3.887  15.857 -14.092  1.00  0.00     0.135 A 
ATOM     93  C   UNL     1       2.143  16.635 -15.555  1.00  0.00     0.135 A 
ATOM     94  F   UNL     1       4.333  15.050 -13.116  1.00  0.00    -0.206 F 
ATOM     95  C   UNL     1       4.766  16.792 -14.629  1.00  0.00     0.059 A 
ATOM     96  C   UNL     1       3.012  17.559 -16.125  1.00  0.00     0.059 A 
ATOM     97  F   UNL     1       0.886  16.578 -16.022  1.00  0.00    -0.206 F 
ATOM     98  C   UNL     1       4.321  17.635 -15.649  1.00  0.00     0.060 A 
BRANCH  98  99
ATOM     99  S   UNL     1       5.487  18.806 -16.376  1.00  0.00     0.124 S 
ATOM    100  O   UNL     1       5.597  19.806 -15.318  1.00  0.00    -0.237 OA
ATOM    101  O   UNL     1       6.669  17.977 -16.590  1.00  0.00    -0.237 OA
ATOM    102  O   UNL     1       4.811  19.250 -17.591  1.00  0.00    -0.744 OA
ENDBRANCH  98  99
ENDBRANCH  66  91
ENDBRANCH  40  41
ENDBRANCH  32  35
ENDBRANCH  30  31
ENDBRANCH  29  30
ENDBRANCH  28  29
ENDBRANCH   1  28
TORSDOF 22
