REMARK SMILES Cc1ccc2cc(C[N@H+]3CC[NH2+][C@H](C(=O)NCCCCCCNC(=O)c4ccc(-c5c6nc(c(-c7c(F)cc(S(=O)(=O)[O-])cc7F)c7ccc([nH]7)c(-c7c(F)cc(S(=O)(=O)[O-])cc7F)c7nc(c(-c8c(F)cc(S(=O)(=O)[O-])cc8F)c8ccc5[nH]8)C=C7)C=C6)cc4)C3)c(N3CCOCC3)nc2c1
REMARK SMILES IDX 19 1 18 2 17 3 16 4 14 5 15 6 13 8 9 9 10 10 92 11 11 13
REMARK SMILES IDX 12 14 8 17 7 18 1 19 2 20 3 21 102 22 4 23 101 24 5 25
REMARK SMILES IDX 100 26 6 27 93 28 94 29 95 30 99 31 96 32 98 33 97 34 20 35
REMARK SMILES IDX 21 36 22 37 23 38 24 39 25 41 26 42 27 43 91 44 28 45 90 46
REMARK SMILES IDX 29 47 30 48 31 49 84 50 32 51 89 52 83 53 85 54 33 55 88 56
REMARK SMILES IDX 82 57 81 58 34 60 68 61 47 62 67 63 48 64 51 65 66 66 86 67
REMARK SMILES IDX 49 68 50 69 65 71 87 72 52 73 35 74 36 75 45 76 37 77 38 78
REMARK SMILES IDX 44 79 46 80 39 81 40 82 41 83 42 84 43 85 69 86 70 87 79 88
REMARK SMILES IDX 71 89 72 90 78 91 80 92 73 93 74 94 75 95 76 96 77 97 53 98
REMARK SMILES IDX 54 99 63 100 55 101 56 102 62 103 64 104 57 105 58 106
REMARK SMILES IDX 59 107 60 108 61 109
REMARK H PARENT 16 7 9 12 12 15 12 16 23 40 85 59 51 70
REMARK Flexibility Score: inf
ROOT
ATOM      1  C   UNL     1      -3.545  -0.086   2.340  1.00  0.00     0.002 C 
ENDROOT
BRANCH   1   2
ATOM      2  C   UNL     1      -3.035   1.144   1.586  1.00  0.00     0.021 C 
BRANCH   2   3
ATOM      3  C   UNL     1      -3.728   2.465   1.902  1.00  0.00     0.116 C 
BRANCH   3   4
ATOM      4  N   UNL     1      -3.727   2.781   3.318  1.00  0.00    -0.351 N 
ATOM      5  C   UNL     1      -3.401   3.968   3.917  1.00  0.00     0.284 C 
ATOM      6  O   UNL     1      -3.577   4.073   5.133  1.00  0.00    -0.268 OA
ATOM      7  H   UNL     1      -3.993   2.051   3.924  1.00  0.00     0.163 HD
BRANCH   5   8
ATOM      8  C   UNL     1      -2.739   5.070   3.079  1.00  0.00     0.328 C 
ATOM      9  N   UNL     1      -1.594   7.340   3.278  1.00  0.00    -0.321 N 
ATOM     10  C   UNL     1      -2.256   7.683   2.006  1.00  0.00     0.324 C 
ATOM     11  C   UNL     1      -2.269   6.237   3.982  1.00  0.00     0.339 C 
ATOM     12  H   UNL     1      -1.723   8.157   3.874  1.00  0.00     0.348 HD
ATOM     13  C   UNL     1      -2.851   6.509   1.188  1.00  0.00     0.323 C 
ATOM     14  N   UNL     1      -3.643   5.573   2.010  1.00  0.00    -0.327 N 
ATOM     15  H   UNL     1      -3.975   4.797   1.437  1.00  0.00     0.347 HD
ATOM     16  H   UNL     1      -4.459   6.036   2.409  1.00  0.00     0.347 HD
BRANCH   9  17
ATOM     17  C   UNL     1      -0.125   7.254   3.226  1.00  0.00     0.303 C 
BRANCH  17  18
ATOM     18  C   UNL     1       0.486   6.107   2.451  1.00  0.00     0.049 A 
ATOM     19  C   UNL     1       1.160   0.227  -0.171  1.00  0.00     0.044 C 
ATOM     20  C   UNL     1       1.065   1.440   0.707  1.00  0.00    -0.049 A 
ATOM     21  C   UNL     1       0.870   1.301   2.081  1.00  0.00     0.004 A 
ATOM     22  C   UNL     1       1.190   2.731   0.161  1.00  0.00     0.032 A 
ATOM     23  C   UNL     1       0.748   2.433   2.880  1.00  0.00     0.010 A 
ATOM     24  C   UNL     1       1.057   3.882   0.934  1.00  0.00     0.073 A 
ATOM     25  C   UNL     1       0.821   3.713   2.307  1.00  0.00     0.001 A 
ATOM     26  N   UNL     1       1.117   5.104   0.362  1.00  0.00    -0.230 NA
ATOM     27  C   UNL     1       0.581   4.853   3.069  1.00  0.00     0.023 A 
ATOM     28  C   UNL     1       0.854   6.207   1.103  1.00  0.00     0.138 A 
BRANCH  28  29
ATOM     29  N   UNL     1       0.911   7.444   0.486  1.00  0.00    -0.352 N 
ATOM     30  C   UNL     1       1.990   8.356   0.891  1.00  0.00     0.146 C 
ATOM     31  C   UNL     1       0.599   7.540  -0.944  1.00  0.00     0.146 C 
ATOM     32  C   UNL     1       1.549   9.789   0.555  1.00  0.00     0.181 C 
ATOM     33  C   UNL     1       0.229   9.006  -1.252  1.00  0.00     0.181 C 
ATOM     34  O   UNL     1       1.264   9.927  -0.849  1.00  0.00    -0.378 OA
ENDBRANCH  28  29
ENDBRANCH  17  18
ENDBRANCH   9  17
ENDBRANCH   5   8
ENDBRANCH   3   4
ENDBRANCH   2   3
ENDBRANCH   1   2
BRANCH   1  35
ATOM     35  C   UNL     1      -5.055  -0.329   2.290  1.00  0.00     0.002 C 
BRANCH  35  36
ATOM     36  C   UNL     1      -5.682  -0.334   0.897  1.00  0.00     0.021 C 
BRANCH  36  37
ATOM     37  C   UNL     1      -5.032  -1.278  -0.104  1.00  0.00     0.116 C 
BRANCH  37  38
ATOM     38  N   UNL     1      -5.178  -2.679   0.260  1.00  0.00    -0.352 N 
ATOM     39  C   UNL     1      -5.662  -3.715  -0.503  1.00  0.00     0.251 C 
ATOM     40  H   UNL     1      -4.894  -2.915   1.172  1.00  0.00     0.163 HD
ATOM     41  O   UNL     1      -5.847  -4.823  -0.007  1.00  0.00    -0.269 OA
BRANCH  39  42
ATOM     42  C   UNL     1      -5.994  -3.465  -1.922  1.00  0.00     0.039 A 
ATOM     43  C   UNL     1      -5.080  -2.813  -2.753  1.00  0.00     0.014 A 
ATOM     44  C   UNL     1      -7.254  -3.828  -2.403  1.00  0.00     0.014 A 
ATOM     45  C   UNL     1      -5.486  -2.377  -4.009  1.00  0.00     0.010 A 
ATOM     46  C   UNL     1      -7.629  -3.461  -3.698  1.00  0.00     0.010 A 
ATOM     47  C   UNL     1      -6.766  -2.692  -4.495  1.00  0.00    -0.014 A 
BRANCH  47  48
ATOM     48  C   UNL     1      -7.180  -2.207  -5.836  1.00  0.00     0.031 A 
ATOM     49  C   UNL     1      -8.300  -1.212  -5.987  1.00  0.00     0.074 A 
ATOM     50  C   UNL     1      -6.503  -2.627  -6.921  1.00  0.00     0.049 A 
ATOM     51  N   UNL     1      -8.785  -0.676  -7.078  1.00  0.00    -0.248 NA
ATOM     52  C   UNL     1      -8.962  -0.761  -4.753  1.00  0.00     0.031 C 
ATOM     53  C   UNL     1      -5.383  -3.570  -6.898  1.00  0.00     0.029 A 
ATOM     54  N   UNL     1      -6.633  -2.298  -8.246  1.00  0.00    -0.354 N 
ATOM     55  C   UNL     1      -9.815   0.163  -6.668  1.00  0.00     0.074 A 
ATOM     56  C   UNL     1      -9.907   0.039  -5.228  1.00  0.00     0.031 C 
ATOM     57  C   UNL     1      -4.889  -3.695  -8.138  1.00  0.00     0.029 A 
ATOM     58  C   UNL     1      -5.697  -2.897  -9.054  1.00  0.00     0.049 A 
ATOM     59  H   UNL     1      -7.330  -1.691  -8.585  1.00  0.00     0.167 HD
ATOM     60  C   UNL     1     -10.601   0.972  -7.419  1.00  0.00     0.037 A 
ATOM     61  C   UNL     1      -5.512  -2.823 -10.385  1.00  0.00     0.037 A 
ATOM     62  C   UNL     1     -10.502   1.093  -8.852  1.00  0.00     0.049 A 
ATOM     63  C   UNL     1      -6.433  -1.970 -11.205  1.00  0.00     0.074 A 
ATOM     64  C   UNL     1     -11.258   1.877  -9.706  1.00  0.00     0.029 A 
ATOM     65  N   UNL     1      -9.588   0.410  -9.644  1.00  0.00    -0.354 N 
ATOM     66  N   UNL     1      -7.419  -1.204 -10.804  1.00  0.00    -0.248 NA
ATOM     67  C   UNL     1      -6.228  -1.980 -12.659  1.00  0.00     0.031 C 
ATOM     68  C   UNL     1     -10.827   1.639 -11.017  1.00  0.00     0.029 A 
ATOM     69  C   UNL     1      -9.772   0.742 -10.977  1.00  0.00     0.049 A 
ATOM     70  H   UNL     1      -8.909  -0.218  -9.307  1.00  0.00     0.167 HD
ATOM     71  C   UNL     1      -7.949  -0.632 -11.954  1.00  0.00     0.074 A 
ATOM     72  C   UNL     1      -7.163  -1.131 -13.066  1.00  0.00     0.031 C 
ATOM     73  C   UNL     1      -8.991   0.227 -12.076  1.00  0.00     0.037 A 
BRANCH  60  74
ATOM     74  C   UNL     1     -11.654   1.773  -6.700  1.00  0.00     0.058 A 
ATOM     75  C   UNL     1     -11.319   2.860  -5.876  1.00  0.00     0.135 A 
ATOM     76  C   UNL     1     -13.015   1.452  -6.836  1.00  0.00     0.135 A 
ATOM     77  F   UNL     1     -10.033   3.203  -5.699  1.00  0.00    -0.206 F 
ATOM     78  C   UNL     1     -12.291   3.572  -5.180  1.00  0.00     0.059 A 
ATOM     79  C   UNL     1     -14.006   2.168  -6.169  1.00  0.00     0.059 A 
ATOM     80  F   UNL     1     -13.393   0.426  -7.614  1.00  0.00    -0.206 F 
ATOM     81  C   UNL     1     -13.632   3.213  -5.326  1.00  0.00     0.060 A 
BRANCH  81  82
ATOM     82  S   UNL     1     -14.876   4.122  -4.384  1.00  0.00     0.124 S 
ATOM     83  O   UNL     1     -14.642   3.617  -3.034  1.00  0.00    -0.237 OA
ATOM     84  O   UNL     1     -14.491   5.510  -4.615  1.00  0.00    -0.237 OA
ATOM     85  O   UNL     1     -16.134   3.711  -4.997  1.00  0.00    -0.744 OA
ENDBRANCH  81  82
ENDBRANCH  60  74
BRANCH  61  86
ATOM     86  C   UNL     1      -4.386  -3.570 -10.999  1.00  0.00     0.058 A 
ATOM     87  C   UNL     1      -3.240  -2.896 -11.442  1.00  0.00     0.135 A 
ATOM     88  C   UNL     1      -4.390  -4.973 -11.062  1.00  0.00     0.135 A 
ATOM     89  F   UNL     1      -3.194  -1.556 -11.408  1.00  0.00    -0.206 F 
ATOM     90  C   UNL     1      -2.126  -3.587 -11.908  1.00  0.00     0.059 A 
ATOM     91  C   UNL     1      -3.280  -5.686 -11.502  1.00  0.00     0.059 A 
ATOM     92  F   UNL     1      -5.460  -5.661 -10.636  1.00  0.00    -0.206 F 
ATOM     93  C   UNL     1      -2.150  -4.983 -11.917  1.00  0.00     0.060 A 
BRANCH  93  94
ATOM     94  S   UNL     1      -0.654  -5.868 -12.410  1.00  0.00     0.124 S 
ATOM     95  O   UNL     1      -0.617  -5.608 -13.844  1.00  0.00    -0.237 OA
ATOM     96  O   UNL     1       0.370  -5.201 -11.612  1.00  0.00    -0.237 OA
ATOM     97  O   UNL     1      -0.938  -7.247 -12.025  1.00  0.00    -0.744 OA
ENDBRANCH  93  94
ENDBRANCH  61  86
BRANCH  73  98
ATOM     98  C   UNL     1      -9.340   0.693 -13.461  1.00  0.00     0.058 A 
ATOM     99  C   UNL     1      -9.997  -0.147 -14.373  1.00  0.00     0.135 A 
ATOM    100  C   UNL     1      -9.062   2.009 -13.862  1.00  0.00     0.135 A 
ATOM    101  F   UNL     1     -10.277  -1.418 -14.041  1.00  0.00    -0.206 F 
ATOM    102  C   UNL     1     -10.353   0.297 -15.642  1.00  0.00     0.059 A 
ATOM    103  C   UNL     1      -9.430   2.482 -15.118  1.00  0.00     0.059 A 
ATOM    104  F   UNL     1      -8.441   2.854 -13.024  1.00  0.00    -0.206 F 
ATOM    105  C   UNL     1     -10.068   1.615 -16.005  1.00  0.00     0.060 A 
BRANCH 105 106
ATOM    106  S   UNL     1     -10.570   2.189 -17.641  1.00  0.00     0.124 S 
ATOM    107  O   UNL     1      -9.611   1.502 -18.500  1.00  0.00    -0.237 OA
ATOM    108  O   UNL     1     -11.949   1.718 -17.727  1.00  0.00    -0.237 OA
ATOM    109  O   UNL     1     -10.413   3.638 -17.557  1.00  0.00    -0.744 OA
ENDBRANCH 105 106
ENDBRANCH  73  98
ENDBRANCH  47  48
ENDBRANCH  39  42
ENDBRANCH  37  38
ENDBRANCH  36  37
ENDBRANCH  35  36
ENDBRANCH   1  35
TORSDOF 19
