REMARK SMILES NS(=O)(=O)c1ccc(-n2nc(C(=O)NCCCCCCNC(=O)c3ccc(-c4c5nc(c(-c6c(F)cc(S(=O)(=O)[O-])cc6F)c6ccc([nH]6)c(-c6c(F)cc(S(=O)(=O)[O-])cc6F)c6nc(c(-c7c(F)cc(S(=O)(=O)[O-])cc7F)c7ccc4[nH]7)C=C6)C=C5)cc3)cc2-c2ccc(Cl)s2)cc1
REMARK SMILES IDX 17 1 16 2 15 3 14 4 12 5 13 6 11 8 9 9 10 10 91 11 90 12
REMARK SMILES IDX 8 13 5 14 6 15 99 16 7 17 98 18 2 19 3 20 4 21 1 22 92 25
REMARK SMILES IDX 93 26 97 27 94 28 95 29 96 30 18 31 19 32 20 33 21 34 22 35
REMARK SMILES IDX 23 37 24 38 25 39 89 40 26 41 88 42 27 43 28 44 29 45 82 46
REMARK SMILES IDX 30 47 87 48 81 49 83 50 31 51 86 52 80 53 79 54 32 56 66 57
REMARK SMILES IDX 45 58 65 59 46 60 49 61 64 62 84 63 47 64 48 65 63 67 85 68
REMARK SMILES IDX 50 69 33 70 34 71 43 72 35 73 36 74 42 75 44 76 37 77 38 78
REMARK SMILES IDX 39 79 40 80 41 81 67 82 68 83 77 84 69 85 70 86 76 87 78 88
REMARK SMILES IDX 71 89 72 90 73 91 74 92 75 93 51 94 52 95 61 96 53 97 54 98
REMARK SMILES IDX 60 99 62 100 55 101 56 102 57 103 58 104 59 105
REMARK H PARENT 14 7 1 23 1 24 21 36 83 55 49 66
REMARK Flexibility Score: inf
ROOT
ATOM      1  C   UNL     1       3.719  13.371  -2.701  1.00  0.00     0.002 C 
ENDROOT
BRANCH   1   2
ATOM      2  C   UNL     1       3.628  11.893  -3.098  1.00  0.00     0.021 C 
BRANCH   2   3
ATOM      3  C   UNL     1       4.172  10.953  -2.025  1.00  0.00     0.116 C 
BRANCH   3   4
ATOM      4  N   UNL     1       3.182  10.666  -1.010  1.00  0.00    -0.351 N 
ATOM      5  C   UNL     1       2.449   9.550  -0.676  1.00  0.00     0.271 C 
ATOM      6  O   UNL     1       1.696   9.693   0.293  1.00  0.00    -0.267 OA
ATOM      7  H   UNL     1       2.991  11.438  -0.431  1.00  0.00     0.163 HD
BRANCH   5   8
ATOM      8  C   UNL     1       2.575   8.257  -1.389  1.00  0.00     0.151 A 
ATOM      9  N   UNL     1       2.254   6.153  -1.752  1.00  0.00    -0.231 N 
ATOM     10  N   UNL     1       1.834   7.194  -0.997  1.00  0.00    -0.162 NA
ATOM     11  C   UNL     1       3.169   6.542  -2.704  1.00  0.00     0.085 A 
ATOM     12  C   UNL     1       3.372   7.883  -2.495  1.00  0.00     0.066 A 
BRANCH   9  13
ATOM     13  C   UNL     1       1.789   4.841  -1.513  1.00  0.00     0.065 A 
ATOM     14  C   UNL     1       0.871   2.232  -1.426  1.00  0.00     0.082 A 
ATOM     15  C   UNL     1       2.248   2.474  -1.456  1.00  0.00     0.024 A 
ATOM     16  C   UNL     1      -0.049   3.286  -1.388  1.00  0.00     0.024 A 
ATOM     17  C   UNL     1       2.708   3.783  -1.507  1.00  0.00     0.030 A 
ATOM     18  C   UNL     1       0.414   4.605  -1.402  1.00  0.00     0.030 A 
BRANCH  14  19
ATOM     19  S   UNL     1       0.333   0.554  -1.495  1.00  0.00     0.238 S 
ATOM     20  O   UNL     1       1.030  -0.124  -2.554  1.00  0.00    -0.207 OA
ATOM     21  O   UNL     1      -1.107   0.491  -1.330  1.00  0.00    -0.207 OA
BRANCH  19  22
ATOM     22  N   UNL     1       0.963  -0.068  -0.064  1.00  0.00    -0.225 NA
ATOM     23  H   UNL     1       0.716  -1.054   0.017  1.00  0.00     0.137 HD
ATOM     24  H   UNL     1       0.578   0.445   0.729  1.00  0.00     0.137 HD
ENDBRANCH  19  22
ENDBRANCH  14  19
ENDBRANCH   9  13
BRANCH  11  25
ATOM     25  C   UNL     1       3.698   5.768  -3.785  1.00  0.00     0.054 A 
ATOM     26  C   UNL     1       5.034   5.571  -4.079  1.00  0.00     0.024 A 
ATOM     27  S   UNL     1       2.677   5.090  -4.983  1.00  0.00    -0.122 S 
ATOM     28  C   UNL     1       5.213   4.882  -5.316  1.00  0.00     0.033 A 
ATOM     29  C   UNL     1       4.006   4.588  -5.896  1.00  0.00     0.094 A 
ATOM     30  Cl  UNL     1       3.760   3.804  -7.402  1.00  0.00    -0.072 Cl
ENDBRANCH  11  25
ENDBRANCH   5   8
ENDBRANCH   3   4
ENDBRANCH   2   3
ENDBRANCH   1   2
BRANCH   1  31
ATOM     31  C   UNL     1       5.120  13.862  -2.293  1.00  0.00     0.002 C 
BRANCH  31  32
ATOM     32  C   UNL     1       6.269  13.511  -3.251  1.00  0.00     0.021 C 
BRANCH  32  33
ATOM     33  C   UNL     1       6.133  14.157  -4.619  1.00  0.00     0.116 C 
BRANCH  33  34
ATOM     34  N   UNL     1       6.250  15.612  -4.557  1.00  0.00    -0.352 N 
ATOM     35  C   UNL     1       6.181  16.515  -5.598  1.00  0.00     0.251 C 
ATOM     36  H   UNL     1       6.395  15.995  -3.662  1.00  0.00     0.163 HD
ATOM     37  O   UNL     1       6.664  17.636  -5.481  1.00  0.00    -0.269 OA
BRANCH  35  38
ATOM     38  C   UNL     1       5.521  16.101  -6.850  1.00  0.00     0.039 A 
ATOM     39  C   UNL     1       6.031  16.469  -8.096  1.00  0.00     0.014 A 
ATOM     40  C   UNL     1       4.383  15.302  -6.760  1.00  0.00     0.014 A 
ATOM     41  C   UNL     1       5.430  15.952  -9.241  1.00  0.00     0.010 A 
ATOM     42  C   UNL     1       3.901  14.661  -7.874  1.00  0.00     0.010 A 
ATOM     43  C   UNL     1       4.380  15.019  -9.125  1.00  0.00    -0.014 A 
BRANCH  43  44
ATOM     44  C   UNL     1       3.869  14.320 -10.303  1.00  0.00     0.031 A 
ATOM     45  C   UNL     1       4.938  13.753 -11.167  1.00  0.00     0.074 A 
ATOM     46  C   UNL     1       2.562  14.060 -10.538  1.00  0.00     0.049 A 
ATOM     47  N   UNL     1       5.346  14.226 -12.296  1.00  0.00    -0.248 NA
ATOM     48  C   UNL     1       5.780  12.667 -10.641  1.00  0.00     0.031 C 
ATOM     49  C   UNL     1       1.404  14.305  -9.669  1.00  0.00     0.029 A 
ATOM     50  N   UNL     1       1.992  13.444 -11.612  1.00  0.00    -0.354 N 
ATOM     51  C   UNL     1       6.323  13.348 -12.750  1.00  0.00     0.074 A 
ATOM     52  C   UNL     1       6.687  12.540 -11.615  1.00  0.00     0.031 C 
ATOM     53  C   UNL     1       0.322  13.649 -10.146  1.00  0.00     0.029 A 
ATOM     54  C   UNL     1       0.653  13.094 -11.445  1.00  0.00     0.049 A 
ATOM     55  H   UNL     1       2.487  13.262 -12.443  1.00  0.00     0.167 HD
ATOM     56  C   UNL     1       6.556  13.204 -14.084  1.00  0.00     0.037 A 
ATOM     57  C   UNL     1      -0.140  12.422 -12.320  1.00  0.00     0.037 A 
ATOM     58  C   UNL     1       5.941  14.280 -14.826  1.00  0.00     0.049 A 
ATOM     59  C   UNL     1       0.463  12.603 -13.662  1.00  0.00     0.074 A 
ATOM     60  C   UNL     1       6.079  15.654 -14.854  1.00  0.00     0.029 A 
ATOM     61  N   UNL     1       4.730  14.009 -15.418  1.00  0.00    -0.354 N 
ATOM     62  N   UNL     1       0.531  13.755 -14.272  1.00  0.00    -0.248 NA
ATOM     63  C   UNL     1       1.405  11.597 -14.123  1.00  0.00     0.031 C 
ATOM     64  C   UNL     1       4.756  16.156 -15.036  1.00  0.00     0.029 A 
ATOM     65  C   UNL     1       3.892  15.070 -15.188  1.00  0.00     0.049 A 
ATOM     66  H   UNL     1       4.503  13.194 -15.920  1.00  0.00     0.167 HD
ATOM     67  C   UNL     1       1.790  13.771 -14.854  1.00  0.00     0.074 A 
ATOM     68  C   UNL     1       2.240  12.380 -14.813  1.00  0.00     0.031 C 
ATOM     69  C   UNL     1       2.455  14.947 -15.055  1.00  0.00     0.037 A 
BRANCH  56  70
ATOM     70  C   UNL     1       6.965  11.913 -14.757  1.00  0.00     0.058 A 
ATOM     71  C   UNL     1       7.264  11.928 -16.136  1.00  0.00     0.135 A 
ATOM     72  C   UNL     1       6.786  10.632 -14.190  1.00  0.00     0.135 A 
ATOM     73  F   UNL     1       7.459  13.090 -16.782  1.00  0.00    -0.206 F 
ATOM     74  C   UNL     1       7.292  10.768 -16.910  1.00  0.00     0.059 A 
ATOM     75  C   UNL     1       6.859   9.459 -14.933  1.00  0.00     0.059 A 
ATOM     76  F   UNL     1       6.438  10.454 -12.910  1.00  0.00    -0.206 F 
ATOM     77  C   UNL     1       7.071   9.538 -16.299  1.00  0.00     0.060 A 
BRANCH  77  78
ATOM     78  S   UNL     1       7.015   8.049 -17.309  1.00  0.00     0.124 S 
ATOM     79  O   UNL     1       5.793   8.264 -18.076  1.00  0.00    -0.237 OA
ATOM     80  O   UNL     1       8.266   8.146 -18.054  1.00  0.00    -0.237 OA
ATOM     81  O   UNL     1       6.962   6.976 -16.320  1.00  0.00    -0.744 OA
ENDBRANCH  77  78
ENDBRANCH  56  70
BRANCH  57  82
ATOM     82  C   UNL     1      -1.167  11.380 -12.041  1.00  0.00     0.058 A 
ATOM     83  C   UNL     1      -2.050  10.930 -13.042  1.00  0.00     0.135 A 
ATOM     84  C   UNL     1      -1.098  10.588 -10.878  1.00  0.00     0.135 A 
ATOM     85  F   UNL     1      -2.166  11.610 -14.193  1.00  0.00    -0.206 F 
ATOM     86  C   UNL     1      -2.779   9.739 -12.921  1.00  0.00     0.059 A 
ATOM     87  C   UNL     1      -1.817   9.399 -10.733  1.00  0.00     0.059 A 
ATOM     88  F   UNL     1      -0.253  10.898  -9.883  1.00  0.00    -0.206 F 
ATOM     89  C   UNL     1      -2.637   8.967 -11.769  1.00  0.00     0.060 A 
BRANCH  89  90
ATOM     90  S   UNL     1      -3.435   7.343 -11.678  1.00  0.00     0.124 S 
ATOM     91  O   UNL     1      -4.845   7.704 -11.579  1.00  0.00    -0.237 OA
ATOM     92  O   UNL     1      -3.022   6.725 -12.934  1.00  0.00    -0.237 OA
ATOM     93  O   UNL     1      -2.857   6.750 -10.475  1.00  0.00    -0.744 OA
ENDBRANCH  89  90
ENDBRANCH  57  82
BRANCH  69  94
ATOM     94  C   UNL     1       1.670  16.233 -14.950  1.00  0.00     0.058 A 
ATOM     95  C   UNL     1       1.062  16.718 -13.777  1.00  0.00     0.135 A 
ATOM     96  C   UNL     1       1.651  17.076 -16.071  1.00  0.00     0.135 A 
ATOM     97  F   UNL     1       1.115  16.023 -12.632  1.00  0.00    -0.206 F 
ATOM     98  C   UNL     1       0.430  17.964 -13.736  1.00  0.00     0.059 A 
ATOM     99  C   UNL     1       1.056  18.333 -16.044  1.00  0.00     0.059 A 
ATOM    100  F   UNL     1       2.262  16.697 -17.206  1.00  0.00    -0.206 F 
ATOM    101  C   UNL     1       0.433  18.766 -14.877  1.00  0.00     0.060 A 
BRANCH 101 102
ATOM    102  S   UNL     1      -0.328  20.403 -14.812  1.00  0.00     0.124 S 
ATOM    103  O   UNL     1      -1.748  20.079 -14.734  1.00  0.00    -0.237 OA
ATOM    104  O   UNL     1       0.258  20.979 -13.604  1.00  0.00    -0.237 OA
ATOM    105  O   UNL     1       0.101  21.030 -16.060  1.00  0.00    -0.744 OA
ENDBRANCH 101 102
ENDBRANCH  69  94
ENDBRANCH  43  44
ENDBRANCH  35  38
ENDBRANCH  33  34
ENDBRANCH  32  33
ENDBRANCH  31  32
ENDBRANCH   1  31
TORSDOF 20
