REMARK SMILES O=C(NCCCCCCNC(=O)c1csc(CNc2ccc(-n3cccn3)nc2)c1)c1ccc(-c2c3nc(c(-c4c(F)cc(S(=O)(=O)[O-])cc4F)c4ccc([nH]4)c(-c4c(F)cc(S(=O)(=O)[O-])cc4F)c4nc(c(-c5c(F)cc(S(=O)(=O)[O-])cc5F)c5ccc2[nH]5)C=C4)C=C3)cc1
REMARK SMILES IDX 7 1 6 2 5 3 4 4 3 5 1 6 2 7 31 9 32 10 96 11 33 12 95 13
REMARK SMILES IDX 34 14 35 15 36 16 89 17 37 18 94 19 88 20 90 21 38 22 93 23
REMARK SMILES IDX 87 24 86 25 39 27 73 28 52 29 72 30 53 31 56 32 71 33 91 34
REMARK SMILES IDX 54 35 55 36 70 38 92 39 57 40 40 41 41 42 50 43 42 44 43 45
REMARK SMILES IDX 49 46 51 47 44 48 45 49 46 50 47 51 48 52 74 53 75 54 84 55
REMARK SMILES IDX 76 56 77 57 83 58 85 59 78 60 79 61 80 62 81 63 82 64 58 65
REMARK SMILES IDX 59 66 68 67 60 68 61 69 67 70 69 71 62 72 63 73 64 74 65 75
REMARK SMILES IDX 66 76 8 77 9 78 10 79 11 80 12 82 13 83 14 84 30 85 15 86
REMARK SMILES IDX 16 87 17 88 18 89 19 91 20 92 29 93 21 94 28 95 22 96 23 97
REMARK SMILES IDX 24 98 27 99 25 100 26 101
REMARK H PARENT 3 8 90 26 56 37 10 81 18 90
REMARK Flexibility Score: inf
ROOT
ATOM      1  C   UNL     1       4.825   3.625  -2.016  1.00  0.00     0.002 C 
ENDROOT
BRANCH   1   2
ATOM      2  C   UNL     1       4.242   2.327  -2.581  1.00  0.00     0.002 C 
BRANCH   2   3
ATOM      3  C   UNL     1       4.747   1.035  -1.929  1.00  0.00     0.021 C 
BRANCH   3   4
ATOM      4  C   UNL     1       4.609   0.986  -0.406  1.00  0.00     0.116 C 
BRANCH   4   5
ATOM      5  N   UNL     1       3.248   1.119   0.065  1.00  0.00    -0.352 N 
ATOM      6  O   UNL     1       1.177   0.733   0.720  1.00  0.00    -0.269 OA
ATOM      7  C   UNL     1       2.186   0.265   0.182  1.00  0.00     0.251 C 
ATOM      8  H   UNL     1       3.038   2.031   0.370  1.00  0.00     0.163 HD
BRANCH   7   9
ATOM      9  C   UNL     1       2.154  -1.143  -0.311  1.00  0.00     0.039 A 
ATOM     10  C   UNL     1       3.244  -1.856  -0.813  1.00  0.00     0.014 A 
ATOM     11  C   UNL     1       0.903  -1.787  -0.269  1.00  0.00     0.014 A 
ATOM     12  C   UNL     1       3.084  -3.146  -1.314  1.00  0.00     0.010 A 
ATOM     13  C   UNL     1       0.741  -3.086  -0.746  1.00  0.00     0.010 A 
ATOM     14  C   UNL     1       1.831  -3.758  -1.295  1.00  0.00    -0.014 A 
BRANCH  14  15
ATOM     15  C   UNL     1       1.740  -5.131  -1.791  1.00  0.00     0.031 A 
ATOM     16  C   UNL     1       2.463  -6.180  -1.006  1.00  0.00     0.074 A 
ATOM     17  C   UNL     1       0.929  -5.497  -2.802  1.00  0.00     0.049 A 
ATOM     18  N   UNL     1       3.341  -7.044  -1.409  1.00  0.00    -0.248 NA
ATOM     19  C   UNL     1       2.187  -6.242   0.438  1.00  0.00     0.031 C 
ATOM     20  C   UNL     1      -0.095  -4.687  -3.466  1.00  0.00     0.029 A 
ATOM     21  N   UNL     1       0.771  -6.729  -3.367  1.00  0.00    -0.354 N 
ATOM     22  C   UNL     1       3.596  -7.877  -0.318  1.00  0.00     0.074 A 
ATOM     23  C   UNL     1       2.941  -7.275   0.815  1.00  0.00     0.031 C 
ATOM     24  C   UNL     1      -0.908  -5.501  -4.173  1.00  0.00     0.029 A 
ATOM     25  C   UNL     1      -0.388  -6.857  -4.114  1.00  0.00     0.049 A 
ATOM     26  H   UNL     1       1.421  -7.460  -3.253  1.00  0.00     0.167 HD
ATOM     27  C   UNL     1       4.191  -9.098  -0.439  1.00  0.00     0.037 A 
ATOM     28  C   UNL     1      -0.933  -8.008  -4.576  1.00  0.00     0.037 A 
ATOM     29  C   UNL     1       4.901  -9.236  -1.680  1.00  0.00     0.049 A 
ATOM     30  C   UNL     1       0.127  -9.046  -4.598  1.00  0.00     0.074 A 
ATOM     31  C   UNL     1       5.957  -8.578  -2.280  1.00  0.00     0.029 A 
ATOM     32  N   UNL     1       4.363 -10.034  -2.658  1.00  0.00    -0.354 N 
ATOM     33  N   UNL     1       1.164  -9.034  -5.391  1.00  0.00    -0.248 NA
ATOM     34  C   UNL     1       0.221  -9.958  -3.468  1.00  0.00     0.031 C 
ATOM     35  C   UNL     1       5.698  -8.652  -3.680  1.00  0.00     0.029 A 
ATOM     36  C   UNL     1       4.505  -9.357  -3.842  1.00  0.00     0.049 A 
ATOM     37  H   UNL     1       3.954 -10.921  -2.534  1.00  0.00     0.167 HD
ATOM     38  C   UNL     1       2.182  -9.627  -4.660  1.00  0.00     0.074 A 
ATOM     39  C   UNL     1       1.514 -10.281  -3.543  1.00  0.00     0.031 C 
ATOM     40  C   UNL     1       3.492  -9.307  -4.874  1.00  0.00     0.037 A 
BRANCH  27  41
ATOM     41  C   UNL     1       3.889 -10.288   0.446  1.00  0.00     0.058 A 
ATOM     42  C   UNL     1       4.706 -11.437   0.382  1.00  0.00     0.135 A 
ATOM     43  C   UNL     1       2.665 -10.451   1.133  1.00  0.00     0.135 A 
ATOM     44  F   UNL     1       5.890 -11.401  -0.250  1.00  0.00    -0.206 F 
ATOM     45  C   UNL     1       4.302 -12.674   0.889  1.00  0.00     0.059 A 
ATOM     46  C   UNL     1       2.266 -11.661   1.692  1.00  0.00     0.059 A 
ATOM     47  F   UNL     1       1.757  -9.469   1.204  1.00  0.00    -0.206 F 
ATOM     48  C   UNL     1       3.066 -12.779   1.520  1.00  0.00     0.060 A 
BRANCH  48  49
ATOM     49  S   UNL     1       2.468 -14.400   2.035  1.00  0.00     0.124 S 
ATOM     50  O   UNL     1       2.128 -15.001   0.750  1.00  0.00    -0.237 OA
ATOM     51  O   UNL     1       3.633 -14.957   2.714  1.00  0.00    -0.237 OA
ATOM     52  O   UNL     1       1.339 -14.079   2.903  1.00  0.00    -0.744 OA
ENDBRANCH  48  49
ENDBRANCH  27  41
BRANCH  28  53
ATOM     53  C   UNL     1      -2.378  -8.330  -4.690  1.00  0.00     0.058 A 
ATOM     54  C   UNL     1      -2.829  -9.412  -5.463  1.00  0.00     0.135 A 
ATOM     55  C   UNL     1      -3.330  -7.734  -3.836  1.00  0.00     0.135 A 
ATOM     56  F   UNL     1      -1.980 -10.060  -6.276  1.00  0.00    -0.206 F 
ATOM     57  C   UNL     1      -4.139  -9.893  -5.376  1.00  0.00     0.059 A 
ATOM     58  C   UNL     1      -4.644  -8.184  -3.745  1.00  0.00     0.059 A 
ATOM     59  F   UNL     1      -2.986  -6.750  -2.992  1.00  0.00    -0.206 F 
ATOM     60  C   UNL     1      -5.037  -9.278  -4.503  1.00  0.00     0.060 A 
BRANCH  60  61
ATOM     61  S   UNL     1      -6.684  -9.987  -4.273  1.00  0.00     0.124 S 
ATOM     62  O   UNL     1      -7.319  -9.690  -5.552  1.00  0.00    -0.237 OA
ATOM     63  O   UNL     1      -6.382 -11.392  -4.021  1.00  0.00    -0.237 OA
ATOM     64  O   UNL     1      -7.213  -9.251  -3.128  1.00  0.00    -0.744 OA
ENDBRANCH  60  61
ENDBRANCH  28  53
BRANCH  40  65
ATOM     65  C   UNL     1       3.857  -8.571  -6.135  1.00  0.00     0.058 A 
ATOM     66  C   UNL     1       3.441  -7.259  -6.418  1.00  0.00     0.135 A 
ATOM     67  C   UNL     1       4.808  -9.143  -6.995  1.00  0.00     0.135 A 
ATOM     68  F   UNL     1       2.617  -6.604  -5.587  1.00  0.00    -0.206 F 
ATOM     69  C   UNL     1       3.926  -6.557  -7.521  1.00  0.00     0.059 A 
ATOM     70  C   UNL     1       5.329  -8.450  -8.085  1.00  0.00     0.059 A 
ATOM     71  F   UNL     1       5.293 -10.370  -6.740  1.00  0.00    -0.206 F 
ATOM     72  C   UNL     1       4.878  -7.157  -8.345  1.00  0.00     0.060 A 
BRANCH  72  73
ATOM     73  S   UNL     1       5.601  -6.194  -9.692  1.00  0.00     0.124 S 
ATOM     74  O   UNL     1       4.530  -6.198 -10.682  1.00  0.00    -0.237 OA
ATOM     75  O   UNL     1       5.870  -4.907  -9.056  1.00  0.00    -0.237 OA
ATOM     76  O   UNL     1       6.792  -6.957 -10.056  1.00  0.00    -0.744 OA
ENDBRANCH  72  73
ENDBRANCH  40  65
ENDBRANCH  14  15
ENDBRANCH   7   9
ENDBRANCH   4   5
ENDBRANCH   3   4
ENDBRANCH   2   3
ENDBRANCH   1   2
BRANCH   1  77
ATOM     77  C   UNL     1       6.356   3.703  -1.991  1.00  0.00     0.021 C 
BRANCH  77  78
ATOM     78  C   UNL     1       7.028   3.597  -3.361  1.00  0.00     0.116 C 
BRANCH  78  79
ATOM     79  N   UNL     1       6.710   4.741  -4.196  1.00  0.00    -0.352 N 
ATOM     80  C   UNL     1       7.527   5.747  -4.625  1.00  0.00     0.252 C 
ATOM     81  H   UNL     1       5.774   4.799  -4.495  1.00  0.00     0.163 HD
ATOM     82  O   UNL     1       7.012   6.800  -5.059  1.00  0.00    -0.269 OA
BRANCH  80  83
ATOM     83  C   UNL     1       8.968   5.596  -4.551  1.00  0.00     0.050 A 
ATOM     84  C   UNL     1       9.658   4.487  -5.008  1.00  0.00     0.079 A 
ATOM     85  C   UNL     1       9.880   6.598  -4.078  1.00  0.00     0.031 A 
ATOM     86  S   UNL     1      11.347   4.625  -4.797  1.00  0.00    -0.146 S 
ATOM     87  C   UNL     1      11.199   6.192  -4.119  1.00  0.00     0.024 A 
BRANCH  87  88
ATOM     88  C   UNL     1      12.427   6.923  -3.653  1.00  0.00     0.159 C 
BRANCH  88  89
ATOM     89  N   UNL     1      13.027   6.303  -2.478  1.00  0.00    -0.379 N 
ATOM     90  H   UNL     1      12.477   6.139  -1.678  1.00  0.00     0.160 HD
BRANCH  89  91
ATOM     91  C   UNL     1      14.364   5.944  -2.478  1.00  0.00     0.053 A 
ATOM     92  C   UNL     1      15.376   6.810  -2.885  1.00  0.00     0.031 A 
ATOM     93  C   UNL     1      14.766   4.655  -2.125  1.00  0.00     0.139 A 
ATOM     94  C   UNL     1      16.711   6.394  -2.881  1.00  0.00     0.051 A 
ATOM     95  N   UNL     1      16.041   4.203  -2.147  1.00  0.00    -0.235 NA
ATOM     96  C   UNL     1      17.008   5.084  -2.507  1.00  0.00     0.153 A 
BRANCH  96  97
ATOM     97  N   UNL     1      18.369   4.644  -2.502  1.00  0.00    -0.223 N 
ATOM     98  C   UNL     1      19.508   5.428  -2.434  1.00  0.00     0.117 A 
ATOM     99  N   UNL     1      18.696   3.324  -2.564  1.00  0.00    -0.175 NA
ATOM    100  C   UNL     1      20.589   4.583  -2.504  1.00  0.00     0.042 A 
ATOM    101  C   UNL     1      20.027   3.304  -2.614  1.00  0.00     0.135 A 
ENDBRANCH  96  97
ENDBRANCH  89  91
ENDBRANCH  88  89
ENDBRANCH  87  88
ENDBRANCH  80  83
ENDBRANCH  78  79
ENDBRANCH  77  78
ENDBRANCH   1  77
TORSDOF 20
