REMARK SMILES CC[C@H]1CC[C@@](C(=O)NCCCCCCNC(=O)c2ccc(-c3c4nc(c(-c5c(F)cc(S(=O)(=O)[O-])cc5F)c5ccc([nH]5)c(-c5c(F)cc(S(=O)(=O)[O-])cc5F)c5nc(c(-c6c(F)cc(S(=O)(=O)[O-])cc6F)c6ccc3[nH]6)C=C5)C=C4)cc2)(C2CCCC2)C1
REMARK SMILES IDX 13 1 12 2 11 3 10 4 9 5 7 6 8 7 6 9 3 10 4 11 90 12 5 13
REMARK SMILES IDX 2 14 1 15 85 16 86 17 89 18 87 19 88 20 14 21 15 22 16 23
REMARK SMILES IDX 17 24 18 26 19 27 20 28 84 29 21 30 83 31 22 32 23 33 24 34
REMARK SMILES IDX 77 35 25 36 82 37 76 38 78 39 26 40 81 41 75 42 74 43 27 45
REMARK SMILES IDX 61 46 40 47 60 48 41 49 44 50 59 51 79 52 42 53 43 54 58 56
REMARK SMILES IDX 80 57 45 58 28 59 29 60 38 61 30 62 31 63 37 64 39 65 32 66
REMARK SMILES IDX 33 67 34 68 35 69 36 70 62 71 63 72 72 73 64 74 65 75 71 76
REMARK SMILES IDX 73 77 66 78 67 79 68 80 69 81 70 82 46 83 47 84 56 85 48 86
REMARK SMILES IDX 49 87 55 88 57 89 50 90 51 91 52 92 53 93 54 94
REMARK H PARENT 9 8 16 25 78 44 44 55
REMARK Flexibility Score: inf
ROOT
ATOM      1  C   UNL     1      -5.284   4.692  -1.300  1.00  0.00     0.002 C 
ENDROOT
BRANCH   1   2
ATOM      2  C   UNL     1      -4.140   5.667  -1.595  1.00  0.00     0.002 C 
BRANCH   2   3
ATOM      3  C   UNL     1      -2.780   5.279  -0.999  1.00  0.00     0.021 C 
BRANCH   3   4
ATOM      4  C   UNL     1      -2.289   3.889  -1.406  1.00  0.00     0.116 C 
BRANCH   4   5
ATOM      5  N   UNL     1      -2.034   3.825  -2.826  1.00  0.00    -0.356 N 
ATOM      6  C   UNL     1      -0.905   3.713  -3.565  1.00  0.00     0.226 C 
ATOM      7  O   UNL     1      -1.095   3.769  -4.787  1.00  0.00    -0.274 OA
ATOM      8  H   UNL     1      -2.852   3.872  -3.371  1.00  0.00     0.163 HD
BRANCH   6   9
ATOM      9  C   UNL     1       0.518   3.469  -2.970  1.00  0.00     0.052 C 
ATOM     10  C   UNL     1       0.965   2.322  -0.772  1.00  0.00    -0.010 C 
ATOM     11  C   UNL     1       1.163   3.820  -0.575  1.00  0.00     0.005 C 
ATOM     12  C   UNL     1       0.550   2.099  -2.235  1.00  0.00     0.020 C 
ATOM     13  C   UNL     1       0.927   4.515  -1.912  1.00  0.00     0.017 C 
BRANCH  10  14
ATOM     14  C   UNL     1       2.125   1.457  -0.240  1.00  0.00     0.000 C 
ATOM     15  C   UNL     1       3.493   1.634  -0.878  1.00  0.00     0.004 C 
ENDBRANCH  10  14
BRANCH   9  16
ATOM     16  C   UNL     1       1.512   3.473  -4.199  1.00  0.00     0.004 C 
ATOM     17  C   UNL     1       1.764   4.843  -4.855  1.00  0.00     0.005 C 
ATOM     18  C   UNL     1       2.928   2.979  -3.905  1.00  0.00     0.005 C 
ATOM     19  C   UNL     1       3.017   4.630  -5.694  1.00  0.00     0.000 C 
ATOM     20  C   UNL     1       3.853   3.616  -4.931  1.00  0.00     0.000 C 
ENDBRANCH   9  16
ENDBRANCH   6   9
ENDBRANCH   4   5
ENDBRANCH   3   4
ENDBRANCH   2   3
ENDBRANCH   1   2
BRANCH   1  21
ATOM     21  C   UNL     1      -5.501   4.377   0.182  1.00  0.00     0.021 C 
BRANCH  21  22
ATOM     22  C   UNL     1      -5.779   5.595   1.056  1.00  0.00     0.116 C 
BRANCH  22  23
ATOM     23  N   UNL     1      -7.012   6.266   0.680  1.00  0.00    -0.352 N 
ATOM     24  C   UNL     1      -8.082   6.612   1.465  1.00  0.00     0.251 C 
ATOM     25  H   UNL     1      -7.091   6.506  -0.272  1.00  0.00     0.163 HD
ATOM     26  O   UNL     1      -9.130   6.990   0.940  1.00  0.00    -0.269 OA
BRANCH  24  27
ATOM     27  C   UNL     1      -7.982   6.514   2.936  1.00  0.00     0.039 A 
ATOM     28  C   UNL     1      -9.050   5.969   3.652  1.00  0.00     0.014 A 
ATOM     29  C   UNL     1      -6.843   6.967   3.610  1.00  0.00     0.014 A 
ATOM     30  C   UNL     1      -8.954   5.832   5.038  1.00  0.00     0.010 A 
ATOM     31  C   UNL     1      -6.719   6.758   4.981  1.00  0.00     0.010 A 
ATOM     32  C   UNL     1      -7.776   6.198   5.712  1.00  0.00    -0.014 A 
BRANCH  32  33
ATOM     33  C   UNL     1      -7.641   6.005   7.179  1.00  0.00     0.031 A 
ATOM     34  C   UNL     1      -7.465   7.193   8.086  1.00  0.00     0.074 A 
ATOM     35  C   UNL     1      -7.628   4.757   7.687  1.00  0.00     0.049 A 
ATOM     36  N   UNL     1      -7.291   7.223   9.383  1.00  0.00    -0.248 NA
ATOM     37  C   UNL     1      -7.456   8.521   7.451  1.00  0.00     0.031 C 
ATOM     38  C   UNL     1      -7.739   3.524   6.904  1.00  0.00     0.029 A 
ATOM     39  N   UNL     1      -7.509   4.316   8.981  1.00  0.00    -0.354 N 
ATOM     40  C   UNL     1      -7.144   8.565   9.716  1.00  0.00     0.074 A 
ATOM     41  C   UNL     1      -7.189   9.313   8.479  1.00  0.00     0.031 C 
ATOM     42  C   UNL     1      -7.710   2.470   7.735  1.00  0.00     0.029 A 
ATOM     43  C   UNL     1      -7.539   2.946   9.104  1.00  0.00     0.049 A 
ATOM     44  H   UNL     1      -7.412   4.923   9.750  1.00  0.00     0.167 HD
ATOM     45  C   UNL     1      -7.010   9.124  10.943  1.00  0.00     0.037 A 
ATOM     46  C   UNL     1      -7.434   2.163  10.195  1.00  0.00     0.037 A 
ATOM     47  C   UNL     1      -6.986   8.372  12.171  1.00  0.00     0.049 A 
ATOM     48  C   UNL     1      -7.282   2.807  11.546  1.00  0.00     0.074 A 
ATOM     49  C   UNL     1      -6.908   8.847  13.469  1.00  0.00     0.029 A 
ATOM     50  N   UNL     1      -7.035   6.988  12.256  1.00  0.00    -0.354 N 
ATOM     51  N   UNL     1      -7.212   4.081  11.849  1.00  0.00    -0.248 NA
ATOM     52  C   UNL     1      -7.205   1.908  12.706  1.00  0.00     0.031 C 
ATOM     53  C   UNL     1      -6.858   7.749  14.334  1.00  0.00     0.029 A 
ATOM     54  C   UNL     1      -6.966   6.591  13.581  1.00  0.00     0.049 A 
ATOM     55  H   UNL     1      -7.108   6.377  11.487  1.00  0.00     0.167 HD
ATOM     56  C   UNL     1      -7.112   4.138  13.235  1.00  0.00     0.074 A 
ATOM     57  C   UNL     1      -7.146   2.770  13.711  1.00  0.00     0.031 C 
ATOM     58  C   UNL     1      -7.005   5.224  14.041  1.00  0.00     0.037 A 
BRANCH  45  59
ATOM     59  C   UNL     1      -6.881  10.622  11.018  1.00  0.00     0.058 A 
ATOM     60  C   UNL     1      -7.956  11.473  10.710  1.00  0.00     0.135 A 
ATOM     61  C   UNL     1      -5.680  11.216  11.438  1.00  0.00     0.135 A 
ATOM     62  F   UNL     1      -9.124  10.962  10.289  1.00  0.00    -0.206 F 
ATOM     63  C   UNL     1      -7.835  12.857  10.785  1.00  0.00     0.059 A 
ATOM     64  C   UNL     1      -5.546  12.597  11.551  1.00  0.00     0.059 A 
ATOM     65  F   UNL     1      -4.619  10.453  11.745  1.00  0.00    -0.206 F 
ATOM     66  C   UNL     1      -6.625  13.410  11.207  1.00  0.00     0.060 A 
BRANCH  66  67
ATOM     67  S   UNL     1      -6.488  15.207  11.304  1.00  0.00     0.124 S 
ATOM     68  O   UNL     1      -6.455  15.572   9.891  1.00  0.00    -0.237 OA
ATOM     69  O   UNL     1      -7.702  15.574  12.025  1.00  0.00    -0.237 OA
ATOM     70  O   UNL     1      -5.241  15.415  12.034  1.00  0.00    -0.744 OA
ENDBRANCH  66  67
ENDBRANCH  45  59
BRANCH  46  71
ATOM     71  C   UNL     1      -7.493   0.682  10.054  1.00  0.00     0.058 A 
ATOM     72  C   UNL     1      -8.592  -0.047  10.530  1.00  0.00     0.135 A 
ATOM     73  C   UNL     1      -6.457  -0.031   9.431  1.00  0.00     0.135 A 
ATOM     74  F   UNL     1      -9.605   0.588  11.139  1.00  0.00    -0.206 F 
ATOM     75  C   UNL     1      -8.656  -1.432  10.412  1.00  0.00     0.059 A 
ATOM     76  C   UNL     1      -6.511  -1.413   9.274  1.00  0.00     0.059 A 
ATOM     77  F   UNL     1      -5.391   0.621   8.941  1.00  0.00    -0.206 F 
ATOM     78  C   UNL     1      -7.610  -2.106   9.778  1.00  0.00     0.060 A 
BRANCH  78  79
ATOM     79  S   UNL     1      -7.724  -3.898   9.587  1.00  0.00     0.124 S 
ATOM     80  O   UNL     1      -7.505  -4.354  10.955  1.00  0.00    -0.237 OA
ATOM     81  O   UNL     1      -9.078  -4.064   9.067  1.00  0.00    -0.237 OA
ATOM     82  O   UNL     1      -6.655  -4.203   8.641  1.00  0.00    -0.744 OA
ENDBRANCH  78  79
ENDBRANCH  46  71
BRANCH  58  83
ATOM     83  C   UNL     1      -6.955   4.982  15.525  1.00  0.00     0.058 A 
ATOM     84  C   UNL     1      -5.831   4.415  16.147  1.00  0.00     0.135 A 
ATOM     85  C   UNL     1      -8.032   5.364  16.342  1.00  0.00     0.135 A 
ATOM     86  F   UNL     1      -4.776   4.028  15.413  1.00  0.00    -0.206 F 
ATOM     87  C   UNL     1      -5.790   4.207  17.522  1.00  0.00     0.059 A 
ATOM     88  C   UNL     1      -7.999   5.194  17.723  1.00  0.00     0.059 A 
ATOM     89  F   UNL     1      -9.127   5.922  15.802  1.00  0.00    -0.206 F 
ATOM     90  C   UNL     1      -6.879   4.600  18.302  1.00  0.00     0.060 A 
BRANCH  90  91
ATOM     91  S   UNL     1      -6.802   4.345  20.087  1.00  0.00     0.124 S 
ATOM     92  O   UNL     1      -6.971   2.899  20.185  1.00  0.00    -0.237 OA
ATOM     93  O   UNL     1      -5.474   4.853  20.418  1.00  0.00    -0.237 OA
ATOM     94  O   UNL     1      -7.915   5.143  20.593  1.00  0.00    -0.744 OA
ENDBRANCH  90  91
ENDBRANCH  58  83
ENDBRANCH  32  33
ENDBRANCH  24  27
ENDBRANCH  22  23
ENDBRANCH  21  22
ENDBRANCH   1  21
TORSDOF 18
