REMARK SMILES CCC(CC)(NC(=O)c1c(C)noc1C)C(=O)NCCCCCCNC(=O)c1ccc(-c2c3nc(c(-c4c(F)cc(S(=O)(=O)[O-])cc4F)c4ccc([nH]4)c(-c4c(F)cc(S(=O)(=O)[O-])cc4F)c4nc(c(-c5c(F)cc(S(=O)(=O)[O-])cc5F)c5ccc2[nH]5)C=C4)C=C3)cc1
REMARK SMILES IDX 22 1 21 2 20 3 19 4 18 5 16 6 17 7 3 9 2 10 1 11 4 12 5 13
REMARK SMILES IDX 6 14 7 15 8 17 9 18 10 19 14 20 11 21 12 22 13 23 15 24
REMARK SMILES IDX 23 25 24 26 25 27 26 28 27 30 28 31 29 32 93 33 30 34 92 35
REMARK SMILES IDX 31 36 32 37 33 38 86 39 34 40 91 41 85 42 87 43 35 44 90 45
REMARK SMILES IDX 84 46 83 47 36 49 70 50 49 51 69 52 50 53 53 54 68 55 88 56
REMARK SMILES IDX 51 57 52 58 67 60 89 61 54 62 37 63 38 64 47 65 39 66 40 67
REMARK SMILES IDX 46 68 48 69 41 70 42 71 43 72 44 73 45 74 71 75 72 76 81 77
REMARK SMILES IDX 73 78 74 79 80 80 82 81 75 82 76 83 77 84 78 85 79 86 55 87
REMARK SMILES IDX 56 88 65 89 57 90 58 91 64 92 66 93 59 94 60 95 61 96 62 97
REMARK SMILES IDX 63 98
REMARK H PARENT 18 8 6 16 25 29 87 48 53 59
REMARK Flexibility Score: inf
ROOT
ATOM      1  C   UNL     1       4.653   5.408  -4.291  1.00  0.00     0.002 C 
ENDROOT
BRANCH   1   2
ATOM      2  C   UNL     1       4.036   5.685  -2.925  1.00  0.00     0.002 C 
BRANCH   2   3
ATOM      3  C   UNL     1       2.522   5.516  -2.838  1.00  0.00     0.021 C 
BRANCH   3   4
ATOM      4  C   UNL     1       1.883   4.228  -3.377  1.00  0.00     0.116 C 
BRANCH   4   5
ATOM      5  N   UNL     1       2.468   2.942  -2.998  1.00  0.00    -0.354 N 
ATOM      6  C   UNL     1       2.134   1.985  -2.064  1.00  0.00     0.245 C 
ATOM      7  O   UNL     1       2.660   0.875  -2.185  1.00  0.00    -0.272 OA
ATOM      8  H   UNL     1       3.269   2.711  -3.521  1.00  0.00     0.163 HD
BRANCH   6   9
ATOM      9  C   UNL     1       1.000   2.223  -1.050  1.00  0.00     0.118 C 
BRANCH   9  10
ATOM     10  C   UNL     1       0.943   1.310   0.203  1.00  0.00     0.035 C 
ATOM     11  C   UNL     1       0.812  -0.193   0.000  1.00  0.00     0.007 C 
ENDBRANCH   9  10
BRANCH   9  12
ATOM     12  C   UNL     1      -0.276   1.998  -1.948  1.00  0.00     0.035 C 
ATOM     13  C   UNL     1      -1.650   2.160  -1.321  1.00  0.00     0.007 C 
ENDBRANCH   9  12
BRANCH   9  14
ATOM     14  N   UNL     1       1.123   3.606  -0.559  1.00  0.00    -0.337 N 
ATOM     15  C   UNL     1       2.022   4.291   0.229  1.00  0.00     0.257 C 
ATOM     16  H   UNL     1       0.385   4.179  -0.868  1.00  0.00     0.164 HD
ATOM     17  O   UNL     1       1.498   5.309   0.704  1.00  0.00    -0.269 OA
BRANCH  15  18
ATOM     18  C   UNL     1       3.432   4.003   0.566  1.00  0.00     0.105 A 
ATOM     19  C   UNL     1       4.076   4.699   1.673  1.00  0.00     0.093 A 
ATOM     20  C   UNL     1       4.522   3.308   0.030  1.00  0.00     0.146 A 
ATOM     21  C   UNL     1       3.535   5.745   2.578  1.00  0.00     0.071 C 
ATOM     22  N   UNL     1       5.347   4.341   1.843  1.00  0.00    -0.084 NA
ATOM     23  O   UNL     1       5.611   3.473   0.836  1.00  0.00    -0.361 OA
ATOM     24  C   UNL     1       4.941   2.521  -1.147  1.00  0.00     0.092 C 
ENDBRANCH  15  18
ENDBRANCH   9  14
ENDBRANCH   6   9
ENDBRANCH   4   5
ENDBRANCH   3   4
ENDBRANCH   2   3
ENDBRANCH   1   2
BRANCH   1  25
ATOM     25  C   UNL     1       4.117   6.291  -5.414  1.00  0.00     0.021 C 
BRANCH  25  26
ATOM     26  C   UNL     1       4.267   7.789  -5.175  1.00  0.00     0.116 C 
BRANCH  26  27
ATOM     27  N   UNL     1       5.659   8.210  -5.089  1.00  0.00    -0.352 N 
ATOM     28  C   UNL     1       6.285   9.221  -5.779  1.00  0.00     0.251 C 
ATOM     29  H   UNL     1       6.223   7.708  -4.457  1.00  0.00     0.163 HD
ATOM     30  O   UNL     1       7.501   9.372  -5.715  1.00  0.00    -0.269 OA
BRANCH  28  31
ATOM     31  C   UNL     1       5.463  10.102  -6.631  1.00  0.00     0.039 A 
ATOM     32  C   UNL     1       5.779  10.231  -7.984  1.00  0.00     0.014 A 
ATOM     33  C   UNL     1       4.321  10.711  -6.102  1.00  0.00     0.014 A 
ATOM     34  C   UNL     1       4.896  10.904  -8.831  1.00  0.00     0.010 A 
ATOM     35  C   UNL     1       3.408  11.311  -6.960  1.00  0.00     0.010 A 
ATOM     36  C   UNL     1       3.681  11.405  -8.334  1.00  0.00    -0.014 A 
BRANCH  36  37
ATOM     37  C   UNL     1       2.666  12.007  -9.235  1.00  0.00     0.031 A 
ATOM     38  C   UNL     1       2.267  13.445  -9.063  1.00  0.00     0.074 A 
ATOM     39  C   UNL     1       2.039  11.232 -10.143  1.00  0.00     0.049 A 
ATOM     40  N   UNL     1       1.336  14.123  -9.682  1.00  0.00    -0.248 NA
ATOM     41  C   UNL     1       2.986  14.211  -8.033  1.00  0.00     0.031 C 
ATOM     42  C   UNL     1       2.290   9.805 -10.355  1.00  0.00     0.029 A 
ATOM     43  N   UNL     1       1.045  11.530 -11.041  1.00  0.00    -0.354 N 
ATOM     44  C   UNL     1       1.349  15.390  -9.110  1.00  0.00     0.074 A 
ATOM     45  C   UNL     1       2.337  15.365  -8.053  1.00  0.00     0.031 C 
ATOM     46  C   UNL     1       1.480   9.355 -11.327  1.00  0.00     0.029 A 
ATOM     47  C   UNL     1       0.628  10.450 -11.783  1.00  0.00     0.049 A 
ATOM     48  H   UNL     1       0.666  12.433 -11.145  1.00  0.00     0.167 HD
ATOM     49  C   UNL     1       0.625  16.482  -9.453  1.00  0.00     0.037 A 
ATOM     50  C   UNL     1      -0.340  10.347 -12.714  1.00  0.00     0.037 A 
ATOM     51  C   UNL     1      -0.344  16.501 -10.517  1.00  0.00     0.049 A 
ATOM     52  C   UNL     1      -1.127  11.572 -13.089  1.00  0.00     0.074 A 
ATOM     53  C   UNL     1      -1.085  17.570 -10.988  1.00  0.00     0.029 A 
ATOM     54  N   UNL     1      -0.710  15.396 -11.274  1.00  0.00    -0.354 N 
ATOM     55  N   UNL     1      -1.047  12.784 -12.592  1.00  0.00    -0.248 NA
ATOM     56  C   UNL     1      -2.128  11.421 -14.153  1.00  0.00     0.031 C 
ATOM     57  C   UNL     1      -1.930  17.102 -12.001  1.00  0.00     0.029 A 
ATOM     58  C   UNL     1      -1.684  15.752 -12.192  1.00  0.00     0.049 A 
ATOM     59  H   UNL     1      -0.333  14.493 -11.172  1.00  0.00     0.167 HD
ATOM     60  C   UNL     1      -1.979  13.543 -13.290  1.00  0.00     0.074 A 
ATOM     61  C   UNL     1      -2.598  12.658 -14.256  1.00  0.00     0.031 C 
ATOM     62  C   UNL     1      -2.295  14.854 -13.142  1.00  0.00     0.037 A 
BRANCH  49  63
ATOM     63  C   UNL     1       0.864  17.740  -8.664  1.00  0.00     0.058 A 
ATOM     64  C   UNL     1       2.073  18.449  -8.759  1.00  0.00     0.135 A 
ATOM     65  C   UNL     1      -0.119  18.239  -7.795  1.00  0.00     0.135 A 
ATOM     66  F   UNL     1       3.054  18.008  -9.564  1.00  0.00    -0.206 F 
ATOM     67  C   UNL     1       2.319  19.578  -7.985  1.00  0.00     0.059 A 
ATOM     68  C   UNL     1       0.093  19.386  -7.034  1.00  0.00     0.059 A 
ATOM     69  F   UNL     1      -1.295  17.605  -7.666  1.00  0.00    -0.206 F 
ATOM     70  C   UNL     1       1.325  20.034  -7.119  1.00  0.00     0.060 A 
BRANCH  70  71
ATOM     71  S   UNL     1       1.670  21.482  -6.098  1.00  0.00     0.124 S 
ATOM     72  O   UNL     1       2.562  20.918  -5.088  1.00  0.00    -0.237 OA
ATOM     73  O   UNL     1       2.290  22.397  -7.050  1.00  0.00    -0.237 OA
ATOM     74  O   UNL     1       0.350  21.880  -5.617  1.00  0.00    -0.744 OA
ENDBRANCH  70  71
ENDBRANCH  49  63
BRANCH  50  75
ATOM     75  C   UNL     1      -0.600   9.033 -13.359  1.00  0.00     0.058 A 
ATOM     76  C   UNL     1      -0.213   8.786 -14.684  1.00  0.00     0.135 A 
ATOM     77  C   UNL     1      -1.192   7.979 -12.644  1.00  0.00     0.135 A 
ATOM     78  F   UNL     1       0.350   9.764 -15.410  1.00  0.00    -0.206 F 
ATOM     79  C   UNL     1      -0.403   7.543 -15.279  1.00  0.00     0.059 A 
ATOM     80  C   UNL     1      -1.372   6.721 -13.210  1.00  0.00     0.059 A 
ATOM     81  F   UNL     1      -1.564   8.159 -11.367  1.00  0.00    -0.206 F 
ATOM     82  C   UNL     1      -0.976   6.513 -14.530  1.00  0.00     0.060 A 
BRANCH  82  83
ATOM     83  S   UNL     1      -1.139   4.879 -15.283  1.00  0.00     0.124 S 
ATOM     84  O   UNL     1      -2.249   5.089 -16.204  1.00  0.00    -0.237 OA
ATOM     85  O   UNL     1       0.174   4.691 -15.894  1.00  0.00    -0.237 OA
ATOM     86  O   UNL     1      -1.418   4.012 -14.141  1.00  0.00    -0.744 OA
ENDBRANCH  82  83
ENDBRANCH  50  75
BRANCH  62  87
ATOM     87  C   UNL     1      -3.354  15.416 -14.048  1.00  0.00     0.058 A 
ATOM     88  C   UNL     1      -4.712  15.116 -13.862  1.00  0.00     0.135 A 
ATOM     89  C   UNL     1      -3.014  16.314 -15.072  1.00  0.00     0.135 A 
ATOM     90  F   UNL     1      -5.089  14.256 -12.902  1.00  0.00    -0.206 F 
ATOM     91  C   UNL     1      -5.696  15.676 -14.670  1.00  0.00     0.059 A 
ATOM     92  C   UNL     1      -3.983  16.905 -15.876  1.00  0.00     0.059 A 
ATOM     93  F   UNL     1      -1.729  16.640 -15.286  1.00  0.00    -0.206 F 
ATOM     94  C   UNL     1      -5.322  16.573 -15.672  1.00  0.00     0.060 A 
BRANCH  94  95
ATOM     95  S   UNL     1      -6.613  17.329 -16.682  1.00  0.00     0.124 S 
ATOM     96  O   UNL     1      -6.998  16.218 -17.546  1.00  0.00    -0.237 OA
ATOM     97  O   UNL     1      -7.600  17.727 -15.683  1.00  0.00    -0.237 OA
ATOM     98  O   UNL     1      -5.923  18.431 -17.346  1.00  0.00    -0.744 OA
ENDBRANCH  94  95
ENDBRANCH  62  87
ENDBRANCH  36  37
ENDBRANCH  28  31
ENDBRANCH  26  27
ENDBRANCH  25  26
ENDBRANCH   1  25
TORSDOF 20
