REMARK SMILES CN(C)C(=O)CCNC(=O)NC[C@H]1CC[C@@H](C(=O)NCCCCCCNC(=O)c2ccc(-c3c4nc(c(-c5c(F)cc(S(=O)(=O)[O-])cc5F)c5ccc([nH]5)c(-c5c(F)cc(S(=O)(=O)[O-])cc5F)c5nc(c(-c6c(F)cc(S(=O)(=O)[O-])cc6F)c6ccc3[nH]6)C=C5)C=C4)cc2)CC1
REMARK SMILES IDX 21 1 20 2 19 3 17 4 18 5 16 7 13 8 14 9 96 10 15 11 95 12
REMARK SMILES IDX 12 13 11 14 8 15 9 16 10 18 7 20 6 21 4 22 1 23 2 24 3 25
REMARK SMILES IDX 5 26 22 27 23 28 24 29 25 30 26 31 27 32 28 34 29 35 30 36
REMARK SMILES IDX 94 37 31 38 93 39 32 40 33 41 34 42 87 43 35 44 92 45 86 46
REMARK SMILES IDX 88 47 36 48 91 49 85 50 84 51 37 53 71 54 50 55 70 56 51 57
REMARK SMILES IDX 54 58 69 59 89 60 52 61 53 62 68 64 90 65 55 66 38 67 39 68
REMARK SMILES IDX 48 69 40 70 41 71 47 72 49 73 42 74 43 75 44 76 45 77 46 78
REMARK SMILES IDX 72 79 73 80 82 81 74 82 75 83 81 84 83 85 76 86 77 87 78 88
REMARK SMILES IDX 79 89 80 90 56 91 57 92 66 93 58 94 59 95 65 96 67 97 60 98
REMARK SMILES IDX 61 99 62 100 63 101 64 102
REMARK H PARENT 19 6 8 17 11 19 26 33 88 52 54 63
REMARK Flexibility Score: inf
ROOT
ATOM      1  C   UNL     1      -2.993   0.643   8.977  1.00  0.00     0.021 C 
ENDROOT
BRANCH   1   2
ATOM      2  C   UNL     1      -2.448   2.056   9.186  1.00  0.00     0.116 C 
BRANCH   2   3
ATOM      3  N   UNL     1      -2.103   2.359  10.554  1.00  0.00    -0.356 N 
ATOM      4  C   UNL     1      -0.960   2.809  11.129  1.00  0.00     0.223 C 
ATOM      5  O   UNL     1      -1.067   3.172  12.309  1.00  0.00    -0.275 OA
ATOM      6  H   UNL     1      -2.838   2.210  11.192  1.00  0.00     0.163 HD
BRANCH   4   7
ATOM      7  C   UNL     1       0.422   2.880  10.453  1.00  0.00     0.078 C 
ATOM      8  C   UNL     1       0.846   2.143   7.548  1.00  0.00     0.008 C 
ATOM      9  C   UNL     1       0.379   3.556   7.959  1.00  0.00     0.006 C 
ATOM     10  C   UNL     1       0.810   1.072   8.656  1.00  0.00     0.006 C 
ATOM     11  C   UNL     1       0.643   3.960   9.400  1.00  0.00     0.014 C 
ATOM     12  C   UNL     1       1.060   1.548  10.076  1.00  0.00     0.014 C 
BRANCH   8  13
ATOM     13  C   UNL     1       0.009   1.619   6.357  1.00  0.00     0.121 C 
BRANCH  13  14
ATOM     14  N   UNL     1      -0.095   2.561   5.270  1.00  0.00    -0.338 N 
ATOM     15  N   UNL     1       1.490   1.902   3.663  1.00  0.00    -0.338 N 
ATOM     16  C   UNL     1       0.600   2.770   4.151  1.00  0.00     0.314 C 
ATOM     17  H   UNL     1       2.050   2.274   2.943  1.00  0.00     0.165 HD
ATOM     18  O   UNL     1       0.381   3.812   3.532  1.00  0.00    -0.249 OA
ATOM     19  H   UNL     1      -0.846   3.189   5.378  1.00  0.00     0.165 HD
BRANCH  15  20
ATOM     20  C   UNL     1       1.798   0.520   3.980  1.00  0.00     0.127 C 
BRANCH  20  21
ATOM     21  C   UNL     1       0.676  -0.440   3.585  1.00  0.00     0.121 C 
BRANCH  21  22
ATOM     22  C   UNL     1       0.952  -0.940   2.185  1.00  0.00     0.223 C 
ATOM     23  C   UNL     1       1.110  -0.398  -0.189  1.00  0.00     0.146 C 
ATOM     24  N   UNL     1       0.513  -0.179   1.119  1.00  0.00    -0.349 N 
ATOM     25  C   UNL     1      -0.495   0.868   1.190  1.00  0.00     0.146 C 
ATOM     26  O   UNL     1       1.653  -1.946   2.053  1.00  0.00    -0.275 OA
ENDBRANCH  21  22
ENDBRANCH  20  21
ENDBRANCH  15  20
ENDBRANCH  13  14
ENDBRANCH   8  13
ENDBRANCH   4   7
ENDBRANCH   2   3
ENDBRANCH   1   2
BRANCH   1  27
ATOM     27  C   UNL     1      -4.474   0.579   8.591  1.00  0.00     0.002 C 
BRANCH  27  28
ATOM     28  C   UNL     1      -4.887   1.329   7.317  1.00  0.00     0.002 C 
BRANCH  28  29
ATOM     29  C   UNL     1      -4.154   0.965   6.022  1.00  0.00     0.021 C 
BRANCH  29  30
ATOM     30  C   UNL     1      -4.185  -0.509   5.619  1.00  0.00     0.116 C 
BRANCH  30  31
ATOM     31  N   UNL     1      -5.538  -1.009   5.458  1.00  0.00    -0.352 N 
ATOM     32  C   UNL     1      -6.184  -1.518   4.359  1.00  0.00     0.251 C 
ATOM     33  H   UNL     1      -6.086  -0.978   6.275  1.00  0.00     0.163 HD
ATOM     34  O   UNL     1      -7.400  -1.702   4.418  1.00  0.00    -0.269 OA
BRANCH  32  35
ATOM     35  C   UNL     1      -5.458  -1.835   3.107  1.00  0.00     0.039 A 
ATOM     36  C   UNL     1      -6.077  -1.542   1.886  1.00  0.00     0.014 A 
ATOM     37  C   UNL     1      -4.216  -2.475   3.115  1.00  0.00     0.014 A 
ATOM     38  C   UNL     1      -5.432  -1.841   0.682  1.00  0.00     0.010 A 
ATOM     39  C   UNL     1      -3.546  -2.718   1.913  1.00  0.00     0.010 A 
ATOM     40  C   UNL     1      -4.147  -2.405   0.683  1.00  0.00    -0.014 A 
BRANCH  40  41
ATOM     41  C   UNL     1      -3.420  -2.676  -0.586  1.00  0.00     0.031 A 
ATOM     42  C   UNL     1      -3.090  -4.090  -0.983  1.00  0.00     0.074 A 
ATOM     43  C   UNL     1      -3.006  -1.647  -1.352  1.00  0.00     0.049 A 
ATOM     44  N   UNL     1      -2.371  -4.521  -1.988  1.00  0.00    -0.248 NA
ATOM     45  C   UNL     1      -3.635  -5.161  -0.133  1.00  0.00     0.031 C 
ATOM     46  C   UNL     1      -3.265  -0.232  -1.080  1.00  0.00     0.029 A 
ATOM     47  N   UNL     1      -2.259  -1.629  -2.505  1.00  0.00    -0.354 N 
ATOM     48  C   UNL     1      -2.370  -5.908  -1.889  1.00  0.00     0.074 A 
ATOM     49  C   UNL     1      -3.123  -6.245  -0.700  1.00  0.00     0.031 C 
ATOM     50  C   UNL     1      -2.677   0.515  -2.028  1.00  0.00     0.029 A 
ATOM     51  C   UNL     1      -1.964  -0.362  -2.951  1.00  0.00     0.049 A 
ATOM     52  H   UNL     1      -1.963  -2.446  -2.968  1.00  0.00     0.167 HD
ATOM     53  C   UNL     1      -1.813  -6.818  -2.725  1.00  0.00     0.037 A 
ATOM     54  C   UNL     1      -1.182   0.052  -3.967  1.00  0.00     0.037 A 
ATOM     55  C   UNL     1      -1.082  -6.476  -3.918  1.00  0.00     0.049 A 
ATOM     56  C   UNL     1      -0.518  -0.973  -4.844  1.00  0.00     0.074 A 
ATOM     57  C   UNL     1      -0.533  -7.323  -4.864  1.00  0.00     0.029 A 
ATOM     58  N   UNL     1      -0.793  -5.182  -4.324  1.00  0.00    -0.354 N 
ATOM     59  N   UNL     1      -0.566  -2.281  -4.760  1.00  0.00    -0.248 NA
ATOM     60  C   UNL     1       0.298  -0.471  -5.958  1.00  0.00     0.031 C 
ATOM     61  C   UNL     1       0.119  -6.542  -5.825  1.00  0.00     0.029 A 
ATOM     62  C   UNL     1      -0.057  -5.207  -5.497  1.00  0.00     0.049 A 
ATOM     63  H   UNL     1      -1.070  -4.365  -3.849  1.00  0.00     0.167 HD
ATOM     64  C   UNL     1       0.179  -2.759  -5.832  1.00  0.00     0.074 A 
ATOM     65  C   UNL     1       0.674  -1.599  -6.545  1.00  0.00     0.031 C 
ATOM     66  C   UNL     1       0.421  -4.041  -6.199  1.00  0.00     0.037 A 
BRANCH  53  67
ATOM     67  C   UNL     1      -1.982  -8.273  -2.383  1.00  0.00     0.058 A 
ATOM     68  C   UNL     1      -3.221  -8.919  -2.518  1.00  0.00     0.135 A 
ATOM     69  C   UNL     1      -0.890  -9.038  -1.943  1.00  0.00     0.135 A 
ATOM     70  F   UNL     1      -4.301  -8.233  -2.924  1.00  0.00    -0.206 F 
ATOM     71  C   UNL     1      -3.380 -10.263  -2.196  1.00  0.00     0.059 A 
ATOM     72  C   UNL     1      -1.021 -10.391  -1.638  1.00  0.00     0.059 A 
ATOM     73  F   UNL     1       0.319  -8.472  -1.800  1.00  0.00    -0.206 F 
ATOM     74  C   UNL     1      -2.275 -10.990  -1.752  1.00  0.00     0.060 A 
BRANCH  74  75
ATOM     75  S   UNL     1      -2.495 -12.732  -1.328  1.00  0.00     0.124 S 
ATOM     76  O   UNL     1      -3.175 -12.631  -0.038  1.00  0.00    -0.237 OA
ATOM     77  O   UNL     1      -3.316 -13.222  -2.434  1.00  0.00    -0.237 OA
ATOM     78  O   UNL     1      -1.136 -13.247  -1.284  1.00  0.00    -0.744 OA
ENDBRANCH  74  75
ENDBRANCH  53  67
BRANCH  54  79
ATOM     79  C   UNL     1      -0.978   1.506  -4.201  1.00  0.00     0.058 A 
ATOM     80  C   UNL     1      -1.557   2.155  -5.300  1.00  0.00     0.135 A 
ATOM     81  C   UNL     1      -0.208   2.281  -3.319  1.00  0.00     0.135 A 
ATOM     82  F   UNL     1      -2.297   1.458  -6.175  1.00  0.00    -0.206 F 
ATOM     83  C   UNL     1      -1.369   3.516  -5.524  1.00  0.00     0.059 A 
ATOM     84  C   UNL     1      -0.021   3.645  -3.509  1.00  0.00     0.059 A 
ATOM     85  F   UNL     1       0.351   1.712  -2.241  1.00  0.00    -0.206 F 
ATOM     86  C   UNL     1      -0.600   4.253  -4.621  1.00  0.00     0.060 A 
BRANCH  86  87
ATOM     87  S   UNL     1      -0.401   6.027  -4.895  1.00  0.00     0.124 S 
ATOM     88  O   UNL     1       0.506   6.047  -6.036  1.00  0.00    -0.237 OA
ATOM     89  O   UNL     1      -1.773   6.450  -5.160  1.00  0.00    -0.237 OA
ATOM     90  O   UNL     1       0.160   6.500  -3.633  1.00  0.00    -0.744 OA
ENDBRANCH  86  87
ENDBRANCH  54  79
BRANCH  66  91
ATOM     91  C   UNL     1       1.221  -4.261  -7.451  1.00  0.00     0.058 A 
ATOM     92  C   UNL     1       2.612  -4.080  -7.478  1.00  0.00     0.135 A 
ATOM     93  C   UNL     1       0.592  -4.710  -8.624  1.00  0.00     0.135 A 
ATOM     94  F   UNL     1       3.257  -3.642  -6.386  1.00  0.00    -0.206 F 
ATOM     95  C   UNL     1       3.352  -4.325  -8.631  1.00  0.00     0.059 A 
ATOM     96  C   UNL     1       1.315  -4.982  -9.781  1.00  0.00     0.059 A 
ATOM     97  F   UNL     1      -0.736  -4.905  -8.647  1.00  0.00    -0.206 F 
ATOM     98  C   UNL     1       2.694  -4.777  -9.777  1.00  0.00     0.060 A 
BRANCH  98  99
ATOM     99  S   UNL     1       3.669  -5.131 -11.255  1.00  0.00     0.124 S 
ATOM    100  O   UNL     1       3.935  -3.788 -11.759  1.00  0.00    -0.237 OA
ATOM    101  O   UNL     1       4.821  -5.843 -10.710  1.00  0.00    -0.237 OA
ATOM    102  O   UNL     1       2.768  -5.941 -12.069  1.00  0.00    -0.744 OA
ENDBRANCH  98  99
ENDBRANCH  66  91
ENDBRANCH  40  41
ENDBRANCH  32  35
ENDBRANCH  30  31
ENDBRANCH  29  30
ENDBRANCH  28  29
ENDBRANCH  27  28
ENDBRANCH   1  27
TORSDOF 21
