REMARK SMILES O=C(NCCCCCCNC(=O)[C@H]1CC=CC[C@@H]1C(=O)N[C@@H]1CCCN(c2ccccc2F)C1=O)c1ccc(-c2c3nc(c(-c4c(F)cc(S(=O)(=O)[O-])cc4F)c4ccc([nH]4)c(-c4c(F)cc(S(=O)(=O)[O-])cc4F)c4nc(c(-c5c(F)cc(S(=O)(=O)[O-])cc5F)c5ccc2[nH]5)C=C4)C=C3)cc1
REMARK SMILES IDX 6 1 5 2 4 3 3 4 1 5 2 6 36 8 37 9 101 10 38 11 100 12 39 13
REMARK SMILES IDX 40 14 41 15 94 16 42 17 99 18 93 19 95 20 43 21 98 22 92 23
REMARK SMILES IDX 91 24 44 26 78 27 57 28 77 29 58 30 61 31 76 32 96 33 59 34
REMARK SMILES IDX 60 35 75 37 97 38 62 39 45 40 46 41 55 42 47 43 48 44 54 45
REMARK SMILES IDX 56 46 49 47 50 48 51 49 52 50 53 51 79 52 80 53 89 54 81 55
REMARK SMILES IDX 82 56 88 57 90 58 83 59 84 60 85 61 86 62 87 63 63 64 64 65
REMARK SMILES IDX 73 66 65 67 66 68 72 69 74 70 67 71 68 72 69 73 70 74 71 75
REMARK SMILES IDX 7 76 8 77 9 78 10 79 11 80 12 82 13 83 14 84 18 85 15 86
REMARK SMILES IDX 17 87 16 88 19 89 20 90 21 91 22 93 23 94 34 95 24 96 26 97
REMARK SMILES IDX 35 98 25 99 27 100 28 101 32 102 29 103 31 104 33 105 30 106
REMARK H PARENT 3 7 95 25 61 36 10 81 21 92
REMARK Flexibility Score: inf
ROOT
ATOM      1  C   UNL     1       8.249   6.216  -3.355  1.00  0.00     0.002 C 
ENDROOT
BRANCH   1   2
ATOM      2  C   UNL     1       8.626   4.728  -3.395  1.00  0.00     0.021 C 
BRANCH   2   3
ATOM      3  C   UNL     1       7.945   3.887  -4.476  1.00  0.00     0.116 C 
BRANCH   3   4
ATOM      4  N   UNL     1       8.297   4.312  -5.822  1.00  0.00    -0.352 N 
ATOM      5  O   UNL     1       9.450   4.400  -7.746  1.00  0.00    -0.269 OA
ATOM      6  C   UNL     1       9.130   3.744  -6.757  1.00  0.00     0.251 C 
ATOM      7  H   UNL     1       7.867   5.148  -6.112  1.00  0.00     0.163 HD
BRANCH   6   8
ATOM      8  C   UNL     1       9.647   2.363  -6.600  1.00  0.00     0.039 A 
ATOM      9  C   UNL     1       8.810   1.317  -6.206  1.00  0.00     0.014 A 
ATOM     10  C   UNL     1      10.972   2.087  -6.960  1.00  0.00     0.014 A 
ATOM     11  C   UNL     1       9.318   0.022  -6.082  1.00  0.00     0.010 A 
ATOM     12  C   UNL     1      11.466   0.777  -6.895  1.00  0.00     0.010 A 
ATOM     13  C   UNL     1      10.644  -0.267  -6.446  1.00  0.00    -0.014 A 
BRANCH  13  14
ATOM     14  C   UNL     1      11.111  -1.680  -6.456  1.00  0.00     0.031 A 
ATOM     15  C   UNL     1      12.161  -2.167  -5.496  1.00  0.00     0.074 A 
ATOM     16  C   UNL     1      10.559  -2.534  -7.342  1.00  0.00     0.049 A 
ATOM     17  N   UNL     1      12.658  -3.371  -5.367  1.00  0.00    -0.248 NA
ATOM     18  C   UNL     1      12.729  -1.184  -4.560  1.00  0.00     0.031 C 
ATOM     19  C   UNL     1       9.548  -2.171  -8.339  1.00  0.00     0.029 A 
ATOM     20  N   UNL     1      10.754  -3.877  -7.546  1.00  0.00    -0.354 N 
ATOM     21  C   UNL     1      13.597  -3.294  -4.346  1.00  0.00     0.074 A 
ATOM     22  C   UNL     1      13.617  -1.917  -3.899  1.00  0.00     0.031 C 
ATOM     23  C   UNL     1       9.187  -3.267  -9.022  1.00  0.00     0.029 A 
ATOM     24  C   UNL     1       9.976  -4.401  -8.552  1.00  0.00     0.049 A 
ATOM     25  H   UNL     1      11.390  -4.415  -7.022  1.00  0.00     0.167 HD
ATOM     26  C   UNL     1      14.360  -4.284  -3.825  1.00  0.00     0.037 A 
ATOM     27  C   UNL     1       9.913  -5.648  -9.057  1.00  0.00     0.037 A 
ATOM     28  C   UNL     1      14.324  -5.656  -4.266  1.00  0.00     0.049 A 
ATOM     29  C   UNL     1      10.794  -6.718  -8.479  1.00  0.00     0.074 A 
ATOM     30  C   UNL     1      15.031  -6.737  -3.765  1.00  0.00     0.029 A 
ATOM     31  N   UNL     1      13.550  -6.138  -5.311  1.00  0.00    -0.354 N 
ATOM     32  N   UNL     1      11.644  -6.630  -7.484  1.00  0.00    -0.248 NA
ATOM     33  C   UNL     1      10.718  -8.050  -9.094  1.00  0.00     0.031 C 
ATOM     34  C   UNL     1      14.717  -7.862  -4.532  1.00  0.00     0.029 A 
ATOM     35  C   UNL     1      13.782  -7.493  -5.485  1.00  0.00     0.049 A 
ATOM     36  H   UNL     1      12.928  -5.598  -5.849  1.00  0.00     0.167 HD
ATOM     37  C   UNL     1      12.203  -7.895  -7.353  1.00  0.00     0.074 A 
ATOM     38  C   UNL     1      11.577  -8.737  -8.352  1.00  0.00     0.031 C 
ATOM     39  C   UNL     1      13.156  -8.317  -6.488  1.00  0.00     0.037 A 
BRANCH  26  40
ATOM     40  C   UNL     1      15.306  -3.948  -2.706  1.00  0.00     0.058 A 
ATOM     41  C   UNL     1      16.694  -3.944  -2.922  1.00  0.00     0.135 A 
ATOM     42  C   UNL     1      14.846  -3.760  -1.393  1.00  0.00     0.135 A 
ATOM     43  F   UNL     1      17.186  -4.114  -4.159  1.00  0.00    -0.206 F 
ATOM     44  C   UNL     1      17.593  -3.797  -1.871  1.00  0.00     0.059 A 
ATOM     45  C   UNL     1      15.728  -3.593  -0.329  1.00  0.00     0.059 A 
ATOM     46  F   UNL     1      13.528  -3.736  -1.137  1.00  0.00    -0.206 F 
ATOM     47  C   UNL     1      17.100  -3.633  -0.575  1.00  0.00     0.060 A 
BRANCH  47  48
ATOM     48  S   UNL     1      18.280  -3.462   0.782  1.00  0.00     0.124 S 
ATOM     49  O   UNL     1      18.857  -4.800   0.850  1.00  0.00    -0.237 OA
ATOM     50  O   UNL     1      19.164  -2.411   0.286  1.00  0.00    -0.237 OA
ATOM     51  O   UNL     1      17.440  -3.080   1.913  1.00  0.00    -0.744 OA
ENDBRANCH  47  48
ENDBRANCH  26  40
BRANCH  27  52
ATOM     52  C   UNL     1       8.991  -5.941 -10.185  1.00  0.00     0.058 A 
ATOM     53  C   UNL     1       9.221  -5.411 -11.464  1.00  0.00     0.135 A 
ATOM     54  C   UNL     1       7.848  -6.734 -10.002  1.00  0.00     0.135 A 
ATOM     55  F   UNL     1      10.296  -4.638 -11.689  1.00  0.00    -0.206 F 
ATOM     56  C   UNL     1       8.340  -5.634 -12.515  1.00  0.00     0.059 A 
ATOM     57  C   UNL     1       6.965  -6.994 -11.046  1.00  0.00     0.059 A 
ATOM     58  F   UNL     1       7.593  -7.272  -8.799  1.00  0.00    -0.206 F 
ATOM     59  C   UNL     1       7.211  -6.424 -12.294  1.00  0.00     0.060 A 
BRANCH  59  60
ATOM     60  S   UNL     1       6.086  -6.707 -13.677  1.00  0.00     0.124 S 
ATOM     61  O   UNL     1       5.409  -5.412 -13.766  1.00  0.00    -0.237 OA
ATOM     62  O   UNL     1       6.992  -7.029 -14.759  1.00  0.00    -0.237 OA
ATOM     63  O   UNL     1       5.249  -7.815 -13.203  1.00  0.00    -0.744 OA
ENDBRANCH  59  60
ENDBRANCH  27  52
BRANCH  39  64
ATOM     64  C   UNL     1      13.588  -9.753  -6.579  1.00  0.00     0.058 A 
ATOM     65  C   UNL     1      13.220 -10.675  -5.587  1.00  0.00     0.135 A 
ATOM     66  C   UNL     1      14.426 -10.197  -7.614  1.00  0.00     0.135 A 
ATOM     67  F   UNL     1      12.421 -10.299  -4.576  1.00  0.00    -0.206 F 
ATOM     68  C   UNL     1      13.684 -11.985  -5.608  1.00  0.00     0.059 A 
ATOM     69  C   UNL     1      14.884 -11.509  -7.667  1.00  0.00     0.059 A 
ATOM     70  F   UNL     1      14.793  -9.355  -8.593  1.00  0.00    -0.206 F 
ATOM     71  C   UNL     1      14.521 -12.392  -6.649  1.00  0.00     0.060 A 
BRANCH  71  72
ATOM     72  S   UNL     1      15.109 -14.098  -6.665  1.00  0.00     0.124 S 
ATOM     73  O   UNL     1      16.078 -14.090  -5.575  1.00  0.00    -0.237 OA
ATOM     74  O   UNL     1      13.882 -14.851  -6.419  1.00  0.00    -0.237 OA
ATOM     75  O   UNL     1      15.670 -14.250  -8.004  1.00  0.00    -0.744 OA
ENDBRANCH  71  72
ENDBRANCH  39  64
ENDBRANCH  13  14
ENDBRANCH   6   8
ENDBRANCH   3   4
ENDBRANCH   2   3
ENDBRANCH   1   2
BRANCH   1  76
ATOM     76  C   UNL     1       6.781   6.563  -3.076  1.00  0.00     0.002 C 
BRANCH  76  77
ATOM     77  C   UNL     1       6.205   6.080  -1.739  1.00  0.00     0.021 C 
BRANCH  77  78
ATOM     78  C   UNL     1       6.908   6.571  -0.447  1.00  0.00     0.116 C 
BRANCH  78  79
ATOM     79  N   UNL     1       6.015   7.137   0.604  1.00  0.00    -0.356 N 
ATOM     80  C   UNL     1       5.828   6.924   1.958  1.00  0.00     0.224 C 
ATOM     81  H   UNL     1       5.412   7.829   0.248  1.00  0.00     0.163 HD
ATOM     82  O   UNL     1       5.938   7.954   2.645  1.00  0.00    -0.275 OA
BRANCH  80  83
ATOM     83  C   UNL     1       5.136   5.667   2.646  1.00  0.00     0.095 C 
ATOM     84  C   UNL     1       3.823   5.483   1.913  1.00  0.00     0.041 C 
ATOM     85  C   UNL     1       5.809   4.265   2.759  1.00  0.00     0.095 C 
ATOM     86  C   UNL     1       4.183   4.801   0.633  1.00  0.00    -0.030 C 
ATOM     87  C   UNL     1       6.402   3.914   1.446  1.00  0.00     0.041 C 
ATOM     88  C   UNL     1       5.332   4.125   0.417  1.00  0.00    -0.030 C 
BRANCH  85  89
ATOM     89  C   UNL     1       4.859   3.115   3.244  1.00  0.00     0.224 C 
ATOM     90  O   UNL     1       4.563   3.114   4.452  1.00  0.00    -0.275 OA
ATOM     91  N   UNL     1       4.259   2.115   2.524  1.00  0.00    -0.344 N 
ATOM     92  H   UNL     1       3.690   1.604   3.144  1.00  0.00     0.164 HD
BRANCH  91  93
ATOM     93  C   UNL     1       4.122   1.477   1.140  1.00  0.00     0.172 C 
ATOM     94  C   UNL     1       5.384   0.814   0.591  1.00  0.00     0.037 C 
ATOM     95  C   UNL     1       3.116   2.083   0.063  1.00  0.00     0.249 C 
ATOM     96  C   UNL     1       5.138   0.251  -0.792  1.00  0.00     0.025 C 
ATOM     97  N   UNL     1       3.530   2.139  -1.296  1.00  0.00    -0.308 N 
ATOM     98  O   UNL     1       1.993   2.410   0.456  1.00  0.00    -0.272 OA
ATOM     99  C   UNL     1       4.689   1.348  -1.739  1.00  0.00     0.126 C 
BRANCH  97 100
ATOM    100  C   UNL     1       2.992   3.112  -2.279  1.00  0.00     0.080 A 
ATOM    101  C   UNL     1       3.483   3.122  -3.607  1.00  0.00     0.029 A 
ATOM    102  C   UNL     1       2.112   4.174  -1.978  1.00  0.00     0.146 A 
ATOM    103  C   UNL     1       3.229   4.173  -4.509  1.00  0.00     0.002 A 
ATOM    104  C   UNL     1       1.907   5.255  -2.853  1.00  0.00     0.041 A 
ATOM    105  F   UNL     1       1.490   4.295  -0.801  1.00  0.00    -0.205 F 
ATOM    106  C   UNL     1       2.481   5.268  -4.114  1.00  0.00     0.003 A 
ENDBRANCH  97 100
ENDBRANCH  91  93
ENDBRANCH  85  89
ENDBRANCH  80  83
ENDBRANCH  78  79
ENDBRANCH  77  78
ENDBRANCH  76  77
ENDBRANCH   1  76
TORSDOF 19
