REMARK SMILES Cc1nnc(S[C@@H](C)CCO)c(C(=O)NCCCCCCNC(=O)c2ccc(-c3c4nc(c(-c5c(F)cc(S(=O)(=O)[O-])cc5F)c5ccc([nH]5)c(-c5c(F)cc(S(=O)(=O)[O-])cc5F)c5nc(c(-c6c(F)cc(S(=O)(=O)[O-])cc6F)c6ccc3[nH]6)C=C5)C=C4)cc2)c1C
REMARK SMILES IDX 17 1 16 2 15 3 13 4 14 5 12 7 1 8 2 9 3 10 91 11 4 12 92 13
REMARK SMILES IDX 5 14 6 15 7 16 8 17 9 18 10 19 11 20 18 22 19 23 20 24 21 25
REMARK SMILES IDX 22 26 23 27 24 29 25 30 26 31 90 32 27 33 89 34 28 35 29 36
REMARK SMILES IDX 30 37 83 38 31 39 88 40 82 41 84 42 32 43 87 44 81 45 80 46
REMARK SMILES IDX 33 48 67 49 46 50 66 51 47 52 50 53 65 54 85 55 48 56 49 57
REMARK SMILES IDX 64 59 86 60 51 61 34 62 35 63 44 64 36 65 37 66 43 67 45 68
REMARK SMILES IDX 38 69 39 70 40 71 41 72 42 73 68 74 69 75 78 76 70 77 71 78
REMARK SMILES IDX 77 79 79 80 72 81 73 82 74 83 75 84 76 85 52 86 53 87 62 88
REMARK SMILES IDX 54 89 55 90 61 91 63 92 56 93 57 94 58 95 59 96 60 97
REMARK H PARENT 15 6 11 21 22 28 84 47 50 58
REMARK Flexibility Score: inf
ROOT
ATOM      1  C   UNL     1       2.984   5.361  -1.503  1.00  0.00     0.021 C 
ENDROOT
BRANCH   1   2
ATOM      2  C   UNL     1       1.849   4.366  -1.283  1.00  0.00     0.116 C 
BRANCH   2   3
ATOM      3  N   UNL     1       0.723   4.473  -2.191  1.00  0.00    -0.352 N 
ATOM      4  C   UNL     1      -0.210   3.545  -2.616  1.00  0.00     0.254 C 
ATOM      5  O   UNL     1      -1.244   3.999  -3.096  1.00  0.00    -0.269 OA
ATOM      6  H   UNL     1       0.601   5.370  -2.575  1.00  0.00     0.163 HD
BRANCH   4   7
ATOM      7  C   UNL     1      -0.030   2.071  -2.558  1.00  0.00     0.078 A 
ATOM      8  C   UNL     1       0.771  -0.805  -0.131  1.00  0.00     0.069 C 
ATOM      9  C   UNL     1       0.450   0.015  -1.347  1.00  0.00     0.064 A 
ATOM     10  N   UNL     1       0.345  -0.684  -2.483  1.00  0.00    -0.155 NA
ATOM     11  C   UNL     1       0.264   1.404  -1.329  1.00  0.00    -0.012 A 
ATOM     12  N   UNL     1      -0.048  -0.059  -3.627  1.00  0.00    -0.143 NA
ATOM     13  C   UNL     1       0.323   2.088   0.012  1.00  0.00     0.047 C 
ATOM     14  C   UNL     1      -0.295   1.277  -3.692  1.00  0.00     0.132 A 
BRANCH  14  15
ATOM     15  S   UNL     1      -1.172   1.514  -5.229  1.00  0.00    -0.101 SA
BRANCH  15  16
ATOM     16  C   UNL     1      -0.830   3.094  -6.090  1.00  0.00     0.052 C 
ATOM     17  C   UNL     1      -1.982   4.080  -5.878  1.00  0.00     0.020 C 
BRANCH  16  18
ATOM     18  C   UNL     1       0.587   3.672  -6.028  1.00  0.00     0.043 C 
BRANCH  18  19
ATOM     19  C   UNL     1       1.554   2.974  -6.989  1.00  0.00     0.157 C 
BRANCH  19  20
ATOM     20  O   UNL     1       1.252   3.307  -8.341  1.00  0.00    -0.396 OA
ATOM     21  H   UNL     1       0.350   3.018  -8.552  1.00  0.00     0.210 HD
ENDBRANCH  19  20
ENDBRANCH  18  19
ENDBRANCH  16  18
ENDBRANCH  15  16
ENDBRANCH  14  15
ENDBRANCH   4   7
ENDBRANCH   2   3
ENDBRANCH   1   2
BRANCH   1  22
ATOM     22  C   UNL     1       2.663   6.861  -1.500  1.00  0.00     0.002 C 
BRANCH  22  23
ATOM     23  C   UNL     1       1.790   7.440  -0.383  1.00  0.00     0.002 C 
BRANCH  23  24
ATOM     24  C   UNL     1       2.143   7.081   1.058  1.00  0.00     0.021 C 
BRANCH  24  25
ATOM     25  C   UNL     1       3.607   7.227   1.443  1.00  0.00     0.116 C 
BRANCH  25  26
ATOM     26  N   UNL     1       4.071   8.601   1.389  1.00  0.00    -0.352 N 
ATOM     27  C   UNL     1       4.582   9.369   2.414  1.00  0.00     0.251 C 
ATOM     28  H   UNL     1       4.014   9.040   0.510  1.00  0.00     0.163 HD
ATOM     29  O   UNL     1       4.806  10.554   2.262  1.00  0.00    -0.269 OA
BRANCH  27  30
ATOM     30  C   UNL     1       4.824   8.712   3.716  1.00  0.00     0.039 A 
ATOM     31  C   UNL     1       4.176   9.200   4.850  1.00  0.00     0.014 A 
ATOM     32  C   UNL     1       5.628   7.569   3.782  1.00  0.00     0.014 A 
ATOM     33  C   UNL     1       4.298   8.507   6.054  1.00  0.00     0.010 A 
ATOM     34  C   UNL     1       5.689   6.842   4.965  1.00  0.00     0.010 A 
ATOM     35  C   UNL     1       5.037   7.313   6.115  1.00  0.00    -0.014 A 
BRANCH  35  36
ATOM     36  C   UNL     1       5.181   6.584   7.397  1.00  0.00     0.031 A 
ATOM     37  C   UNL     1       6.520   6.548   8.078  1.00  0.00     0.074 A 
ATOM     38  C   UNL     1       4.118   5.960   7.941  1.00  0.00     0.049 A 
ATOM     39  N   UNL     1       6.845   6.018   9.227  1.00  0.00    -0.248 NA
ATOM     40  C   UNL     1       7.647   7.177   7.367  1.00  0.00     0.031 C 
ATOM     41  C   UNL     1       2.782   5.894   7.347  1.00  0.00     0.029 A 
ATOM     42  N   UNL     1       3.991   5.271   9.121  1.00  0.00    -0.354 N 
ATOM     43  C   UNL     1       8.202   6.266   9.384  1.00  0.00     0.074 A 
ATOM     44  C   UNL     1       8.660   6.919   8.180  1.00  0.00     0.031 C 
ATOM     45  C   UNL     1       1.962   5.234   8.183  1.00  0.00     0.029 A 
ATOM     46  C   UNL     1       2.717   4.813   9.361  1.00  0.00     0.049 A 
ATOM     47  H   UNL     1       4.743   5.119   9.739  1.00  0.00     0.167 HD
ATOM     48  C   UNL     1       8.988   6.011  10.456  1.00  0.00     0.037 A 
ATOM     49  C   UNL     1       2.214   4.144  10.418  1.00  0.00     0.037 A 
ATOM     50  C   UNL     1       8.521   5.372  11.655  1.00  0.00     0.049 A 
ATOM     51  C   UNL     1       3.118   3.831  11.581  1.00  0.00     0.074 A 
ATOM     52  C   UNL     1       9.225   5.102  12.813  1.00  0.00     0.029 A 
ATOM     53  N   UNL     1       7.231   4.900  11.848  1.00  0.00    -0.354 N 
ATOM     54  N   UNL     1       4.382   4.141  11.747  1.00  0.00    -0.248 NA
ATOM     55  C   UNL     1       2.531   3.085  12.704  1.00  0.00     0.031 C 
ATOM     56  C   UNL     1       8.375   4.421  13.689  1.00  0.00     0.029 A 
ATOM     57  C   UNL     1       7.126   4.314  13.097  1.00  0.00     0.049 A 
ATOM     58  H   UNL     1       6.498   4.972  11.194  1.00  0.00     0.167 HD
ATOM     59  C   UNL     1       4.734   3.651  13.000  1.00  0.00     0.074 A 
ATOM     60  C   UNL     1       3.548   3.032  13.554  1.00  0.00     0.031 C 
ATOM     61  C   UNL     1       5.931   3.709  13.633  1.00  0.00     0.037 A 
BRANCH  48  62
ATOM     62  C   UNL     1      10.424   6.446  10.386  1.00  0.00     0.058 A 
ATOM     63  C   UNL     1      10.776   7.805  10.426  1.00  0.00     0.135 A 
ATOM     64  C   UNL     1      11.460   5.501  10.325  1.00  0.00     0.135 A 
ATOM     65  F   UNL     1       9.824   8.751  10.464  1.00  0.00    -0.206 F 
ATOM     66  C   UNL     1      12.104   8.213  10.387  1.00  0.00     0.059 A 
ATOM     67  C   UNL     1      12.797   5.886  10.313  1.00  0.00     0.059 A 
ATOM     68  F   UNL     1      11.177   4.190  10.278  1.00  0.00    -0.206 F 
ATOM     69  C   UNL     1      13.108   7.245  10.335  1.00  0.00     0.060 A 
BRANCH  69  70
ATOM     70  S   UNL     1      14.827   7.795  10.304  1.00  0.00     0.124 S 
ATOM     71  O   UNL     1      14.915   8.398   8.977  1.00  0.00    -0.237 OA
ATOM     72  O   UNL     1      14.874   8.726  11.427  1.00  0.00    -0.237 OA
ATOM     73  O   UNL     1      15.584   6.561  10.482  1.00  0.00    -0.744 OA
ENDBRANCH  69  70
ENDBRANCH  48  62
BRANCH  49  74
ATOM     74  C   UNL     1       0.775   3.767  10.442  1.00  0.00     0.058 A 
ATOM     75  C   UNL     1      -0.122   4.401  11.314  1.00  0.00     0.135 A 
ATOM     76  C   UNL     1       0.262   2.786   9.578  1.00  0.00     0.135 A 
ATOM     77  F   UNL     1       0.320   5.340  12.164  1.00  0.00    -0.206 F 
ATOM     78  C   UNL     1      -1.474   4.073  11.337  1.00  0.00     0.059 A 
ATOM     79  C   UNL     1      -1.091   2.456   9.566  1.00  0.00     0.059 A 
ATOM     80  F   UNL     1       1.074   2.159   8.713  1.00  0.00    -0.206 F 
ATOM     81  C   UNL     1      -1.950   3.102  10.454  1.00  0.00     0.060 A 
BRANCH  81  82
ATOM     82  S   UNL     1      -3.717   2.727  10.453  1.00  0.00     0.124 S 
ATOM     83  O   UNL     1      -3.878   2.061  11.740  1.00  0.00    -0.237 OA
ATOM     84  O   UNL     1      -4.309   4.057  10.342  1.00  0.00    -0.237 OA
ATOM     85  O   UNL     1      -3.879   1.877   9.277  1.00  0.00    -0.744 OA
ENDBRANCH  81  82
ENDBRANCH  49  74
BRANCH  61  86
ATOM     86  C   UNL     1       6.036   3.100  15.003  1.00  0.00     0.058 A 
ATOM     87  C   UNL     1       6.092   1.710  15.180  1.00  0.00     0.135 A 
ATOM     88  C   UNL     1       6.212   3.916  16.133  1.00  0.00     0.135 A 
ATOM     89  F   UNL     1       5.922   0.887  14.133  1.00  0.00    -0.206 F 
ATOM     90  C   UNL     1       6.325   1.148  16.430  1.00  0.00     0.059 A 
ATOM     91  C   UNL     1       6.473   3.376  17.388  1.00  0.00     0.059 A 
ATOM     92  F   UNL     1       6.177   5.253  16.014  1.00  0.00    -0.206 F 
ATOM     93  C   UNL     1       6.529   1.990  17.526  1.00  0.00     0.060 A 
BRANCH  93  94
ATOM     94  S   UNL     1       6.918   1.243  19.123  1.00  0.00     0.124 S 
ATOM     95  O   UNL     1       5.648   0.617  19.473  1.00  0.00    -0.237 OA
ATOM     96  O   UNL     1       8.003   0.329  18.779  1.00  0.00    -0.237 OA
ATOM     97  O   UNL     1       7.305   2.384  19.948  1.00  0.00    -0.744 OA
ENDBRANCH  93  94
ENDBRANCH  61  86
ENDBRANCH  35  36
ENDBRANCH  27  30
ENDBRANCH  25  26
ENDBRANCH  24  25
ENDBRANCH  23  24
ENDBRANCH  22  23
ENDBRANCH   1  22
TORSDOF 21
