REMARK SMILES CCc1ccc(N2C(=O)C[C@@H](SC[C@@H](NC(C)=O)C(=O)NCCCCCCNC(=O)c3ccc(-c4c5nc(c(-c6c(F)cc(S(=O)(=O)[O-])cc6F)c6ccc([nH]6)c(-c6c(F)cc(S(=O)(=O)[O-])cc6F)c6nc(c(-c7c(F)cc(S(=O)(=O)[O-])cc7F)c7ccc4[nH]7)C=C6)C=C5)cc3)C2=O)cc1
REMARK SMILES IDX 23 1 22 2 21 3 19 4 20 5 14 7 13 8 12 9 11 10 7 11 8 12
REMARK SMILES IDX 97 13 9 14 10 15 98 16 6 17 3 18 4 19 100 20 5 21 99 22 2 23
REMARK SMILES IDX 1 24 15 25 16 26 17 28 18 29 24 30 25 31 26 32 27 33 28 34
REMARK SMILES IDX 29 35 30 37 31 38 32 39 96 40 33 41 95 42 34 43 35 44 36 45
REMARK SMILES IDX 89 46 37 47 94 48 88 49 90 50 38 51 93 52 87 53 86 54 39 56
REMARK SMILES IDX 73 57 52 58 72 59 53 60 56 61 71 62 91 63 54 64 55 65 70 67
REMARK SMILES IDX 92 68 57 69 40 70 41 71 50 72 42 73 43 74 49 75 51 76 44 77
REMARK SMILES IDX 45 78 46 79 47 80 48 81 74 82 75 83 84 84 76 85 77 86 83 87
REMARK SMILES IDX 85 88 78 89 79 90 80 91 81 92 82 93 58 94 59 95 68 96 60 97
REMARK SMILES IDX 61 98 67 99 69 100 62 101 63 102 64 103 65 104 66 105
REMARK H PARENT 21 6 15 27 28 36 90 55 56 66
REMARK Flexibility Score: inf
ROOT
ATOM      1  C   UNL     1       7.963  -6.669   9.223  1.00  0.00     0.021 C 
ENDROOT
BRANCH   1   2
ATOM      2  C   UNL     1       7.492  -6.156   7.871  1.00  0.00     0.116 C 
BRANCH   2   3
ATOM      3  N   UNL     1       7.187  -7.271   6.997  1.00  0.00    -0.354 N 
ATOM      4  C   UNL     1       6.113  -7.459   6.177  1.00  0.00     0.243 C 
ATOM      5  O   UNL     1       5.954  -8.579   5.681  1.00  0.00    -0.273 OA
ATOM      6  H   UNL     1       7.850  -7.998   6.995  1.00  0.00     0.163 HD
BRANCH   4   7
ATOM      7  C   UNL     1       5.028  -6.371   6.052  1.00  0.00     0.181 C 
BRANCH   7   8
ATOM      8  C   UNL     1       4.145  -6.496   7.330  1.00  0.00     0.105 C 
BRANCH   8   9
ATOM      9  S   UNL     1       2.458  -5.739   7.435  1.00  0.00    -0.145 SA
BRANCH   9  10
ATOM     10  C   UNL     1       2.827  -3.951   7.317  1.00  0.00     0.146 C 
ATOM     11  N   UNL     1       1.643  -2.724   5.698  1.00  0.00    -0.250 N 
ATOM     12  C   UNL     1       1.183  -2.246   6.891  1.00  0.00     0.235 C 
ATOM     13  C   UNL     1       2.689  -3.576   5.870  1.00  0.00     0.247 C 
ATOM     14  O   UNL     1       0.380  -1.342   7.085  1.00  0.00    -0.274 OA
ATOM     15  C   UNL     1       1.836  -3.024   8.007  1.00  0.00     0.125 C 
ATOM     16  O   UNL     1       3.475  -3.950   5.008  1.00  0.00    -0.273 OA
BRANCH  11  17
ATOM     17  C   UNL     1       1.274  -2.304   4.406  1.00  0.00     0.052 A 
ATOM     18  C   UNL     1       0.818  -1.538   1.731  1.00  0.00    -0.048 A 
ATOM     19  C   UNL     1       0.920  -2.891   2.074  1.00  0.00     0.006 A 
ATOM     20  C   UNL     1       0.901  -0.580   2.754  1.00  0.00     0.006 A 
ATOM     21  C   UNL     1       1.166  -3.267   3.391  1.00  0.00     0.027 A 
ATOM     22  C   UNL     1       1.107  -0.959   4.088  1.00  0.00     0.027 A 
BRANCH  18  23
ATOM     23  C   UNL     1       0.558  -1.192   0.285  1.00  0.00     0.032 C 
ATOM     24  C   UNL     1       1.091   0.154  -0.184  1.00  0.00     0.009 C 
ENDBRANCH  18  23
ENDBRANCH  11  17
ENDBRANCH   9  10
ENDBRANCH   8   9
ENDBRANCH   7   8
BRANCH   7  25
ATOM     25  N   UNL     1       5.620  -5.038   5.867  1.00  0.00    -0.344 N 
ATOM     26  C   UNL     1       6.595  -4.753   4.935  1.00  0.00     0.217 C 
ATOM     27  H   UNL     1       5.301  -4.305   6.443  1.00  0.00     0.164 HD
ATOM     28  C   UNL     1       6.886  -3.275   4.818  1.00  0.00     0.114 C 
ATOM     29  O   UNL     1       7.231  -5.595   4.315  1.00  0.00    -0.275 OA
ENDBRANCH   7  25
ENDBRANCH   4   7
ENDBRANCH   2   3
ENDBRANCH   1   2
BRANCH   1  30
ATOM     30  C   UNL     1       9.369  -7.270   9.171  1.00  0.00     0.002 C 
BRANCH  30  31
ATOM     31  C   UNL     1      10.448  -6.295   8.687  1.00  0.00     0.002 C 
BRANCH  31  32
ATOM     32  C   UNL     1      10.510  -4.980   9.467  1.00  0.00     0.021 C 
BRANCH  32  33
ATOM     33  C   UNL     1      10.677  -5.162  10.970  1.00  0.00     0.116 C 
BRANCH  33  34
ATOM     34  N   UNL     1      11.889  -5.898  11.289  1.00  0.00    -0.352 N 
ATOM     35  C   UNL     1      12.878  -5.578  12.181  1.00  0.00     0.251 C 
ATOM     36  H   UNL     1      12.016  -6.741  10.797  1.00  0.00     0.163 HD
ATOM     37  O   UNL     1      13.941  -6.190  12.169  1.00  0.00    -0.269 OA
BRANCH  35  38
ATOM     38  C   UNL     1      12.652  -4.483  13.145  1.00  0.00     0.039 A 
ATOM     39  C   UNL     1      13.669  -3.553  13.362  1.00  0.00     0.014 A 
ATOM     40  C   UNL     1      11.437  -4.380  13.830  1.00  0.00     0.014 A 
ATOM     41  C   UNL     1      13.454  -2.496  14.246  1.00  0.00     0.010 A 
ATOM     42  C   UNL     1      11.195  -3.280  14.644  1.00  0.00     0.010 A 
ATOM     43  C   UNL     1      12.209  -2.339  14.877  1.00  0.00    -0.014 A 
BRANCH  43  44
ATOM     44  C   UNL     1      11.962  -1.212  15.810  1.00  0.00     0.031 A 
ATOM     45  C   UNL     1      11.662  -1.488  17.259  1.00  0.00     0.074 A 
ATOM     46  C   UNL     1      11.962   0.052  15.344  1.00  0.00     0.049 A 
ATOM     47  N   UNL     1      11.384  -0.645  18.220  1.00  0.00    -0.248 NA
ATOM     48  C   UNL     1      11.640  -2.900  17.676  1.00  0.00     0.031 C 
ATOM     49  C   UNL     1      12.188   0.439  13.950  1.00  0.00     0.029 A 
ATOM     50  N   UNL     1      11.760   1.244  15.991  1.00  0.00    -0.354 N 
ATOM     51  C   UNL     1      11.142  -1.423  19.347  1.00  0.00     0.074 A 
ATOM     52  C   UNL     1      11.241  -2.805  18.936  1.00  0.00     0.031 C 
ATOM     53  C   UNL     1      12.140   1.776  13.852  1.00  0.00     0.029 A 
ATOM     54  C   UNL     1      11.842   2.340  15.165  1.00  0.00     0.049 A 
ATOM     55  H   UNL     1      11.573   1.309  16.955  1.00  0.00     0.167 HD
ATOM     56  C   UNL     1      10.888  -1.020  20.615  1.00  0.00     0.037 A 
ATOM     57  C   UNL     1      11.691   3.651  15.435  1.00  0.00     0.037 A 
ATOM     58  C   UNL     1      10.812   0.360  21.017  1.00  0.00     0.049 A 
ATOM     59  C   UNL     1      11.413   4.077  16.851  1.00  0.00     0.074 A 
ATOM     60  C   UNL     1      10.619   0.878  22.285  1.00  0.00     0.029 A 
ATOM     61  N   UNL     1      10.921   1.444  20.155  1.00  0.00    -0.354 N 
ATOM     62  N   UNL     1      11.255   3.332  17.920  1.00  0.00    -0.248 NA
ATOM     63  C   UNL     1      11.305   5.520  17.101  1.00  0.00     0.031 C 
ATOM     64  C   UNL     1      10.554   2.271  22.182  1.00  0.00     0.029 A 
ATOM     65  C   UNL     1      10.773   2.627  20.860  1.00  0.00     0.049 A 
ATOM     66  H   UNL     1      11.080   1.380  19.186  1.00  0.00     0.167 HD
ATOM     67  C   UNL     1      11.060   4.217  18.975  1.00  0.00     0.074 A 
ATOM     68  C   UNL     1      11.131   5.552  18.415  1.00  0.00     0.031 C 
ATOM     69  C   UNL     1      10.848   3.949  20.288  1.00  0.00     0.037 A 
BRANCH  56  70
ATOM     70  C   UNL     1      10.665  -2.088  21.653  1.00  0.00     0.058 A 
ATOM     71  C   UNL     1      11.698  -2.945  22.070  1.00  0.00     0.135 A 
ATOM     72  C   UNL     1       9.404  -2.251  22.250  1.00  0.00     0.135 A 
ATOM     73  F   UNL     1      12.921  -2.847  21.525  1.00  0.00    -0.206 F 
ATOM     74  C   UNL     1      11.478  -3.950  23.008  1.00  0.00     0.059 A 
ATOM     75  C   UNL     1       9.171  -3.226  23.215  1.00  0.00     0.059 A 
ATOM     76  F   UNL     1       8.380  -1.461  21.892  1.00  0.00    -0.206 F 
ATOM     77  C   UNL     1      10.209  -4.084  23.573  1.00  0.00     0.060 A 
BRANCH  77  78
ATOM     78  S   UNL     1       9.937  -5.400  24.777  1.00  0.00     0.124 S 
ATOM     79  O   UNL     1       9.960  -6.584  23.923  1.00  0.00    -0.237 OA
ATOM     80  O   UNL     1      11.079  -5.244  25.673  1.00  0.00    -0.237 OA
ATOM     81  O   UNL     1       8.639  -5.069  25.356  1.00  0.00    -0.744 OA
ENDBRANCH  77  78
ENDBRANCH  56  70
BRANCH  57  82
ATOM     82  C   UNL     1      11.829   4.650  14.342  1.00  0.00     0.058 A 
ATOM     83  C   UNL     1      12.934   5.513  14.285  1.00  0.00     0.135 A 
ATOM     84  C   UNL     1      10.878   4.738  13.313  1.00  0.00     0.135 A 
ATOM     85  F   UNL     1      13.868   5.471  15.247  1.00  0.00    -0.206 F 
ATOM     86  C   UNL     1      13.086   6.435  13.254  1.00  0.00     0.059 A 
ATOM     87  C   UNL     1      11.022   5.633  12.258  1.00  0.00     0.059 A 
ATOM     88  F   UNL     1       9.812   3.922  13.311  1.00  0.00    -0.206 F 
ATOM     89  C   UNL     1      12.127   6.482  12.241  1.00  0.00     0.060 A 
BRANCH  89  90
ATOM     90  S   UNL     1      12.369   7.637  10.874  1.00  0.00     0.124 S 
ATOM     91  O   UNL     1      12.115   8.918  11.522  1.00  0.00    -0.237 OA
ATOM     92  O   UNL     1      13.754   7.375  10.495  1.00  0.00    -0.237 OA
ATOM     93  O   UNL     1      11.369   7.214   9.897  1.00  0.00    -0.744 OA
ENDBRANCH  89  90
ENDBRANCH  57  82
BRANCH  69  94
ATOM     94  C   UNL     1      10.716   5.122  21.222  1.00  0.00     0.058 A 
ATOM     95  C   UNL     1       9.590   5.960  21.210  1.00  0.00     0.135 A 
ATOM     96  C   UNL     1      11.716   5.382  22.175  1.00  0.00     0.135 A 
ATOM     97  F   UNL     1       8.607   5.760  20.318  1.00  0.00    -0.206 F 
ATOM     98  C   UNL     1       9.474   7.033  22.089  1.00  0.00     0.059 A 
ATOM     99  C   UNL     1      11.605   6.429  23.085  1.00  0.00     0.059 A 
ATOM    100  F   UNL     1      12.808   4.605  22.239  1.00  0.00    -0.206 F 
ATOM    101  C   UNL     1      10.486   7.258  23.024  1.00  0.00     0.060 A 
BRANCH 101 102
ATOM    102  S   UNL     1      10.312   8.639  24.172  1.00  0.00     0.124 S 
ATOM    103  O   UNL     1      10.547   9.782  23.296  1.00  0.00    -0.237 OA
ATOM    104  O   UNL     1       8.941   8.477  24.649  1.00  0.00    -0.237 OA
ATOM    105  O   UNL     1      11.349   8.387  25.168  1.00  0.00    -0.744 OA
ENDBRANCH 101 102
ENDBRANCH  69  94
ENDBRANCH  43  44
ENDBRANCH  35  38
ENDBRANCH  33  34
ENDBRANCH  32  33
ENDBRANCH  31  32
ENDBRANCH  30  31
ENDBRANCH   1  30
TORSDOF 22
