REMARK SMILES C#CC[N@@H+](CC(=O)NCCCCCCNC(=O)c1ccc(-c2c3nc(c(-c4c(F)cc(S(=O)(=O)[O-])cc4F)c4ccc([nH]4)c(-c4c(F)cc(S(=O)(=O)[O-])cc4F)c4nc(c(-c5c(F)cc(S(=O)(=O)[O-])cc5F)c5ccc2[nH]5)C=C4)C=C3)cc1)[C@H]1CC[C@@H](c2ccccc2)CC1
REMARK SMILES IDX 11 1 10 2 9 3 8 4 6 5 7 6 5 8 4 9 3 11 2 12 1 13 84 14 95 15
REMARK SMILES IDX 85 16 94 17 86 18 87 19 88 20 89 21 93 22 90 23 92 24 91 25
REMARK SMILES IDX 12 26 13 27 14 28 15 29 16 30 17 32 18 33 19 34 83 35 20 36
REMARK SMILES IDX 82 37 21 38 22 39 23 40 76 41 24 42 81 43 75 44 77 45 25 46
REMARK SMILES IDX 80 47 74 48 73 49 26 51 60 52 39 53 59 54 40 55 43 56 58 57
REMARK SMILES IDX 78 58 41 59 42 60 57 62 79 63 44 64 27 65 28 66 37 67 29 68
REMARK SMILES IDX 30 69 36 70 38 71 31 72 32 73 33 74 34 75 35 76 61 77 62 78
REMARK SMILES IDX 71 79 63 80 64 81 70 82 72 83 65 84 66 85 67 86 68 87 69 88
REMARK SMILES IDX 45 89 46 90 55 91 47 92 48 93 54 94 56 95 49 96 50 97 51 98
REMARK SMILES IDX 52 99 53 100
REMARK H PARENT 8 7 4 10 15 31 77 50 43 61
REMARK Flexibility Score: inf
ROOT
ATOM      1  C   UNL     1      -3.324  -0.533  -4.665  1.00  0.00     0.002 C 
ENDROOT
BRANCH   1   2
ATOM      2  C   UNL     1      -3.018  -0.289  -3.191  1.00  0.00     0.021 C 
BRANCH   2   3
ATOM      3  C   UNL     1      -4.194   0.194  -2.326  1.00  0.00     0.116 C 
BRANCH   3   4
ATOM      4  N   UNL     1      -4.819  -0.915  -1.629  1.00  0.00    -0.351 N 
ATOM      5  C   UNL     1      -4.821  -1.319  -0.328  1.00  0.00     0.275 C 
ATOM      6  O   UNL     1      -5.571  -2.272  -0.075  1.00  0.00    -0.269 OA
ATOM      7  H   UNL     1      -5.353  -1.496  -2.218  1.00  0.00     0.163 HD
BRANCH   5   8
ATOM      8  C   UNL     1      -4.041  -0.628   0.810  1.00  0.00     0.364 C 
BRANCH   8   9
ATOM      9  N   UNL     1      -2.573  -0.816   0.883  1.00  0.00    -0.315 N 
ATOM     10  H   UNL     1      -2.367  -0.501   1.831  1.00  0.00     0.349 HD
BRANCH   9  11
ATOM     11  C   UNL     1      -1.890   0.038  -0.065  1.00  0.00     0.354 C 
BRANCH  11  12
ATOM     12  C   UNL     1      -0.370   0.038  -0.065  1.00  0.00    -0.047 C 
ATOM     13  C   UNL     1       0.934   0.038  -0.065  1.00  0.00     0.010 C 
ENDBRANCH  11  12
ENDBRANCH   9  11
BRANCH   9  14
ATOM     14  C   UNL     1      -2.000  -2.162   1.041  1.00  0.00     0.185 C 
ATOM     15  C   UNL     1      -1.413  -2.251   2.465  1.00  0.00     0.066 C 
ATOM     16  C   UNL     1      -2.890  -3.375   0.745  1.00  0.00     0.066 C 
ATOM     17  C   UNL     1      -0.752  -3.608   2.746  1.00  0.00     0.014 C 
ATOM     18  C   UNL     1      -2.144  -4.687   0.996  1.00  0.00     0.014 C 
ATOM     19  C   UNL     1      -1.679  -4.810   2.463  1.00  0.00     0.019 C 
BRANCH  19  20
ATOM     20  C   UNL     1      -2.838  -5.014   3.443  1.00  0.00    -0.045 A 
ATOM     21  C   UNL     1      -2.937  -4.322   4.660  1.00  0.00     0.004 A 
ATOM     22  C   UNL     1      -3.849  -5.949   3.151  1.00  0.00     0.004 A 
ATOM     23  C   UNL     1      -4.034  -4.498   5.510  1.00  0.00     0.000 A 
ATOM     24  C   UNL     1      -4.947  -6.125   3.996  1.00  0.00     0.000 A 
ATOM     25  C   UNL     1      -5.045  -5.391   5.172  1.00  0.00     0.000 A 
ENDBRANCH  19  20
ENDBRANCH   9  14
ENDBRANCH   8   9
ENDBRANCH   5   8
ENDBRANCH   3   4
ENDBRANCH   2   3
ENDBRANCH   1   2
BRANCH   1  26
ATOM     26  C   UNL     1      -3.669   0.718  -5.474  1.00  0.00     0.002 C 
BRANCH  26  27
ATOM     27  C   UNL     1      -2.676   1.882  -5.367  1.00  0.00     0.021 C 
BRANCH  27  28
ATOM     28  C   UNL     1      -1.216   1.534  -5.659  1.00  0.00     0.116 C 
BRANCH  28  29
ATOM     29  N   UNL     1      -1.045   0.965  -6.984  1.00  0.00    -0.352 N 
ATOM     30  C   UNL     1      -0.446   1.498  -8.097  1.00  0.00     0.251 C 
ATOM     31  H   UNL     1      -1.414   0.060  -7.101  1.00  0.00     0.163 HD
ATOM     32  O   UNL     1      -0.610   0.968  -9.191  1.00  0.00    -0.269 OA
BRANCH  30  33
ATOM     33  C   UNL     1       0.390   2.712  -7.981  1.00  0.00     0.039 A 
ATOM     34  C   UNL     1       0.221   3.742  -8.910  1.00  0.00     0.014 A 
ATOM     35  C   UNL     1       1.366   2.816  -6.985  1.00  0.00     0.014 A 
ATOM     36  C   UNL     1       0.999   4.898  -8.812  1.00  0.00     0.010 A 
ATOM     37  C   UNL     1       2.099   3.993  -6.852  1.00  0.00     0.010 A 
ATOM     38  C   UNL     1       1.928   5.042  -7.769  1.00  0.00    -0.014 A 
BRANCH  38  39
ATOM     39  C   UNL     1       2.743   6.276  -7.631  1.00  0.00     0.031 A 
ATOM     40  C   UNL     1       4.235   6.218  -7.818  1.00  0.00     0.074 A 
ATOM     41  C   UNL     1       2.147   7.433  -7.282  1.00  0.00     0.049 A 
ATOM     42  N   UNL     1       5.124   7.166  -7.670  1.00  0.00    -0.248 NA
ATOM     43  C   UNL     1       4.805   4.915  -8.196  1.00  0.00     0.031 C 
ATOM     44  C   UNL     1       0.715   7.605  -7.032  1.00  0.00     0.029 A 
ATOM     45  N   UNL     1       2.674   8.681  -7.066  1.00  0.00    -0.354 N 
ATOM     46  C   UNL     1       6.356   6.574  -7.921  1.00  0.00     0.074 A 
ATOM     47  C   UNL     1       6.105   5.173  -8.184  1.00  0.00     0.031 C 
ATOM     48  C   UNL     1       0.475   8.887  -6.712  1.00  0.00     0.029 A 
ATOM     49  C   UNL     1       1.737   9.620  -6.704  1.00  0.00     0.049 A 
ATOM     50  H   UNL     1       3.632   8.886  -7.161  1.00  0.00     0.167 HD
ATOM     51  C   UNL     1       7.582   7.149  -7.952  1.00  0.00     0.037 A 
ATOM     52  C   UNL     1       1.880  10.924  -6.395  1.00  0.00     0.037 A 
ATOM     53  C   UNL     1       7.821   8.549  -7.717  1.00  0.00     0.049 A 
ATOM     54  C   UNL     1       3.250  11.543  -6.445  1.00  0.00     0.074 A 
ATOM     55  C   UNL     1       9.018   9.241  -7.778  1.00  0.00     0.029 A 
ATOM     56  N   UNL     1       6.843   9.474  -7.381  1.00  0.00    -0.354 N 
ATOM     57  N   UNL     1       4.398  10.979  -6.737  1.00  0.00    -0.248 NA
ATOM     58  C   UNL     1       3.345  12.975  -6.131  1.00  0.00     0.031 C 
ATOM     59  C   UNL     1       8.769  10.577  -7.446  1.00  0.00     0.029 A 
ATOM     60  C   UNL     1       7.410  10.726  -7.217  1.00  0.00     0.049 A 
ATOM     61  H   UNL     1       5.886   9.269  -7.274  1.00  0.00     0.167 HD
ATOM     62  C   UNL     1       5.348  11.992  -6.666  1.00  0.00     0.074 A 
ATOM     63  C   UNL     1       4.638  13.205  -6.315  1.00  0.00     0.031 C 
ATOM     64  C   UNL     1       6.686  11.925  -6.874  1.00  0.00     0.037 A 
BRANCH  51  65
ATOM     65  C   UNL     1       8.758   6.263  -8.257  1.00  0.00     0.058 A 
ATOM     66  C   UNL     1       8.969   5.739  -9.542  1.00  0.00     0.135 A 
ATOM     67  C   UNL     1       9.700   5.954  -7.262  1.00  0.00     0.135 A 
ATOM     68  F   UNL     1       8.092   5.991 -10.527  1.00  0.00    -0.206 F 
ATOM     69  C   UNL     1      10.054   4.915  -9.823  1.00  0.00     0.059 A 
ATOM     70  C   UNL     1      10.807   5.153  -7.527  1.00  0.00     0.059 A 
ATOM     71  F   UNL     1       9.547   6.428  -6.015  1.00  0.00    -0.206 F 
ATOM     72  C   UNL     1      10.966   4.625  -8.807  1.00  0.00     0.060 A 
BRANCH  72  73
ATOM     73  S   UNL     1      12.368   3.552  -9.186  1.00  0.00     0.124 S 
ATOM     74  O   UNL     1      11.724   2.243  -9.241  1.00  0.00    -0.237 OA
ATOM     75  O   UNL     1      12.833   4.082 -10.464  1.00  0.00    -0.237 OA
ATOM     76  O   UNL     1      13.270   3.761  -8.059  1.00  0.00    -0.744 OA
ENDBRANCH  72  73
ENDBRANCH  51  65
BRANCH  52  77
ATOM     77  C   UNL     1       0.688  11.736  -6.036  1.00  0.00     0.058 A 
ATOM     78  C   UNL     1       0.184  12.702  -6.920  1.00  0.00     0.135 A 
ATOM     79  C   UNL     1       0.021  11.554  -4.815  1.00  0.00     0.135 A 
ATOM     80  F   UNL     1       0.792  12.916  -8.096  1.00  0.00    -0.206 F 
ATOM     81  C   UNL     1      -0.931  13.470  -6.601  1.00  0.00     0.059 A 
ATOM     82  C   UNL     1      -1.109  12.294  -4.483  1.00  0.00     0.059 A 
ATOM     83  F   UNL     1       0.454  10.630  -3.943  1.00  0.00    -0.206 F 
ATOM     84  C   UNL     1      -1.572  13.257  -5.379  1.00  0.00     0.060 A 
BRANCH  84  85
ATOM     85  S   UNL     1      -3.050  14.222  -4.996  1.00  0.00     0.124 S 
ATOM     86  O   UNL     1      -2.475  15.519  -4.661  1.00  0.00    -0.237 OA
ATOM     87  O   UNL     1      -3.794  14.157  -6.250  1.00  0.00    -0.237 OA
ATOM     88  O   UNL     1      -3.648  13.488  -3.884  1.00  0.00    -0.744 OA
ENDBRANCH  84  85
ENDBRANCH  52  77
BRANCH  64  89
ATOM     89  C   UNL     1       7.467  13.203  -6.758  1.00  0.00     0.058 A 
ATOM     90  C   UNL     1       7.748  13.782  -5.511  1.00  0.00     0.135 A 
ATOM     91  C   UNL     1       7.984  13.826  -7.905  1.00  0.00     0.135 A 
ATOM     92  F   UNL     1       7.271  13.228  -4.386  1.00  0.00    -0.206 F 
ATOM     93  C   UNL     1       8.499  14.948  -5.407  1.00  0.00     0.059 A 
ATOM     94  C   UNL     1       8.757  14.979  -7.822  1.00  0.00     0.059 A 
ATOM     95  F   UNL     1       7.751  13.306  -9.121  1.00  0.00    -0.206 F 
ATOM     96  C   UNL     1       9.000  15.539  -6.568  1.00  0.00     0.060 A 
BRANCH  96  97
ATOM     97  S   UNL     1      10.003  17.033  -6.418  1.00  0.00     0.124 S 
ATOM     98  O   UNL     1       8.986  18.044  -6.153  1.00  0.00    -0.237 OA
ATOM     99  O   UNL     1      10.882  16.709  -5.298  1.00  0.00    -0.237 OA
ATOM    100  O   UNL     1      10.663  17.130  -7.716  1.00  0.00    -0.744 OA
ENDBRANCH  96  97
ENDBRANCH  64  89
ENDBRANCH  38  39
ENDBRANCH  30  33
ENDBRANCH  28  29
ENDBRANCH  27  28
ENDBRANCH  26  27
ENDBRANCH   1  26
TORSDOF 21
