REMARK SMILES Cc1csc(C[C@@H](Cc2ccc(Br)cc2)C(=O)NCCCCCCNC(=O)c2ccc(-c3c4nc(c(-c5c(F)cc(S(=O)(=O)[O-])cc5F)c5ccc([nH]5)c(-c5c(F)cc(S(=O)(=O)[O-])cc5F)c5nc(c(-c6c(F)cc(S(=O)(=O)[O-])cc6F)c6ccc3[nH]6)C=C5)C=C4)cc2)n1
REMARK SMILES IDX 22 1 21 2 20 3 19 4 18 5 16 6 17 7 7 9 6 10 5 11 1 12 2 13
REMARK SMILES IDX 3 14 94 15 4 16 8 17 9 18 10 19 15 20 11 21 14 22 12 23
REMARK SMILES IDX 13 24 23 25 24 26 25 27 26 28 27 30 28 31 29 32 93 33 30 34
REMARK SMILES IDX 92 35 31 36 32 37 33 38 86 39 34 40 91 41 85 42 87 43 35 44
REMARK SMILES IDX 90 45 84 46 83 47 36 49 70 50 49 51 69 52 50 53 53 54 68 55
REMARK SMILES IDX 88 56 51 57 52 58 67 60 89 61 54 62 37 63 38 64 47 65 39 66
REMARK SMILES IDX 40 67 46 68 48 69 41 70 42 71 43 72 44 73 45 74 71 75 72 76
REMARK SMILES IDX 81 77 73 78 74 79 80 80 82 81 75 82 76 83 77 84 78 85 79 86
REMARK SMILES IDX 55 87 56 88 65 89 57 90 58 91 64 92 66 93 59 94 60 95 61 96
REMARK SMILES IDX 62 97 63 98
REMARK H PARENT 18 8 25 29 87 48 53 59
REMARK Flexibility Score: inf
ROOT
ATOM      1  C   UNL     1       1.841   8.037   2.573  1.00  0.00     0.002 C 
ENDROOT
BRANCH   1   2
ATOM      2  C   UNL     1       2.946   6.973   2.530  1.00  0.00     0.002 C 
BRANCH   2   3
ATOM      3  C   UNL     1       2.483   5.523   2.366  1.00  0.00     0.021 C 
BRANCH   3   4
ATOM      4  C   UNL     1       1.528   5.283   1.204  1.00  0.00     0.116 C 
BRANCH   4   5
ATOM      5  N   UNL     1       2.182   5.205  -0.085  1.00  0.00    -0.356 N 
ATOM      6  C   UNL     1       1.887   4.453  -1.180  1.00  0.00     0.223 C 
ATOM      7  O   UNL     1       2.470   4.747  -2.230  1.00  0.00    -0.275 OA
ATOM      8  H   UNL     1       2.967   5.791  -0.186  1.00  0.00     0.163 HD
BRANCH   6   9
ATOM      9  C   UNL     1       0.910   3.276  -1.162  1.00  0.00     0.089 C 
BRANCH   9  10
ATOM     10  C   UNL     1       1.334   2.209  -0.143  1.00  0.00     0.081 C 
BRANCH  10  11
ATOM     11  C   UNL     1       0.591   0.911  -0.248  1.00  0.00     0.094 A 
ATOM     12  C   UNL     1      -2.570  -0.787  -0.066  1.00  0.00     0.067 C 
ATOM     13  C   UNL     1      -1.116  -0.504  -0.156  1.00  0.00     0.048 A 
ATOM     14  C   UNL     1      -0.077  -1.413  -0.149  1.00  0.00     0.090 A 
ATOM     15  N   UNL     1      -0.719   0.815  -0.231  1.00  0.00    -0.247 NA
ATOM     16  S   UNL     1       1.426  -0.591  -0.238  1.00  0.00    -0.127 S 
ENDBRANCH  10  11
ENDBRANCH   9  10
BRANCH   9  17
ATOM     17  C   UNL     1      -0.569   3.714  -1.275  1.00  0.00     0.049 C 
BRANCH  17  18
ATOM     18  C   UNL     1      -1.250   4.425  -0.130  1.00  0.00    -0.047 A 
ATOM     19  C   UNL     1      -1.649   3.739   1.026  1.00  0.00     0.005 A 
ATOM     20  C   UNL     1      -1.534   5.798  -0.223  1.00  0.00     0.005 A 
ATOM     21  C   UNL     1      -2.263   4.412   2.085  1.00  0.00     0.016 A 
ATOM     22  C   UNL     1      -2.154   6.474   0.832  1.00  0.00     0.016 A 
ATOM     23  C   UNL     1      -2.506   5.779   1.986  1.00  0.00     0.017 A 
ATOM     24  Br  UNL     1      -3.301   6.698   3.433  1.00  0.00    -0.051 Br
ENDBRANCH  17  18
ENDBRANCH   9  17
ENDBRANCH   6   9
ENDBRANCH   4   5
ENDBRANCH   3   4
ENDBRANCH   2   3
ENDBRANCH   1   2
BRANCH   1  25
ATOM     25  C   UNL     1       0.667   7.763   3.518  1.00  0.00     0.021 C 
BRANCH  25  26
ATOM     26  C   UNL     1       1.026   7.578   4.988  1.00  0.00     0.116 C 
BRANCH  26  27
ATOM     27  N   UNL     1       1.639   8.761   5.562  1.00  0.00    -0.352 N 
ATOM     28  C   UNL     1       1.360   9.420   6.732  1.00  0.00     0.251 C 
ATOM     29  H   UNL     1       2.369   9.151   5.028  1.00  0.00     0.163 HD
ATOM     30  O   UNL     1       1.900  10.502   6.949  1.00  0.00    -0.269 OA
BRANCH  28  31
ATOM     31  C   UNL     1       0.412   8.857   7.725  1.00  0.00     0.039 A 
ATOM     32  C   UNL     1      -0.433   9.738   8.409  1.00  0.00     0.014 A 
ATOM     33  C   UNL     1       0.387   7.495   8.037  1.00  0.00     0.014 A 
ATOM     34  C   UNL     1      -1.319   9.253   9.375  1.00  0.00     0.010 A 
ATOM     35  C   UNL     1      -0.544   7.002   8.954  1.00  0.00     0.010 A 
ATOM     36  C   UNL     1      -1.393   7.878   9.646  1.00  0.00    -0.014 A 
BRANCH  36  37
ATOM     37  C   UNL     1      -2.329   7.351  10.675  1.00  0.00     0.031 A 
ATOM     38  C   UNL     1      -1.794   6.710  11.928  1.00  0.00     0.074 A 
ATOM     39  C   UNL     1      -3.659   7.420  10.470  1.00  0.00     0.049 A 
ATOM     40  N   UNL     1      -2.447   6.164  12.923  1.00  0.00    -0.248 NA
ATOM     41  C   UNL     1      -0.330   6.652  12.071  1.00  0.00     0.031 C 
ATOM     42  C   UNL     1      -4.303   7.978   9.279  1.00  0.00     0.029 A 
ATOM     43  N   UNL     1      -4.709   7.013  11.255  1.00  0.00    -0.354 N 
ATOM     44  C   UNL     1      -1.478   5.686  13.798  1.00  0.00     0.074 A 
ATOM     45  C   UNL     1      -0.193   5.962  13.194  1.00  0.00     0.031 C 
ATOM     46  C   UNL     1      -5.636   7.902   9.424  1.00  0.00     0.029 A 
ATOM     47  C   UNL     1      -5.942   7.264  10.702  1.00  0.00     0.049 A 
ATOM     48  H   UNL     1      -4.590   6.583  12.133  1.00  0.00     0.167 HD
ATOM     49  C   UNL     1      -1.642   5.094  15.006  1.00  0.00     0.037 A 
ATOM     50  C   UNL     1      -7.179   7.012  11.171  1.00  0.00     0.037 A 
ATOM     51  C   UNL     1      -2.922   4.848  15.619  1.00  0.00     0.049 A 
ATOM     52  C   UNL     1      -7.337   6.372  12.523  1.00  0.00     0.074 A 
ATOM     53  C   UNL     1      -3.192   4.297  16.860  1.00  0.00     0.029 A 
ATOM     54  N   UNL     1      -4.147   5.142  15.038  1.00  0.00    -0.354 N 
ATOM     55  N   UNL     1      -6.409   5.971  13.360  1.00  0.00    -0.248 NA
ATOM     56  C   UNL     1      -8.710   6.159  13.001  1.00  0.00     0.031 C 
ATOM     57  C   UNL     1      -4.581   4.230  17.016  1.00  0.00     0.029 A 
ATOM     58  C   UNL     1      -5.176   4.776  15.890  1.00  0.00     0.049 A 
ATOM     59  H   UNL     1      -4.267   5.551  14.151  1.00  0.00     0.167 HD
ATOM     60  C   UNL     1      -7.085   5.486  14.474  1.00  0.00     0.074 A 
ATOM     61  C   UNL     1      -8.500   5.651  14.208  1.00  0.00     0.031 C 
ATOM     62  C   UNL     1      -6.580   4.955  15.615  1.00  0.00     0.037 A 
BRANCH  49  63
ATOM     63  C   UNL     1      -0.401   4.673  15.745  1.00  0.00     0.058 A 
ATOM     64  C   UNL     1       0.473   5.615  16.313  1.00  0.00     0.135 A 
ATOM     65  C   UNL     1      -0.087   3.314  15.904  1.00  0.00     0.135 A 
ATOM     66  F   UNL     1       0.229   6.929  16.180  1.00  0.00    -0.206 F 
ATOM     67  C   UNL     1       1.632   5.227  16.977  1.00  0.00     0.059 A 
ATOM     68  C   UNL     1       1.053   2.901  16.588  1.00  0.00     0.059 A 
ATOM     69  F   UNL     1      -0.888   2.370  15.384  1.00  0.00    -0.206 F 
ATOM     70  C   UNL     1       1.916   3.867  17.105  1.00  0.00     0.060 A 
BRANCH  70  71
ATOM     71  S   UNL     1       3.430   3.376  17.957  1.00  0.00     0.124 S 
ATOM     72  O   UNL     1       4.441   3.677  16.948  1.00  0.00    -0.237 OA
ATOM     73  O   UNL     1       3.428   4.246  19.129  1.00  0.00    -0.237 OA
ATOM     74  O   UNL     1       3.221   1.958  18.233  1.00  0.00    -0.744 OA
ENDBRANCH  70  71
ENDBRANCH  49  63
BRANCH  50  75
ATOM     75  C   UNL     1      -8.368   7.402  10.369  1.00  0.00     0.058 A 
ATOM     76  C   UNL     1      -9.172   8.485  10.755  1.00  0.00     0.135 A 
ATOM     77  C   UNL     1      -8.713   6.718   9.194  1.00  0.00     0.135 A 
ATOM     78  F   UNL     1      -8.886   9.166  11.875  1.00  0.00    -0.206 F 
ATOM     79  C   UNL     1     -10.284   8.868  10.013  1.00  0.00     0.059 A 
ATOM     80  C   UNL     1      -9.807   7.097   8.422  1.00  0.00     0.059 A 
ATOM     81  F   UNL     1      -7.966   5.685   8.774  1.00  0.00    -0.206 F 
ATOM     82  C   UNL     1     -10.592   8.168   8.845  1.00  0.00     0.060 A 
BRANCH  82  83
ATOM     83  S   UNL     1     -12.007   8.707   7.860  1.00  0.00     0.124 S 
ATOM     84  O   UNL     1     -13.124   8.221   8.660  1.00  0.00    -0.237 OA
ATOM     85  O   UNL     1     -11.826  10.155   7.828  1.00  0.00    -0.237 OA
ATOM     86  O   UNL     1     -11.802   8.030   6.583  1.00  0.00    -0.744 OA
ENDBRANCH  82  83
ENDBRANCH  50  75
BRANCH  62  87
ATOM     87  C   UNL     1      -7.560   4.547  16.679  1.00  0.00     0.058 A 
ATOM     88  C   UNL     1      -8.357   3.400  16.549  1.00  0.00     0.135 A 
ATOM     89  C   UNL     1      -7.676   5.296  17.861  1.00  0.00     0.135 A 
ATOM     90  F   UNL     1      -8.288   2.652  15.436  1.00  0.00    -0.206 F 
ATOM     91  C   UNL     1      -9.255   3.023  17.542  1.00  0.00     0.059 A 
ATOM     92  C   UNL     1      -8.549   4.924  18.878  1.00  0.00     0.059 A 
ATOM     93  F   UNL     1      -6.928   6.397  18.040  1.00  0.00    -0.206 F 
ATOM     94  C   UNL     1      -9.345   3.793  18.703  1.00  0.00     0.060 A 
BRANCH  94  95
ATOM     95  S   UNL     1     -10.496   3.283  19.997  1.00  0.00     0.124 S 
ATOM     96  O   UNL     1     -11.774   3.709  19.437  1.00  0.00    -0.237 OA
ATOM     97  O   UNL     1     -10.281   1.841  20.060  1.00  0.00    -0.237 OA
ATOM     98  O   UNL     1     -10.043   4.029  21.168  1.00  0.00    -0.744 OA
ENDBRANCH  94  95
ENDBRANCH  62  87
ENDBRANCH  36  37
ENDBRANCH  28  31
ENDBRANCH  26  27
ENDBRANCH  25  26
ENDBRANCH   1  25
TORSDOF 20
