REMARK SMILES Cc1c(NCc2ccccn2)cccc1C(=O)N1CCOC[C@@H]1CC(=O)NCCCCCCNC(=O)c1ccc(-c2c3nc(c(-c4c(F)cc(S(=O)(=O)[O-])cc4F)c4ccc([nH]4)c(-c4c(F)cc(S(=O)(=O)[O-])cc4F)c4nc(c(-c5c(F)cc(S(=O)(=O)[O-])cc5F)c5ccc2[nH]5)C=C4)C=C3)cc1
REMARK SMILES IDX 29 1 28 2 27 3 25 4 26 5 24 7 23 8 18 9 19 10 20 11 22 12
REMARK SMILES IDX 21 13 16 14 17 15 15 16 1 17 2 18 3 19 12 20 14 21 13 22
REMARK SMILES IDX 4 23 5 25 6 26 7 27 11 28 8 29 10 30 9 31 30 32 31 33 32 34
REMARK SMILES IDX 33 35 34 36 35 37 36 39 37 40 38 41 102 42 39 43 101 44
REMARK SMILES IDX 40 45 41 46 42 47 95 48 43 49 100 50 94 51 96 52 44 53 99 54
REMARK SMILES IDX 93 55 92 56 45 58 79 59 58 60 78 61 59 62 62 63 77 64 97 65
REMARK SMILES IDX 60 66 61 67 76 69 98 70 63 71 46 72 47 73 56 74 48 75 49 76
REMARK SMILES IDX 55 77 57 78 50 79 51 80 52 81 53 82 54 83 80 84 81 85 90 86
REMARK SMILES IDX 82 87 83 88 89 89 91 90 84 91 85 92 86 93 87 94 88 95 64 96
REMARK SMILES IDX 65 97 74 98 66 99 67 100 73 101 75 102 68 103 69 104 70 105
REMARK SMILES IDX 71 106 72 107
REMARK H PARENT 27 6 4 24 34 38 96 57 62 68
REMARK Flexibility Score: inf
ROOT
ATOM      1  C   UNL     1       1.089   1.036   2.447  1.00  0.00     0.021 C 
ENDROOT
BRANCH   1   2
ATOM      2  C   UNL     1       0.388   2.341   2.823  1.00  0.00     0.116 C 
BRANCH   2   3
ATOM      3  N   UNL     1       1.243   3.050   3.731  1.00  0.00    -0.356 N 
ATOM      4  C   UNL     1       2.447   3.570   3.361  1.00  0.00     0.222 C 
ATOM      5  O   UNL     1       3.369   3.567   4.176  1.00  0.00    -0.275 OA
ATOM      6  H   UNL     1       0.947   3.167   4.663  1.00  0.00     0.163 HD
BRANCH   4   7
ATOM      7  C   UNL     1       2.575   4.223   1.996  1.00  0.00     0.127 C 
BRANCH   7   8
ATOM      8  C   UNL     1       3.296   3.502   0.847  1.00  0.00     0.120 C 
ATOM      9  N   UNL     1       2.530   2.718  -0.175  1.00  0.00    -0.331 N 
ATOM     10  C   UNL     1       3.419   2.403  -1.316  1.00  0.00     0.148 C 
ATOM     11  C   UNL     1       4.748   1.737  -0.878  1.00  0.00     0.181 C 
ATOM     12  C   UNL     1       4.483   2.630   1.314  1.00  0.00     0.185 C 
ATOM     13  O   UNL     1       5.385   2.425   0.210  1.00  0.00    -0.377 OA
BRANCH   9  14
ATOM     14  C   UNL     1       1.179   2.968  -0.462  1.00  0.00     0.254 C 
ATOM     15  O   UNL     1       0.725   4.107  -0.533  1.00  0.00    -0.269 OA
BRANCH  14  16
ATOM     16  C   UNL     1       0.199   1.810  -0.486  1.00  0.00     0.045 A 
ATOM     17  C   UNL     1       2.139  -0.335  -0.648  1.00  0.00     0.047 C 
ATOM     18  C   UNL     1       0.713   0.085  -0.511  1.00  0.00    -0.015 A 
ATOM     19  C   UNL     1      -0.507  -1.230  -0.338  1.00  0.00     0.038 A 
ATOM     20  C   UNL     1      -2.266  -0.854  -0.174  1.00  0.00     0.026 A 
ATOM     21  C   UNL     1      -1.563   2.212  -0.347  1.00  0.00     0.014 A 
ATOM     22  C   UNL     1      -2.798   0.881  -0.172  1.00  0.00     0.003 A 
BRANCH  19  23
ATOM     23  N   UNL     1      -0.049  -2.526  -0.305  1.00  0.00    -0.379 N 
ATOM     24  H   UNL     1       0.760  -2.764   0.204  1.00  0.00     0.160 HD
BRANCH  23  25
ATOM     25  C   UNL     1      -0.782  -3.522  -1.032  1.00  0.00     0.169 C 
BRANCH  25  26
ATOM     26  C   UNL     1      -0.203  -3.750  -2.440  1.00  0.00     0.059 A 
ATOM     27  C   UNL     1       1.491  -3.142  -2.812  1.00  0.00     0.026 A 
ATOM     28  N   UNL     1      -0.850  -5.257  -3.236  1.00  0.00    -0.259 NA
ATOM     29  C   UNL     1       2.568  -4.122  -3.933  1.00  0.00     0.004 A 
ATOM     30  C   UNL     1       0.187  -6.231  -4.347  1.00  0.00     0.111 A 
ATOM     31  C   UNL     1       1.907  -5.734  -4.670  1.00  0.00     0.020 A 
ENDBRANCH  25  26
ENDBRANCH  23  25
ENDBRANCH  19  23
ENDBRANCH  14  16
ENDBRANCH   9  14
ENDBRANCH   7   8
ENDBRANCH   4   7
ENDBRANCH   2   3
ENDBRANCH   1   2
BRANCH   1  32
ATOM     32  C   UNL     1       0.183  -0.054   1.893  1.00  0.00     0.002 C 
BRANCH  32  33
ATOM     33  C   UNL     1      -0.954   0.480   0.753  1.00  0.00     0.002 C 
BRANCH  33  34
ATOM     34  C   UNL     1      -1.179   0.429  -1.420  1.00  0.00     0.021 C 
BRANCH  34  35
ATOM     35  C   UNL     1      -1.696  -0.697  -2.586  1.00  0.00     0.116 C 
BRANCH  35  36
ATOM     36  N   UNL     1      -3.117  -1.066  -2.762  1.00  0.00    -0.352 N 
ATOM     37  C   UNL     1      -3.824  -1.308  -3.938  1.00  0.00     0.251 C 
ATOM     38  H   UNL     1      -3.637  -1.152  -1.931  1.00  0.00     0.163 HD
ATOM     39  O   UNL     1      -5.042  -1.186  -4.005  1.00  0.00    -0.269 OA
BRANCH  37  40
ATOM     40  C   UNL     1      -3.084  -1.945  -5.063  1.00  0.00     0.039 A 
ATOM     41  C   UNL     1      -3.239  -3.330  -5.128  1.00  0.00     0.014 A 
ATOM     42  C   UNL     1      -1.881  -1.367  -5.419  1.00  0.00     0.014 A 
ATOM     43  C   UNL     1      -2.100  -4.122  -5.118  1.00  0.00     0.010 A 
ATOM     44  C   UNL     1      -0.753  -2.123  -5.154  1.00  0.00     0.010 A 
ATOM     45  C   UNL     1      -0.861  -3.504  -4.878  1.00  0.00    -0.014 A 
BRANCH  45  46
ATOM     46  C   UNL     1       0.553  -4.225  -4.361  1.00  0.00     0.031 A 
ATOM     47  C   UNL     1       1.332  -3.885  -6.002  1.00  0.00     0.074 A 
ATOM     48  C   UNL     1       1.172  -5.188  -2.872  1.00  0.00     0.049 A 
ATOM     49  N   UNL     1       2.579  -4.118  -6.273  1.00  0.00    -0.248 NA
ATOM     50  C   UNL     1       0.690  -3.423  -7.257  1.00  0.00     0.031 C 
ATOM     51  C   UNL     1       2.671  -5.722  -2.255  1.00  0.00     0.029 A 
ATOM     52  N   UNL     1       0.512  -5.914  -1.722  1.00  0.00    -0.354 N 
ATOM     53  C   UNL     1       2.912  -3.942  -7.562  1.00  0.00     0.074 A 
ATOM     54  C   UNL     1       1.721  -3.366  -8.126  1.00  0.00     0.031 C 
ATOM     55  C   UNL     1       2.537  -6.764  -1.423  1.00  0.00     0.029 A 
ATOM     56  C   UNL     1       1.153  -7.101  -1.394  1.00  0.00     0.049 A 
ATOM     57  H   UNL     1      -0.287  -5.580  -1.254  1.00  0.00     0.167 HD
ATOM     58  C   UNL     1       4.205  -4.268  -7.846  1.00  0.00     0.037 A 
ATOM     59  C   UNL     1       0.587  -8.289  -1.754  1.00  0.00     0.037 A 
ATOM     60  C   UNL     1       4.709  -5.302  -6.877  1.00  0.00     0.049 A 
ATOM     61  C   UNL     1       1.509  -8.894  -2.856  1.00  0.00     0.074 A 
ATOM     62  C   UNL     1       5.444  -5.238  -5.701  1.00  0.00     0.029 A 
ATOM     63  N   UNL     1       4.175  -6.606  -6.893  1.00  0.00    -0.354 N 
ATOM     64  N   UNL     1       2.238  -8.224  -3.733  1.00  0.00    -0.248 NA
ATOM     65  C   UNL     1       1.825 -10.314  -2.891  1.00  0.00     0.031 C 
ATOM     66  C   UNL     1       5.233  -6.448  -4.956  1.00  0.00     0.029 A 
ATOM     67  C   UNL     1       4.407  -7.299  -5.683  1.00  0.00     0.049 A 
ATOM     68  H   UNL     1       3.694  -6.991  -7.661  1.00  0.00     0.167 HD
ATOM     69  C   UNL     1       3.085  -9.056  -4.439  1.00  0.00     0.074 A 
ATOM     70  C   UNL     1       2.808 -10.350  -3.809  1.00  0.00     0.031 C 
ATOM     71  C   UNL     1       3.945  -8.703  -5.477  1.00  0.00     0.037 A 
BRANCH  58  72
ATOM     72  C   UNL     1       5.072  -3.413  -8.753  1.00  0.00     0.058 A 
ATOM     73  C   UNL     1       6.477  -3.417  -8.594  1.00  0.00     0.135 A 
ATOM     74  C   UNL     1       4.598  -2.460  -9.683  1.00  0.00     0.135 A 
ATOM     75  F   UNL     1       7.079  -4.261  -7.745  1.00  0.00    -0.206 F 
ATOM     76  C   UNL     1       7.329  -2.531  -9.264  1.00  0.00     0.059 A 
ATOM     77  C   UNL     1       5.429  -1.560 -10.361  1.00  0.00     0.059 A 
ATOM     78  F   UNL     1       3.300  -2.348  -9.980  1.00  0.00    -0.206 F 
ATOM     79  C   UNL     1       6.796  -1.595 -10.139  1.00  0.00     0.060 A 
BRANCH  79  80
ATOM     80  S   UNL     1       7.904  -0.445 -10.977  1.00  0.00     0.124 S 
ATOM     81  O   UNL     1       8.472   0.300  -9.857  1.00  0.00    -0.237 OA
ATOM     82  O   UNL     1       8.817  -1.348 -11.669  1.00  0.00    -0.237 OA
ATOM     83  O   UNL     1       7.011   0.322 -11.842  1.00  0.00    -0.744 OA
ENDBRANCH  79  80
ENDBRANCH  58  72
BRANCH  59  84
ATOM     84  C   UNL     1      -0.953  -8.206  -1.621  1.00  0.00     0.058 A 
ATOM     85  C   UNL     1      -1.463  -7.624  -0.414  1.00  0.00     0.135 A 
ATOM     86  C   UNL     1      -1.839  -8.164  -2.707  1.00  0.00     0.135 A 
ATOM     87  F   UNL     1      -0.719  -7.664   0.706  1.00  0.00    -0.206 F 
ATOM     88  C   UNL     1      -2.607  -6.808  -0.378  1.00  0.00     0.059 A 
ATOM     89  C   UNL     1      -3.015  -7.372  -2.683  1.00  0.00     0.059 A 
ATOM     90  F   UNL     1      -1.513  -8.765  -3.859  1.00  0.00    -0.206 F 
ATOM     91  C   UNL     1      -3.344  -6.630  -1.542  1.00  0.00     0.060 A 
BRANCH  91  92
ATOM     92  S   UNL     1      -4.638  -5.340  -1.581  1.00  0.00     0.124 S 
ATOM     93  O   UNL     1      -5.619  -5.873  -0.642  1.00  0.00    -0.237 OA
ATOM     94  O   UNL     1      -3.935  -4.144  -1.121  1.00  0.00    -0.237 OA
ATOM     95  O   UNL     1      -5.051  -5.319  -2.979  1.00  0.00    -0.744 OA
ENDBRANCH  91  92
ENDBRANCH  59  84
BRANCH  71  96
ATOM     96  C   UNL     1       4.550  -9.742  -6.420  1.00  0.00     0.058 A 
ATOM     97  C   UNL     1       3.991 -11.011  -6.648  1.00  0.00     0.135 A 
ATOM     98  C   UNL     1       5.667  -9.432  -7.240  1.00  0.00     0.135 A 
ATOM     99  F   UNL     1       2.809 -11.368  -6.125  1.00  0.00    -0.206 F 
ATOM    100  C   UNL     1       4.590 -11.960  -7.471  1.00  0.00     0.059 A 
ATOM    101  C   UNL     1       6.214 -10.325  -8.154  1.00  0.00     0.059 A 
ATOM    102  F   UNL     1       6.267  -8.233  -7.205  1.00  0.00    -0.206 F 
ATOM    103  C   UNL     1       5.708 -11.611  -8.214  1.00  0.00     0.060 A 
BRANCH 103 104
ATOM    104  S   UNL     1       6.466 -12.837  -9.284  1.00  0.00     0.124 S 
ATOM    105  O   UNL     1       7.301 -13.564  -8.334  1.00  0.00    -0.237 OA
ATOM    106  O   UNL     1       5.309 -13.566  -9.796  1.00  0.00    -0.237 OA
ATOM    107  O   UNL     1       7.178 -12.031 -10.269  1.00  0.00    -0.744 OA
ENDBRANCH 103 104
ENDBRANCH  71  96
ENDBRANCH  45  46
ENDBRANCH  37  40
ENDBRANCH  35  36
ENDBRANCH  34  35
ENDBRANCH  33  34
ENDBRANCH  32  33
ENDBRANCH   1  32
TORSDOF 22
