REMARK SMILES Cc1ccc(C(=O)N2C[C@H](C(=O)NCCCCCCNC(=O)c3ccc(-c4c5nc(c(-c6c(F)cc(S(=O)(=O)[O-])cc6F)c6ccc([nH]6)c(-c6c(F)cc(S(=O)(=O)[O-])cc6F)c6nc(c(-c7c(F)cc(S(=O)(=O)[O-])cc7F)c7ccc4[nH]7)C=C6)C=C5)cc3)Oc3ccccc32)o1
REMARK SMILES IDX 17 1 16 2 15 3 14 4 13 5 11 6 12 7 10 9 8 10 9 11 95 12
REMARK SMILES IDX 90 13 94 14 89 15 91 16 93 17 92 18 6 19 7 20 5 21 1 22 2 23
REMARK SMILES IDX 3 24 96 25 4 26 18 27 19 28 20 29 21 30 22 32 23 33 24 34
REMARK SMILES IDX 88 35 25 36 87 37 26 38 27 39 28 40 81 41 29 42 86 43 80 44
REMARK SMILES IDX 82 45 30 46 85 47 79 48 78 49 31 51 65 52 44 53 64 54 45 55
REMARK SMILES IDX 48 56 63 57 83 58 46 59 47 60 62 62 84 63 49 64 32 65 33 66
REMARK SMILES IDX 42 67 34 68 35 69 41 70 43 71 36 72 37 73 38 74 39 75 40 76
REMARK SMILES IDX 66 77 67 78 76 79 68 80 69 81 75 82 77 83 70 84 71 85 72 86
REMARK SMILES IDX 73 87 74 88 50 89 51 90 60 91 52 92 53 93 59 94 61 95 54 96
REMARK SMILES IDX 55 97 56 98 57 99 58 100
REMARK H PARENT 13 8 20 31 82 50 48 61
REMARK Flexibility Score: inf
ROOT
ATOM      1  C   UNL     1      -7.689  -4.503   2.314  1.00  0.00     0.002 C 
ENDROOT
BRANCH   1   2
ATOM      2  C   UNL     1      -6.285  -3.950   2.590  1.00  0.00     0.002 C 
BRANCH   2   3
ATOM      3  C   UNL     1      -5.764  -2.933   1.569  1.00  0.00     0.021 C 
BRANCH   3   4
ATOM      4  C   UNL     1      -6.601  -1.659   1.455  1.00  0.00     0.116 C 
BRANCH   4   5
ATOM      5  N   UNL     1      -6.434  -0.812   2.626  1.00  0.00    -0.353 N 
ATOM      6  C   UNL     1      -5.975   0.471   2.726  1.00  0.00     0.262 C 
ATOM      7  O   UNL     1      -5.908   0.970   3.854  1.00  0.00    -0.271 OA
ATOM      8  H   UNL     1      -6.692  -1.228   3.480  1.00  0.00     0.163 HD
BRANCH   6   9
ATOM      9  C   UNL     1      -5.500   1.250   1.496  1.00  0.00     0.281 C 
ATOM     10  N   UNL     1      -3.689   1.414  -0.169  1.00  0.00    -0.298 N 
ATOM     11  C   UNL     1      -4.153   0.710   1.028  1.00  0.00     0.181 C 
ATOM     12  C   UNL     1      -4.711   1.806  -1.088  1.00  0.00     0.087 A 
ATOM     13  C   UNL     1      -6.064   1.637  -0.743  1.00  0.00     0.144 A 
ATOM     14  C   UNL     1      -4.410   2.258  -2.381  1.00  0.00     0.030 A 
ATOM     15  O   UNL     1      -6.501   1.194   0.480  1.00  0.00    -0.477 OA
ATOM     16  C   UNL     1      -7.078   1.884  -1.673  1.00  0.00     0.049 A 
ATOM     17  C   UNL     1      -5.426   2.512  -3.307  1.00  0.00     0.002 A 
ATOM     18  C   UNL     1      -6.759   2.319  -2.956  1.00  0.00     0.004 A 
BRANCH  10  19
ATOM     19  C   UNL     1      -2.334   1.702  -0.382  1.00  0.00     0.294 C 
ATOM     20  O   UNL     1      -1.975   2.788  -0.842  1.00  0.00    -0.265 OA
BRANCH  19  21
ATOM     21  C   UNL     1      -1.376   0.644  -0.083  1.00  0.00     0.192 A 
ATOM     22  C   UNL     1       2.135   0.009   0.243  1.00  0.00     0.087 C 
ATOM     23  C   UNL     1       0.669  -0.149   0.177  1.00  0.00     0.101 A 
ATOM     24  C   UNL     1      -0.169  -1.240   0.200  1.00  0.00     0.046 A 
ATOM     25  O   UNL     1      -0.053   0.993   0.025  1.00  0.00    -0.456 OA
ATOM     26  C   UNL     1      -1.480  -0.734   0.022  1.00  0.00     0.056 A 
ENDBRANCH  19  21
ENDBRANCH  10  19
ENDBRANCH   6   9
ENDBRANCH   4   5
ENDBRANCH   3   4
ENDBRANCH   2   3
ENDBRANCH   1   2
BRANCH   1  27
ATOM     27  C   UNL     1      -7.909  -5.100   0.920  1.00  0.00     0.021 C 
BRANCH  27  28
ATOM     28  C   UNL     1      -6.954  -6.226   0.528  1.00  0.00     0.116 C 
BRANCH  28  29
ATOM     29  N   UNL     1      -7.093  -7.397   1.378  1.00  0.00    -0.352 N 
ATOM     30  C   UNL     1      -7.178  -8.720   1.020  1.00  0.00     0.251 C 
ATOM     31  H   UNL     1      -7.132  -7.216   2.345  1.00  0.00     0.163 HD
ATOM     32  O   UNL     1      -7.436  -9.570   1.869  1.00  0.00    -0.269 OA
BRANCH  30  33
ATOM     33  C   UNL     1      -6.985  -9.120  -0.392  1.00  0.00     0.039 A 
ATOM     34  C   UNL     1      -7.925  -9.966  -0.987  1.00  0.00     0.014 A 
ATOM     35  C   UNL     1      -5.881  -8.670  -1.123  1.00  0.00     0.014 A 
ATOM     36  C   UNL     1      -7.795 -10.309  -2.335  1.00  0.00     0.010 A 
ATOM     37  C   UNL     1      -5.773  -8.982  -2.477  1.00  0.00     0.010 A 
ATOM     38  C   UNL     1      -6.735  -9.796  -3.097  1.00  0.00    -0.014 A 
BRANCH  38  39
ATOM     39  C   UNL     1      -6.622 -10.079  -4.550  1.00  0.00     0.031 A 
ATOM     40  C   UNL     1      -5.516 -10.952  -5.068  1.00  0.00     0.074 A 
ATOM     41  C   UNL     1      -7.472  -9.484  -5.409  1.00  0.00     0.049 A 
ATOM     42  N   UNL     1      -5.184 -11.215  -6.305  1.00  0.00    -0.248 NA
ATOM     43  C   UNL     1      -4.659 -11.599  -4.062  1.00  0.00     0.031 C 
ATOM     44  C   UNL     1      -8.568  -8.590  -5.033  1.00  0.00     0.029 A 
ATOM     45  N   UNL     1      -7.533  -9.529  -6.779  1.00  0.00    -0.354 N 
ATOM     46  C   UNL     1      -4.066 -12.036  -6.231  1.00  0.00     0.074 A 
ATOM     47  C   UNL     1      -3.766 -12.214  -4.826  1.00  0.00     0.031 C 
ATOM     48  C   UNL     1      -9.196  -8.173  -6.146  1.00  0.00     0.029 A 
ATOM     49  C   UNL     1      -8.529  -8.746  -7.312  1.00  0.00     0.049 A 
ATOM     50  H   UNL     1      -6.921 -10.070  -7.329  1.00  0.00     0.167 HD
ATOM     51  C   UNL     1      -3.360 -12.596  -7.242  1.00  0.00     0.037 A 
ATOM     52  C   UNL     1      -8.860  -8.506  -8.595  1.00  0.00     0.037 A 
ATOM     53  C   UNL     1      -3.675 -12.447  -8.638  1.00  0.00     0.049 A 
ATOM     54  C   UNL     1      -8.075  -9.156  -9.698  1.00  0.00     0.074 A 
ATOM     55  C   UNL     1      -3.046 -13.019  -9.730  1.00  0.00     0.029 A 
ATOM     56  N   UNL     1      -4.713 -11.673  -9.134  1.00  0.00    -0.354 N 
ATOM     57  N   UNL     1      -7.038  -9.952  -9.608  1.00  0.00    -0.248 NA
ATOM     58  C   UNL     1      -8.504  -8.873 -11.075  1.00  0.00     0.031 C 
ATOM     59  C   UNL     1      -3.695 -12.577 -10.890  1.00  0.00     0.029 A 
ATOM     60  C   UNL     1      -4.738 -11.746 -10.517  1.00  0.00     0.049 A 
ATOM     61  H   UNL     1      -5.340 -11.149  -8.585  1.00  0.00     0.167 HD
ATOM     62  C   UNL     1      -6.695 -10.275 -10.915  1.00  0.00     0.074 A 
ATOM     63  C   UNL     1      -7.640  -9.595 -11.778  1.00  0.00     0.031 C 
ATOM     64  C   UNL     1      -5.687 -11.064 -11.359  1.00  0.00     0.037 A 
BRANCH  51  65
ATOM     65  C   UNL     1      -2.166 -13.423  -6.864  1.00  0.00     0.058 A 
ATOM     66  C   UNL     1      -2.309 -14.726  -6.363  1.00  0.00     0.135 A 
ATOM     67  C   UNL     1      -0.868 -12.911  -7.011  1.00  0.00     0.135 A 
ATOM     68  F   UNL     1      -3.531 -15.253  -6.190  1.00  0.00    -0.206 F 
ATOM     69  C   UNL     1      -1.204 -15.484  -5.991  1.00  0.00     0.059 A 
ATOM     70  C   UNL     1       0.252 -13.658  -6.661  1.00  0.00     0.059 A 
ATOM     71  F   UNL     1      -0.681 -11.669  -7.484  1.00  0.00    -0.206 F 
ATOM     72  C   UNL     1       0.072 -14.937  -6.135  1.00  0.00     0.060 A 
BRANCH  72  73
ATOM     73  S   UNL     1       1.504 -15.916  -5.631  1.00  0.00     0.124 S 
ATOM     74  O   UNL     1       1.522 -15.679  -4.191  1.00  0.00    -0.237 OA
ATOM     75  O   UNL     1       1.131 -17.265  -6.045  1.00  0.00    -0.237 OA
ATOM     76  O   UNL     1       2.602 -15.315  -6.383  1.00  0.00    -0.744 OA
ENDBRANCH  72  73
ENDBRANCH  51  65
BRANCH  52  77
ATOM     77  C   UNL     1     -10.002  -7.610  -8.901  1.00  0.00     0.058 A 
ATOM     78  C   UNL     1     -11.242  -8.138  -9.285  1.00  0.00     0.135 A 
ATOM     79  C   UNL     1      -9.885  -6.218  -8.785  1.00  0.00     0.135 A 
ATOM     80  F   UNL     1     -11.396  -9.465  -9.413  1.00  0.00    -0.206 F 
ATOM     81  C   UNL     1     -12.332  -7.315  -9.546  1.00  0.00     0.059 A 
ATOM     82  C   UNL     1     -10.964  -5.375  -9.028  1.00  0.00     0.059 A 
ATOM     83  F   UNL     1      -8.720  -5.670  -8.406  1.00  0.00    -0.206 F 
ATOM     84  C   UNL     1     -12.183  -5.934  -9.413  1.00  0.00     0.060 A 
BRANCH  84  85
ATOM     85  S   UNL     1     -13.618  -4.868  -9.680  1.00  0.00     0.124 S 
ATOM     86  O   UNL     1     -13.622  -4.742 -11.132  1.00  0.00    -0.237 OA
ATOM     87  O   UNL     1     -14.704  -5.655  -9.103  1.00  0.00    -0.237 OA
ATOM     88  O   UNL     1     -13.271  -3.659  -8.938  1.00  0.00    -0.744 OA
ENDBRANCH  84  85
ENDBRANCH  52  77
BRANCH  64  89
ATOM     89  C   UNL     1      -5.563 -11.247 -12.842  1.00  0.00     0.058 A 
ATOM     90  C   UNL     1      -4.947 -10.277 -13.646  1.00  0.00     0.135 A 
ATOM     91  C   UNL     1      -6.019 -12.423 -13.457  1.00  0.00     0.135 A 
ATOM     92  F   UNL     1      -4.503  -9.133 -13.102  1.00  0.00    -0.206 F 
ATOM     93  C   UNL     1      -4.794 -10.463 -15.016  1.00  0.00     0.059 A 
ATOM     94  C   UNL     1      -5.865 -12.636 -14.823  1.00  0.00     0.059 A 
ATOM     95  F   UNL     1      -6.612 -13.381 -12.727  1.00  0.00    -0.206 F 
ATOM     96  C   UNL     1      -5.257 -11.645 -15.596  1.00  0.00     0.060 A 
BRANCH  96  97
ATOM     97  S   UNL     1      -5.019 -11.903 -17.367  1.00  0.00     0.124 S 
ATOM     98  O   UNL     1      -6.140 -11.155 -17.925  1.00  0.00    -0.237 OA
ATOM     99  O   UNL     1      -3.696 -11.329 -17.598  1.00  0.00    -0.237 OA
ATOM    100  O   UNL     1      -5.096 -13.354 -17.508  1.00  0.00    -0.744 OA
ENDBRANCH  96  97
ENDBRANCH  64  89
ENDBRANCH  38  39
ENDBRANCH  30  33
ENDBRANCH  28  29
ENDBRANCH  27  28
ENDBRANCH   1  27
TORSDOF 18
