REMARK SMILES C[C@@H]1C[C@@H]([C@@H](C)C(=O)NCCCCCCNC(=O)c2ccc(-c3c4nc(c(-c5c(F)cc(S(=O)(=O)[O-])cc5F)c5ccc([nH]5)c(-c5c(F)cc(S(=O)(=O)[O-])cc5F)c5nc(c(-c6c(F)cc(S(=O)(=O)[O-])cc6F)c6ccc3[nH]6)C=C5)C=C4)cc2)CCN1C(=O)OC(C)(C)C
REMARK SMILES IDX 12 1 11 2 10 3 9 4 7 5 8 6 5 8 6 9 4 10 1 11 2 12 3 13 87 14
REMARK SMILES IDX 86 15 85 16 88 17 89 18 90 19 91 20 92 21 93 22 94 23 13 24
REMARK SMILES IDX 14 25 15 26 16 27 17 28 18 30 19 31 20 32 84 33 21 34 83 35
REMARK SMILES IDX 22 36 23 37 24 38 77 39 25 40 82 41 76 42 78 43 26 44 81 45
REMARK SMILES IDX 75 46 74 47 27 49 61 50 40 51 60 52 41 53 44 54 59 55 79 56
REMARK SMILES IDX 42 57 43 58 58 60 80 61 45 62 28 63 29 64 38 65 30 66 31 67
REMARK SMILES IDX 37 68 39 69 32 70 33 71 34 72 35 73 36 74 62 75 63 76 72 77
REMARK SMILES IDX 64 78 65 79 71 80 73 81 66 82 67 83 68 84 69 85 70 86 46 87
REMARK SMILES IDX 47 88 56 89 48 90 49 91 55 92 57 93 50 94 51 95 52 96 53 97
REMARK SMILES IDX 54 98
REMARK H PARENT 9 7 16 29 78 48 44 59
REMARK Flexibility Score: inf
ROOT
ATOM      1  C   UNL     1      -4.767  -3.132  -0.551  1.00  0.00     0.002 C 
ENDROOT
BRANCH   1   2
ATOM      2  C   UNL     1      -3.654  -2.125  -0.276  1.00  0.00     0.021 C 
BRANCH   2   3
ATOM      3  C   UNL     1      -2.900  -1.662  -1.528  1.00  0.00     0.116 C 
BRANCH   3   4
ATOM      4  N   UNL     1      -3.428  -0.389  -1.983  1.00  0.00    -0.356 N 
ATOM      5  C   UNL     1      -2.897   0.862  -1.984  1.00  0.00     0.223 C 
ATOM      6  O   UNL     1      -3.667   1.790  -2.256  1.00  0.00    -0.275 OA
ATOM      7  H   UNL     1      -4.337  -0.442  -2.360  1.00  0.00     0.163 HD
BRANCH   5   8
ATOM      8  C   UNL     1      -1.403   1.151  -1.767  1.00  0.00     0.078 C 
ATOM      9  C   UNL     1      -0.586   0.466  -2.856  1.00  0.00     0.018 C 
BRANCH   8  10
ATOM     10  C   UNL     1      -0.860   1.217  -0.301  1.00  0.00     0.005 C 
ATOM     11  C   UNL     1       2.727   0.234   0.570  1.00  0.00     0.031 C 
ATOM     12  C   UNL     1       1.557   0.265  -0.418  1.00  0.00     0.085 C 
ATOM     13  C   UNL     1       0.655   1.502  -0.190  1.00  0.00     0.029 C 
ATOM     14  N   UNL     1       0.790  -0.983  -0.343  1.00  0.00    -0.305 N 
ATOM     15  C   UNL     1      -0.191  -1.075   0.724  1.00  0.00     0.123 C 
ATOM     16  C   UNL     1      -1.179   0.098   0.701  1.00  0.00     0.026 C 
BRANCH  14  17
ATOM     17  C   UNL     1       0.940  -2.039  -1.236  1.00  0.00     0.410 C 
ATOM     18  O   UNL     1       0.273  -3.067  -1.182  1.00  0.00    -0.224 OA
BRANCH  17  19
ATOM     19  O   UNL     1       1.826  -1.758  -2.226  1.00  0.00    -0.444 OA
BRANCH  19  20
ATOM     20  C   UNL     1       1.981  -2.624  -3.384  1.00  0.00     0.106 C 
ATOM     21  C   UNL     1       2.456  -4.024  -2.990  1.00  0.00     0.056 C 
ATOM     22  C   UNL     1       0.698  -2.683  -4.225  1.00  0.00     0.056 C 
ATOM     23  C   UNL     1       3.073  -1.947  -4.227  1.00  0.00     0.056 C 
ENDBRANCH  19  20
ENDBRANCH  17  19
ENDBRANCH  14  17
ENDBRANCH   8  10
ENDBRANCH   5   8
ENDBRANCH   3   4
ENDBRANCH   2   3
ENDBRANCH   1   2
BRANCH   1  24
ATOM     24  C   UNL     1      -4.276  -4.507  -1.014  1.00  0.00     0.002 C 
BRANCH  24  25
ATOM     25  C   UNL     1      -3.276  -5.199  -0.080  1.00  0.00     0.021 C 
BRANCH  25  26
ATOM     26  C   UNL     1      -3.738  -5.346   1.368  1.00  0.00     0.116 C 
BRANCH  26  27
ATOM     27  N   UNL     1      -5.001  -6.062   1.465  1.00  0.00    -0.352 N 
ATOM     28  C   UNL     1      -5.281  -7.267   2.057  1.00  0.00     0.251 C 
ATOM     29  H   UNL     1      -5.769  -5.615   1.042  1.00  0.00     0.163 HD
ATOM     30  O   UNL     1      -6.346  -7.831   1.821  1.00  0.00    -0.269 OA
BRANCH  28  31
ATOM     31  C   UNL     1      -4.301  -7.885   2.975  1.00  0.00     0.039 A 
ATOM     32  C   UNL     1      -4.050  -9.255   2.876  1.00  0.00     0.014 A 
ATOM     33  C   UNL     1      -3.653  -7.118   3.947  1.00  0.00     0.014 A 
ATOM     34  C   UNL     1      -3.107  -9.847   3.720  1.00  0.00     0.010 A 
ATOM     35  C   UNL     1      -2.662  -7.694   4.737  1.00  0.00     0.010 A 
ATOM     36  C   UNL     1      -2.383  -9.066   4.636  1.00  0.00    -0.014 A 
BRANCH  36  37
ATOM     37  C   UNL     1      -1.331  -9.666   5.496  1.00  0.00     0.031 A 
ATOM     38  C   UNL     1      -1.486  -9.669   6.993  1.00  0.00     0.074 A 
ATOM     39  C   UNL     1      -0.210 -10.156   4.929  1.00  0.00     0.049 A 
ATOM     40  N   UNL     1      -0.651 -10.089   7.909  1.00  0.00    -0.248 NA
ATOM     41  C   UNL     1      -2.731  -9.101   7.534  1.00  0.00     0.031 C 
ATOM     42  C   UNL     1       0.075 -10.166   3.492  1.00  0.00     0.029 A 
ATOM     43  N   UNL     1       0.903 -10.729   5.491  1.00  0.00    -0.354 N 
ATOM     44  C   UNL     1      -1.264  -9.829   9.129  1.00  0.00     0.074 A 
ATOM     45  C   UNL     1      -2.514  -9.162   8.839  1.00  0.00     0.031 C 
ATOM     46  C   UNL     1       1.272 -10.738   3.285  1.00  0.00     0.029 A 
ATOM     47  C   UNL     1       1.859 -11.095   4.572  1.00  0.00     0.049 A 
ATOM     48  H   UNL     1       1.008 -10.866   6.460  1.00  0.00     0.167 HD
ATOM     49  C   UNL     1      -0.834 -10.139  10.376  1.00  0.00     0.037 A 
ATOM     50  C   UNL     1       3.076 -11.647   4.747  1.00  0.00     0.037 A 
ATOM     51  C   UNL     1       0.406 -10.818  10.652  1.00  0.00     0.049 A 
ATOM     52  C   UNL     1       3.538 -11.969   6.142  1.00  0.00     0.074 A 
ATOM     53  C   UNL     1       0.909 -11.225  11.876  1.00  0.00     0.029 A 
ATOM     54  N   UNL     1       1.341 -11.186   9.695  1.00  0.00    -0.354 N 
ATOM     55  N   UNL     1       2.917 -11.775   7.282  1.00  0.00    -0.248 NA
ATOM     56  C   UNL     1       4.862 -12.592   6.277  1.00  0.00     0.031 C 
ATOM     57  C   UNL     1       2.171 -11.790  11.664  1.00  0.00     0.029 A 
ATOM     58  C   UNL     1       2.429 -11.792  10.302  1.00  0.00     0.049 A 
ATOM     59  H   UNL     1       1.245 -11.038   8.726  1.00  0.00     0.167 HD
ATOM     60  C   UNL     1       3.761 -12.278   8.266  1.00  0.00     0.074 A 
ATOM     61  C   UNL     1       4.931 -12.797   7.586  1.00  0.00     0.031 C 
ATOM     62  C   UNL     1       3.584 -12.309   9.610  1.00  0.00     0.037 A 
BRANCH  49  63
ATOM     63  C   UNL     1      -1.709  -9.747  11.537  1.00  0.00     0.058 A 
ATOM     64  C   UNL     1      -2.947 -10.368  11.772  1.00  0.00     0.135 A 
ATOM     65  C   UNL     1      -1.289  -8.766  12.450  1.00  0.00     0.135 A 
ATOM     66  F   UNL     1      -3.407 -11.303  10.925  1.00  0.00    -0.206 F 
ATOM     67  C   UNL     1      -3.749 -10.009  12.850  1.00  0.00     0.059 A 
ATOM     68  C   UNL     1      -2.061  -8.413  13.554  1.00  0.00     0.059 A 
ATOM     69  F   UNL     1      -0.115  -8.139  12.276  1.00  0.00    -0.206 F 
ATOM     70  C   UNL     1      -3.297  -9.031  13.737  1.00  0.00     0.060 A 
BRANCH  70  71
ATOM     71  S   UNL     1      -4.348  -8.583  15.134  1.00  0.00     0.124 S 
ATOM     72  O   UNL     1      -5.425  -7.857  14.468  1.00  0.00    -0.237 OA
ATOM     73  O   UNL     1      -4.708  -9.887  15.683  1.00  0.00    -0.237 OA
ATOM     74  O   UNL     1      -3.472  -7.773  15.974  1.00  0.00    -0.744 OA
ENDBRANCH  70  71
ENDBRANCH  49  63
BRANCH  50  75
ATOM     75  C   UNL     1       3.935 -11.942   3.568  1.00  0.00     0.058 A 
ATOM     76  C   UNL     1       4.202 -13.264   3.180  1.00  0.00     0.135 A 
ATOM     77  C   UNL     1       4.495 -10.911   2.797  1.00  0.00     0.135 A 
ATOM     78  F   UNL     1       3.695 -14.285   3.887  1.00  0.00    -0.206 F 
ATOM     79  C   UNL     1       5.009 -13.554   2.085  1.00  0.00     0.059 A 
ATOM     80  C   UNL     1       5.281 -11.176   1.680  1.00  0.00     0.059 A 
ATOM     81  F   UNL     1       4.258  -9.629   3.115  1.00  0.00    -0.206 F 
ATOM     82  C   UNL     1       5.542 -12.502   1.338  1.00  0.00     0.060 A 
BRANCH  82  83
ATOM     83  S   UNL     1       6.552 -12.890  -0.107  1.00  0.00     0.124 S 
ATOM     84  O   UNL     1       7.771 -13.396   0.514  1.00  0.00    -0.237 OA
ATOM     85  O   UNL     1       5.729 -13.878  -0.799  1.00  0.00    -0.237 OA
ATOM     86  O   UNL     1       6.677 -11.604  -0.786  1.00  0.00    -0.744 OA
ENDBRANCH  82  83
ENDBRANCH  50  75
BRANCH  62  87
ATOM     87  C   UNL     1       4.660 -12.959  10.438  1.00  0.00     0.058 A 
ATOM     88  C   UNL     1       5.914 -12.358  10.628  1.00  0.00     0.135 A 
ATOM     89  C   UNL     1       4.411 -14.176  11.094  1.00  0.00     0.135 A 
ATOM     90  F   UNL     1       6.207 -11.198  10.018  1.00  0.00    -0.206 F 
ATOM     91  C   UNL     1       6.892 -12.952  11.419  1.00  0.00     0.059 A 
ATOM     92  C   UNL     1       5.363 -14.772  11.915  1.00  0.00     0.059 A 
ATOM     93  F   UNL     1       3.225 -14.790  10.956  1.00  0.00    -0.206 F 
ATOM     94  C   UNL     1       6.606 -14.158  12.062  1.00  0.00     0.060 A 
BRANCH  94  95
ATOM     95  S   UNL     1       7.872 -14.899  13.114  1.00  0.00     0.124 S 
ATOM     96  O   UNL     1       8.831 -15.380  12.126  1.00  0.00    -0.237 OA
ATOM     97  O   UNL     1       8.308 -13.764  13.921  1.00  0.00    -0.237 OA
ATOM     98  O   UNL     1       7.146 -15.936  13.842  1.00  0.00    -0.744 OA
ENDBRANCH  94  95
ENDBRANCH  62  87
ENDBRANCH  36  37
ENDBRANCH  28  31
ENDBRANCH  26  27
ENDBRANCH  25  26
ENDBRANCH  24  25
ENDBRANCH   1  24
TORSDOF 20
