REMARK SMILES O=C(NCCCCCCNC(=O)c1ccc(-c2c3nc(c(-c4c(F)cc(S(=O)(=O)[O-])cc4F)c4ccc([nH]4)c(-c4c(F)cc(S(=O)(=O)[O-])cc4F)c4nc(c(-c5c(F)cc(S(=O)(=O)[O-])cc5F)c5ccc2[nH]5)C=C4)C=C3)cc1)C1=Cc2cc(Cl)cc(-c3ccc(CO)cc3)c2O[C@@H]1C(F)(F)F
REMARK SMILES IDX 6 1 5 2 4 3 3 4 1 5 2 6 79 8 80 9 97 10 81 11 96 12 82 13
REMARK SMILES IDX 95 14 83 15 86 16 84 17 85 18 98 19 99 20 100 21 101 22
REMARK SMILES IDX 87 23 88 24 94 25 89 26 93 27 90 28 91 29 92 30 7 32 8 33
REMARK SMILES IDX 9 34 10 35 11 36 12 38 13 39 14 40 78 41 15 42 77 43 16 44
REMARK SMILES IDX 17 45 18 46 71 47 19 48 76 49 70 50 72 51 20 52 75 53 69 54
REMARK SMILES IDX 68 55 21 57 55 58 34 59 54 60 35 61 38 62 53 63 73 64 36 65
REMARK SMILES IDX 37 66 52 68 74 69 39 70 22 71 23 72 32 73 24 74 25 75 31 76
REMARK SMILES IDX 33 77 26 78 27 79 28 80 29 81 30 82 56 83 57 84 66 85 58 86
REMARK SMILES IDX 59 87 65 88 67 89 60 90 61 91 62 92 63 93 64 94 40 95 41 96
REMARK SMILES IDX 50 97 42 98 43 99 49 100 51 101 44 102 45 103 46 104 47 105
REMARK SMILES IDX 48 106
REMARK H PARENT 3 7 92 31 10 37 72 56 38 67
REMARK Flexibility Score: inf
ROOT
ATOM      1  C   UNL     1       4.014   1.948  -4.171  1.00  0.00     0.002 C 
ENDROOT
BRANCH   1   2
ATOM      2  C   UNL     1       4.320   0.563  -3.593  1.00  0.00     0.021 C 
BRANCH   2   3
ATOM      3  C   UNL     1       4.036   0.342  -2.109  1.00  0.00     0.116 C 
BRANCH   3   4
ATOM      4  N   UNL     1       2.688  -0.070  -1.760  1.00  0.00    -0.352 N 
ATOM      5  O   UNL     1       1.000  -0.796  -0.477  1.00  0.00    -0.270 OA
ATOM      6  C   UNL     1       2.215  -0.631  -0.604  1.00  0.00     0.251 C 
ATOM      7  H   UNL     1       2.011   0.077  -2.460  1.00  0.00     0.163 HD
BRANCH   6   8
ATOM      8  C   UNL     1       3.092  -1.003   0.556  1.00  0.00     0.067 C 
ATOM      9  C   UNL     1       4.378  -1.378   0.429  1.00  0.00     0.025 C 
ATOM     10  C   UNL     1       2.749  -0.201   1.798  1.00  0.00     0.314 C 
ATOM     11  C   UNL     1       5.291  -0.234   0.718  1.00  0.00     0.019 A 
ATOM     12  O   UNL     1       3.513   1.039   1.804  1.00  0.00    -0.475 OA
ATOM     13  C   UNL     1       6.580  -0.289   0.181  1.00  0.00     0.032 A 
ATOM     14  C   UNL     1       4.773   0.973   1.245  1.00  0.00     0.135 A 
ATOM     15  C   UNL     1       7.315   0.882   0.070  1.00  0.00     0.042 A 
ATOM     16  C   UNL     1       5.492   2.169   1.082  1.00  0.00     0.026 A 
ATOM     17  Cl  UNL     1       8.819   0.861  -0.763  1.00  0.00    -0.084 Cl
ATOM     18  C   UNL     1       6.775   2.096   0.496  1.00  0.00     0.033 A 
BRANCH  10  19
ATOM     19  C   UNL     1       2.910  -1.010   3.101  1.00  0.00     0.429 C 
ATOM     20  F   UNL     1       2.479  -0.315   4.179  1.00  0.00    -0.167 F 
ATOM     21  F   UNL     1       2.179  -2.154   3.058  1.00  0.00    -0.167 F 
ATOM     22  F   UNL     1       4.190  -1.376   3.345  1.00  0.00    -0.167 F 
ENDBRANCH  10  19
BRANCH  16  23
ATOM     23  C   UNL     1       4.902   3.511   1.242  1.00  0.00    -0.015 A 
ATOM     24  C   UNL     1       4.087   4.024   0.221  1.00  0.00     0.009 A 
ATOM     25  C   UNL     1       5.277   4.377   2.272  1.00  0.00     0.009 A 
ATOM     26  C   UNL     1       3.769   5.382   0.146  1.00  0.00     0.007 A 
ATOM     27  C   UNL     1       4.917   5.733   2.232  1.00  0.00     0.007 A 
ATOM     28  C   UNL     1       4.191   6.254   1.151  1.00  0.00    -0.023 A 
BRANCH  28  29
ATOM     29  C   UNL     1       3.909   7.728   1.033  1.00  0.00     0.191 C 
BRANCH  29  30
ATOM     30  O   UNL     1       4.844   8.351   0.163  1.00  0.00    -0.392 OA
ATOM     31  H   UNL     1       5.740   8.239   0.518  1.00  0.00     0.211 HD
ENDBRANCH  29  30
ENDBRANCH  28  29
ENDBRANCH  16  23
ENDBRANCH   6   8
ENDBRANCH   3   4
ENDBRANCH   2   3
ENDBRANCH   1   2
BRANCH   1  32
ATOM     32  C   UNL     1       4.628   3.156  -3.460  1.00  0.00     0.002 C 
BRANCH  32  33
ATOM     33  C   UNL     1       6.134   3.127  -3.204  1.00  0.00     0.021 C 
BRANCH  33  34
ATOM     34  C   UNL     1       7.001   3.151  -4.457  1.00  0.00     0.116 C 
BRANCH  34  35
ATOM     35  N   UNL     1       6.774   4.334  -5.274  1.00  0.00    -0.352 N 
ATOM     36  C   UNL     1       7.658   5.273  -5.755  1.00  0.00     0.251 C 
ATOM     37  H   UNL     1       5.835   4.488  -5.524  1.00  0.00     0.163 HD
ATOM     38  O   UNL     1       7.226   6.286  -6.291  1.00  0.00    -0.269 OA
BRANCH  36  39
ATOM     39  C   UNL     1       9.119   5.074  -5.611  1.00  0.00     0.039 A 
ATOM     40  C   UNL     1       9.930   6.180  -5.339  1.00  0.00     0.014 A 
ATOM     41  C   UNL     1       9.696   3.812  -5.761  1.00  0.00     0.014 A 
ATOM     42  C   UNL     1      11.305   6.006  -5.160  1.00  0.00     0.010 A 
ATOM     43  C   UNL     1      11.043   3.624  -5.473  1.00  0.00     0.010 A 
ATOM     44  C   UNL     1      11.868   4.720  -5.189  1.00  0.00    -0.014 A 
BRANCH  44  45
ATOM     45  C   UNL     1      13.322   4.502  -4.966  1.00  0.00     0.031 A 
ATOM     46  C   UNL     1      14.157   3.861  -6.045  1.00  0.00     0.074 A 
ATOM     47  C   UNL     1      13.875   4.824  -3.780  1.00  0.00     0.049 A 
ATOM     48  N   UNL     1      15.417   3.510  -6.016  1.00  0.00    -0.248 NA
ATOM     49  C   UNL     1      13.479   3.540  -7.313  1.00  0.00     0.031 C 
ATOM     50  C   UNL     1      13.157   5.395  -2.637  1.00  0.00     0.029 A 
ATOM     51  N   UNL     1      15.167   4.708  -3.331  1.00  0.00    -0.354 N 
ATOM     52  C   UNL     1      15.674   2.919  -7.249  1.00  0.00     0.074 A 
ATOM     53  C   UNL     1      14.425   2.891  -7.974  1.00  0.00     0.031 C 
ATOM     54  C   UNL     1      14.022   5.604  -1.632  1.00  0.00     0.029 A 
ATOM     55  C   UNL     1      15.345   5.142  -2.038  1.00  0.00     0.049 A 
ATOM     56  H   UNL     1      15.898   4.348  -3.884  1.00  0.00     0.167 HD
ATOM     57  C   UNL     1      16.852   2.474  -7.747  1.00  0.00     0.037 A 
ATOM     58  C   UNL     1      16.448   5.156  -1.264  1.00  0.00     0.037 A 
ATOM     59  C   UNL     1      18.098   2.536  -7.030  1.00  0.00     0.049 A 
ATOM     60  C   UNL     1      17.747   4.657  -1.840  1.00  0.00     0.074 A 
ATOM     61  C   UNL     1      19.357   2.158  -7.460  1.00  0.00     0.029 A 
ATOM     62  N   UNL     1      18.242   3.013  -5.735  1.00  0.00    -0.354 N 
ATOM     63  N   UNL     1      17.983   4.157  -3.030  1.00  0.00    -0.248 NA
ATOM     64  C   UNL     1      18.932   4.732  -0.975  1.00  0.00     0.031 C 
ATOM     65  C   UNL     1      20.256   2.362  -6.408  1.00  0.00     0.029 A 
ATOM     66  C   UNL     1      19.567   2.923  -5.344  1.00  0.00     0.049 A 
ATOM     67  H   UNL     1      17.511   3.364  -5.177  1.00  0.00     0.167 HD
ATOM     68  C   UNL     1      19.346   3.885  -3.066  1.00  0.00     0.074 A 
ATOM     69  C   UNL     1      19.885   4.291  -1.784  1.00  0.00     0.031 C 
ATOM     70  C   UNL     1      20.086   3.346  -4.067  1.00  0.00     0.037 A 
BRANCH  57  71
ATOM     71  C   UNL     1      16.853   1.901  -9.139  1.00  0.00     0.058 A 
ATOM     72  C   UNL     1      16.634   2.708 -10.268  1.00  0.00     0.135 A 
ATOM     73  C   UNL     1      17.118   0.538  -9.354  1.00  0.00     0.135 A 
ATOM     74  F   UNL     1      16.357   4.014 -10.122  1.00  0.00    -0.206 F 
ATOM     75  C   UNL     1      16.652   2.183 -11.555  1.00  0.00     0.059 A 
ATOM     76  C   UNL     1      17.173  -0.003 -10.636  1.00  0.00     0.059 A 
ATOM     77  F   UNL     1      17.331  -0.282  -8.313  1.00  0.00    -0.206 F 
ATOM     78  C   UNL     1      16.927   0.826 -11.729  1.00  0.00     0.060 A 
BRANCH  78  79
ATOM     79  S   UNL     1      16.970   0.167 -13.409  1.00  0.00     0.124 S 
ATOM     80  O   UNL     1      15.556   0.205 -13.773  1.00  0.00    -0.237 OA
ATOM     81  O   UNL     1      17.827   1.127 -14.098  1.00  0.00    -0.237 OA
ATOM     82  O   UNL     1      17.537  -1.167 -13.239  1.00  0.00    -0.744 OA
ENDBRANCH  78  79
ENDBRANCH  57  71
BRANCH  58  83
ATOM     83  C   UNL     1      16.376   5.668   0.132  1.00  0.00     0.058 A 
ATOM     84  C   UNL     1      17.016   6.861   0.504  1.00  0.00     0.135 A 
ATOM     85  C   UNL     1      15.664   4.975   1.125  1.00  0.00     0.135 A 
ATOM     86  F   UNL     1      17.712   7.559  -0.405  1.00  0.00    -0.206 F 
ATOM     87  C   UNL     1      16.976   7.333   1.813  1.00  0.00     0.059 A 
ATOM     88  C   UNL     1      15.585   5.444   2.432  1.00  0.00     0.059 A 
ATOM     89  F   UNL     1      15.017   3.840   0.820  1.00  0.00    -0.206 F 
ATOM     90  C   UNL     1      16.257   6.617   2.770  1.00  0.00     0.060 A 
BRANCH  90  91
ATOM     91  S   UNL     1      16.185   7.255   4.458  1.00  0.00     0.124 S 
ATOM     92  O   UNL     1      17.539   6.990   4.930  1.00  0.00    -0.237 OA
ATOM     93  O   UNL     1      15.847   8.658   4.241  1.00  0.00    -0.237 OA
ATOM     94  O   UNL     1      15.132   6.453   5.075  1.00  0.00    -0.744 OA
ENDBRANCH  90  91
ENDBRANCH  58  83
BRANCH  70  95
ATOM     95  C   UNL     1      21.565   3.201  -3.835  1.00  0.00     0.058 A 
ATOM     96  C   UNL     1      22.085   2.242  -2.953  1.00  0.00     0.135 A 
ATOM     97  C   UNL     1      22.474   3.995  -4.553  1.00  0.00     0.135 A 
ATOM     98  F   UNL     1      21.259   1.461  -2.238  1.00  0.00    -0.206 F 
ATOM     99  C   UNL     1      23.456   2.093  -2.770  1.00  0.00     0.059 A 
ATOM    100  C   UNL     1      23.849   3.841  -4.410  1.00  0.00     0.059 A 
ATOM    101  F   UNL     1      22.029   4.918  -5.420  1.00  0.00    -0.206 F 
ATOM    102  C   UNL     1      24.330   2.895  -3.507  1.00  0.00     0.060 A 
BRANCH 102 103
ATOM    103  S   UNL     1      26.106   2.665  -3.285  1.00  0.00     0.124 S 
ATOM    104  O   UNL     1      26.315   3.242  -1.962  1.00  0.00    -0.237 OA
ATOM    105  O   UNL     1      26.246   1.215  -3.374  1.00  0.00    -0.237 OA
ATOM    106  O   UNL     1      26.688   3.414  -4.396  1.00  0.00    -0.744 OA
ENDBRANCH 102 103
ENDBRANCH  70  95
ENDBRANCH  44  45
ENDBRANCH  36  39
ENDBRANCH  34  35
ENDBRANCH  33  34
ENDBRANCH  32  33
ENDBRANCH   1  32
TORSDOF 20
