REMARK SMILES O=C(NCCCCCCNC(=O)c1nccnc1C(=O)Nc1n[nH]c2ncccc12)c1ccc(-c2c3nc(c(-c4c(F)cc(S(=O)(=O)[O-])cc4F)c4ccc([nH]4)c(-c4c(F)cc(S(=O)(=O)[O-])cc4F)c4nc(c(-c5c(F)cc(S(=O)(=O)[O-])cc5F)c5ccc2[nH]5)C=C4)C=C3)cc1
REMARK SMILES IDX 6 1 5 2 4 3 3 4 1 5 2 6 31 8 32 9 96 10 33 11 95 12 34 13
REMARK SMILES IDX 35 14 36 15 89 16 37 17 94 18 88 19 90 20 38 21 93 22 87 23
REMARK SMILES IDX 86 24 39 26 73 27 52 28 72 29 53 30 56 31 71 32 91 33 54 34
REMARK SMILES IDX 55 35 70 37 92 38 57 39 40 40 41 41 50 42 42 43 43 44 49 45
REMARK SMILES IDX 51 46 44 47 45 48 46 49 47 50 48 51 74 52 75 53 84 54 76 55
REMARK SMILES IDX 77 56 83 57 85 58 78 59 79 60 80 61 81 62 82 63 58 64 59 65
REMARK SMILES IDX 68 66 60 67 61 68 67 69 69 70 62 71 63 72 64 73 65 74 66 75
REMARK SMILES IDX 7 76 8 77 9 78 10 79 11 80 12 82 13 83 14 84 18 85 15 86
REMARK SMILES IDX 17 87 16 88 19 89 20 90 21 91 22 93 23 94 30 95 24 96 25 97
REMARK SMILES IDX 29 98 26 100 28 101 27 102
REMARK H PARENT 3 7 90 25 56 36 10 81 21 92 24 99
REMARK Flexibility Score: inf
ROOT
ATOM      1  C   UNL     1       3.723   3.200   1.599  1.00  0.00     0.002 C 
ENDROOT
BRANCH   1   2
ATOM      2  C   UNL     1       4.270   2.170   0.617  1.00  0.00     0.021 C 
BRANCH   2   3
ATOM      3  C   UNL     1       4.096   0.739   1.079  1.00  0.00     0.116 C 
BRANCH   3   4
ATOM      4  N   UNL     1       2.704   0.340   0.974  1.00  0.00    -0.352 N 
ATOM      5  O   UNL     1       0.868  -0.219  -0.212  1.00  0.00    -0.269 OA
ATOM      6  C   UNL     1       2.086  -0.287  -0.081  1.00  0.00     0.251 C 
ATOM      7  H   UNL     1       2.135   0.542   1.751  1.00  0.00     0.163 HD
BRANCH   6   8
ATOM      8  C   UNL     1       2.908  -1.047  -1.050  1.00  0.00     0.039 A 
ATOM      9  C   UNL     1       3.985  -1.811  -0.594  1.00  0.00     0.014 A 
ATOM     10  C   UNL     1       2.575  -1.046  -2.406  1.00  0.00     0.014 A 
ATOM     11  C   UNL     1       4.804  -2.470  -1.495  1.00  0.00     0.010 A 
ATOM     12  C   UNL     1       3.321  -1.821  -3.299  1.00  0.00     0.010 A 
ATOM     13  C   UNL     1       4.433  -2.548  -2.843  1.00  0.00    -0.014 A 
BRANCH  13  14
ATOM     14  C   UNL     1       5.100  -3.559  -3.697  1.00  0.00     0.031 A 
ATOM     15  C   UNL     1       5.881  -3.170  -4.915  1.00  0.00     0.074 A 
ATOM     16  C   UNL     1       4.965  -4.855  -3.343  1.00  0.00     0.049 A 
ATOM     17  N   UNL     1       6.477  -3.946  -5.781  1.00  0.00    -0.248 NA
ATOM     18  C   UNL     1       6.009  -1.733  -5.207  1.00  0.00     0.031 C 
ATOM     19  C   UNL     1       4.206  -5.335  -2.179  1.00  0.00     0.029 A 
ATOM     20  N   UNL     1       5.450  -6.004  -3.908  1.00  0.00    -0.354 N 
ATOM     21  C   UNL     1       7.025  -3.102  -6.737  1.00  0.00     0.074 A 
ATOM     22  C   UNL     1       6.691  -1.749  -6.347  1.00  0.00     0.031 C 
ATOM     23  C   UNL     1       4.302  -6.667  -2.103  1.00  0.00     0.029 A 
ATOM     24  C   UNL     1       5.043  -7.147  -3.259  1.00  0.00     0.049 A 
ATOM     25  H   UNL     1       6.032  -6.012  -4.702  1.00  0.00     0.167 HD
ATOM     26  C   UNL     1       7.734  -3.442  -7.840  1.00  0.00     0.037 A 
ATOM     27  C   UNL     1       5.196  -8.443  -3.584  1.00  0.00     0.037 A 
ATOM     28  C   UNL     1       8.063  -4.800  -8.195  1.00  0.00     0.049 A 
ATOM     29  C   UNL     1       5.950  -8.779  -4.837  1.00  0.00     0.074 A 
ATOM     30  C   UNL     1       8.840  -5.242  -9.252  1.00  0.00     0.029 A 
ATOM     31  N   UNL     1       7.620  -5.931  -7.526  1.00  0.00    -0.354 N 
ATOM     32  N   UNL     1       6.537  -7.966  -5.683  1.00  0.00    -0.248 NA
ATOM     33  C   UNL     1       6.059 -10.199  -5.188  1.00  0.00     0.031 C 
ATOM     34  C   UNL     1       8.803  -6.639  -9.267  1.00  0.00     0.029 A 
ATOM     35  C   UNL     1       8.062  -7.071  -8.179  1.00  0.00     0.049 A 
ATOM     36  H   UNL     1       7.072  -5.926  -6.708  1.00  0.00     0.167 HD
ATOM     37  C   UNL     1       7.091  -8.778  -6.663  1.00  0.00     0.074 A 
ATOM     38  C   UNL     1       6.802 -10.146  -6.284  1.00  0.00     0.031 C 
ATOM     39  C   UNL     1       7.767  -8.425  -7.782  1.00  0.00     0.037 A 
BRANCH  26  40
ATOM     40  C   UNL     1       8.186  -2.352  -8.772  1.00  0.00     0.058 A 
ATOM     41  C   UNL     1       9.237  -1.482  -8.447  1.00  0.00     0.135 A 
ATOM     42  C   UNL     1       7.637  -2.263 -10.063  1.00  0.00     0.135 A 
ATOM     43  F   UNL     1       9.787  -1.512  -7.223  1.00  0.00    -0.206 F 
ATOM     44  C   UNL     1       9.733  -0.567  -9.371  1.00  0.00     0.059 A 
ATOM     45  C   UNL     1       8.134  -1.374 -11.011  1.00  0.00     0.059 A 
ATOM     46  F   UNL     1       6.625  -3.068 -10.423  1.00  0.00    -0.206 F 
ATOM     47  C   UNL     1       9.184  -0.530 -10.655  1.00  0.00     0.060 A 
BRANCH  47  48
ATOM     48  S   UNL     1       9.887   0.617 -11.859  1.00  0.00     0.124 S 
ATOM     49  O   UNL     1       9.477   1.905 -11.308  1.00  0.00    -0.237 OA
ATOM     50  O   UNL     1      11.313   0.318 -11.774  1.00  0.00    -0.237 OA
ATOM     51  O   UNL     1       9.241   0.238 -13.112  1.00  0.00    -0.744 OA
ENDBRANCH  47  48
ENDBRANCH  26  40
BRANCH  27  52
ATOM     52  C   UNL     1       4.564  -9.505  -2.755  1.00  0.00     0.058 A 
ATOM     53  C   UNL     1       5.338 -10.454  -2.074  1.00  0.00     0.135 A 
ATOM     54  C   UNL     1       3.166  -9.604  -2.646  1.00  0.00     0.135 A 
ATOM     55  F   UNL     1       6.678 -10.403  -2.143  1.00  0.00    -0.206 F 
ATOM     56  C   UNL     1       4.752 -11.488  -1.351  1.00  0.00     0.059 A 
ATOM     57  C   UNL     1       2.557 -10.602  -1.896  1.00  0.00     0.059 A 
ATOM     58  F   UNL     1       2.377  -8.708  -3.259  1.00  0.00    -0.206 F 
ATOM     59  C   UNL     1       3.359 -11.555  -1.272  1.00  0.00     0.060 A 
BRANCH  59  60
ATOM     60  S   UNL     1       2.609 -12.905  -0.340  1.00  0.00     0.124 S 
ATOM     61  O   UNL     1       2.876 -14.044  -1.212  1.00  0.00    -0.237 OA
ATOM     62  O   UNL     1       3.361 -12.867   0.910  1.00  0.00    -0.237 OA
ATOM     63  O   UNL     1       1.209 -12.505  -0.235  1.00  0.00    -0.744 OA
ENDBRANCH  59  60
ENDBRANCH  27  52
BRANCH  39  64
ATOM     64  C   UNL     1       8.253  -9.535  -8.671  1.00  0.00     0.058 A 
ATOM     65  C   UNL     1       7.364 -10.294  -9.447  1.00  0.00     0.135 A 
ATOM     66  C   UNL     1       9.626  -9.799  -8.796  1.00  0.00     0.135 A 
ATOM     67  F   UNL     1       6.040 -10.092  -9.352  1.00  0.00    -0.206 F 
ATOM     68  C   UNL     1       7.818 -11.286 -10.308  1.00  0.00     0.059 A 
ATOM     69  C   UNL     1      10.105 -10.762  -9.676  1.00  0.00     0.059 A 
ATOM     70  F   UNL     1      10.518  -9.098  -8.078  1.00  0.00    -0.206 F 
ATOM     71  C   UNL     1       9.193 -11.505 -10.424  1.00  0.00     0.060 A 
BRANCH  71  72
ATOM     72  S   UNL     1       9.769 -12.750 -11.595  1.00  0.00     0.124 S 
ATOM     73  O   UNL     1       9.339 -13.985 -10.947  1.00  0.00    -0.237 OA
ATOM     74  O   UNL     1       9.049 -12.387 -12.811  1.00  0.00    -0.237 OA
ATOM     75  O   UNL     1      11.212 -12.535 -11.638  1.00  0.00    -0.744 OA
ENDBRANCH  71  72
ENDBRANCH  39  64
ENDBRANCH  13  14
ENDBRANCH   6   8
ENDBRANCH   3   4
ENDBRANCH   2   3
ENDBRANCH   1   2
BRANCH   1  76
ATOM     76  C   UNL     1       4.343   3.220   3.016  1.00  0.00     0.002 C 
BRANCH  76  77
ATOM     77  C   UNL     1       6.065   3.446   3.292  1.00  0.00     0.021 C 
BRANCH  77  78
ATOM     78  C   UNL     1       7.410   5.153   2.961  1.00  0.00     0.116 C 
BRANCH  78  79
ATOM     79  N   UNL     1       7.425   6.642   3.562  1.00  0.00    -0.351 N 
ATOM     80  C   UNL     1       8.356   7.236   4.388  1.00  0.00     0.272 C 
ATOM     81  H   UNL     1       6.663   7.210   3.305  1.00  0.00     0.163 HD
ATOM     82  O   UNL     1       8.170   8.330   4.905  1.00  0.00    -0.267 OA
BRANCH  80  83
ATOM     83  C   UNL     1       9.614   6.499   4.581  1.00  0.00     0.159 A 
ATOM     84  N   UNL     1      10.419   6.527   3.465  1.00  0.00    -0.247 NA
ATOM     85  C   UNL     1       9.877   5.702   5.686  1.00  0.00     0.159 A 
ATOM     86  C   UNL     1      11.510   5.743   3.505  1.00  0.00     0.132 A 
ATOM     87  N   UNL     1      10.996   4.908   5.700  1.00  0.00    -0.247 NA
ATOM     88  C   UNL     1      11.792   4.951   4.601  1.00  0.00     0.132 A 
BRANCH  85  89
ATOM     89  C   UNL     1       9.103   5.694   6.965  1.00  0.00     0.277 C 
ATOM     90  O   UNL     1       9.742   5.860   8.010  1.00  0.00    -0.267 OA
ATOM     91  N   UNL     1       7.734   5.569   7.066  1.00  0.00    -0.303 N 
ATOM     92  H   UNL     1       7.375   5.722   7.969  1.00  0.00     0.172 HD
BRANCH  91  93
ATOM     93  C   UNL     1       6.790   5.270   6.119  1.00  0.00     0.164 A 
ATOM     94  N   UNL     1       5.579   5.845   6.240  1.00  0.00    -0.155 NA
ATOM     95  C   UNL     1       6.944   4.532   4.928  1.00  0.00     0.063 A 
ATOM     96  N   UNL     1       5.001   5.925   5.004  1.00  0.00    -0.259 N 
ATOM     97  C   UNL     1       5.665   5.256   4.016  1.00  0.00     0.157 A 
ATOM     98  C   UNL     1       8.064   3.427   4.088  1.00  0.00     0.017 A 
ATOM     99  H   UNL     1       4.170   6.427   4.839  1.00  0.00     0.192 HD
ATOM    100  N   UNL     1       5.522   5.133   2.284  1.00  0.00    -0.237 NA
ATOM    101  C   UNL     1       7.962   3.190   2.329  1.00  0.00     0.021 A 
ATOM    102  C   UNL     1       6.671   4.019   1.475  1.00  0.00     0.113 A 
ENDBRANCH  91  93
ENDBRANCH  85  89
ENDBRANCH  80  83
ENDBRANCH  78  79
ENDBRANCH  77  78
ENDBRANCH  76  77
ENDBRANCH   1  76
TORSDOF 18
