REMARK SMILES CC1(C)[C@@]2(C(=O)NCCCCCCNC(=O)c3ccc(-c4c5nc(c(-c6c(F)cc(S(=O)(=O)[O-])cc6F)c6ccc([nH]6)c(-c6c(F)cc(S(=O)(=O)[O-])cc6F)c6nc(c(-c7c(F)cc(S(=O)(=O)[O-])cc7F)c7ccc4[nH]7)C=C6)C=C5)cc3)CC[C@]1(C)/C(=N/NC(=O)c1ccc(Cl)cc1)C2
REMARK SMILES IDX 11 1 10 2 9 3 8 4 7 5 5 6 6 7 4 9 1 10 2 11 3 12 85 13 83 14
REMARK SMILES IDX 99 15 84 16 86 17 87 18 88 19 89 20 90 21 91 23 92 24 93 25
REMARK SMILES IDX 98 26 94 27 97 28 95 29 96 30 12 31 13 32 14 33 15 34 16 36
REMARK SMILES IDX 17 37 18 38 82 39 19 40 81 41 20 42 21 43 22 44 75 45 23 46
REMARK SMILES IDX 80 47 74 48 76 49 24 50 79 51 73 52 72 53 25 55 59 56 38 57
REMARK SMILES IDX 58 58 39 59 42 60 57 61 77 62 40 63 41 64 56 66 78 67 43 68
REMARK SMILES IDX 26 69 27 70 36 71 28 72 29 73 35 74 37 75 30 76 31 77 32 78
REMARK SMILES IDX 33 79 34 80 60 81 61 82 70 83 62 84 63 85 69 86 71 87 64 88
REMARK SMILES IDX 65 89 66 90 67 91 68 92 44 93 45 94 54 95 46 96 47 97 53 98
REMARK SMILES IDX 55 99 48 100 49 101 50 102 51 103 52 104
REMARK H PARENT 7 8 89 22 14 35 76 54 42 65
REMARK Flexibility Score: inf
ROOT
ATOM      1  C   UNL     1      -2.505   1.908  -6.877  1.00  0.00     0.002 C 
ENDROOT
BRANCH   1   2
ATOM      2  C   UNL     1      -2.021   2.515  -5.555  1.00  0.00     0.002 C 
BRANCH   2   3
ATOM      3  C   UNL     1      -2.674   1.965  -4.277  1.00  0.00     0.021 C 
BRANCH   3   4
ATOM      4  C   UNL     1      -1.961   0.798  -3.587  1.00  0.00     0.116 C 
BRANCH   4   5
ATOM      5  N   UNL     1      -0.555   1.035  -3.306  1.00  0.00    -0.356 N 
ATOM      6  C   UNL     1       0.197   0.970  -2.176  1.00  0.00     0.227 C 
ATOM      7  O   UNL     1       1.419   0.964  -2.346  1.00  0.00    -0.274 OA
ATOM      8  H   UNL     1      -0.038   1.297  -4.102  1.00  0.00     0.163 HD
BRANCH   6   9
ATOM      9  C   UNL     1      -0.404   0.975  -0.769  1.00  0.00     0.060 C 
ATOM     10  C   UNL     1       1.483  -0.408   0.423  1.00  0.00     0.013 C 
ATOM     11  C   UNL     1       0.672   0.914   0.398  1.00  0.00    -0.010 C 
ATOM     12  C   UNL     1       1.681   2.083   0.492  1.00  0.00     0.013 C 
ATOM     13  C   UNL     1      -0.426   1.007   1.497  1.00  0.00     0.014 C 
ATOM     14  C   UNL     1      -1.343  -0.201  -0.394  1.00  0.00     0.019 C 
ATOM     15  C   UNL     1      -1.155   2.296  -0.482  1.00  0.00     0.071 C 
ATOM     16  C   UNL     1      -1.369  -0.167   1.149  1.00  0.00     0.014 C 
ATOM     17  C   UNL     1       0.013   1.030   2.947  1.00  0.00     0.018 C 
ATOM     18  C   UNL     1      -1.185   2.267   1.015  1.00  0.00     0.046 C 
ATOM     19  N   UNL     1      -1.780   3.030   1.869  1.00  0.00    -0.181 NA
BRANCH  19  20
ATOM     20  N   UNL     1      -2.572   4.111   1.657  1.00  0.00    -0.243 N 
ATOM     21  C   UNL     1      -2.648   5.181   0.794  1.00  0.00     0.271 C 
ATOM     22  H   UNL     1      -3.308   4.138   2.311  1.00  0.00     0.194 HD
ATOM     23  O   UNL     1      -3.486   6.062   1.002  1.00  0.00    -0.267 OA
BRANCH  21  24
ATOM     24  C   UNL     1      -1.768   5.396  -0.351  1.00  0.00     0.041 A 
ATOM     25  C   UNL     1      -0.654   6.234  -0.232  1.00  0.00     0.015 A 
ATOM     26  C   UNL     1      -2.162   4.929  -1.608  1.00  0.00     0.015 A 
ATOM     27  C   UNL     1       0.144   6.488  -1.352  1.00  0.00     0.021 A 
ATOM     28  C   UNL     1      -1.337   5.150  -2.714  1.00  0.00     0.021 A 
ATOM     29  C   UNL     1      -0.178   5.909  -2.578  1.00  0.00     0.041 A 
ATOM     30  Cl  UNL     1       0.852   6.131  -3.938  1.00  0.00    -0.084 Cl
ENDBRANCH  21  24
ENDBRANCH  19  20
ENDBRANCH   6   9
ENDBRANCH   4   5
ENDBRANCH   3   4
ENDBRANCH   2   3
ENDBRANCH   1   2
BRANCH   1  31
ATOM     31  C   UNL     1      -4.013   1.980  -7.144  1.00  0.00     0.021 C 
BRANCH  31  32
ATOM     32  C   UNL     1      -4.642   3.369  -7.025  1.00  0.00     0.116 C 
BRANCH  32  33
ATOM     33  N   UNL     1      -4.381   4.190  -8.197  1.00  0.00    -0.352 N 
ATOM     34  C   UNL     1      -5.281   4.668  -9.119  1.00  0.00     0.251 C 
ATOM     35  H   UNL     1      -3.440   4.434  -8.350  1.00  0.00     0.163 HD
ATOM     36  O   UNL     1      -4.883   5.160 -10.177  1.00  0.00    -0.269 OA
BRANCH  34  37
ATOM     37  C   UNL     1      -6.732   4.579  -8.846  1.00  0.00     0.039 A 
ATOM     38  C   UNL     1      -7.577   4.015  -9.805  1.00  0.00     0.014 A 
ATOM     39  C   UNL     1      -7.256   5.059  -7.641  1.00  0.00     0.014 A 
ATOM     40  C   UNL     1      -8.942   3.881  -9.534  1.00  0.00     0.010 A 
ATOM     41  C   UNL     1      -8.608   4.878  -7.352  1.00  0.00     0.010 A 
ATOM     42  C   UNL     1      -9.465   4.291  -8.296  1.00  0.00    -0.014 A 
BRANCH  42  43
ATOM     43  C   UNL     1     -10.906   4.118  -7.974  1.00  0.00     0.031 A 
ATOM     44  C   UNL     1     -11.792   5.321  -7.797  1.00  0.00     0.074 A 
ATOM     45  C   UNL     1     -11.405   2.881  -7.776  1.00  0.00     0.049 A 
ATOM     46  N   UNL     1     -13.053   5.375  -7.451  1.00  0.00    -0.248 NA
ATOM     47  C   UNL     1     -11.172   6.638  -8.014  1.00  0.00     0.031 C 
ATOM     48  C   UNL     1     -10.639   1.636  -7.867  1.00  0.00     0.029 A 
ATOM     49  N   UNL     1     -12.671   2.468  -7.443  1.00  0.00    -0.354 N 
ATOM     50  C   UNL     1     -13.372   6.726  -7.388  1.00  0.00     0.074 A 
ATOM     51  C   UNL     1     -12.163   7.460  -7.696  1.00  0.00     0.031 C 
ATOM     52  C   UNL     1     -11.453   0.600  -7.606  1.00  0.00     0.029 A 
ATOM     53  C   UNL     1     -12.790   1.105  -7.305  1.00  0.00     0.049 A 
ATOM     54  H   UNL     1     -13.424   3.089  -7.316  1.00  0.00     0.167 HD
ATOM     55  C   UNL     1     -14.567   7.303  -7.116  1.00  0.00     0.037 A 
ATOM     56  C   UNL     1     -13.852   0.347  -6.969  1.00  0.00     0.037 A 
ATOM     57  C   UNL     1     -15.777   6.572  -6.848  1.00  0.00     0.049 A 
ATOM     58  C   UNL     1     -15.177   1.007  -6.707  1.00  0.00     0.074 A 
ATOM     59  C   UNL     1     -17.052   7.066  -6.634  1.00  0.00     0.029 A 
ATOM     60  N   UNL     1     -15.865   5.190  -6.758  1.00  0.00    -0.354 N 
ATOM     61  N   UNL     1     -15.475   2.284  -6.715  1.00  0.00    -0.248 NA
ATOM     62  C   UNL     1     -16.313   0.126  -6.401  1.00  0.00     0.031 C 
ATOM     63  C   UNL     1     -17.905   5.986  -6.382  1.00  0.00     0.029 A 
ATOM     64  C   UNL     1     -17.169   4.816  -6.477  1.00  0.00     0.049 A 
ATOM     65  H   UNL     1     -15.112   4.568  -6.876  1.00  0.00     0.167 HD
ATOM     66  C   UNL     1     -16.835   2.359  -6.434  1.00  0.00     0.074 A 
ATOM     67  C   UNL     1     -17.304   0.998  -6.273  1.00  0.00     0.031 C 
ATOM     68  C   UNL     1     -17.623   3.457  -6.322  1.00  0.00     0.037 A 
BRANCH  55  69
ATOM     69  C   UNL     1     -14.628   8.805  -7.103  1.00  0.00     0.058 A 
ATOM     70  C   UNL     1     -14.563   9.555  -8.288  1.00  0.00     0.135 A 
ATOM     71  C   UNL     1     -14.796   9.502  -5.895  1.00  0.00     0.135 A 
ATOM     72  F   UNL     1     -14.388   8.939  -9.468  1.00  0.00    -0.206 F 
ATOM     73  C   UNL     1     -14.636  10.944  -8.275  1.00  0.00     0.059 A 
ATOM     74  C   UNL     1     -14.896  10.890  -5.861  1.00  0.00     0.059 A 
ATOM     75  F   UNL     1     -14.865   8.834  -4.733  1.00  0.00    -0.206 F 
ATOM     76  C   UNL     1     -14.801  11.603  -7.055  1.00  0.00     0.060 A 
BRANCH  76  77
ATOM     77  S   UNL     1     -14.905  13.405  -7.053  1.00  0.00     0.124 S 
ATOM     78  O   UNL     1     -13.508  13.776  -7.265  1.00  0.00    -0.237 OA
ATOM     79  O   UNL     1     -15.805  13.669  -8.173  1.00  0.00    -0.237 OA
ATOM     80  O   UNL     1     -15.444  13.713  -5.734  1.00  0.00    -0.744 OA
ENDBRANCH  76  77
ENDBRANCH  55  69
BRANCH  56  81
ATOM     81  C   UNL     1     -13.706  -1.130  -6.891  1.00  0.00     0.058 A 
ATOM     82  C   UNL     1     -14.241  -1.960  -7.886  1.00  0.00     0.135 A 
ATOM     83  C   UNL     1     -13.000  -1.736  -5.840  1.00  0.00     0.135 A 
ATOM     84  F   UNL     1     -14.930  -1.426  -8.905  1.00  0.00    -0.206 F 
ATOM     85  C   UNL     1     -14.085  -3.342  -7.843  1.00  0.00     0.059 A 
ATOM     86  C   UNL     1     -12.814  -3.114  -5.785  1.00  0.00     0.059 A 
ATOM     87  F   UNL     1     -12.456  -0.982  -4.872  1.00  0.00    -0.206 F 
ATOM     88  C   UNL     1     -13.365  -3.909  -6.790  1.00  0.00     0.060 A 
BRANCH  88  89
ATOM     89  S   UNL     1     -13.100  -5.696  -6.782  1.00  0.00     0.124 S 
ATOM     90  O   UNL     1     -14.405  -6.184  -6.352  1.00  0.00    -0.237 OA
ATOM     91  O   UNL     1     -12.744  -5.961  -8.172  1.00  0.00    -0.237 OA
ATOM     92  O   UNL     1     -12.012  -5.867  -5.823  1.00  0.00    -0.744 OA
ENDBRANCH  88  89
ENDBRANCH  56  81
BRANCH  68  93
ATOM     93  C   UNL     1     -19.080   3.236  -6.033  1.00  0.00     0.058 A 
ATOM     94  C   UNL     1     -19.528   2.871  -4.754  1.00  0.00     0.135 A 
ATOM     95  C   UNL     1     -20.044   3.448  -7.032  1.00  0.00     0.135 A 
ATOM     96  F   UNL     1     -18.646   2.651  -3.767  1.00  0.00    -0.206 F 
ATOM     97  C   UNL     1     -20.882   2.707  -4.479  1.00  0.00     0.059 A 
ATOM     98  C   UNL     1     -21.404   3.310  -6.774  1.00  0.00     0.059 A 
ATOM     99  F   UNL     1     -19.667   3.808  -8.269  1.00  0.00    -0.206 F 
ATOM    100  C   UNL     1     -21.813   2.929  -5.496  1.00  0.00     0.060 A 
BRANCH 100 101
ATOM    101  S   UNL     1     -23.570   2.747  -5.120  1.00  0.00     0.124 S 
ATOM    102  O   UNL     1     -23.718   1.295  -5.107  1.00  0.00    -0.237 OA
ATOM    103  O   UNL     1     -23.684   3.407  -3.824  1.00  0.00    -0.237 OA
ATOM    104  O   UNL     1     -24.226   3.436  -6.227  1.00  0.00    -0.744 OA
ENDBRANCH 100 101
ENDBRANCH  68  93
ENDBRANCH  42  43
ENDBRANCH  34  37
ENDBRANCH  32  33
ENDBRANCH  31  32
ENDBRANCH   1  31
TORSDOF 18
