REMARK SMILES COc1cc(OC)cc(-c2cnc(Cl)c(C(=O)NCCCCCCNC(=O)c3ccc(-c4c5nc(c(-c6c(F)cc(S(=O)(=O)[O-])cc6F)c6ccc([nH]6)c(-c6c(F)cc(S(=O)(=O)[O-])cc6F)c6nc(c(-c7c(F)cc(S(=O)(=O)[O-])cc7F)c7ccc4[nH]7)C=C6)C=C5)cc3)c2)c1
REMARK SMILES IDX 22 1 21 2 20 3 19 4 18 5 16 6 17 7 15 9 10 10 11 11 94 12
REMARK SMILES IDX 12 13 13 14 14 15 9 16 3 17 4 18 95 19 5 20 8 21 2 22 1 23
REMARK SMILES IDX 6 24 7 25 23 26 24 27 25 28 26 29 27 31 28 32 29 33 93 34
REMARK SMILES IDX 30 35 92 36 31 37 32 38 33 39 86 40 34 41 91 42 85 43 87 44
REMARK SMILES IDX 35 45 90 46 84 47 83 48 36 50 70 51 49 52 69 53 50 54 53 55
REMARK SMILES IDX 68 56 88 57 51 58 52 59 67 61 89 62 54 63 37 64 38 65 47 66
REMARK SMILES IDX 39 67 40 68 46 69 48 70 41 71 42 72 43 73 44 74 45 75 71 76
REMARK SMILES IDX 72 77 81 78 73 79 74 80 80 81 82 82 75 83 76 84 77 85 78 86
REMARK SMILES IDX 79 87 55 88 56 89 65 90 57 91 58 92 64 93 66 94 59 95 60 96
REMARK SMILES IDX 61 97 62 98 63 99
REMARK H PARENT 18 8 25 30 87 49 53 60
REMARK Flexibility Score: inf
ROOT
ATOM      1  C   UNL     1      12.586   2.854   3.678  1.00  0.00     0.002 C 
ENDROOT
BRANCH   1   2
ATOM      2  C   UNL     1      11.678   1.916   2.870  1.00  0.00     0.002 C 
BRANCH   2   3
ATOM      3  C   UNL     1      10.353   1.560   3.559  1.00  0.00     0.021 C 
BRANCH   3   4
ATOM      4  C   UNL     1       9.537   2.797   3.943  1.00  0.00     0.116 C 
BRANCH   4   5
ATOM      5  N   UNL     1       8.535   3.069   2.947  1.00  0.00    -0.352 N 
ATOM      6  C   UNL     1       7.197   2.905   2.796  1.00  0.00     0.254 C 
ATOM      7  O   UNL     1       6.797   3.340   1.705  1.00  0.00    -0.269 OA
ATOM      8  H   UNL     1       8.932   3.492   2.151  1.00  0.00     0.163 HD
BRANCH   6   9
ATOM      9  C   UNL     1       6.173   2.328   3.721  1.00  0.00     0.077 A 
ATOM     10  C   UNL     1       3.718   2.034   3.898  1.00  0.00     0.001 A 
ATOM     11  C   UNL     1       3.932   1.419   5.115  1.00  0.00     0.121 A 
ATOM     12  C   UNL     1       4.855   2.486   3.222  1.00  0.00     0.027 A 
ATOM     13  N   UNL     1       5.153   1.226   5.640  1.00  0.00    -0.243 NA
ATOM     14  C   UNL     1       6.242   1.658   4.937  1.00  0.00     0.141 A 
ATOM     15  Cl  UNL     1       7.622   1.112   5.787  1.00  0.00    -0.061 Cl
BRANCH  10  16
ATOM     16  C   UNL     1       2.377   2.248   3.367  1.00  0.00    -0.009 A 
ATOM     17  C   UNL     1       0.654   1.826   1.708  1.00  0.00     0.123 A 
ATOM     18  C   UNL     1      -0.200   2.695   2.394  1.00  0.00     0.092 A 
ATOM     19  C   UNL     1       1.947   1.617   2.188  1.00  0.00     0.055 A 
ATOM     20  C   UNL     1       0.217   3.345   3.557  1.00  0.00     0.123 A 
ATOM     21  C   UNL     1       1.501   3.112   4.040  1.00  0.00     0.055 A 
BRANCH  17  22
ATOM     22  O   UNL     1       0.124   1.263   0.578  1.00  0.00    -0.497 OA
ATOM     23  C   UNL     1       0.810   0.132   0.050  1.00  0.00     0.278 C 
ENDBRANCH  17  22
BRANCH  20  24
ATOM     24  O   UNL     1      -0.706   4.172   4.138  1.00  0.00    -0.497 OA
ATOM     25  C   UNL     1      -0.248   4.958   5.235  1.00  0.00     0.278 C 
ENDBRANCH  20  24
ENDBRANCH  10  16
ENDBRANCH   6   9
ENDBRANCH   4   5
ENDBRANCH   3   4
ENDBRANCH   2   3
ENDBRANCH   1   2
BRANCH   1  26
ATOM     26  C   UNL     1      12.825   2.420   5.126  1.00  0.00     0.021 C 
BRANCH  26  27
ATOM     27  C   UNL     1      13.505   1.062   5.257  1.00  0.00     0.116 C 
BRANCH  27  28
ATOM     28  N   UNL     1      14.805   1.059   4.604  1.00  0.00    -0.352 N 
ATOM     29  C   UNL     1      16.034   0.789   5.134  1.00  0.00     0.251 C 
ATOM     30  H   UNL     1      14.797   1.284   3.645  1.00  0.00     0.163 HD
ATOM     31  O   UNL     1      17.054   1.101   4.510  1.00  0.00    -0.269 OA
BRANCH  29  32
ATOM     32  C   UNL     1      16.139   0.128   6.447  1.00  0.00     0.039 A 
ATOM     33  C   UNL     1      17.097   0.575   7.360  1.00  0.00     0.014 A 
ATOM     34  C   UNL     1      15.305  -0.949   6.768  1.00  0.00     0.014 A 
ATOM     35  C   UNL     1      17.191  -0.035   8.611  1.00  0.00     0.010 A 
ATOM     36  C   UNL     1      15.350  -1.504   8.042  1.00  0.00     0.010 A 
ATOM     37  C   UNL     1      16.302  -1.062   8.971  1.00  0.00    -0.014 A 
BRANCH  37  38
ATOM     38  C   UNL     1      16.371  -1.699  10.310  1.00  0.00     0.031 A 
ATOM     39  C   UNL     1      16.722  -3.158  10.430  1.00  0.00     0.074 A 
ATOM     40  C   UNL     1      16.077  -0.974  11.407  1.00  0.00     0.049 A 
ATOM     41  N   UNL     1      16.773  -3.909  11.500  1.00  0.00    -0.248 NA
ATOM     42  C   UNL     1      17.033  -3.874   9.181  1.00  0.00     0.031 C 
ATOM     43  C   UNL     1      15.681   0.437  11.409  1.00  0.00     0.029 A 
ATOM     44  N   UNL     1      16.059  -1.323  12.733  1.00  0.00    -0.354 N 
ATOM     45  C   UNL     1      17.125  -5.178  11.056  1.00  0.00     0.074 A 
ATOM     46  C   UNL     1      17.205  -5.114   9.613  1.00  0.00     0.031 C 
ATOM     47  C   UNL     1      15.481   0.836  12.675  1.00  0.00     0.029 A 
ATOM     48  C   UNL     1      15.696  -0.295  13.571  1.00  0.00     0.049 A 
ATOM     49  H   UNL     1      16.285  -2.226  13.055  1.00  0.00     0.167 HD
ATOM     50  C   UNL     1      17.390  -6.287  11.786  1.00  0.00     0.037 A 
ATOM     51  C   UNL     1      15.547  -0.272  14.909  1.00  0.00     0.037 A 
ATOM     52  C   UNL     1      17.320  -6.340  13.223  1.00  0.00     0.049 A 
ATOM     53  C   UNL     1      15.828  -1.526  15.695  1.00  0.00     0.074 A 
ATOM     54  C   UNL     1      17.578  -7.411  14.060  1.00  0.00     0.029 A 
ATOM     55  N   UNL     1      16.974  -5.271  14.037  1.00  0.00    -0.354 N 
ATOM     56  N   UNL     1      16.198  -2.707  15.260  1.00  0.00    -0.248 NA
ATOM     57  C   UNL     1      15.686  -1.440  17.154  1.00  0.00     0.031 C 
ATOM     58  C   UNL     1      17.357  -6.999  15.379  1.00  0.00     0.029 A 
ATOM     59  C   UNL     1      17.011  -5.657  15.367  1.00  0.00     0.049 A 
ATOM     60  H   UNL     1      16.738  -4.370  13.718  1.00  0.00     0.167 HD
ATOM     61  C   UNL     1      16.371  -3.492  16.395  1.00  0.00     0.074 A 
ATOM     62  C   UNL     1      16.076  -2.648  17.534  1.00  0.00     0.031 C 
ATOM     63  C   UNL     1      16.740  -4.794  16.488  1.00  0.00     0.037 A 
BRANCH  50  64
ATOM     64  C   UNL     1      17.808  -7.528  11.044  1.00  0.00     0.058 A 
ATOM     65  C   UNL     1      19.059  -7.613  10.411  1.00  0.00     0.135 A 
ATOM     66  C   UNL     1      16.978  -8.660  11.005  1.00  0.00     0.135 A 
ATOM     67  F   UNL     1      19.885  -6.555  10.401  1.00  0.00    -0.206 F 
ATOM     68  C   UNL     1      19.463  -8.767   9.748  1.00  0.00     0.059 A 
ATOM     69  C   UNL     1      17.375  -9.835  10.372  1.00  0.00     0.059 A 
ATOM     70  F   UNL     1      15.771  -8.634  11.591  1.00  0.00    -0.206 F 
ATOM     71  C   UNL     1      18.615  -9.875   9.738  1.00  0.00     0.060 A 
BRANCH  71  72
ATOM     72  S   UNL     1      19.169 -11.371   8.893  1.00  0.00     0.124 S 
ATOM     73  O   UNL     1      19.082 -10.966   7.494  1.00  0.00    -0.237 OA
ATOM     74  O   UNL     1      20.519 -11.544   9.420  1.00  0.00    -0.237 OA
ATOM     75  O   UNL     1      18.201 -12.378   9.315  1.00  0.00    -0.744 OA
ENDBRANCH  71  72
ENDBRANCH  50  64
BRANCH  51  76
ATOM     76  C   UNL     1      15.123   0.977  15.599  1.00  0.00     0.058 A 
ATOM     77  C   UNL     1      15.997   1.664  16.455  1.00  0.00     0.135 A 
ATOM     78  C   UNL     1      13.827   1.492  15.441  1.00  0.00     0.135 A 
ATOM     79  F   UNL     1      17.248   1.213  16.639  1.00  0.00    -0.206 F 
ATOM     80  C   UNL     1      15.590   2.789  17.164  1.00  0.00     0.059 A 
ATOM     81  C   UNL     1      13.406   2.634  16.115  1.00  0.00     0.059 A 
ATOM     82  F   UNL     1      12.958   0.887  14.616  1.00  0.00    -0.206 F 
ATOM     83  C   UNL     1      14.289   3.262  16.992  1.00  0.00     0.060 A 
BRANCH  83  84
ATOM     84  S   UNL     1      13.766   4.721  17.919  1.00  0.00     0.124 S 
ATOM     85  O   UNL     1      13.607   4.173  19.261  1.00  0.00    -0.237 OA
ATOM     86  O   UNL     1      14.893   5.628  17.728  1.00  0.00    -0.237 OA
ATOM     87  O   UNL     1      12.531   5.119  17.249  1.00  0.00    -0.744 OA
ENDBRANCH  83  84
ENDBRANCH  51  76
BRANCH  63  88
ATOM     88  C   UNL     1      16.910  -5.366  17.869  1.00  0.00     0.058 A 
ATOM     89  C   UNL     1      15.815  -5.628  18.706  1.00  0.00     0.135 A 
ATOM     90  C   UNL     1      18.192  -5.687  18.346  1.00  0.00     0.135 A 
ATOM     91  F   UNL     1      14.569  -5.336  18.300  1.00  0.00    -0.206 F 
ATOM     92  C   UNL     1      15.986  -6.156  19.982  1.00  0.00     0.059 A 
ATOM     93  C   UNL     1      18.384  -6.244  19.605  1.00  0.00     0.059 A 
ATOM     94  F   UNL     1      19.273  -5.468  17.581  1.00  0.00    -0.206 F 
ATOM     95  C   UNL     1      17.276  -6.460  20.423  1.00  0.00     0.060 A 
BRANCH  95  96
ATOM     96  S   UNL     1      17.483  -7.161  22.073  1.00  0.00     0.124 S 
ATOM     97  O   UNL     1      17.251  -5.995  22.919  1.00  0.00    -0.237 OA
ATOM     98  O   UNL     1      16.446  -8.187  22.109  1.00  0.00    -0.237 OA
ATOM     99  O   UNL     1      18.854  -7.664  22.059  1.00  0.00    -0.744 OA
ENDBRANCH  95  96
ENDBRANCH  63  88
ENDBRANCH  37  38
ENDBRANCH  29  32
ENDBRANCH  27  28
ENDBRANCH  26  27
ENDBRANCH   1  26
TORSDOF 19
