REMARK SMILES CCCC[C@H](CC)Cn1ccc(C(=O)NCCCCCCNC(=O)c2ccc(-c3c4nc(c(-c5c(F)cc(S(=O)(=O)[O-])cc5F)c5ccc([nH]5)c(-c5c(F)cc(S(=O)(=O)[O-])cc5F)c5nc(c(-c6c(F)cc(S(=O)(=O)[O-])cc6F)c6ccc3[nH]6)C=C5)C=C4)cc2)c1
REMARK SMILES IDX 17 1 16 2 15 3 13 4 14 5 12 7 9 8 10 9 91 10 11 11 8 12 5 13
REMARK SMILES IDX 4 14 3 15 2 16 1 17 6 18 7 19 18 20 19 21 20 22 21 23 22 24
REMARK SMILES IDX 23 25 24 27 25 28 26 29 90 30 27 31 89 32 28 33 29 34 30 35
REMARK SMILES IDX 83 36 31 37 88 38 82 39 84 40 32 41 87 42 81 43 80 44 33 46
REMARK SMILES IDX 67 47 46 48 66 49 47 50 50 51 65 52 85 53 48 54 49 55 64 57
REMARK SMILES IDX 86 58 51 59 34 60 35 61 44 62 36 63 37 64 43 65 45 66 38 67
REMARK SMILES IDX 39 68 40 69 41 70 42 71 68 72 69 73 78 74 70 75 71 76 77 77
REMARK SMILES IDX 79 78 72 79 73 80 74 81 75 82 76 83 52 84 53 85 62 86 54 87
REMARK SMILES IDX 55 88 61 89 63 90 56 91 57 92 58 93 59 94 60 95
REMARK H PARENT 15 6 22 26 84 45 50 56
REMARK Flexibility Score: inf
ROOT
ATOM      1  C   UNL     1       1.966   1.514  -0.386  1.00  0.00     0.021 C 
ENDROOT
BRANCH   1   2
ATOM      2  C   UNL     1       2.190   2.167   0.977  1.00  0.00     0.116 C 
BRANCH   2   3
ATOM      3  N   UNL     1       1.793   3.558   0.957  1.00  0.00    -0.352 N 
ATOM      4  C   UNL     1       0.727   4.194   1.550  1.00  0.00     0.252 C 
ATOM      5  O   UNL     1       0.685   5.418   1.488  1.00  0.00    -0.269 OA
ATOM      6  H   UNL     1       2.383   4.147   0.432  1.00  0.00     0.163 HD
BRANCH   4   7
ATOM      7  C   UNL     1      -0.257   3.428   2.312  1.00  0.00     0.057 A 
ATOM      8  N   UNL     1      -1.414   1.755   3.232  1.00  0.00    -0.353 N 
ATOM      9  C   UNL     1      -1.735   2.883   3.945  1.00  0.00     0.086 A 
ATOM     10  C   UNL     1      -0.689   2.124   2.133  1.00  0.00     0.099 A 
ATOM     11  C   UNL     1      -1.029   3.932   3.402  1.00  0.00     0.033 A 
BRANCH   8  12
ATOM     12  C   UNL     1      -1.795   0.412   3.642  1.00  0.00     0.125 C 
BRANCH  12  13
ATOM     13  C   UNL     1      -1.128  -0.794   2.935  1.00  0.00     0.008 C 
BRANCH  13  14
ATOM     14  C   UNL     1      -1.738  -2.129   3.433  1.00  0.00     0.005 C 
BRANCH  14  15
ATOM     15  C   UNL     1      -3.252  -2.287   3.246  1.00  0.00     0.000 C 
BRANCH  15  16
ATOM     16  C   UNL     1      -3.776  -2.034   1.830  1.00  0.00    -0.003 C 
ATOM     17  C   UNL     1      -3.185  -2.969   0.786  1.00  0.00     0.004 C 
ENDBRANCH  15  16
ENDBRANCH  14  15
ENDBRANCH  13  14
BRANCH  13  18
ATOM     18  C   UNL     1       0.418  -0.881   3.038  1.00  0.00     0.002 C 
ATOM     19  C   UNL     1       1.054  -0.364   4.318  1.00  0.00     0.004 C 
ENDBRANCH  13  18
ENDBRANCH  12  13
ENDBRANCH   8  12
ENDBRANCH   4   7
ENDBRANCH   2   3
ENDBRANCH   1   2
BRANCH   1  20
ATOM     20  C   UNL     1       3.053   1.876  -1.405  1.00  0.00     0.002 C 
BRANCH  20  21
ATOM     21  C   UNL     1       4.478   1.485  -0.988  1.00  0.00     0.002 C 
BRANCH  21  22
ATOM     22  C   UNL     1       4.666   0.002  -0.632  1.00  0.00     0.021 C 
BRANCH  22  23
ATOM     23  C   UNL     1       4.537  -0.918  -1.842  1.00  0.00     0.116 C 
BRANCH  23  24
ATOM     24  N   UNL     1       5.638  -0.681  -2.763  1.00  0.00    -0.352 N 
ATOM     25  C   UNL     1       5.962  -1.306  -3.934  1.00  0.00     0.251 C 
ATOM     26  H   UNL     1       6.247   0.046  -2.500  1.00  0.00     0.163 HD
ATOM     27  O   UNL     1       7.115  -1.222  -4.351  1.00  0.00    -0.269 OA
BRANCH  25  28
ATOM     28  C   UNL     1       4.962  -2.073  -4.700  1.00  0.00     0.039 A 
ATOM     29  C   UNL     1       5.402  -3.208  -5.394  1.00  0.00     0.014 A 
ATOM     30  C   UNL     1       3.640  -1.631  -4.830  1.00  0.00     0.014 A 
ATOM     31  C   UNL     1       4.510  -3.922  -6.182  1.00  0.00     0.010 A 
ATOM     32  C   UNL     1       2.737  -2.359  -5.591  1.00  0.00     0.010 A 
ATOM     33  C   UNL     1       3.175  -3.505  -6.261  1.00  0.00    -0.014 A 
BRANCH  33  34
ATOM     34  C   UNL     1       2.194  -4.387  -6.924  1.00  0.00     0.031 A 
ATOM     35  C   UNL     1       1.806  -5.565  -5.989  1.00  0.00     0.074 A 
ATOM     36  C   UNL     1       1.835  -4.031  -8.200  1.00  0.00     0.049 A 
ATOM     37  N   UNL     1       1.414  -6.769  -6.271  1.00  0.00    -0.248 NA
ATOM     38  C   UNL     1       1.961  -5.408  -4.511  1.00  0.00     0.031 C 
ATOM     39  C   UNL     1       2.296  -2.806  -8.901  1.00  0.00     0.029 A 
ATOM     40  N   UNL     1       1.024  -4.588  -9.169  1.00  0.00    -0.354 N 
ATOM     41  C   UNL     1       1.057  -7.411  -5.056  1.00  0.00     0.074 A 
ATOM     42  C   UNL     1       1.548  -6.575  -4.007  1.00  0.00     0.031 C 
ATOM     43  C   UNL     1       1.843  -2.766 -10.175  1.00  0.00     0.029 A 
ATOM     44  C   UNL     1       1.031  -3.936 -10.440  1.00  0.00     0.049 A 
ATOM     45  H   UNL     1       0.474  -5.386  -8.994  1.00  0.00     0.167 HD
ATOM     46  C   UNL     1       0.247  -8.514  -5.005  1.00  0.00     0.037 A 
ATOM     47  C   UNL     1       0.461  -4.342 -11.622  1.00  0.00     0.037 A 
ATOM     48  C   UNL     1      -0.124  -8.874  -6.332  1.00  0.00     0.049 A 
ATOM     49  C   UNL     1      -0.345  -5.510 -11.249  1.00  0.00     0.074 A 
ATOM     50  C   UNL     1       0.596  -9.421  -7.361  1.00  0.00     0.029 A 
ATOM     51  N   UNL     1      -1.262  -8.283  -6.828  1.00  0.00    -0.354 N 
ATOM     52  N   UNL     1      -1.453  -5.454 -10.575  1.00  0.00    -0.248 NA
ATOM     53  C   UNL     1       0.175  -6.847 -11.555  1.00  0.00     0.031 C 
ATOM     54  C   UNL     1       0.147  -8.684  -8.472  1.00  0.00     0.029 A 
ATOM     55  C   UNL     1      -1.006  -7.963  -8.135  1.00  0.00     0.049 A 
ATOM     56  H   UNL     1      -2.100  -8.120  -6.337  1.00  0.00     0.167 HD
ATOM     57  C   UNL     1      -1.554  -6.730 -10.084  1.00  0.00     0.074 A 
ATOM     58  C   UNL     1      -0.759  -7.576 -10.951  1.00  0.00     0.031 C 
ATOM     59  C   UNL     1      -1.778  -6.913  -8.757  1.00  0.00     0.037 A 
BRANCH  46  60
ATOM     60  C   UNL     1      -0.500  -9.220  -3.900  1.00  0.00     0.058 A 
ATOM     61  C   UNL     1      -0.997 -10.525  -4.169  1.00  0.00     0.135 A 
ATOM     62  C   UNL     1      -1.047  -8.576  -2.783  1.00  0.00     0.135 A 
ATOM     63  F   UNL     1      -0.484 -11.265  -5.167  1.00  0.00    -0.206 F 
ATOM     64  C   UNL     1      -2.077 -11.076  -3.488  1.00  0.00     0.059 A 
ATOM     65  C   UNL     1      -2.105  -9.134  -2.053  1.00  0.00     0.059 A 
ATOM     66  F   UNL     1      -0.628  -7.357  -2.416  1.00  0.00    -0.206 F 
ATOM     67  C   UNL     1      -2.651 -10.354  -2.452  1.00  0.00     0.060 A 
BRANCH  67  68
ATOM     68  S   UNL     1      -4.138 -11.021  -1.674  1.00  0.00     0.124 S 
ATOM     69  O   UNL     1      -5.133 -10.836  -2.724  1.00  0.00    -0.237 OA
ATOM     70  O   UNL     1      -3.752 -12.403  -1.405  1.00  0.00    -0.237 OA
ATOM     71  O   UNL     1      -4.301 -10.184  -0.490  1.00  0.00    -0.744 OA
ENDBRANCH  67  68
ENDBRANCH  46  60
BRANCH  47  72
ATOM     72  C   UNL     1       0.513  -4.037 -13.113  1.00  0.00     0.058 A 
ATOM     73  C   UNL     1       1.239  -3.015 -13.735  1.00  0.00     0.135 A 
ATOM     74  C   UNL     1      -0.090  -4.952 -14.031  1.00  0.00     0.135 A 
ATOM     75  F   UNL     1       1.734  -1.993 -13.027  1.00  0.00    -0.206 F 
ATOM     76  C   UNL     1       1.502  -3.014 -15.123  1.00  0.00     0.059 A 
ATOM     77  C   UNL     1       0.203  -5.010 -15.390  1.00  0.00     0.059 A 
ATOM     78  F   UNL     1      -0.973  -5.879 -13.630  1.00  0.00    -0.206 F 
ATOM     79  C   UNL     1       1.041  -4.057 -15.928  1.00  0.00     0.060 A 
BRANCH  79  80
ATOM     80  S   UNL     1       1.637  -4.269 -17.622  1.00  0.00     0.124 S 
ATOM     81  O   UNL     1       0.784  -3.350 -18.366  1.00  0.00    -0.237 OA
ATOM     82  O   UNL     1       3.041  -3.886 -17.509  1.00  0.00    -0.237 OA
ATOM     83  O   UNL     1       1.411  -5.689 -17.883  1.00  0.00    -0.744 OA
ENDBRANCH  79  80
ENDBRANCH  47  72
BRANCH  59  84
ATOM     84  C   UNL     1      -2.511  -5.774  -8.062  1.00  0.00     0.058 A 
ATOM     85  C   UNL     1      -3.786  -5.389  -8.514  1.00  0.00     0.135 A 
ATOM     86  C   UNL     1      -1.976  -4.988  -7.024  1.00  0.00     0.135 A 
ATOM     87  F   UNL     1      -4.384  -6.087  -9.494  1.00  0.00    -0.206 F 
ATOM     88  C   UNL     1      -4.479  -4.299  -7.980  1.00  0.00     0.059 A 
ATOM     89  C   UNL     1      -2.651  -3.895  -6.463  1.00  0.00     0.059 A 
ATOM     90  F   UNL     1      -0.773  -5.259  -6.518  1.00  0.00    -0.206 F 
ATOM     91  C   UNL     1      -3.907  -3.556  -6.949  1.00  0.00     0.060 A 
BRANCH  91  92
ATOM     92  S   UNL     1      -4.843  -2.183  -6.236  1.00  0.00     0.124 S 
ATOM     93  O   UNL     1      -5.000  -1.284  -7.375  1.00  0.00    -0.237 OA
ATOM     94  O   UNL     1      -6.061  -2.846  -5.782  1.00  0.00    -0.237 OA
ATOM     95  O   UNL     1      -3.973  -1.687  -5.171  1.00  0.00    -0.744 OA
ENDBRANCH  91  92
ENDBRANCH  59  84
ENDBRANCH  33  34
ENDBRANCH  25  28
ENDBRANCH  23  24
ENDBRANCH  22  23
ENDBRANCH  21  22
ENDBRANCH  20  21
ENDBRANCH   1  20
TORSDOF 22
