REMARK SMILES CC(C)(C)c1cc2c(cc1Cl)C=C(C(=O)NCCCCCCNC(=O)c1ccc(-c3c4nc(c(-c5c(F)cc(S(=O)(=O)[O-])cc5F)c5ccc([nH]5)c(-c5c(F)cc(S(=O)(=O)[O-])cc5F)c5nc(c(-c6c(F)cc(S(=O)(=O)[O-])cc6F)c6ccc3[nH]6)C=C5)C=C4)cc1)[C@@H](C(F)(F)F)O2
REMARK SMILES IDX 20 1 19 2 18 3 17 4 16 5 14 6 15 7 13 9 5 10 6 11 10 12 7 13
REMARK SMILES IDX 9 14 11 15 8 16 97 17 12 18 92 19 2 20 1 21 3 22 4 23 93 24
REMARK SMILES IDX 94 25 95 26 96 27 21 28 22 29 23 30 24 31 25 33 26 34 27 35
REMARK SMILES IDX 91 36 28 37 90 38 29 39 30 40 31 41 84 42 32 43 89 44 83 45
REMARK SMILES IDX 85 46 33 47 88 48 82 49 81 50 34 52 68 53 47 54 67 55 48 56
REMARK SMILES IDX 51 57 66 58 86 59 49 60 50 61 65 63 87 64 52 65 35 66 36 67
REMARK SMILES IDX 45 68 37 69 38 70 44 71 46 72 39 73 40 74 41 75 42 76 43 77
REMARK SMILES IDX 69 78 70 79 79 80 71 81 72 82 78 83 80 84 73 85 74 86 75 87
REMARK SMILES IDX 76 88 77 89 53 90 54 91 63 92 55 93 56 94 62 95 64 96 57 97
REMARK SMILES IDX 58 98 59 99 60 100 61 101
REMARK H PARENT 16 8 23 32 85 51 51 62
REMARK Flexibility Score: inf
ROOT
ATOM      1  C   UNL     1       8.199  -8.752   5.730  1.00  0.00     0.002 C 
ENDROOT
BRANCH   1   2
ATOM      2  C   UNL     1       6.811  -8.518   6.342  1.00  0.00     0.002 C 
BRANCH   2   3
ATOM      3  C   UNL     1       6.143  -7.187   5.983  1.00  0.00     0.021 C 
BRANCH   3   4
ATOM      4  C   UNL     1       6.006  -6.936   4.484  1.00  0.00     0.116 C 
BRANCH   4   5
ATOM      5  N   UNL     1       4.846  -7.609   3.925  1.00  0.00    -0.352 N 
ATOM      6  C   UNL     1       3.707  -7.261   3.283  1.00  0.00     0.251 C 
ATOM      7  O   UNL     1       2.985  -8.208   2.950  1.00  0.00    -0.270 OA
ATOM      8  H   UNL     1       4.905  -8.584   4.047  1.00  0.00     0.163 HD
BRANCH   6   9
ATOM      9  C   UNL     1       3.279  -5.866   2.965  1.00  0.00     0.067 C 
ATOM     10  C   UNL     1       0.599  -1.766   1.546  1.00  0.00    -0.020 A 
ATOM     11  C   UNL     1       1.804  -2.010   2.244  1.00  0.00     0.053 A 
ATOM     12  C   UNL     1      -0.083  -2.917   1.086  1.00  0.00     0.045 A 
ATOM     13  C   UNL     1       2.272  -3.298   2.505  1.00  0.00     0.128 A 
ATOM     14  C   UNL     1       0.378  -4.215   1.385  1.00  0.00     0.032 A 
ATOM     15  Cl  UNL     1      -1.492  -2.879   0.083  1.00  0.00    -0.084 Cl
ATOM     16  C   UNL     1       1.555  -4.411   2.102  1.00  0.00     0.019 A 
ATOM     17  O   UNL     1       3.438  -3.383   3.204  1.00  0.00    -0.475 OA
ATOM     18  C   UNL     1       2.037  -5.739   2.457  1.00  0.00     0.025 C 
ATOM     19  C   UNL     1       4.147  -4.649   3.135  1.00  0.00     0.314 C 
BRANCH  10  20
ATOM     20  C   UNL     1       0.176  -0.296   1.299  1.00  0.00    -0.012 C 
ATOM     21  C   UNL     1       0.690   0.126  -0.091  1.00  0.00     0.016 C 
ATOM     22  C   UNL     1       0.791   0.685   2.341  1.00  0.00     0.016 C 
ATOM     23  C   UNL     1      -1.347  -0.047   1.383  1.00  0.00     0.016 C 
ENDBRANCH  10  20
BRANCH  19  24
ATOM     24  C   UNL     1       5.247  -4.557   2.062  1.00  0.00     0.429 C 
ATOM     25  F   UNL     1       6.170  -3.626   2.401  1.00  0.00    -0.167 F 
ATOM     26  F   UNL     1       5.916  -5.724   1.908  1.00  0.00    -0.167 F 
ATOM     27  F   UNL     1       4.755  -4.222   0.847  1.00  0.00    -0.167 F 
ENDBRANCH  19  24
ENDBRANCH   6   9
ENDBRANCH   4   5
ENDBRANCH   3   4
ENDBRANCH   2   3
ENDBRANCH   1   2
BRANCH   1  28
ATOM     28  C   UNL     1       9.195  -7.598   5.873  1.00  0.00     0.021 C 
BRANCH  28  29
ATOM     29  C   UNL     1       9.479  -7.160   7.304  1.00  0.00     0.116 C 
BRANCH  29  30
ATOM     30  N   UNL     1      10.118  -8.200   8.094  1.00  0.00    -0.352 N 
ATOM     31  C   UNL     1      11.222  -8.108   8.908  1.00  0.00     0.251 C 
ATOM     32  H   UNL     1       9.704  -9.091   8.038  1.00  0.00     0.163 HD
ATOM     33  O   UNL     1      11.715  -9.121   9.396  1.00  0.00    -0.269 OA
BRANCH  31  34
ATOM     34  C   UNL     1      11.832  -6.785   9.162  1.00  0.00     0.039 A 
ATOM     35  C   UNL     1      11.036  -5.690   9.509  1.00  0.00     0.014 A 
ATOM     36  C   UNL     1      13.214  -6.633   9.021  1.00  0.00     0.014 A 
ATOM     37  C   UNL     1      11.600  -4.420   9.567  1.00  0.00     0.010 A 
ATOM     38  C   UNL     1      13.790  -5.366   9.152  1.00  0.00     0.010 A 
ATOM     39  C   UNL     1      12.981  -4.242   9.382  1.00  0.00    -0.014 A 
BRANCH  39  40
ATOM     40  C   UNL     1      13.553  -2.870   9.425  1.00  0.00     0.031 A 
ATOM     41  C   UNL     1      14.147  -2.246   8.191  1.00  0.00     0.074 A 
ATOM     42  C   UNL     1      13.479  -2.164  10.570  1.00  0.00     0.049 A 
ATOM     43  N   UNL     1      14.668  -1.055   8.040  1.00  0.00    -0.248 NA
ATOM     44  C   UNL     1      14.159  -3.062   6.966  1.00  0.00     0.031 C 
ATOM     45  C   UNL     1      12.914  -2.659  11.828  1.00  0.00     0.029 A 
ATOM     46  N   UNL     1      13.851  -0.876  10.857  1.00  0.00    -0.354 N 
ATOM     47  C   UNL     1      15.084  -0.983   6.716  1.00  0.00     0.074 A 
ATOM     48  C   UNL     1      14.778  -2.260   6.109  1.00  0.00     0.031 C 
ATOM     49  C   UNL     1      12.926  -1.669  12.734  1.00  0.00     0.029 A 
ATOM     50  C   UNL     1      13.550  -0.490  12.142  1.00  0.00     0.049 A 
ATOM     51  H   UNL     1      14.292  -0.284  10.206  1.00  0.00     0.167 HD
ATOM     52  C   UNL     1      15.656   0.057   6.062  1.00  0.00     0.037 A 
ATOM     53  C   UNL     1      13.758   0.679  12.777  1.00  0.00     0.037 A 
ATOM     54  C   UNL     1      15.938   1.335   6.664  1.00  0.00     0.049 A 
ATOM     55  C   UNL     1      14.425   1.804  12.041  1.00  0.00     0.074 A 
ATOM     56  C   UNL     1      16.505   2.455   6.080  1.00  0.00     0.029 A 
ATOM     57  N   UNL     1      15.672   1.666   7.985  1.00  0.00    -0.354 N 
ATOM     58  N   UNL     1      14.820   1.849  10.791  1.00  0.00    -0.248 NA
ATOM     59  C   UNL     1      14.688   3.032  12.803  1.00  0.00     0.031 C 
ATOM     60  C   UNL     1      16.610   3.452   7.056  1.00  0.00     0.029 A 
ATOM     61  C   UNL     1      16.076   2.966   8.238  1.00  0.00     0.049 A 
ATOM     62  H   UNL     1      15.257   1.065   8.645  1.00  0.00     0.167 HD
ATOM     63  C   UNL     1      15.377   3.109  10.615  1.00  0.00     0.074 A 
ATOM     64  C   UNL     1      15.249   3.804  11.880  1.00  0.00     0.031 C 
ATOM     65  C   UNL     1      15.949   3.639   9.507  1.00  0.00     0.037 A 
BRANCH  52  66
ATOM     66  C   UNL     1      16.022  -0.141   4.618  1.00  0.00     0.058 A 
ATOM     67  C   UNL     1      15.047  -0.163   3.609  1.00  0.00     0.135 A 
ATOM     68  C   UNL     1      17.368  -0.261   4.232  1.00  0.00     0.135 A 
ATOM     69  F   UNL     1      13.746  -0.070   3.924  1.00  0.00    -0.206 F 
ATOM     70  C   UNL     1      15.391  -0.317   2.269  1.00  0.00     0.059 A 
ATOM     71  C   UNL     1      17.736  -0.394   2.897  1.00  0.00     0.059 A 
ATOM     72  F   UNL     1      18.339  -0.246   5.158  1.00  0.00    -0.206 F 
ATOM     73  C   UNL     1      16.739  -0.432   1.923  1.00  0.00     0.060 A 
BRANCH  73  74
ATOM     74  S   UNL     1      17.167  -0.625   0.179  1.00  0.00     0.124 S 
ATOM     75  O   UNL     1      16.740  -1.997  -0.074  1.00  0.00    -0.237 OA
ATOM     76  O   UNL     1      16.365   0.416  -0.456  1.00  0.00    -0.237 OA
ATOM     77  O   UNL     1      18.609  -0.402   0.156  1.00  0.00    -0.744 OA
ENDBRANCH  73  74
ENDBRANCH  52  66
BRANCH  53  78
ATOM     78  C   UNL     1      13.321   0.833  14.188  1.00  0.00     0.058 A 
ATOM     79  C   UNL     1      12.214   1.629  14.514  1.00  0.00     0.135 A 
ATOM     80  C   UNL     1      13.968   0.149  15.229  1.00  0.00     0.135 A 
ATOM     81  F   UNL     1      11.568   2.307  13.554  1.00  0.00    -0.206 F 
ATOM     82  C   UNL     1      11.759   1.739  15.824  1.00  0.00     0.059 A 
ATOM     83  C   UNL     1      13.519   0.225  16.542  1.00  0.00     0.059 A 
ATOM     84  F   UNL     1      15.024  -0.635  14.962  1.00  0.00    -0.206 F 
ATOM     85  C   UNL     1      12.414   1.026  16.831  1.00  0.00     0.060 A 
BRANCH  85  86
ATOM     86  S   UNL     1      11.767   1.110  18.514  1.00  0.00     0.124 S 
ATOM     87  O   UNL     1      12.187   2.445  18.924  1.00  0.00    -0.237 OA
ATOM     88  O   UNL     1      10.334   0.928  18.301  1.00  0.00    -0.237 OA
ATOM     89  O   UNL     1      12.437   0.001  19.187  1.00  0.00    -0.744 OA
ENDBRANCH  85  86
ENDBRANCH  53  78
BRANCH  65  90
ATOM     90  C   UNL     1      16.481   5.040   9.610  1.00  0.00     0.058 A 
ATOM     91  C   UNL     1      17.689   5.313  10.268  1.00  0.00     0.135 A 
ATOM     92  C   UNL     1      15.810   6.107   8.993  1.00  0.00     0.135 A 
ATOM     93  F   UNL     1      18.364   4.326  10.880  1.00  0.00    -0.206 F 
ATOM     94  C   UNL     1      18.209   6.601  10.324  1.00  0.00     0.059 A 
ATOM     95  C   UNL     1      16.322   7.401   9.018  1.00  0.00     0.059 A 
ATOM     96  F   UNL     1      14.654   5.895   8.345  1.00  0.00    -0.206 F 
ATOM     97  C   UNL     1      17.519   7.639   9.693  1.00  0.00     0.060 A 
BRANCH  97  98
ATOM     98  S   UNL     1      18.227   9.299   9.736  1.00  0.00     0.124 S 
ATOM     99  O   UNL     1      17.963   9.695  11.115  1.00  0.00    -0.237 OA
ATOM    100  O   UNL     1      19.627   9.050   9.405  1.00  0.00    -0.237 OA
ATOM    101  O   UNL     1      17.468  10.019   8.719  1.00  0.00    -0.744 OA
ENDBRANCH  97  98
ENDBRANCH  65  90
ENDBRANCH  39  40
ENDBRANCH  31  34
ENDBRANCH  29  30
ENDBRANCH  28  29
ENDBRANCH   1  28
TORSDOF 18
