REMARK SMILES CCCCCCOC(=O)Nc1cccc(-c2ccc([C@@H](C)C(=O)NCCCCCCNC(=O)c3ccc(-c4c5nc(c(-c6c(F)cc(S(=O)(=O)[O-])cc6F)c6ccc([nH]6)c(-c6c(F)cc(S(=O)(=O)[O-])cc6F)c6nc(c(-c7c(F)cc(S(=O)(=O)[O-])cc7F)c7ccc4[nH]7)C=C6)C=C5)cc3)cc2F)c1
REMARK SMILES IDX 22 1 23 2 24 3 20 5 21 6 19 7 16 8 17 9 101 10 18 11 100 12
REMARK SMILES IDX 102 13 15 14 11 15 12 16 103 17 13 18 14 19 10 20 8 21 9 22
REMARK SMILES IDX 7 24 6 25 5 26 4 27 3 28 2 29 1 30 25 31 26 32 27 33 28 34
REMARK SMILES IDX 29 35 30 36 31 37 32 38 33 40 34 41 35 42 99 43 36 44 98 45
REMARK SMILES IDX 37 46 38 47 39 48 92 49 40 50 97 51 91 52 93 53 41 54 96 55
REMARK SMILES IDX 90 56 89 57 42 59 76 60 55 61 75 62 56 63 59 64 74 65 94 66
REMARK SMILES IDX 57 67 58 68 73 70 95 71 60 72 43 73 44 74 53 75 45 76 46 77
REMARK SMILES IDX 52 78 54 79 47 80 48 81 49 82 50 83 51 84 77 85 78 86 87 87
REMARK SMILES IDX 79 88 80 89 86 90 88 91 81 92 82 93 83 94 84 95 85 96 61 97
REMARK SMILES IDX 62 98 71 99 63 100 64 101 70 102 72 103 65 104 66 105 67 106
REMARK SMILES IDX 68 107 69 108
REMARK H PARENT 24 4 10 23 31 39 93 58 59 69
REMARK Flexibility Score: inf
ROOT
ATOM      1  C   UNL     1      -6.984  -1.504   9.946  1.00  0.00     0.227 C 
ATOM      2  O   UNL     1      -6.980  -2.635   9.443  1.00  0.00    -0.274 OA
ATOM      3  N   UNL     1      -7.918  -0.634   9.477  1.00  0.00    -0.356 N 
ATOM      4  H   UNL     1      -8.551  -1.026   8.832  1.00  0.00     0.163 HD
ENDROOT
BRANCH   1   5
ATOM      5  C   UNL     1      -5.980  -1.155  11.055  1.00  0.00     0.105 C 
ATOM      6  C   UNL     1      -6.629  -0.799  12.391  1.00  0.00     0.023 C 
BRANCH   5   7
ATOM      7  C   UNL     1      -4.855  -0.239  10.598  1.00  0.00    -0.033 A 
ATOM      8  C   UNL     1      -2.737   1.403   9.588  1.00  0.00     0.018 A 
ATOM      9  C   UNL     1      -3.889   1.960  10.161  1.00  0.00     0.012 A 
ATOM     10  C   UNL     1      -2.662   0.000   9.574  1.00  0.00     0.131 A 
ATOM     11  C   UNL     1      -4.909   1.155  10.686  1.00  0.00     0.005 A 
ATOM     12  C   UNL     1      -3.701  -0.806  10.043  1.00  0.00     0.044 A 
ATOM     13  F   UNL     1      -1.566  -0.623   9.111  1.00  0.00    -0.206 F 
BRANCH   8  14
ATOM     14  C   UNL     1      -1.666   2.261   9.036  1.00  0.00    -0.013 A 
ATOM     15  C   UNL     1       0.130   2.618   7.409  1.00  0.00     0.045 A 
ATOM     16  C   UNL     1       0.497   3.796   8.052  1.00  0.00     0.026 A 
ATOM     17  C   UNL     1      -0.955   1.875   7.888  1.00  0.00     0.035 A 
ATOM     18  C   UNL     1      -0.237   4.242   9.149  1.00  0.00     0.003 A 
ATOM     19  C   UNL     1      -1.297   3.474   9.642  1.00  0.00     0.009 A 
BRANCH  15  20
ATOM     20  N   UNL     1       0.943   2.140   6.372  1.00  0.00    -0.291 N 
ATOM     21  C   UNL     1       0.608   1.227   5.408  1.00  0.00     0.411 C 
ATOM     22  O   UNL     1       1.452   0.516   4.887  1.00  0.00    -0.224 OA
ATOM     23  H   UNL     1       1.857   2.501   6.332  1.00  0.00     0.173 HD
BRANCH  21  24
ATOM     24  O   UNL     1      -0.697   1.310   5.035  1.00  0.00    -0.449 OA
BRANCH  24  25
ATOM     25  C   UNL     1      -1.129   0.537   3.905  1.00  0.00     0.235 C 
BRANCH  25  26
ATOM     26  C   UNL     1      -0.881   1.262   2.577  1.00  0.00     0.042 C 
BRANCH  26  27
ATOM     27  C   UNL     1       0.577   1.306   2.104  1.00  0.00     0.003 C 
BRANCH  27  28
ATOM     28  C   UNL     1       1.232  -0.065   1.888  1.00  0.00    -0.000 C 
BRANCH  28  29
ATOM     29  C   UNL     1       0.697  -0.855   0.695  1.00  0.00    -0.003 C 
ATOM     30  C   UNL     1       1.075  -0.231  -0.638  1.00  0.00     0.004 C 
ENDBRANCH  28  29
ENDBRANCH  27  28
ENDBRANCH  26  27
ENDBRANCH  25  26
ENDBRANCH  24  25
ENDBRANCH  21  24
ENDBRANCH  15  20
ENDBRANCH   8  14
ENDBRANCH   5   7
ENDBRANCH   1   5
BRANCH   3  31
ATOM     31  C   UNL     1      -8.146   0.766   9.760  1.00  0.00     0.116 C 
BRANCH  31  32
ATOM     32  C   UNL     1      -7.608   1.662   8.643  1.00  0.00     0.021 C 
BRANCH  32  33
ATOM     33  C   UNL     1      -8.626   1.936   7.532  1.00  0.00     0.002 C 
BRANCH  33  34
ATOM     34  C   UNL     1      -9.890   2.680   7.983  1.00  0.00     0.002 C 
BRANCH  34  35
ATOM     35  C   UNL     1      -9.646   4.008   8.708  1.00  0.00     0.021 C 
BRANCH  35  36
ATOM     36  C   UNL     1      -8.906   5.055   7.881  1.00  0.00     0.116 C 
BRANCH  36  37
ATOM     37  N   UNL     1      -9.656   5.421   6.691  1.00  0.00    -0.352 N 
ATOM     38  C   UNL     1     -10.119   6.647   6.290  1.00  0.00     0.251 C 
ATOM     39  H   UNL     1      -9.863   4.676   6.082  1.00  0.00     0.163 HD
ATOM     40  O   UNL     1     -10.958   6.713   5.396  1.00  0.00    -0.269 OA
BRANCH  38  41
ATOM     41  C   UNL     1      -9.610   7.885   6.922  1.00  0.00     0.039 A 
ATOM     42  C   UNL     1     -10.497   8.943   7.144  1.00  0.00     0.014 A 
ATOM     43  C   UNL     1      -8.254   8.034   7.226  1.00  0.00     0.014 A 
ATOM     44  C   UNL     1     -10.026  10.141   7.686  1.00  0.00     0.010 A 
ATOM     45  C   UNL     1      -7.800   9.202   7.833  1.00  0.00     0.010 A 
ATOM     46  C   UNL     1      -8.675  10.278   8.041  1.00  0.00    -0.014 A 
BRANCH  46  47
ATOM     47  C   UNL     1      -8.147  11.563   8.566  1.00  0.00     0.031 A 
ATOM     48  C   UNL     1      -7.139  12.342   7.761  1.00  0.00     0.074 A 
ATOM     49  C   UNL     1      -8.541  12.008   9.775  1.00  0.00     0.049 A 
ATOM     50  N   UNL     1      -6.520  13.454   8.063  1.00  0.00    -0.248 NA
ATOM     51  C   UNL     1      -6.756  11.781   6.455  1.00  0.00     0.031 C 
ATOM     52  C   UNL     1      -9.479  11.322  10.665  1.00  0.00     0.029 A 
ATOM     53  N   UNL     1      -8.197  13.142  10.466  1.00  0.00    -0.354 N 
ATOM     54  C   UNL     1      -5.665  13.713   6.998  1.00  0.00     0.074 A 
ATOM     55  C   UNL     1      -5.802  12.614   6.068  1.00  0.00     0.031 C 
ATOM     56  C   UNL     1      -9.652  12.059  11.774  1.00  0.00     0.029 A 
ATOM     57  C   UNL     1      -8.817  13.253  11.688  1.00  0.00     0.049 A 
ATOM     58  H   UNL     1      -7.566  13.814  10.119  1.00  0.00     0.167 HD
ATOM     59  C   UNL     1      -4.858  14.783   6.798  1.00  0.00     0.037 A 
ATOM     60  C   UNL     1      -8.720  14.210  12.632  1.00  0.00     0.037 A 
ATOM     61  C   UNL     1      -4.754  15.891   7.712  1.00  0.00     0.049 A 
ATOM     62  C   UNL     1      -7.835  15.400  12.379  1.00  0.00     0.074 A 
ATOM     63  C   UNL     1      -4.006  17.047   7.582  1.00  0.00     0.029 A 
ATOM     64  N   UNL     1      -5.426  15.983   8.922  1.00  0.00    -0.354 N 
ATOM     65  N   UNL     1      -7.071  15.655  11.342  1.00  0.00    -0.248 NA
ATOM     66  C   UNL     1      -7.808  16.441  13.415  1.00  0.00     0.031 C 
ATOM     67  C   UNL     1      -4.197  17.823   8.731  1.00  0.00     0.029 A 
ATOM     68  C   UNL     1      -5.102  17.172   9.554  1.00  0.00     0.049 A 
ATOM     69  H   UNL     1      -6.042  15.303   9.279  1.00  0.00     0.167 HD
ATOM     70  C   UNL     1      -6.502  16.900  11.586  1.00  0.00     0.074 A 
ATOM     71  C   UNL     1      -7.014  17.349  12.864  1.00  0.00     0.031 C 
ATOM     72  C   UNL     1      -5.636  17.609  10.819  1.00  0.00     0.037 A 
BRANCH  59  73
ATOM     73  C   UNL     1      -4.031  14.809   5.541  1.00  0.00     0.058 A 
ATOM     74  C   UNL     1      -4.617  14.983   4.276  1.00  0.00     0.135 A 
ATOM     75  C   UNL     1      -2.634  14.684   5.602  1.00  0.00     0.135 A 
ATOM     76  F   UNL     1      -5.950  15.091   4.157  1.00  0.00    -0.206 F 
ATOM     77  C   UNL     1      -3.851  14.999   3.115  1.00  0.00     0.059 A 
ATOM     78  C   UNL     1      -1.845  14.727   4.455  1.00  0.00     0.059 A 
ATOM     79  F   UNL     1      -2.020  14.515   6.784  1.00  0.00    -0.206 F 
ATOM     80  C   UNL     1      -2.465  14.868   3.215  1.00  0.00     0.060 A 
BRANCH  80  81
ATOM     81  S   UNL     1      -1.485  14.892   1.698  1.00  0.00     0.124 S 
ATOM     82  O   UNL     1      -1.786  13.578   1.138  1.00  0.00    -0.237 OA
ATOM     83  O   UNL     1      -2.048  16.031   0.980  1.00  0.00    -0.237 OA
ATOM     84  O   UNL     1      -0.119  15.071   2.180  1.00  0.00    -0.744 OA
ENDBRANCH  80  81
ENDBRANCH  59  73
BRANCH  60  85
ATOM     85  C   UNL     1      -9.511  14.098  13.887  1.00  0.00     0.058 A 
ATOM     86  C   UNL     1     -10.598  14.950  14.133  1.00  0.00     0.135 A 
ATOM     87  C   UNL     1      -9.204  13.133  14.858  1.00  0.00     0.135 A 
ATOM     88  F   UNL     1     -10.928  15.892  13.236  1.00  0.00    -0.206 F 
ATOM     89  C   UNL     1     -11.341  14.865  15.306  1.00  0.00     0.059 A 
ATOM     90  C   UNL     1      -9.948  13.011  16.028  1.00  0.00     0.059 A 
ATOM     91  F   UNL     1      -8.187  12.280  14.662  1.00  0.00    -0.206 F 
ATOM     92  C   UNL     1     -11.008  13.890  16.248  1.00  0.00     0.060 A 
BRANCH  92  93
ATOM     93  S   UNL     1     -12.005  13.758  17.748  1.00  0.00     0.124 S 
ATOM     94  O   UNL     1     -11.562  14.927  18.498  1.00  0.00    -0.237 OA
ATOM     95  O   UNL     1     -13.364  13.814  17.219  1.00  0.00    -0.237 OA
ATOM     96  O   UNL     1     -11.609  12.465  18.300  1.00  0.00    -0.744 OA
ENDBRANCH  92  93
ENDBRANCH  60  85
BRANCH  72  97
ATOM     97  C   UNL     1      -5.228  18.969  11.315  1.00  0.00     0.058 A 
ATOM     98  C   UNL     1      -4.353  19.131  12.400  1.00  0.00     0.135 A 
ATOM     99  C   UNL     1      -5.687  20.125  10.663  1.00  0.00     0.135 A 
ATOM    100  F   UNL     1      -3.889  18.058  13.061  1.00  0.00    -0.206 F 
ATOM    101  C   UNL     1      -3.970  20.393  12.841  1.00  0.00     0.059 A 
ATOM    102  C   UNL     1      -5.294  21.396  11.068  1.00  0.00     0.059 A 
ATOM    103  F   UNL     1      -6.515  20.025   9.611  1.00  0.00    -0.206 F 
ATOM    104  C   UNL     1      -4.447  21.521  12.168  1.00  0.00     0.060 A 
BRANCH 104 105
ATOM    105  S   UNL     1      -3.924  23.153  12.734  1.00  0.00     0.124 S 
ATOM    106  O   UNL     1      -4.723  23.314  13.944  1.00  0.00    -0.237 OA
ATOM    107  O   UNL     1      -2.491  22.969  12.940  1.00  0.00    -0.237 OA
ATOM    108  O   UNL     1      -4.284  24.029  11.623  1.00  0.00    -0.744 OA
ENDBRANCH 104 105
ENDBRANCH  72  97
ENDBRANCH  46  47
ENDBRANCH  38  41
ENDBRANCH  36  37
ENDBRANCH  35  36
ENDBRANCH  34  35
ENDBRANCH  33  34
ENDBRANCH  32  33
ENDBRANCH  31  32
ENDBRANCH   3  31
TORSDOF 25
