REMARK SMILES C[C@H](NC(=O)NCCc1ccccc1F)C(=O)NCCCCCCNC(=O)c1ccc(-c2c3nc(c(-c4c(F)cc(S(=O)(=O)[O-])cc4F)c4ccc([nH]4)c(-c4c(F)cc(S(=O)(=O)[O-])cc4F)c4nc(c(-c5c(F)cc(S(=O)(=O)[O-])cc5F)c5ccc2[nH]5)C=C4)C=C3)cc1
REMARK SMILES IDX 21 1 20 2 19 3 18 4 16 5 17 6 2 8 1 9 3 10 4 11 5 13 6 14
REMARK SMILES IDX 7 16 8 17 9 18 10 19 14 20 11 21 13 22 15 23 12 24 22 25
REMARK SMILES IDX 23 26 24 27 25 28 26 29 27 31 28 32 29 33 93 34 30 35 92 36
REMARK SMILES IDX 31 37 32 38 33 39 86 40 34 41 91 42 85 43 87 44 35 45 90 46
REMARK SMILES IDX 84 47 83 48 36 50 70 51 49 52 69 53 50 54 53 55 68 56 88 57
REMARK SMILES IDX 51 58 52 59 67 61 89 62 54 63 37 64 38 65 47 66 39 67 40 68
REMARK SMILES IDX 46 69 48 70 41 71 42 72 43 73 44 74 45 75 71 76 72 77 81 78
REMARK SMILES IDX 73 79 74 80 80 81 82 82 75 83 76 84 77 85 78 86 79 87 55 88
REMARK SMILES IDX 56 89 65 90 57 91 58 92 64 93 66 94 59 95 60 96 61 97 62 98
REMARK SMILES IDX 63 99
REMARK H PARENT 18 7 3 12 6 15 25 30 87 49 53 60
REMARK Flexibility Score: inf
ROOT
ATOM      1  C   UNL     1      -3.222   0.334   2.901  1.00  0.00     0.002 C 
ENDROOT
BRANCH   1   2
ATOM      2  C   UNL     1      -1.732   0.438   2.568  1.00  0.00     0.021 C 
BRANCH   2   3
ATOM      3  C   UNL     1      -1.214  -0.765   1.797  1.00  0.00     0.116 C 
BRANCH   3   4
ATOM      4  N   UNL     1      -1.810  -0.816   0.470  1.00  0.00    -0.354 N 
ATOM      5  C   UNL     1      -1.247  -1.203  -0.711  1.00  0.00     0.242 C 
ATOM      6  O   UNL     1      -1.956  -1.266  -1.716  1.00  0.00    -0.273 OA
ATOM      7  H   UNL     1      -2.751  -0.531   0.418  1.00  0.00     0.163 HD
BRANCH   5   8
ATOM      8  C   UNL     1       0.223  -1.633  -0.728  1.00  0.00     0.170 C 
ATOM      9  C   UNL     1       0.358  -2.909   0.118  1.00  0.00     0.041 C 
BRANCH   8  10
ATOM     10  N   UNL     1       1.048  -0.503  -0.285  1.00  0.00    -0.327 N 
ATOM     11  C   UNL     1       2.354  -0.292  -0.101  1.00  0.00     0.315 C 
ATOM     12  H   UNL     1       0.508   0.292  -0.071  1.00  0.00     0.166 HD
ATOM     13  O   UNL     1       2.703   0.794   0.365  1.00  0.00    -0.249 OA
ATOM     14  N   UNL     1       3.294  -1.199  -0.386  1.00  0.00    -0.338 N 
ATOM     15  H   UNL     1       4.205  -0.919  -0.139  1.00  0.00     0.165 HD
BRANCH  14  16
ATOM     16  C   UNL     1       3.230  -2.513  -0.990  1.00  0.00     0.122 C 
BRANCH  16  17
ATOM     17  C   UNL     1       4.252  -2.722  -2.098  1.00  0.00     0.060 C 
BRANCH  17  18
ATOM     18  C   UNL     1       5.630  -2.959  -1.559  1.00  0.00    -0.010 A 
ATOM     19  C   UNL     1       6.604  -1.960  -1.618  1.00  0.00     0.007 A 
ATOM     20  C   UNL     1       5.944  -4.184  -0.962  1.00  0.00     0.126 A 
ATOM     21  C   UNL     1       7.874  -2.196  -1.092  1.00  0.00     0.000 A 
ATOM     22  C   UNL     1       7.205  -4.424  -0.435  1.00  0.00     0.039 A 
ATOM     23  F   UNL     1       5.011  -5.146  -0.887  1.00  0.00    -0.207 F 
ATOM     24  C   UNL     1       8.175  -3.426  -0.502  1.00  0.00     0.003 A 
ENDBRANCH  17  18
ENDBRANCH  16  17
ENDBRANCH  14  16
ENDBRANCH   8  10
ENDBRANCH   5   8
ENDBRANCH   3   4
ENDBRANCH   2   3
ENDBRANCH   1   2
BRANCH   1  25
ATOM     25  C   UNL     1      -3.603  -0.921   3.694  1.00  0.00     0.002 C 
BRANCH  25  26
ATOM     26  C   UNL     1      -2.824  -1.104   4.998  1.00  0.00     0.021 C 
BRANCH  26  27
ATOM     27  C   UNL     1      -2.883   0.102   5.927  1.00  0.00     0.116 C 
BRANCH  27  28
ATOM     28  N   UNL     1      -4.252   0.446   6.275  1.00  0.00    -0.352 N 
ATOM     29  C   UNL     1      -4.793   0.670   7.515  1.00  0.00     0.251 C 
ATOM     30  H   UNL     1      -4.875   0.530   5.518  1.00  0.00     0.163 HD
ATOM     31  O   UNL     1      -6.007   0.738   7.657  1.00  0.00    -0.269 OA
BRANCH  29  32
ATOM     32  C   UNL     1      -3.889   0.808   8.674  1.00  0.00     0.039 A 
ATOM     33  C   UNL     1      -4.182   0.110   9.845  1.00  0.00     0.014 A 
ATOM     34  C   UNL     1      -2.746   1.609   8.588  1.00  0.00     0.014 A 
ATOM     35  C   UNL     1      -3.296   0.177  10.920  1.00  0.00     0.010 A 
ATOM     36  C   UNL     1      -1.827   1.610   9.630  1.00  0.00     0.010 A 
ATOM     37  C   UNL     1      -2.096   0.901  10.809  1.00  0.00    -0.014 A 
BRANCH  37  38
ATOM     38  C   UNL     1      -1.113   0.929  11.919  1.00  0.00     0.031 A 
ATOM     39  C   UNL     1      -0.789   2.227  12.606  1.00  0.00     0.074 A 
ATOM     40  C   UNL     1      -0.481  -0.207  12.277  1.00  0.00     0.049 A 
ATOM     41  N   UNL     1       0.076   2.462  13.558  1.00  0.00    -0.248 NA
ATOM     42  C   UNL     1      -1.515   3.424  12.148  1.00  0.00     0.031 C 
ATOM     43  C   UNL     1      -0.689  -1.518  11.658  1.00  0.00     0.029 A 
ATOM     44  N   UNL     1       0.461  -0.443  13.245  1.00  0.00    -0.354 N 
ATOM     45  C   UNL     1      -0.002   3.826  13.812  1.00  0.00     0.074 A 
ATOM     46  C   UNL     1      -0.949   4.379  12.869  1.00  0.00     0.031 C 
ATOM     47  C   UNL     1       0.073  -2.426  12.287  1.00  0.00     0.029 A 
ATOM     48  C   UNL     1       0.858  -1.757  13.321  1.00  0.00     0.049 A 
ATOM     49  H   UNL     1       0.820   0.263  13.831  1.00  0.00     0.167 HD
ATOM     50  C   UNL     1       0.634   4.545  14.766  1.00  0.00     0.037 A 
ATOM     51  C   UNL     1       1.755  -2.356  14.129  1.00  0.00     0.037 A 
ATOM     52  C   UNL     1       1.563   3.981  15.710  1.00  0.00     0.049 A 
ATOM     53  C   UNL     1       2.478  -1.529  15.156  1.00  0.00     0.074 A 
ATOM     54  C   UNL     1       2.236   4.619  16.737  1.00  0.00     0.029 A 
ATOM     55  N   UNL     1       1.951   2.649  15.744  1.00  0.00    -0.354 N 
ATOM     56  N   UNL     1       2.361  -0.247  15.412  1.00  0.00    -0.248 NA
ATOM     57  C   UNL     1       3.453  -2.225  16.006  1.00  0.00     0.031 C 
ATOM     58  C   UNL     1       3.069   3.685  17.359  1.00  0.00     0.029 A 
ATOM     59  C   UNL     1       2.871   2.450  16.760  1.00  0.00     0.049 A 
ATOM     60  H   UNL     1       1.621   1.948  15.136  1.00  0.00     0.167 HD
ATOM     61  C   UNL     1       3.229   0.012  16.467  1.00  0.00     0.074 A 
ATOM     62  C   UNL     1       3.855  -1.249  16.810  1.00  0.00     0.031 C 
ATOM     63  C   UNL     1       3.483   1.187  17.093  1.00  0.00     0.037 A 
BRANCH  50  64
ATOM     64  C   UNL     1       0.337   6.018  14.851  1.00  0.00     0.058 A 
ATOM     65  C   UNL     1       1.325   6.968  14.548  1.00  0.00     0.135 A 
ATOM     66  C   UNL     1      -0.910   6.490  15.291  1.00  0.00     0.135 A 
ATOM     67  F   UNL     1       2.534   6.575  14.117  1.00  0.00    -0.206 F 
ATOM     68  C   UNL     1       1.092   8.332  14.694  1.00  0.00     0.059 A 
ATOM     69  C   UNL     1      -1.175   7.850  15.415  1.00  0.00     0.059 A 
ATOM     70  F   UNL     1      -1.899   5.626  15.574  1.00  0.00    -0.206 F 
ATOM     71  C   UNL     1      -0.162   8.763  15.129  1.00  0.00     0.060 A 
BRANCH  71  72
ATOM     72  S   UNL     1      -0.456  10.538  15.284  1.00  0.00     0.124 S 
ATOM     73  O   UNL     1       0.397  10.887  16.414  1.00  0.00    -0.237 OA
ATOM     74  O   UNL     1      -0.024  11.033  13.981  1.00  0.00    -0.237 OA
ATOM     75  O   UNL     1      -1.893  10.622  15.530  1.00  0.00    -0.744 OA
ENDBRANCH  71  72
ENDBRANCH  50  64
BRANCH  51  76
ATOM     76  C   UNL     1       1.984  -3.821  14.017  1.00  0.00     0.058 A 
ATOM     77  C   UNL     1       2.600  -4.382  12.887  1.00  0.00     0.135 A 
ATOM     78  C   UNL     1       1.547  -4.697  15.023  1.00  0.00     0.135 A 
ATOM     79  F   UNL     1       3.027  -3.591  11.890  1.00  0.00    -0.206 F 
ATOM     80  C   UNL     1       2.748  -5.757  12.744  1.00  0.00     0.059 A 
ATOM     81  C   UNL     1       1.708  -6.075  14.916  1.00  0.00     0.059 A 
ATOM     82  F   UNL     1       0.963  -4.208  16.127  1.00  0.00    -0.206 F 
ATOM     83  C   UNL     1       2.294  -6.596  13.763  1.00  0.00     0.060 A 
BRANCH  83  84
ATOM     84  S   UNL     1       2.474  -8.380  13.545  1.00  0.00     0.124 S 
ATOM     85  O   UNL     1       1.550  -8.634  12.445  1.00  0.00    -0.237 OA
ATOM     86  O   UNL     1       3.892  -8.505  13.225  1.00  0.00    -0.237 OA
ATOM     87  O   UNL     1       2.074  -8.921  14.840  1.00  0.00    -0.744 OA
ENDBRANCH  83  84
ENDBRANCH  51  76
BRANCH  63  88
ATOM     88  C   UNL     1       4.465   1.177  18.233  1.00  0.00     0.058 A 
ATOM     89  C   UNL     1       4.030   1.407  19.548  1.00  0.00     0.135 A 
ATOM     90  C   UNL     1       5.844   1.031  18.015  1.00  0.00     0.135 A 
ATOM     91  F   UNL     1       2.722   1.558  19.812  1.00  0.00    -0.206 F 
ATOM     92  C   UNL     1       4.928   1.518  20.603  1.00  0.00     0.059 A 
ATOM     93  C   UNL     1       6.759   1.109  19.061  1.00  0.00     0.059 A 
ATOM     94  F   UNL     1       6.312   0.799  16.779  1.00  0.00    -0.206 F 
ATOM     95  C   UNL     1       6.292   1.371  20.349  1.00  0.00     0.060 A 
BRANCH  95  96
ATOM     96  S   UNL     1       7.443   1.518  21.732  1.00  0.00     0.124 S 
ATOM     97  O   UNL     1       7.343   2.937  22.057  1.00  0.00    -0.237 OA
ATOM     98  O   UNL     1       6.867   0.600  22.710  1.00  0.00    -0.237 OA
ATOM     99  O   UNL     1       8.718   1.094  21.159  1.00  0.00    -0.744 OA
ENDBRANCH  95  96
ENDBRANCH  63  88
ENDBRANCH  37  38
ENDBRANCH  29  32
ENDBRANCH  27  28
ENDBRANCH  26  27
ENDBRANCH  25  26
ENDBRANCH   1  25
TORSDOF 20
