REMARK SMILES C[C@H](NC(=O)N(CC(=O)NCCCCCCNC(=O)c1ccc(-c2c3nc(c(-c4c(F)cc(S(=O)(=O)[O-])cc4F)c4ccc([nH]4)c(-c4c(F)cc(S(=O)(=O)[O-])cc4F)c4nc(c(-c5c(F)cc(S(=O)(=O)[O-])cc5F)c5ccc2[nH]5)C=C4)C=C3)cc1)CC(F)(F)F)[C@@H]1CCCO1
REMARK SMILES IDX 13 1 12 2 11 3 10 4 8 5 9 6 7 8 6 9 4 10 3 11 5 13 2 14 1 15
REMARK SMILES IDX 91 16 92 17 95 18 93 19 94 20 86 21 87 22 88 23 89 24 90 25
REMARK SMILES IDX 14 26 15 27 16 28 17 29 18 30 19 32 20 33 21 34 85 35 22 36
REMARK SMILES IDX 84 37 23 38 24 39 25 40 78 41 26 42 83 43 77 44 79 45 27 46
REMARK SMILES IDX 82 47 76 48 75 49 28 51 62 52 41 53 61 54 42 55 45 56 60 57
REMARK SMILES IDX 80 58 43 59 44 60 59 62 81 63 46 64 29 65 30 66 39 67 31 68
REMARK SMILES IDX 32 69 38 70 40 71 33 72 34 73 35 74 36 75 37 76 63 77 64 78
REMARK SMILES IDX 73 79 65 80 66 81 72 82 74 83 67 84 68 85 69 86 70 87 71 88
REMARK SMILES IDX 47 89 48 90 57 91 49 92 50 93 56 94 58 95 51 96 52 97 53 98
REMARK SMILES IDX 54 99 55 100
REMARK H PARENT 10 7 3 12 17 31 79 50 45 61
REMARK Flexibility Score: inf
ROOT
ATOM      1  C   UNL     1       6.266  -2.429  -1.086  1.00  0.00     0.002 C 
ENDROOT
BRANCH   1   2
ATOM      2  C   UNL     1       5.045  -2.026  -0.258  1.00  0.00     0.021 C 
BRANCH   2   3
ATOM      3  C   UNL     1       3.730  -2.043  -1.028  1.00  0.00     0.116 C 
BRANCH   3   4
ATOM      4  N   UNL     1       3.310  -3.381  -1.395  1.00  0.00    -0.355 N 
ATOM      5  C   UNL     1       2.125  -4.029  -1.257  1.00  0.00     0.239 C 
ATOM      6  O   UNL     1       2.014  -5.111  -1.849  1.00  0.00    -0.273 OA
ATOM      7  H   UNL     1       4.014  -3.919  -1.824  1.00  0.00     0.163 HD
BRANCH   5   8
ATOM      8  C   UNL     1       0.884  -3.422  -0.575  1.00  0.00     0.221 C 
BRANCH   8   9
ATOM      9  N   UNL     1       1.014  -2.680   0.669  1.00  0.00    -0.306 N 
BRANCH   9  10
ATOM     10  C   UNL     1       0.972  -1.337   0.862  1.00  0.00     0.318 C 
ATOM     11  N   UNL     1       0.728  -0.418  -0.075  1.00  0.00    -0.333 N 
ATOM     12  H   UNL     1       1.029   0.454   0.267  1.00  0.00     0.165 HD
ATOM     13  O   UNL     1       1.207  -0.869   1.982  1.00  0.00    -0.249 OA
BRANCH  11  14
ATOM     14  C   UNL     1       0.179  -0.214  -1.428  1.00  0.00     0.109 C 
ATOM     15  C   UNL     1       1.024  -0.667  -2.619  1.00  0.00     0.034 C 
BRANCH  14  16
ATOM     16  C   UNL     1      -1.350  -0.427  -1.525  1.00  0.00     0.140 C 
ATOM     17  C   UNL     1      -1.875  -1.681  -2.208  1.00  0.00     0.036 C 
ATOM     18  O   UNL     1      -1.906   0.690  -2.266  1.00  0.00    -0.376 OA
ATOM     19  C   UNL     1      -3.188  -1.204  -2.787  1.00  0.00     0.031 C 
ATOM     20  C   UNL     1      -2.845   0.199  -3.223  1.00  0.00     0.160 C 
ENDBRANCH  14  16
ENDBRANCH  11  14
ENDBRANCH   9  10
BRANCH   9  21
ATOM     21  C   UNL     1       1.302  -3.500   1.875  1.00  0.00     0.237 C 
BRANCH  21  22
ATOM     22  C   UNL     1       2.771  -3.637   2.294  1.00  0.00     0.406 C 
ATOM     23  F   UNL     1       3.407  -2.459   2.437  1.00  0.00    -0.169 F 
ATOM     24  F   UNL     1       2.860  -4.296   3.475  1.00  0.00    -0.169 F 
ATOM     25  F   UNL     1       3.459  -4.374   1.390  1.00  0.00    -0.169 F 
ENDBRANCH  21  22
ENDBRANCH   9  21
ENDBRANCH   8   9
ENDBRANCH   5   8
ENDBRANCH   3   4
ENDBRANCH   2   3
ENDBRANCH   1   2
BRANCH   1  26
ATOM     26  C   UNL     1       6.561  -1.524  -2.285  1.00  0.00     0.002 C 
BRANCH  26  27
ATOM     27  C   UNL     1       6.709  -0.036  -1.960  1.00  0.00     0.021 C 
BRANCH  27  28
ATOM     28  C   UNL     1       7.698   0.287  -0.844  1.00  0.00     0.116 C 
BRANCH  28  29
ATOM     29  N   UNL     1       9.037  -0.201  -1.137  1.00  0.00    -0.352 N 
ATOM     30  C   UNL     1      10.231   0.471  -1.088  1.00  0.00     0.251 C 
ATOM     31  H   UNL     1       9.093  -1.145  -1.407  1.00  0.00     0.163 HD
ATOM     32  O   UNL     1      11.248  -0.050  -1.542  1.00  0.00    -0.269 OA
BRANCH  30  33
ATOM     33  C   UNL     1      10.284   1.830  -0.512  1.00  0.00     0.039 A 
ATOM     34  C   UNL     1      10.974   2.829  -1.203  1.00  0.00     0.014 A 
ATOM     35  C   UNL     1       9.652   2.119   0.701  1.00  0.00     0.014 A 
ATOM     36  C   UNL     1      10.983   4.133  -0.703  1.00  0.00     0.010 A 
ATOM     37  C   UNL     1       9.602   3.433   1.159  1.00  0.00     0.010 A 
ATOM     38  C   UNL     1      10.270   4.453   0.465  1.00  0.00    -0.014 A 
BRANCH  38  39
ATOM     39  C   UNL     1      10.212   5.850   0.968  1.00  0.00     0.031 A 
ATOM     40  C   UNL     1      10.802   6.195   2.311  1.00  0.00     0.074 A 
ATOM     41  C   UNL     1       9.576   6.793   0.243  1.00  0.00     0.049 A 
ATOM     42  N   UNL     1      10.800   7.341   2.941  1.00  0.00    -0.248 NA
ATOM     43  C   UNL     1      11.457   5.106   3.054  1.00  0.00     0.031 C 
ATOM     44  C   UNL     1       8.920   6.568  -1.048  1.00  0.00     0.029 A 
ATOM     45  N   UNL     1       9.363   8.126   0.492  1.00  0.00    -0.354 N 
ATOM     46  C   UNL     1      11.428   7.107   4.159  1.00  0.00     0.074 A 
ATOM     47  C   UNL     1      11.766   5.702   4.197  1.00  0.00     0.031 C 
ATOM     48  C   UNL     1       8.396   7.725  -1.484  1.00  0.00     0.029 A 
ATOM     49  C   UNL     1       8.639   8.764  -0.489  1.00  0.00     0.049 A 
ATOM     50  H   UNL     1       9.698   8.584   1.297  1.00  0.00     0.167 HD
ATOM     51  C   UNL     1      11.711   7.989   5.146  1.00  0.00     0.037 A 
ATOM     52  C   UNL     1       8.207  10.038  -0.571  1.00  0.00     0.037 A 
ATOM     53  C   UNL     1      11.408   9.395   5.081  1.00  0.00     0.049 A 
ATOM     54  C   UNL     1       8.546  10.998   0.540  1.00  0.00     0.074 A 
ATOM     55  C   UNL     1      11.739  10.386   5.989  1.00  0.00     0.029 A 
ATOM     56  N   UNL     1      10.699  10.009   4.060  1.00  0.00    -0.354 N 
ATOM     57  N   UNL     1       9.227  10.778   1.640  1.00  0.00    -0.248 NA
ATOM     58  C   UNL     1       8.066  12.379   0.398  1.00  0.00     0.031 C 
ATOM     59  C   UNL     1      11.177  11.587   5.548  1.00  0.00     0.029 A 
ATOM     60  C   UNL     1      10.553  11.358   4.333  1.00  0.00     0.049 A 
ATOM     61  H   UNL     1      10.352   9.553   3.259  1.00  0.00     0.167 HD
ATOM     62  C   UNL     1       9.286  12.001   2.301  1.00  0.00     0.074 A 
ATOM     63  C   UNL     1       8.585  12.958   1.472  1.00  0.00     0.031 C 
ATOM     64  C   UNL     1       9.867  12.304   3.488  1.00  0.00     0.037 A 
BRANCH  51  65
ATOM     65  C   UNL     1      12.383   7.475   6.390  1.00  0.00     0.058 A 
ATOM     66  C   UNL     1      13.728   7.073   6.395  1.00  0.00     0.135 A 
ATOM     67  C   UNL     1      11.695   7.471   7.615  1.00  0.00     0.135 A 
ATOM     68  F   UNL     1      14.429   7.041   5.251  1.00  0.00    -0.206 F 
ATOM     69  C   UNL     1      14.364   6.679   7.568  1.00  0.00     0.059 A 
ATOM     70  C   UNL     1      12.319   7.108   8.805  1.00  0.00     0.059 A 
ATOM     71  F   UNL     1      10.406   7.843   7.667  1.00  0.00    -0.206 F 
ATOM     72  C   UNL     1      13.654   6.709   8.770  1.00  0.00     0.060 A 
BRANCH  72  73
ATOM     73  S   UNL     1      14.511   6.245  10.289  1.00  0.00     0.124 S 
ATOM     74  O   UNL     1      14.666   4.805  10.110  1.00  0.00    -0.237 OA
ATOM     75  O   UNL     1      15.739   7.029  10.205  1.00  0.00    -0.237 OA
ATOM     76  O   UNL     1      13.584   6.649  11.342  1.00  0.00    -0.744 OA
ENDBRANCH  72  73
ENDBRANCH  51  65
BRANCH  52  77
ATOM     77  C   UNL     1       7.404  10.490  -1.741  1.00  0.00     0.058 A 
ATOM     78  C   UNL     1       7.911  11.431  -2.650  1.00  0.00     0.135 A 
ATOM     79  C   UNL     1       6.099  10.018  -1.954  1.00  0.00     0.135 A 
ATOM     80  F   UNL     1       9.152  11.917  -2.489  1.00  0.00    -0.206 F 
ATOM     81  C   UNL     1       7.143  11.918  -3.703  1.00  0.00     0.059 A 
ATOM     82  C   UNL     1       5.323  10.465  -3.019  1.00  0.00     0.059 A 
ATOM     83  F   UNL     1       5.571   9.102  -1.128  1.00  0.00    -0.206 F 
ATOM     84  C   UNL     1       5.846  11.432  -3.876  1.00  0.00     0.060 A 
BRANCH  84  85
ATOM     85  S   UNL     1       4.856  12.068  -5.245  1.00  0.00     0.124 S 
ATOM     86  O   UNL     1       4.529  13.408  -4.773  1.00  0.00    -0.237 OA
ATOM     87  O   UNL     1       5.794  11.994  -6.362  1.00  0.00    -0.237 OA
ATOM     88  O   UNL     1       3.738  11.132  -5.313  1.00  0.00    -0.744 OA
ENDBRANCH  84  85
ENDBRANCH  52  77
BRANCH  64  89
ATOM     89  C   UNL     1       9.817  13.738   3.942  1.00  0.00     0.058 A 
ATOM     90  C   UNL     1       8.627  14.334   4.387  1.00  0.00     0.135 A 
ATOM     91  C   UNL     1      10.992  14.508   3.984  1.00  0.00     0.135 A 
ATOM     92  F   UNL     1       7.475  13.645   4.362  1.00  0.00    -0.206 F 
ATOM     93  C   UNL     1       8.598  15.652   4.832  1.00  0.00     0.059 A 
ATOM     94  C   UNL     1      10.992  15.816   4.456  1.00  0.00     0.059 A 
ATOM     95  F   UNL     1      12.160  13.982   3.581  1.00  0.00    -0.206 F 
ATOM     96  C   UNL     1       9.787  16.384   4.866  1.00  0.00     0.060 A 
BRANCH  96  97
ATOM     97  S   UNL     1       9.741  18.081   5.478  1.00  0.00     0.124 S 
ATOM     98  O   UNL     1       9.081  18.773   4.376  1.00  0.00    -0.237 OA
ATOM     99  O   UNL     1       8.958  17.950   6.703  1.00  0.00    -0.237 OA
ATOM    100  O   UNL     1      11.149  18.411   5.673  1.00  0.00    -0.744 OA
ENDBRANCH  96  97
ENDBRANCH  64  89
ENDBRANCH  38  39
ENDBRANCH  30  33
ENDBRANCH  28  29
ENDBRANCH  27  28
ENDBRANCH  26  27
ENDBRANCH   1  26
TORSDOF 22
