REMARK SMILES Cc1ccccc1[C@@H]1[NH2+][C@@H](C(=O)NCCCCCCNC(=O)c2ccc(-c3c4nc(c(-c5c(F)cc(S(=O)(=O)[O-])cc5F)c5ccc([nH]5)c(-c5c(F)cc(S(=O)(=O)[O-])cc5F)c5nc(c(-c6c(F)cc(S(=O)(=O)[O-])cc6F)c6ccc3[nH]6)C=C5)C=C4)cc2)CC2=c3ccccc3=N[C@H]21
REMARK SMILES IDX 17 1 16 2 15 3 14 4 13 5 11 6 12 7 10 9 8 10 9 11 98 12
REMARK SMILES IDX 90 15 97 16 89 17 91 18 96 19 92 20 95 21 93 22 94 23 7 24
REMARK SMILES IDX 1 25 2 26 3 27 4 28 6 29 5 30 18 31 19 32 20 33 21 34 22 36
REMARK SMILES IDX 23 37 24 38 88 39 25 40 87 41 26 42 27 43 28 44 81 45 29 46
REMARK SMILES IDX 86 47 80 48 82 49 30 50 85 51 79 52 78 53 31 55 65 56 44 57
REMARK SMILES IDX 64 58 45 59 48 60 63 61 83 62 46 63 47 64 62 66 84 67 49 68
REMARK SMILES IDX 32 69 33 70 42 71 34 72 35 73 41 74 43 75 36 76 37 77 38 78
REMARK SMILES IDX 39 79 40 80 66 81 67 82 76 83 68 84 69 85 75 86 77 87 70 88
REMARK SMILES IDX 71 89 72 90 73 91 74 92 50 93 51 94 60 95 52 96 53 97 59 98
REMARK SMILES IDX 61 99 54 100 55 101 56 102 57 103 58 104
REMARK H PARENT 13 8 9 13 9 14 20 35 82 54 48 65
REMARK Flexibility Score: inf
ROOT
ATOM      1  C   UNL     1      -6.005   7.963  -0.736  1.00  0.00     0.002 C 
ENDROOT
BRANCH   1   2
ATOM      2  C   UNL     1      -4.493   7.887  -1.026  1.00  0.00     0.002 C 
BRANCH   2   3
ATOM      3  C   UNL     1      -3.638   6.945  -0.163  1.00  0.00     0.021 C 
BRANCH   3   4
ATOM      4  C   UNL     1      -4.122   5.498  -0.059  1.00  0.00     0.116 C 
BRANCH   4   5
ATOM      5  N   UNL     1      -3.597   4.559  -1.038  1.00  0.00    -0.351 N 
ATOM      6  C   UNL     1      -2.465   3.791  -1.031  1.00  0.00     0.278 C 
ATOM      7  O   UNL     1      -2.530   2.718  -1.650  1.00  0.00    -0.268 OA
ATOM      8  H   UNL     1      -4.153   4.459  -1.844  1.00  0.00     0.163 HD
BRANCH   6   9
ATOM      9  C   UNL     1      -1.098   4.300  -0.482  1.00  0.00     0.277 C 
ATOM     10  C   UNL     1       0.614   2.523   0.270  1.00  0.00     0.243 C 
ATOM     11  N   UNL     1      -0.022   3.312  -0.819  1.00  0.00    -0.327 N 
ATOM     12  C   UNL     1       0.548   3.086   1.723  1.00  0.00     0.196 C 
ATOM     13  H   UNL     1      -0.428   2.642  -1.472  1.00  0.00     0.347 HD
ATOM     14  H   UNL     1       0.739   3.895  -1.167  1.00  0.00     0.347 HD
ATOM     15  C   UNL     1      -0.764   3.770   1.919  1.00  0.00    -0.024 C 
ATOM     16  N   UNL     1       0.570   2.009   2.765  1.00  0.00    -0.270 NA
ATOM     17  C   UNL     1      -1.055   4.845   0.947  1.00  0.00     0.109 C 
ATOM     18  C   UNL     1      -1.465   3.231   2.905  1.00  0.00     0.002 A 
ATOM     19  C   UNL     1      -0.550   2.187   3.398  1.00  0.00     0.066 A 
ATOM     20  C   UNL     1      -2.767   3.416   3.453  1.00  0.00     0.010 A 
ATOM     21  C   UNL     1      -1.009   1.428   4.582  1.00  0.00     0.028 A 
ATOM     22  C   UNL     1      -3.141   2.648   4.489  1.00  0.00     0.001 A 
ATOM     23  C   UNL     1      -2.234   1.674   5.076  1.00  0.00     0.002 A 
BRANCH  10  24
ATOM     24  C   UNL     1       2.083   2.229  -0.086  1.00  0.00     0.015 A 
ATOM     25  C   UNL     1       2.741   4.712  -0.357  1.00  0.00     0.045 C 
ATOM     26  C   UNL     1       3.045   3.236  -0.353  1.00  0.00    -0.042 A 
ATOM     27  C   UNL     1       4.391   2.870  -0.550  1.00  0.00     0.004 A 
ATOM     28  C   UNL     1       4.790   1.537  -0.520  1.00  0.00     0.000 A 
ATOM     29  C   UNL     1       2.512   0.885  -0.071  1.00  0.00     0.010 A 
ATOM     30  C   UNL     1       3.849   0.542  -0.289  1.00  0.00     0.001 A 
ENDBRANCH  10  24
ENDBRANCH   6   9
ENDBRANCH   4   5
ENDBRANCH   3   4
ENDBRANCH   2   3
ENDBRANCH   1   2
BRANCH   1  31
ATOM     31  C   UNL     1      -6.434   8.098   0.728  1.00  0.00     0.021 C 
BRANCH  31  32
ATOM     32  C   UNL     1      -6.023   9.407   1.396  1.00  0.00     0.116 C 
BRANCH  32  33
ATOM     33  N   UNL     1      -7.117  10.348   1.577  1.00  0.00    -0.352 N 
ATOM     34  C   UNL     1      -7.140  11.360   2.543  1.00  0.00     0.251 C 
ATOM     35  H   UNL     1      -7.894  10.268   0.979  1.00  0.00     0.163 HD
ATOM     36  O   UNL     1      -8.109  11.665   3.175  1.00  0.00    -0.269 OA
BRANCH  34  37
ATOM     37  C   UNL     1      -5.878  12.140   2.643  1.00  0.00     0.039 A 
ATOM     38  C   UNL     1      -5.827  13.400   2.037  1.00  0.00     0.014 A 
ATOM     39  C   UNL     1      -4.724  11.517   3.103  1.00  0.00     0.014 A 
ATOM     40  C   UNL     1      -4.587  13.966   1.740  1.00  0.00     0.010 A 
ATOM     41  C   UNL     1      -3.501  12.036   2.728  1.00  0.00     0.010 A 
ATOM     42  C   UNL     1      -3.427  13.239   2.009  1.00  0.00    -0.014 A 
BRANCH  42  43
ATOM     43  C   UNL     1      -2.100  13.578   1.495  1.00  0.00     0.031 A 
ATOM     44  C   UNL     1      -1.006  13.972   2.417  1.00  0.00     0.074 A 
ATOM     45  C   UNL     1      -1.818  13.355   0.193  1.00  0.00     0.049 A 
ATOM     46  N   UNL     1       0.132  14.455   2.045  1.00  0.00    -0.248 NA
ATOM     47  C   UNL     1      -1.134  13.871   3.865  1.00  0.00     0.031 C 
ATOM     48  C   UNL     1      -0.496  13.212  -0.411  1.00  0.00     0.029 A 
ATOM     49  N   UNL     1      -2.689  13.405  -0.895  1.00  0.00    -0.354 N 
ATOM     50  C   UNL     1       0.967  14.485   3.141  1.00  0.00     0.074 A 
ATOM     51  C   UNL     1       0.115  14.142   4.257  1.00  0.00     0.031 C 
ATOM     52  C   UNL     1      -0.594  13.428  -1.731  1.00  0.00     0.029 A 
ATOM     53  C   UNL     1      -1.949  13.872  -2.002  1.00  0.00     0.049 A 
ATOM     54  H   UNL     1      -3.643  13.161  -0.891  1.00  0.00     0.167 HD
ATOM     55  C   UNL     1       2.305  14.696   2.962  1.00  0.00     0.037 A 
ATOM     56  C   UNL     1      -2.273  15.063  -2.592  1.00  0.00     0.037 A 
ATOM     57  C   UNL     1       2.612  15.024   1.568  1.00  0.00     0.049 A 
ATOM     58  C   UNL     1      -1.230  16.153  -2.433  1.00  0.00     0.074 A 
ATOM     59  C   UNL     1       3.089  14.310   0.480  1.00  0.00     0.029 A 
ATOM     60  N   UNL     1       2.160  16.229   1.062  1.00  0.00    -0.354 N 
ATOM     61  N   UNL     1      -0.080  15.997  -1.836  1.00  0.00    -0.248 NA
ATOM     62  C   UNL     1      -1.437  17.535  -2.877  1.00  0.00     0.031 C 
ATOM     63  C   UNL     1       2.858  15.084  -0.694  1.00  0.00     0.029 A 
ATOM     64  C   UNL     1       2.248  16.265  -0.316  1.00  0.00     0.049 A 
ATOM     65  H   UNL     1       1.819  16.968   1.615  1.00  0.00     0.167 HD
ATOM     66  C   UNL     1       0.541  17.212  -1.726  1.00  0.00     0.074 A 
ATOM     67  C   UNL     1      -0.324  18.140  -2.428  1.00  0.00     0.031 C 
ATOM     68  C   UNL     1       1.689  17.404  -1.020  1.00  0.00     0.037 A 
BRANCH  55  69
ATOM     69  C   UNL     1       3.368  14.401   4.003  1.00  0.00     0.058 A 
ATOM     70  C   UNL     1       4.673  14.026   3.613  1.00  0.00     0.135 A 
ATOM     71  C   UNL     1       3.159  14.414   5.396  1.00  0.00     0.135 A 
ATOM     72  F   UNL     1       5.061  14.064   2.331  1.00  0.00    -0.206 F 
ATOM     73  C   UNL     1       5.643  13.583   4.517  1.00  0.00     0.059 A 
ATOM     74  C   UNL     1       4.088  13.916   6.316  1.00  0.00     0.059 A 
ATOM     75  F   UNL     1       2.065  14.968   5.933  1.00  0.00    -0.206 F 
ATOM     76  C   UNL     1       5.327  13.489   5.864  1.00  0.00     0.060 A 
BRANCH  76  77
ATOM     77  S   UNL     1       6.548  12.811   7.003  1.00  0.00     0.124 S 
ATOM     78  O   UNL     1       6.878  11.534   6.377  1.00  0.00    -0.237 OA
ATOM     79  O   UNL     1       7.595  13.826   6.966  1.00  0.00    -0.237 OA
ATOM     80  O   UNL     1       5.817  12.710   8.264  1.00  0.00    -0.744 OA
ENDBRANCH  76  77
ENDBRANCH  55  69
BRANCH  56  81
ATOM     81  C   UNL     1      -3.748  15.264  -2.663  1.00  0.00     0.058 A 
ATOM     82  C   UNL     1      -4.473  14.377  -3.484  1.00  0.00     0.135 A 
ATOM     83  C   UNL     1      -4.441  15.913  -1.633  1.00  0.00     0.135 A 
ATOM     84  F   UNL     1      -3.861  13.754  -4.505  1.00  0.00    -0.206 F 
ATOM     85  C   UNL     1      -5.768  13.987  -3.166  1.00  0.00     0.059 A 
ATOM     86  C   UNL     1      -5.748  15.548  -1.308  1.00  0.00     0.059 A 
ATOM     87  F   UNL     1      -3.805  16.779  -0.830  1.00  0.00    -0.206 F 
ATOM     88  C   UNL     1      -6.362  14.518  -2.024  1.00  0.00     0.060 A 
BRANCH  88  89
ATOM     89  S   UNL     1      -7.857  13.717  -1.393  1.00  0.00     0.124 S 
ATOM     90  O   UNL     1      -8.713  13.687  -2.573  1.00  0.00    -0.237 OA
ATOM     91  O   UNL     1      -7.342  12.419  -0.952  1.00  0.00    -0.237 OA
ATOM     92  O   UNL     1      -8.287  14.612  -0.325  1.00  0.00    -0.744 OA
ENDBRANCH  88  89
ENDBRANCH  56  81
BRANCH  68  93
ATOM     93  C   UNL     1       2.369  18.732  -0.948  1.00  0.00     0.058 A 
ATOM     94  C   UNL     1       2.806  19.388  -2.108  1.00  0.00     0.135 A 
ATOM     95  C   UNL     1       2.727  19.308   0.286  1.00  0.00     0.135 A 
ATOM     96  F   UNL     1       2.515  18.890  -3.321  1.00  0.00    -0.206 F 
ATOM     97  C   UNL     1       3.560  20.558  -2.051  1.00  0.00     0.059 A 
ATOM     98  C   UNL     1       3.509  20.456   0.368  1.00  0.00     0.059 A 
ATOM     99  F   UNL     1       2.310  18.770   1.443  1.00  0.00    -0.206 F 
ATOM    100  C   UNL     1       3.914  21.081  -0.807  1.00  0.00     0.060 A 
BRANCH 100 101
ATOM    101  S   UNL     1       4.944  22.559  -0.722  1.00  0.00     0.124 S 
ATOM    102  O   UNL     1       5.751  22.465  -1.935  1.00  0.00    -0.237 OA
ATOM    103  O   UNL     1       3.936  23.614  -0.717  1.00  0.00    -0.237 OA
ATOM    104  O   UNL     1       5.678  22.380   0.526  1.00  0.00    -0.744 OA
ENDBRANCH 100 101
ENDBRANCH  68  93
ENDBRANCH  42  43
ENDBRANCH  34  37
ENDBRANCH  32  33
ENDBRANCH  31  32
ENDBRANCH   1  31
TORSDOF 17
