REMARK SMILES C[C@H](NC(=O)N1CC[C@H](C(=O)NCCCCCCNC(=O)c2ccc(-c3c4nc(c(-c5c(F)cc(S(=O)(=O)[O-])cc5F)c5ccc([nH]5)c(-c5c(F)cc(S(=O)(=O)[O-])cc5F)c5nc(c(-c6c(F)cc(S(=O)(=O)[O-])cc6F)c6ccc3[nH]6)C=C5)C=C4)cc2)[C@@H]1C)[C@@H]1CCCO1
REMARK SMILES IDX 15 1 14 2 13 3 12 4 10 5 11 6 9 8 6 9 7 10 88 11 8 12 89 13
REMARK SMILES IDX 4 14 3 15 5 17 2 18 1 19 90 20 91 21 94 22 92 23 93 24 16 25
REMARK SMILES IDX 17 26 18 27 19 28 20 29 21 31 22 32 23 33 87 34 24 35 86 36
REMARK SMILES IDX 25 37 26 38 27 39 80 40 28 41 85 42 79 43 81 44 29 45 84 46
REMARK SMILES IDX 78 47 77 48 30 50 64 51 43 52 63 53 44 54 47 55 62 56 82 57
REMARK SMILES IDX 45 58 46 59 61 61 83 62 48 63 31 64 32 65 41 66 33 67 34 68
REMARK SMILES IDX 40 69 42 70 35 71 36 72 37 73 38 74 39 75 65 76 66 77 75 78
REMARK SMILES IDX 67 79 68 80 74 81 76 82 69 83 70 84 71 85 72 86 73 87 49 88
REMARK SMILES IDX 50 89 59 90 51 91 52 92 58 93 60 94 53 95 54 96 55 97 56 98
REMARK SMILES IDX 57 99
REMARK H PARENT 12 7 3 16 19 30 81 49 47 60
REMARK Flexibility Score: inf
ROOT
ATOM      1  C   UNL     1       6.898  -7.439  -1.215  1.00  0.00     0.002 C 
ENDROOT
BRANCH   1   2
ATOM      2  C   UNL     1       5.421  -7.025  -1.163  1.00  0.00     0.021 C 
BRANCH   2   3
ATOM      3  C   UNL     1       4.992  -6.417   0.173  1.00  0.00     0.116 C 
BRANCH   3   4
ATOM      4  N   UNL     1       5.796  -5.247   0.491  1.00  0.00    -0.356 N 
ATOM      5  C   UNL     1       5.462  -3.924   0.513  1.00  0.00     0.225 C 
ATOM      6  O   UNL     1       6.350  -3.113   0.759  1.00  0.00    -0.275 OA
ATOM      7  H   UNL     1       6.731  -5.441   0.729  1.00  0.00     0.163 HD
BRANCH   5   8
ATOM      8  C   UNL     1       3.997  -3.558   0.370  1.00  0.00     0.102 C 
ATOM      9  N   UNL     1       2.809  -1.600   0.970  1.00  0.00    -0.321 N 
ATOM     10  C   UNL     1       3.173  -2.238   2.212  1.00  0.00     0.122 C 
ATOM     11  C   UNL     1       3.604  -2.147  -0.128  1.00  0.00     0.096 C 
ATOM     12  C   UNL     1       3.366  -3.680   1.776  1.00  0.00     0.037 C 
ATOM     13  C   UNL     1       4.733  -1.203  -0.531  1.00  0.00     0.032 C 
BRANCH   9  14
ATOM     14  C   UNL     1       1.917  -0.581   0.951  1.00  0.00     0.317 C 
ATOM     15  N   UNL     1       0.970  -0.531  -0.013  1.00  0.00    -0.333 N 
ATOM     16  H   UNL     1       0.583   0.367  -0.121  1.00  0.00     0.165 HD
ATOM     17  O   UNL     1       1.870   0.260   1.850  1.00  0.00    -0.249 OA
BRANCH  15  18
ATOM     18  C   UNL     1       0.385  -1.522  -0.941  1.00  0.00     0.109 C 
ATOM     19  C   UNL     1       0.526  -2.987  -0.507  1.00  0.00     0.034 C 
BRANCH  18  20
ATOM     20  C   UNL     1      -1.121  -1.191  -1.131  1.00  0.00     0.140 C 
ATOM     21  C   UNL     1      -1.864  -2.110  -2.091  1.00  0.00     0.036 C 
ATOM     22  O   UNL     1      -1.293   0.140  -1.669  1.00  0.00    -0.376 OA
ATOM     23  C   UNL     1      -3.033  -1.254  -2.497  1.00  0.00     0.031 C 
ATOM     24  C   UNL     1      -2.404   0.119  -2.580  1.00  0.00     0.160 C 
ENDBRANCH  18  20
ENDBRANCH  15  18
ENDBRANCH   9  14
ENDBRANCH   5   8
ENDBRANCH   3   4
ENDBRANCH   2   3
ENDBRANCH   1   2
BRANCH   1  25
ATOM     25  C   UNL     1       7.346  -8.385  -0.096  1.00  0.00     0.002 C 
BRANCH  25  26
ATOM     26  C   UNL     1       6.577  -9.706  -0.022  1.00  0.00     0.021 C 
BRANCH  26  27
ATOM     27  C   UNL     1       6.647 -10.553  -1.288  1.00  0.00     0.116 C 
BRANCH  27  28
ATOM     28  N   UNL     1       8.007 -10.957  -1.604  1.00  0.00    -0.352 N 
ATOM     29  C   UNL     1       8.507 -12.209  -1.860  1.00  0.00     0.251 C 
ATOM     30  H   UNL     1       8.666 -10.226  -1.640  1.00  0.00     0.163 HD
ATOM     31  O   UNL     1       9.724 -12.378  -1.921  1.00  0.00    -0.269 OA
BRANCH  29  32
ATOM     32  C   UNL     1       7.590 -13.355  -2.039  1.00  0.00     0.039 A 
ATOM     33  C   UNL     1       7.902 -14.570  -1.427  1.00  0.00     0.014 A 
ATOM     34  C   UNL     1       6.430 -13.238  -2.812  1.00  0.00     0.014 A 
ATOM     35  C   UNL     1       7.023 -15.649  -1.540  1.00  0.00     0.010 A 
ATOM     36  C   UNL     1       5.518 -14.290  -2.860  1.00  0.00     0.010 A 
ATOM     37  C   UNL     1       5.804 -15.508  -2.227  1.00  0.00    -0.014 A 
BRANCH  37  38
ATOM     38  C   UNL     1       4.821 -16.622  -2.272  1.00  0.00     0.031 A 
ATOM     39  C   UNL     1       4.443 -17.256  -3.584  1.00  0.00     0.074 A 
ATOM     40  C   UNL     1       4.230 -17.029  -1.129  1.00  0.00     0.049 A 
ATOM     41  N   UNL     1       3.584 -18.215  -3.818  1.00  0.00    -0.248 NA
ATOM     42  C   UNL     1       5.097 -16.731  -4.793  1.00  0.00     0.031 C 
ATOM     43  C   UNL     1       4.471 -16.456   0.197  1.00  0.00     0.029 A 
ATOM     44  N   UNL     1       3.304 -18.016  -0.898  1.00  0.00    -0.354 N 
ATOM     45  C   UNL     1       3.588 -18.402  -5.196  1.00  0.00     0.074 A 
ATOM     46  C   UNL     1       4.494 -17.421  -5.751  1.00  0.00     0.031 C 
ATOM     47  C   UNL     1       3.733 -17.116   1.104  1.00  0.00     0.029 A 
ATOM     48  C   UNL     1       2.937 -18.132   0.422  1.00  0.00     0.049 A 
ATOM     49  H   UNL     1       2.937 -18.587  -1.611  1.00  0.00     0.167 HD
ATOM     50  C   UNL     1       2.915 -19.323  -5.928  1.00  0.00     0.037 A 
ATOM     51  C   UNL     1       2.053 -18.956   1.018  1.00  0.00     0.037 A 
ATOM     52  C   UNL     1       2.031 -20.311  -5.365  1.00  0.00     0.049 A 
ATOM     53  C   UNL     1       1.318 -19.969   0.181  1.00  0.00     0.074 A 
ATOM     54  C   UNL     1       1.353 -21.328  -6.017  1.00  0.00     0.029 A 
ATOM     55  N   UNL     1       1.697 -20.407  -4.022  1.00  0.00    -0.354 N 
ATOM     56  N   UNL     1       1.393 -20.180  -1.112  1.00  0.00    -0.248 NA
ATOM     57  C   UNL     1       0.386 -20.861   0.883  1.00  0.00     0.031 C 
ATOM     58  C   UNL     1       0.566 -22.002  -5.078  1.00  0.00     0.029 A 
ATOM     59  C   UNL     1       0.800 -21.447  -3.830  1.00  0.00     0.049 A 
ATOM     60  H   UNL     1       2.045 -19.823  -3.310  1.00  0.00     0.167 HD
ATOM     61  C   UNL     1       0.538 -21.246  -1.373  1.00  0.00     0.074 A 
ATOM     62  C   UNL     1      -0.026 -21.648  -0.101  1.00  0.00     0.031 C 
ATOM     63  C   UNL     1       0.247 -21.838  -2.558  1.00  0.00     0.037 A 
BRANCH  50  64
ATOM     64  C   UNL     1       3.107 -19.313  -7.421  1.00  0.00     0.058 A 
ATOM     65  C   UNL     1       4.318 -19.709  -8.013  1.00  0.00     0.135 A 
ATOM     66  C   UNL     1       2.047 -18.966  -8.274  1.00  0.00     0.135 A 
ATOM     67  F   UNL     1       5.371 -20.037  -7.246  1.00  0.00    -0.206 F 
ATOM     68  C   UNL     1       4.477 -19.741  -9.395  1.00  0.00     0.059 A 
ATOM     69  C   UNL     1       2.174 -19.019  -9.659  1.00  0.00     0.059 A 
ATOM     70  F   UNL     1       0.868 -18.578  -7.764  1.00  0.00    -0.206 F 
ATOM     71  C   UNL     1       3.397 -19.398 -10.210  1.00  0.00     0.060 A 
BRANCH  71  72
ATOM     72  S   UNL     1       3.614 -19.471 -12.001  1.00  0.00     0.124 S 
ATOM     73  O   UNL     1       4.498 -18.333 -12.233  1.00  0.00    -0.237 OA
ATOM     74  O   UNL     1       4.214 -20.788 -12.188  1.00  0.00    -0.237 OA
ATOM     75  O   UNL     1       2.256 -19.324 -12.515  1.00  0.00    -0.744 OA
ENDBRANCH  71  72
ENDBRANCH  50  64
BRANCH  51  76
ATOM     76  C   UNL     1       1.819 -18.866   2.485  1.00  0.00     0.058 A 
ATOM     77  C   UNL     1       2.216 -19.898   3.349  1.00  0.00     0.135 A 
ATOM     78  C   UNL     1       1.188 -17.748   3.053  1.00  0.00     0.135 A 
ATOM     79  F   UNL     1       2.818 -20.991   2.855  1.00  0.00    -0.206 F 
ATOM     80  C   UNL     1       1.974 -19.838   4.718  1.00  0.00     0.059 A 
ATOM     81  C   UNL     1       0.963 -17.650   4.422  1.00  0.00     0.059 A 
ATOM     82  F   UNL     1       0.804 -16.724   2.274  1.00  0.00    -0.206 F 
ATOM     83  C   UNL     1       1.347 -18.708   5.245  1.00  0.00     0.060 A 
BRANCH  83  84
ATOM     84  S   UNL     1       1.065 -18.624   7.027  1.00  0.00     0.124 S 
ATOM     85  O   UNL     1      -0.011 -19.593   7.199  1.00  0.00    -0.237 OA
ATOM     86  O   UNL     1       2.367 -19.013   7.560  1.00  0.00    -0.237 OA
ATOM     87  O   UNL     1       0.700 -17.227   7.242  1.00  0.00    -0.744 OA
ENDBRANCH  83  84
ENDBRANCH  51  76
BRANCH  63  88
ATOM     88  C   UNL     1      -0.702 -23.006  -2.532  1.00  0.00     0.058 A 
ATOM     89  C   UNL     1      -2.071 -22.843  -2.267  1.00  0.00     0.135 A 
ATOM     90  C   UNL     1      -0.241 -24.303  -2.812  1.00  0.00     0.135 A 
ATOM     91  F   UNL     1      -2.565 -21.626  -1.987  1.00  0.00    -0.206 F 
ATOM     92  C   UNL     1      -2.942 -23.927  -2.246  1.00  0.00     0.059 A 
ATOM     93  C   UNL     1      -1.100 -25.397  -2.830  1.00  0.00     0.059 A 
ATOM     94  F   UNL     1       1.056 -24.516  -3.085  1.00  0.00    -0.206 F 
ATOM     95  C   UNL     1      -2.447 -25.201  -2.529  1.00  0.00     0.060 A 
BRANCH  95  96
ATOM     96  S   UNL     1      -3.592 -26.597  -2.517  1.00  0.00     0.124 S 
ATOM     97  O   UNL     1      -3.840 -26.760  -1.088  1.00  0.00    -0.237 OA
ATOM     98  O   UNL     1      -4.713 -26.087  -3.301  1.00  0.00    -0.237 OA
ATOM     99  O   UNL     1      -2.829 -27.669  -3.148  1.00  0.00    -0.744 OA
ENDBRANCH  95  96
ENDBRANCH  63  88
ENDBRANCH  37  38
ENDBRANCH  29  32
ENDBRANCH  27  28
ENDBRANCH  26  27
ENDBRANCH  25  26
ENDBRANCH   1  25
TORSDOF 19
