REMARK SMILES C[C@]1(C(=O)NCCCCCCNC(=O)c2ccc(-c3c4nc(c(-c5c(F)cc(S(=O)(=O)[O-])cc5F)c5ccc([nH]5)c(-c5c(F)cc(S(=O)(=O)[O-])cc5F)c5nc(c(-c6c(F)cc(S(=O)(=O)[O-])cc6F)c6ccc3[nH]6)C=C5)C=C4)cc2)COC[C@@H]1NC(=O)[C@H]1C=C[C@@H]([NH3+])C1
REMARK SMILES IDX 8 1 7 2 6 3 5 4 3 5 4 6 2 8 1 9 81 10 84 11 82 12 83 13
REMARK SMILES IDX 85 14 86 15 87 17 88 18 89 19 93 20 90 21 91 22 92 23 9 27
REMARK SMILES IDX 10 28 11 29 12 30 13 31 14 33 15 34 16 35 80 36 17 37 79 38
REMARK SMILES IDX 18 39 19 40 20 41 73 42 21 43 78 44 72 45 74 46 22 47 77 48
REMARK SMILES IDX 71 49 70 50 23 52 57 53 36 54 56 55 37 56 40 57 55 58 75 59
REMARK SMILES IDX 38 60 39 61 54 63 76 64 41 65 24 66 25 67 34 68 26 69 27 70
REMARK SMILES IDX 33 71 35 72 28 73 29 74 30 75 31 76 32 77 58 78 59 79 68 80
REMARK SMILES IDX 60 81 61 82 67 83 69 84 62 85 63 86 64 87 65 88 66 89 42 90
REMARK SMILES IDX 43 91 52 92 44 93 45 94 51 95 53 96 46 97 47 98 48 99 49 100
REMARK SMILES IDX 50 101
REMARK H PARENT 5 7 85 16 92 24 92 25 92 26 12 32 74 51 40 62
REMARK Flexibility Score: inf
ROOT
ATOM      1  C   UNL     1       5.120   0.482  -2.237  1.00  0.00     0.002 C 
ENDROOT
BRANCH   1   2
ATOM      2  C   UNL     1       3.668   0.163  -1.868  1.00  0.00     0.021 C 
BRANCH   2   3
ATOM      3  C   UNL     1       3.493  -0.406  -0.455  1.00  0.00     0.116 C 
BRANCH   3   4
ATOM      4  N   UNL     1       2.470   0.264   0.352  1.00  0.00    -0.355 N 
ATOM      5  C   UNL     1       1.158  -0.046   0.626  1.00  0.00     0.230 C 
ATOM      6  O   UNL     1       0.581   0.628   1.480  1.00  0.00    -0.274 OA
ATOM      7  H   UNL     1       2.780   1.095   0.779  1.00  0.00     0.163 HD
BRANCH   5   8
ATOM      8  C   UNL     1       0.452  -1.171  -0.153  1.00  0.00     0.092 C 
ATOM      9  C   UNL     1       0.548  -0.741  -1.622  1.00  0.00     0.026 C 
ATOM     10  C   UNL     1       1.163  -2.467   0.281  1.00  0.00     0.179 C 
ATOM     11  C   UNL     1      -1.004  -1.419   0.306  1.00  0.00     0.125 C 
ATOM     12  O   UNL     1       0.222  -3.378   0.860  1.00  0.00    -0.378 OA
ATOM     13  C   UNL     1      -0.963  -2.664   1.183  1.00  0.00     0.186 C 
BRANCH  11  14
ATOM     14  N   UNL     1      -2.122  -1.462  -0.673  1.00  0.00    -0.349 N 
ATOM     15  C   UNL     1      -2.576  -2.122  -1.759  1.00  0.00     0.227 C 
ATOM     16  H   UNL     1      -2.763  -0.749  -0.448  1.00  0.00     0.163 HD
ATOM     17  O   UNL     1      -3.731  -1.781  -2.076  1.00  0.00    -0.274 OA
BRANCH  15  18
ATOM     18  C   UNL     1      -1.861  -3.108  -2.697  1.00  0.00     0.107 C 
ATOM     19  C   UNL     1      -1.303  -2.394  -3.901  1.00  0.00    -0.012 C 
ATOM     20  C   UNL     1      -0.692  -3.969  -2.255  1.00  0.00     0.087 C 
ATOM     21  C   UNL     1      -0.151  -2.935  -4.316  1.00  0.00     0.033 C 
ATOM     22  C   UNL     1       0.230  -4.111  -3.480  1.00  0.00     0.205 C 
BRANCH  22  23
ATOM     23  N   UNL     1       1.639  -4.103  -3.124  1.00  0.00    -0.352 N 
ATOM     24  H   UNL     1       1.860  -3.240  -2.628  1.00  0.00     0.345 HD
ATOM     25  H   UNL     1       2.204  -4.163  -3.971  1.00  0.00     0.345 HD
ATOM     26  H   UNL     1       1.842  -4.902  -2.523  1.00  0.00     0.345 HD
ENDBRANCH  22  23
ENDBRANCH  15  18
ENDBRANCH  11  14
ENDBRANCH   5   8
ENDBRANCH   3   4
ENDBRANCH   2   3
ENDBRANCH   1   2
BRANCH   1  27
ATOM     27  C   UNL     1       6.125  -0.661  -2.058  1.00  0.00     0.002 C 
BRANCH  27  28
ATOM     28  C   UNL     1       5.915  -1.890  -2.948  1.00  0.00     0.021 C 
BRANCH  28  29
ATOM     29  C   UNL     1       5.985  -1.635  -4.455  1.00  0.00     0.116 C 
BRANCH  29  30
ATOM     30  N   UNL     1       7.186  -0.910  -4.831  1.00  0.00    -0.352 N 
ATOM     31  C   UNL     1       8.270  -1.281  -5.581  1.00  0.00     0.251 C 
ATOM     32  H   UNL     1       7.229   0.011  -4.486  1.00  0.00     0.163 HD
ATOM     33  O   UNL     1       9.285  -0.588  -5.528  1.00  0.00    -0.269 OA
BRANCH  31  34
ATOM     34  C   UNL     1       8.243  -2.471  -6.463  1.00  0.00     0.039 A 
ATOM     35  C   UNL     1       9.433  -3.184  -6.655  1.00  0.00     0.014 A 
ATOM     36  C   UNL     1       7.105  -2.820  -7.196  1.00  0.00     0.014 A 
ATOM     37  C   UNL     1       9.480  -4.238  -7.571  1.00  0.00     0.010 A 
ATOM     38  C   UNL     1       7.135  -3.915  -8.061  1.00  0.00     0.010 A 
ATOM     39  C   UNL     1       8.331  -4.613  -8.283  1.00  0.00    -0.014 A 
BRANCH  39  40
ATOM     40  C   UNL     1       8.391  -5.683  -9.312  1.00  0.00     0.031 A 
ATOM     41  C   UNL     1       8.199  -5.341 -10.767  1.00  0.00     0.074 A 
ATOM     42  C   UNL     1       8.599  -6.960  -8.939  1.00  0.00     0.049 A 
ATOM     43  N   UNL     1       8.203  -6.131 -11.810  1.00  0.00    -0.248 NA
ATOM     44  C   UNL     1       7.942  -3.928 -11.089  1.00  0.00     0.031 C 
ATOM     45  C   UNL     1       8.755  -7.424  -7.559  1.00  0.00     0.029 A 
ATOM     46  N   UNL     1       8.715  -8.104  -9.688  1.00  0.00    -0.354 N 
ATOM     47  C   UNL     1       7.934  -5.317 -12.906  1.00  0.00     0.074 A 
ATOM     48  C   UNL     1       7.721  -3.981 -12.395  1.00  0.00     0.031 C 
ATOM     49  C   UNL     1       8.969  -8.750  -7.562  1.00  0.00     0.029 A 
ATOM     50  C   UNL     1       8.946  -9.233  -8.940  1.00  0.00     0.049 A 
ATOM     51  H   UNL     1       8.639  -8.114 -10.670  1.00  0.00     0.167 HD
ATOM     52  C   UNL     1       7.893  -5.646 -14.220  1.00  0.00     0.037 A 
ATOM     53  C   UNL     1       9.129 -10.512  -9.323  1.00  0.00     0.037 A 
ATOM     54  C   UNL     1       8.142  -6.971 -14.726  1.00  0.00     0.049 A 
ATOM     55  C   UNL     1       9.129 -10.845 -10.790  1.00  0.00     0.074 A 
ATOM     56  C   UNL     1       8.165  -7.402 -16.041  1.00  0.00     0.029 A 
ATOM     57  N   UNL     1       8.423  -8.077 -13.938  1.00  0.00    -0.354 N 
ATOM     58  N   UNL     1       8.920 -10.053 -11.815  1.00  0.00    -0.248 NA
ATOM     59  C   UNL     1       9.410 -12.240 -11.154  1.00  0.00     0.031 C 
ATOM     60  C   UNL     1       8.438  -8.775 -16.047  1.00  0.00     0.029 A 
ATOM     61  C   UNL     1       8.622  -9.190 -14.737  1.00  0.00     0.049 A 
ATOM     62  H   UNL     1       8.473  -8.072 -12.955  1.00  0.00     0.167 HD
ATOM     63  C   UNL     1       9.077 -10.846 -12.946  1.00  0.00     0.074 A 
ATOM     64  C   UNL     1       9.406 -12.178 -12.478  1.00  0.00     0.031 C 
ATOM     65  C   UNL     1       8.964 -10.504 -14.253  1.00  0.00     0.037 A 
BRANCH  52  66
ATOM     66  C   UNL     1       7.574  -4.551 -15.200  1.00  0.00     0.058 A 
ATOM     67  C   UNL     1       8.490  -3.523 -15.479  1.00  0.00     0.135 A 
ATOM     68  C   UNL     1       6.346  -4.534 -15.882  1.00  0.00     0.135 A 
ATOM     69  F   UNL     1       9.672  -3.481 -14.844  1.00  0.00    -0.206 F 
ATOM     70  C   UNL     1       8.187  -2.499 -16.371  1.00  0.00     0.059 A 
ATOM     71  C   UNL     1       6.033  -3.534 -16.799  1.00  0.00     0.059 A 
ATOM     72  F   UNL     1       5.434  -5.492 -15.655  1.00  0.00    -0.206 F 
ATOM     73  C   UNL     1       6.953  -2.510 -17.023  1.00  0.00     0.060 A 
BRANCH  73  74
ATOM     74  S   UNL     1       6.566  -1.172 -18.171  1.00  0.00     0.124 S 
ATOM     75  O   UNL     1       6.262  -0.080 -17.249  1.00  0.00    -0.237 OA
ATOM     76  O   UNL     1       7.813  -1.033 -18.922  1.00  0.00    -0.237 OA
ATOM     77  O   UNL     1       5.436  -1.689 -18.928  1.00  0.00    -0.744 OA
ENDBRANCH  73  74
ENDBRANCH  52  66
BRANCH  53  78
ATOM     78  C   UNL     1       9.380 -11.561  -8.301  1.00  0.00     0.058 A 
ATOM     79  C   UNL     1      10.656 -12.122  -8.144  1.00  0.00     0.135 A 
ATOM     80  C   UNL     1       8.359 -12.010  -7.451  1.00  0.00     0.135 A 
ATOM     81  F   UNL     1      11.665 -11.726  -8.936  1.00  0.00    -0.206 F 
ATOM     82  C   UNL     1      10.909 -13.104  -7.192  1.00  0.00     0.059 A 
ATOM     83  C   UNL     1       8.592 -12.976  -6.476  1.00  0.00     0.059 A 
ATOM     84  F   UNL     1       7.125 -11.490  -7.549  1.00  0.00    -0.206 F 
ATOM     85  C   UNL     1       9.869 -13.524  -6.362  1.00  0.00     0.060 A 
BRANCH  85  86
ATOM     86  S   UNL     1      10.217 -14.763  -5.095  1.00  0.00     0.124 S 
ATOM     87  O   UNL     1      10.286 -15.984  -5.889  1.00  0.00    -0.237 OA
ATOM     88  O   UNL     1      11.481 -14.290  -4.539  1.00  0.00    -0.237 OA
ATOM     89  O   UNL     1       9.070 -14.655  -4.198  1.00  0.00    -0.744 OA
ENDBRANCH  85  86
ENDBRANCH  53  78
BRANCH  65  90
ATOM     90  C   UNL     1       9.247 -11.573 -15.270  1.00  0.00     0.058 A 
ATOM     91  C   UNL     1       8.345 -12.620 -15.513  1.00  0.00     0.135 A 
ATOM     92  C   UNL     1      10.427 -11.531 -16.030  1.00  0.00     0.135 A 
ATOM     93  F   UNL     1       7.205 -12.707 -14.810  1.00  0.00    -0.206 F 
ATOM     94  C   UNL     1       8.618 -13.609 -16.452  1.00  0.00     0.059 A 
ATOM     95  C   UNL     1      10.709 -12.495 -16.992  1.00  0.00     0.059 A 
ATOM     96  F   UNL     1      11.316 -10.543 -15.844  1.00  0.00    -0.206 F 
ATOM     97  C   UNL     1       9.806 -13.540 -17.184  1.00  0.00     0.060 A 
BRANCH  97  98
ATOM     98  S   UNL     1      10.149 -14.822 -18.408  1.00  0.00     0.124 S 
ATOM     99  O   UNL     1      10.592 -15.924 -17.562  1.00  0.00    -0.237 OA
ATOM    100  O   UNL     1       8.851 -14.999 -19.052  1.00  0.00    -0.237 OA
ATOM    101  O   UNL     1      11.180 -14.219 -19.248  1.00  0.00    -0.744 OA
ENDBRANCH  97  98
ENDBRANCH  65  90
ENDBRANCH  39  40
ENDBRANCH  31  34
ENDBRANCH  29  30
ENDBRANCH  28  29
ENDBRANCH  27  28
ENDBRANCH   1  27
TORSDOF 19
