REMARK SMILES CC(C)[C@H](NC(=O)CCC1=c2ccccc2=NC1)C(=O)NCCCCCCNC(=O)c1ccc(-c2c3nc(c(-c4c(F)cc(S(=O)(=O)[O-])cc4F)c4ccc([nH]4)c(-c4c(F)cc(S(=O)(=O)[O-])cc4F)c4nc(c(-c5c(F)cc(S(=O)(=O)[O-])cc5F)c5ccc2[nH]5)C=C4)C=C3)cc1
REMARK SMILES IDX 24 1 23 2 22 3 21 4 19 5 20 6 4 8 2 9 1 10 3 11 5 12 6 13
REMARK SMILES IDX 7 15 8 16 9 17 10 18 11 19 18 20 12 21 16 22 17 23 13 24
REMARK SMILES IDX 15 25 14 26 25 27 26 28 27 29 28 30 29 31 30 33 31 34 32 35
REMARK SMILES IDX 96 36 33 37 95 38 34 39 35 40 36 41 89 42 37 43 94 44 88 45
REMARK SMILES IDX 90 46 38 47 93 48 87 49 86 50 39 52 73 53 52 54 72 55 53 56
REMARK SMILES IDX 56 57 71 58 91 59 54 60 55 61 70 63 92 64 57 65 40 66 41 67
REMARK SMILES IDX 50 68 42 69 43 70 49 71 51 72 44 73 45 74 46 75 47 76 48 77
REMARK SMILES IDX 74 78 75 79 84 80 76 81 77 82 83 83 85 84 78 85 79 86 80 87
REMARK SMILES IDX 81 88 82 89 58 90 59 91 68 92 60 93 61 94 67 95 69 96 62 97
REMARK SMILES IDX 63 98 64 99 65 100 66 101
REMARK H PARENT 21 7 5 14 28 32 90 51 56 62
REMARK Flexibility Score: inf
ROOT
ATOM      1  C   UNL     1       0.194  -7.010   2.700  1.00  0.00     0.002 C 
ENDROOT
BRANCH   1   2
ATOM      2  C   UNL     1       0.352  -5.574   2.202  1.00  0.00     0.021 C 
BRANCH   2   3
ATOM      3  C   UNL     1      -0.896  -5.052   1.495  1.00  0.00     0.116 C 
BRANCH   3   4
ATOM      4  N   UNL     1      -1.534  -3.903   2.170  1.00  0.00    -0.354 N 
ATOM      5  C   UNL     1      -1.866  -2.509   1.958  1.00  0.00     0.242 C 
ATOM      6  O   UNL     1      -2.674  -2.454   2.954  1.00  0.00    -0.273 OA
ATOM      7  H   UNL     1      -1.834  -4.177   3.066  1.00  0.00     0.163 HD
BRANCH   5   8
ATOM      8  C   UNL     1      -1.253  -0.928   0.556  1.00  0.00     0.173 C 
BRANCH   8   9
ATOM      9  C   UNL     1      -1.406  -0.720  -1.238  1.00  0.00     0.015 C 
ATOM     10  C   UNL     1      -0.468  -1.523  -2.170  1.00  0.00     0.010 C 
ATOM     11  C   UNL     1      -2.800  -0.563  -1.879  1.00  0.00     0.010 C 
ENDBRANCH   8   9
BRANCH   8  12
ATOM     12  N   UNL     1       0.257  -0.051   0.526  1.00  0.00    -0.344 N 
ATOM     13  C   UNL     1       0.982   0.851   1.237  1.00  0.00     0.220 C 
ATOM     14  H   UNL     1       0.754  -0.294  -0.288  1.00  0.00     0.164 HD
ATOM     15  O   UNL     1       2.063   1.184   0.730  1.00  0.00    -0.275 OA
BRANCH  13  16
ATOM     16  C   UNL     1       0.673   1.333   2.649  1.00  0.00     0.104 C 
BRANCH  16  17
ATOM     17  C   UNL     1      -0.739   1.803   2.916  1.00  0.00     0.043 C 
BRANCH  17  18
ATOM     18  C   UNL     1      -1.760   0.719   2.874  1.00  0.00    -0.039 C 
ATOM     19  C   UNL     1      -1.506  -0.573   2.632  1.00  0.00     0.001 A 
ATOM     20  C   UNL     1      -3.225   1.129   2.604  1.00  0.00     0.174 C 
ATOM     21  C   UNL     1      -0.034  -1.630   2.197  1.00  0.00     0.010 A 
ATOM     22  C   UNL     1      -3.111  -0.838   1.625  1.00  0.00     0.065 A 
ATOM     23  N   UNL     1      -3.971   0.117   1.766  1.00  0.00    -0.280 NA
ATOM     24  C   UNL     1      -0.047  -2.561   0.895  1.00  0.00     0.001 A 
ATOM     25  C   UNL     1      -3.015  -2.202   0.293  1.00  0.00     0.028 A 
ATOM     26  C   UNL     1      -1.665  -2.893  -0.060  1.00  0.00     0.002 A 
ENDBRANCH  17  18
ENDBRANCH  16  17
ENDBRANCH  13  16
ENDBRANCH   8  12
ENDBRANCH   5   8
ENDBRANCH   3   4
ENDBRANCH   2   3
ENDBRANCH   1   2
BRANCH   1  27
ATOM     27  C   UNL     1      -0.426  -7.993   1.695  1.00  0.00     0.002 C 
BRANCH  27  28
ATOM     28  C   UNL     1       0.244  -8.034   0.320  1.00  0.00     0.021 C 
BRANCH  28  29
ATOM     29  C   UNL     1       1.724  -8.385   0.370  1.00  0.00     0.116 C 
BRANCH  29  30
ATOM     30  N   UNL     1       1.955  -9.601   1.138  1.00  0.00    -0.352 N 
ATOM     31  C   UNL     1       2.491 -10.792   0.722  1.00  0.00     0.251 C 
ATOM     32  H   UNL     1       1.690  -9.562   2.085  1.00  0.00     0.163 HD
ATOM     33  O   UNL     1       2.358 -11.807   1.394  1.00  0.00    -0.269 OA
BRANCH  31  34
ATOM     34  C   UNL     1       3.230 -10.814  -0.551  1.00  0.00     0.039 A 
ATOM     35  C   UNL     1       4.148  -9.796  -0.821  1.00  0.00     0.014 A 
ATOM     36  C   UNL     1       2.971 -11.815  -1.487  1.00  0.00     0.014 A 
ATOM     37  C   UNL     1       4.688  -9.687  -2.091  1.00  0.00     0.010 A 
ATOM     38  C   UNL     1       3.598 -11.758  -2.732  1.00  0.00     0.010 A 
ATOM     39  C   UNL     1       4.430 -10.674  -3.055  1.00  0.00    -0.014 A 
BRANCH  39  40
ATOM     40  C   UNL     1       5.057 -10.555  -4.393  1.00  0.00     0.031 A 
ATOM     41  C   UNL     1       4.211 -10.392  -5.624  1.00  0.00     0.074 A 
ATOM     42  C   UNL     1       6.402 -10.548  -4.477  1.00  0.00     0.049 A 
ATOM     43  N   UNL     1       4.588 -10.300  -6.873  1.00  0.00    -0.248 NA
ATOM     44  C   UNL     1       2.752 -10.328  -5.434  1.00  0.00     0.031 C 
ATOM     45  C   UNL     1       7.317 -10.676  -3.338  1.00  0.00     0.029 A 
ATOM     46  N   UNL     1       7.234 -10.405  -5.555  1.00  0.00    -0.354 N 
ATOM     47  C   UNL     1       3.420 -10.187  -7.617  1.00  0.00     0.074 A 
ATOM     48  C   UNL     1       2.317 -10.254  -6.684  1.00  0.00     0.031 C 
ATOM     49  C   UNL     1       8.579 -10.551  -3.772  1.00  0.00     0.029 A 
ATOM     50  C   UNL     1       8.568 -10.418  -5.223  1.00  0.00     0.049 A 
ATOM     51  H   UNL     1       6.909 -10.302  -6.478  1.00  0.00     0.167 HD
ATOM     52  C   UNL     1       3.287 -10.027  -8.955  1.00  0.00     0.037 A 
ATOM     53  C   UNL     1       9.664 -10.357  -6.002  1.00  0.00     0.037 A 
ATOM     54  C   UNL     1       4.399  -9.944  -9.867  1.00  0.00     0.049 A 
ATOM     55  C   UNL     1       9.485 -10.246  -7.488  1.00  0.00     0.074 A 
ATOM     56  C   UNL     1       4.373  -9.774 -11.240  1.00  0.00     0.029 A 
ATOM     57  N   UNL     1       5.735 -10.023  -9.500  1.00  0.00    -0.354 N 
ATOM     58  N   UNL     1       8.373 -10.148  -8.177  1.00  0.00    -0.248 NA
ATOM     59  C   UNL     1      10.704 -10.249  -8.304  1.00  0.00     0.031 C 
ATOM     60  C   UNL     1       5.690  -9.800 -11.708  1.00  0.00     0.029 A 
ATOM     61  C   UNL     1       6.542  -9.929 -10.622  1.00  0.00     0.049 A 
ATOM     62  H   UNL     1       6.062 -10.131  -8.577  1.00  0.00     0.167 HD
ATOM     63  C   UNL     1       8.758 -10.063  -9.509  1.00  0.00     0.074 A 
ATOM     64  C   UNL     1      10.207 -10.100  -9.525  1.00  0.00     0.031 C 
ATOM     65  C   UNL     1       7.984  -9.969 -10.618  1.00  0.00     0.037 A 
BRANCH  52  66
ATOM     66  C   UNL     1       1.895  -9.942  -9.521  1.00  0.00     0.058 A 
ATOM     67  C   UNL     1       1.082  -8.816  -9.316  1.00  0.00     0.135 A 
ATOM     68  C   UNL     1       1.389 -10.973 -10.331  1.00  0.00     0.135 A 
ATOM     69  F   UNL     1       1.506  -7.808  -8.536  1.00  0.00    -0.206 F 
ATOM     70  C   UNL     1      -0.187  -8.721  -9.879  1.00  0.00     0.059 A 
ATOM     71  C   UNL     1       0.134 -10.888 -10.927  1.00  0.00     0.059 A 
ATOM     72  F   UNL     1       2.122 -12.074 -10.558  1.00  0.00    -0.206 F 
ATOM     73  C   UNL     1      -0.651  -9.761 -10.687  1.00  0.00     0.060 A 
BRANCH  73  74
ATOM     74  S   UNL     1      -2.294  -9.610 -11.419  1.00  0.00     0.124 S 
ATOM     75  O   UNL     1      -3.148  -9.707 -10.239  1.00  0.00    -0.237 OA
ATOM     76  O   UNL     1      -2.232  -8.296 -12.049  1.00  0.00    -0.237 OA
ATOM     77  O   UNL     1      -2.365 -10.742 -12.337  1.00  0.00    -0.744 OA
ENDBRANCH  73  74
ENDBRANCH  52  66
BRANCH  53  78
ATOM     78  C   UNL     1      11.013 -10.411  -5.381  1.00  0.00     0.058 A 
ATOM     79  C   UNL     1      11.853  -9.289  -5.388  1.00  0.00     0.135 A 
ATOM     80  C   UNL     1      11.471 -11.568  -4.730  1.00  0.00     0.135 A 
ATOM     81  F   UNL     1      11.462  -8.161  -6.001  1.00  0.00    -0.206 F 
ATOM     82  C   UNL     1      13.102  -9.312  -4.776  1.00  0.00     0.059 A 
ATOM     83  C   UNL     1      12.702 -11.605  -4.085  1.00  0.00     0.059 A 
ATOM     84  F   UNL     1      10.697 -12.664  -4.681  1.00  0.00    -0.206 F 
ATOM     85  C   UNL     1      13.514 -10.473  -4.120  1.00  0.00     0.060 A 
BRANCH  85  86
ATOM     86  S   UNL     1      15.112 -10.469  -3.280  1.00  0.00     0.124 S 
ATOM     87  O   UNL     1      16.035 -10.419  -4.407  1.00  0.00    -0.237 OA
ATOM     88  O   UNL     1      15.025  -9.257  -2.471  1.00  0.00    -0.237 OA
ATOM     89  O   UNL     1      15.100 -11.720  -2.528  1.00  0.00    -0.744 OA
ENDBRANCH  85  86
ENDBRANCH  53  78
BRANCH  65  90
ATOM     90  C   UNL     1       8.685  -9.882 -11.944  1.00  0.00     0.058 A 
ATOM     91  C   UNL     1       9.325 -10.995 -12.511  1.00  0.00     0.135 A 
ATOM     92  C   UNL     1       8.660  -8.689 -12.686  1.00  0.00     0.135 A 
ATOM     93  F   UNL     1       9.385 -12.155 -11.838  1.00  0.00    -0.206 F 
ATOM     94  C   UNL     1       9.930 -10.925 -13.760  1.00  0.00     0.059 A 
ATOM     95  C   UNL     1       9.232  -8.605 -13.950  1.00  0.00     0.059 A 
ATOM     96  F   UNL     1       8.053  -7.598 -12.192  1.00  0.00    -0.206 F 
ATOM     97  C   UNL     1       9.872  -9.727 -14.476  1.00  0.00     0.060 A 
BRANCH  97  98
ATOM     98  S   UNL     1      10.624  -9.668 -16.115  1.00  0.00     0.124 S 
ATOM     99  O   UNL     1      12.044  -9.743 -15.791  1.00  0.00    -0.237 OA
ATOM    100  O   UNL     1      10.056 -10.848 -16.758  1.00  0.00    -0.237 OA
ATOM    101  O   UNL     1      10.170  -8.388 -16.652  1.00  0.00    -0.744 OA
ENDBRANCH  97  98
ENDBRANCH  65  90
ENDBRANCH  39  40
ENDBRANCH  31  34
ENDBRANCH  29  30
ENDBRANCH  28  29
ENDBRANCH  27  28
ENDBRANCH   1  27
TORSDOF 21
