REMARK SMILES O=C(CCC(=O)/[NH+]=C1\S[C@H]2CS(=O)(=O)C[C@@H]2N1c1ccc(Oc2ccccc2)cc1)NCCCCCCNC(=O)c1ccc(-c2c3nc(c(-c4c(F)cc(S(=O)(=O)[O-])cc4F)c4ccc([nH]4)c(-c4c(F)cc(S(=O)(=O)[O-])cc4F)c4nc(c(-c5c(F)cc(S(=O)(=O)[O-])cc5F)c5ccc2[nH]5)C=C4)C=C3)cc1
REMARK SMILES IDX 33 1 32 2 31 3 2 4 1 5 3 7 4 8 5 9 6 10 7 11 8 12 9 14 17 15
REMARK SMILES IDX 10 16 16 17 11 18 15 19 12 20 13 21 14 22 18 23 19 24 30 25
REMARK SMILES IDX 20 26 29 27 21 28 22 29 23 30 24 31 28 32 25 33 27 34 26 35
REMARK SMILES IDX 34 36 35 37 36 38 37 39 38 40 39 41 40 43 41 44 42 45 106 46
REMARK SMILES IDX 43 47 105 48 44 49 45 50 46 51 99 52 47 53 104 54 98 55
REMARK SMILES IDX 100 56 48 57 103 58 97 59 96 60 49 62 83 63 62 64 82 65
REMARK SMILES IDX 63 66 66 67 81 68 101 69 64 70 65 71 80 73 102 74 67 75
REMARK SMILES IDX 50 76 51 77 60 78 52 79 53 80 59 81 61 82 54 83 55 84 56 85
REMARK SMILES IDX 57 86 58 87 84 88 85 89 94 90 86 91 87 92 93 93 95 94 88 95
REMARK SMILES IDX 89 96 90 97 91 98 92 99 68 100 69 101 78 102 70 103 71 104
REMARK SMILES IDX 77 105 79 106 72 107 73 108 74 109 75 110 76 111
REMARK H PARENT 31 6 7 13 38 42 100 61 66 72
REMARK Flexibility Score: inf
ROOT
ATOM      1  C   UNL     1       1.719  -0.963   2.259  1.00  0.00     0.021 C 
ENDROOT
BRANCH   1   2
ATOM      2  C   UNL     1       2.136   0.486   2.495  1.00  0.00     0.116 C 
BRANCH   2   3
ATOM      3  N   UNL     1       3.567   0.699   2.328  1.00  0.00    -0.356 N 
ATOM      4  C   UNL     1       4.269   1.146   1.258  1.00  0.00     0.220 C 
ATOM      5  O   UNL     1       5.501   1.149   1.305  1.00  0.00    -0.275 OA
ATOM      6  H   UNL     1       4.112   0.483   3.119  1.00  0.00     0.163 HD
BRANCH   4   7
ATOM      7  C   UNL     1       3.537   1.664   0.054  1.00  0.00     0.112 C 
BRANCH   7   8
ATOM      8  C   UNL     1       3.227   0.701  -1.082  1.00  0.00     0.138 C 
BRANCH   8   9
ATOM      9  C   UNL     1       3.110  -0.821  -0.936  1.00  0.00     0.308 C 
ATOM     10  O   UNL     1       2.330  -1.411  -1.684  1.00  0.00    -0.247 OA
ATOM     11  N   UNL     1       3.827  -1.515   0.007  1.00  0.00    -0.204 N 
ATOM     12  C   UNL     1       5.105  -1.656  -0.066  1.00  0.00     0.319 C 
ATOM     13  H   UNL     1       3.347  -1.918   0.766  1.00  0.00     0.316 HD
ATOM     14  S   UNL     1       6.088  -0.851  -1.333  1.00  0.00    -0.029 SA
ATOM     15  N   UNL     1       5.951  -2.304   0.846  1.00  0.00    -0.217 N 
ATOM     16  C   UNL     1       7.611  -1.386  -0.560  1.00  0.00     0.120 C 
ATOM     17  C   UNL     1       7.248  -1.634   0.909  1.00  0.00     0.212 C 
ATOM     18  C   UNL     1       8.799  -0.465  -0.497  1.00  0.00     0.156 C 
ATOM     19  C   UNL     1       8.485  -2.319   1.452  1.00  0.00     0.188 C 
ATOM     20  S   UNL     1       9.806  -1.333   0.716  1.00  0.00     0.155 S 
ATOM     21  O   UNL     1      10.700  -2.223   0.010  1.00  0.00    -0.229 OA
ATOM     22  O   UNL     1      10.281  -0.377   1.695  1.00  0.00    -0.229 OA
BRANCH  15  23
ATOM     23  C   UNL     1       5.594  -3.282   1.787  1.00  0.00     0.128 A 
ATOM     24  C   UNL     1       6.025  -3.224   3.123  1.00  0.00     0.056 A 
ATOM     25  C   UNL     1       4.811  -4.393   1.435  1.00  0.00     0.056 A 
ATOM     26  C   UNL     1       5.775  -4.266   4.028  1.00  0.00     0.051 A 
ATOM     27  C   UNL     1       4.538  -5.435   2.351  1.00  0.00     0.051 A 
ATOM     28  C   UNL     1       5.064  -5.401   3.640  1.00  0.00     0.127 A 
BRANCH  28  29
ATOM     29  O   UNL     1       4.930  -6.347   4.633  1.00  0.00    -0.457 OA
BRANCH  29  30
ATOM     30  C   UNL     1       4.359  -7.573   4.399  1.00  0.00     0.127 A 
ATOM     31  C   UNL     1       3.437  -8.016   5.347  1.00  0.00     0.047 A 
ATOM     32  C   UNL     1       4.724  -8.427   3.363  1.00  0.00     0.047 A 
ATOM     33  C   UNL     1       2.754  -9.220   5.179  1.00  0.00     0.004 A 
ATOM     34  C   UNL     1       4.063  -9.650   3.203  1.00  0.00     0.004 A 
ATOM     35  C   UNL     1       3.057 -10.033   4.092  1.00  0.00     0.000 A 
ENDBRANCH  29  30
ENDBRANCH  28  29
ENDBRANCH  15  23
ENDBRANCH   8   9
ENDBRANCH   7   8
ENDBRANCH   4   7
ENDBRANCH   2   3
ENDBRANCH   1   2
BRANCH   1  36
ATOM     36  C   UNL     1       2.643  -1.978   2.936  1.00  0.00     0.002 C 
BRANCH  36  37
ATOM     37  C   UNL     1       2.421  -2.134   4.435  1.00  0.00     0.002 C 
BRANCH  37  38
ATOM     38  C   UNL     1       1.012  -2.598   4.784  1.00  0.00     0.021 C 
BRANCH  38  39
ATOM     39  C   UNL     1       0.609  -3.875   4.056  1.00  0.00     0.116 C 
BRANCH  39  40
ATOM     40  N   UNL     1       1.315  -5.013   4.623  1.00  0.00    -0.352 N 
ATOM     41  C   UNL     1       0.780  -5.822   5.596  1.00  0.00     0.251 C 
ATOM     42  H   UNL     1       2.221  -5.213   4.295  1.00  0.00     0.163 HD
ATOM     43  O   UNL     1       1.438  -6.161   6.571  1.00  0.00    -0.269 OA
BRANCH  41  44
ATOM     44  C   UNL     1      -0.639  -6.211   5.476  1.00  0.00     0.039 A 
ATOM     45  C   UNL     1      -1.356  -6.443   6.649  1.00  0.00     0.014 A 
ATOM     46  C   UNL     1      -1.273  -6.243   4.230  1.00  0.00     0.014 A 
ATOM     47  C   UNL     1      -2.735  -6.579   6.582  1.00  0.00     0.010 A 
ATOM     48  C   UNL     1      -2.656  -6.255   4.177  1.00  0.00     0.010 A 
ATOM     49  C   UNL     1      -3.397  -6.404   5.356  1.00  0.00    -0.014 A 
BRANCH  49  50
ATOM     50  C   UNL     1      -4.872  -6.321   5.312  1.00  0.00     0.031 A 
ATOM     51  C   UNL     1      -5.655  -7.330   4.529  1.00  0.00     0.074 A 
ATOM     52  C   UNL     1      -5.481  -5.299   5.946  1.00  0.00     0.049 A 
ATOM     53  N   UNL     1      -6.948  -7.420   4.371  1.00  0.00    -0.248 NA
ATOM     54  C   UNL     1      -4.888  -8.357   3.804  1.00  0.00     0.031 C 
ATOM     55  C   UNL     1      -4.796  -4.226   6.677  1.00  0.00     0.029 A 
ATOM     56  N   UNL     1      -6.809  -4.995   6.088  1.00  0.00    -0.354 N 
ATOM     57  C   UNL     1      -7.148  -8.503   3.526  1.00  0.00     0.074 A 
ATOM     58  C   UNL     1      -5.844  -8.998   3.149  1.00  0.00     0.031 C 
ATOM     59  C   UNL     1      -5.710  -3.415   7.231  1.00  0.00     0.029 A 
ATOM     60  C   UNL     1      -7.041  -3.877   6.857  1.00  0.00     0.049 A 
ATOM     61  H   UNL     1      -7.530  -5.525   5.679  1.00  0.00     0.167 HD
ATOM     62  C   UNL     1      -8.319  -9.048   3.125  1.00  0.00     0.037 A 
ATOM     63  C   UNL     1      -8.200  -3.295   7.217  1.00  0.00     0.037 A 
ATOM     64  C   UNL     1      -9.605  -8.547   3.528  1.00  0.00     0.049 A 
ATOM     65  C   UNL     1      -9.486  -3.922   6.755  1.00  0.00     0.074 A 
ATOM     66  C   UNL     1     -10.856  -9.054   3.231  1.00  0.00     0.029 A 
ATOM     67  N   UNL     1      -9.804  -7.417   4.311  1.00  0.00    -0.354 N 
ATOM     68  N   UNL     1      -9.662  -4.996   6.022  1.00  0.00    -0.248 NA
ATOM     69  C   UNL     1     -10.731  -3.265   7.171  1.00  0.00     0.031 C 
ATOM     70  C   UNL     1     -11.813  -8.198   3.785  1.00  0.00     0.029 A 
ATOM     71  C   UNL     1     -11.159  -7.194   4.483  1.00  0.00     0.049 A 
ATOM     72  H   UNL     1      -9.087  -6.857   4.687  1.00  0.00     0.167 HD
ATOM     73  C   UNL     1     -11.037  -5.161   5.912  1.00  0.00     0.074 A 
ATOM     74  C   UNL     1     -11.645  -4.084   6.668  1.00  0.00     0.031 C 
ATOM     75  C   UNL     1     -11.736  -6.116   5.249  1.00  0.00     0.037 A 
BRANCH  62  76
ATOM     76  C   UNL     1      -8.257 -10.239   2.209  1.00  0.00     0.058 A 
ATOM     77  C   UNL     1      -7.774 -11.484   2.645  1.00  0.00     0.135 A 
ATOM     78  C   UNL     1      -8.711 -10.142   0.884  1.00  0.00     0.135 A 
ATOM     79  F   UNL     1      -7.305 -11.630   3.895  1.00  0.00    -0.206 F 
ATOM     80  C   UNL     1      -7.719 -12.582   1.793  1.00  0.00     0.059 A 
ATOM     81  C   UNL     1      -8.695 -11.236   0.024  1.00  0.00     0.059 A 
ATOM     82  F   UNL     1      -9.175  -8.974   0.412  1.00  0.00    -0.206 F 
ATOM     83  C   UNL     1      -8.185 -12.449   0.485  1.00  0.00     0.060 A 
BRANCH  83  84
ATOM     84  S   UNL     1      -8.122 -13.889  -0.601  1.00  0.00     0.124 S 
ATOM     85  O   UNL     1      -6.686 -14.014  -0.836  1.00  0.00    -0.237 OA
ATOM     86  O   UNL     1      -8.721 -14.929   0.229  1.00  0.00    -0.237 OA
ATOM     87  O   UNL     1      -8.913 -13.479  -1.757  1.00  0.00    -0.744 OA
ENDBRANCH  83  84
ENDBRANCH  62  76
BRANCH  63  88
ATOM     88  C   UNL     1      -8.194  -2.076   8.072  1.00  0.00     0.058 A 
ATOM     89  C   UNL     1      -8.679  -2.114   9.388  1.00  0.00     0.135 A 
ATOM     90  C   UNL     1      -7.698  -0.853   7.596  1.00  0.00     0.135 A 
ATOM     91  F   UNL     1      -9.165  -3.258   9.892  1.00  0.00    -0.206 F 
ATOM     92  C   UNL     1      -8.695  -0.979  10.193  1.00  0.00     0.059 A 
ATOM     93  C   UNL     1      -7.676   0.289   8.391  1.00  0.00     0.059 A 
ATOM     94  F   UNL     1      -7.203  -0.765   6.351  1.00  0.00    -0.206 F 
ATOM     95  C   UNL     1      -8.190   0.219   9.685  1.00  0.00     0.060 A 
BRANCH  95  96
ATOM     96  S   UNL     1      -8.187   1.679  10.748  1.00  0.00     0.124 S 
ATOM     97  O   UNL     1      -9.607   2.001  10.810  1.00  0.00    -0.237 OA
ATOM     98  O   UNL     1      -7.595   1.160  11.977  1.00  0.00    -0.237 OA
ATOM     99  O   UNL     1      -7.356   2.628  10.013  1.00  0.00    -0.744 OA
ENDBRANCH  95  96
ENDBRANCH  63  88
BRANCH  75 100
ATOM    100  C   UNL     1     -13.235  -6.060   5.342  1.00  0.00     0.058 A 
ATOM    101  C   UNL     1     -13.981  -5.067   4.689  1.00  0.00     0.135 A 
ATOM    102  C   UNL     1     -13.936  -7.052   6.048  1.00  0.00     0.135 A 
ATOM    103  F   UNL     1     -13.359  -4.093   4.007  1.00  0.00    -0.206 F 
ATOM    104  C   UNL     1     -15.370  -5.044   4.755  1.00  0.00     0.059 A 
ATOM    105  C   UNL     1     -15.325  -7.068   6.098  1.00  0.00     0.059 A 
ATOM    106  F   UNL     1     -13.269  -8.031   6.681  1.00  0.00    -0.206 F 
ATOM    107  C   UNL     1     -16.032  -6.052   5.458  1.00  0.00     0.060 A 
BRANCH 107 108
ATOM    108  S   UNL     1     -17.836  -6.031   5.503  1.00  0.00     0.124 S 
ATOM    109  O   UNL     1     -18.095  -4.906   6.395  1.00  0.00    -0.237 OA
ATOM    110  O   UNL     1     -18.179  -5.820   4.099  1.00  0.00    -0.237 OA
ATOM    111  O   UNL     1     -18.179  -7.346   6.035  1.00  0.00    -0.744 OA
ENDBRANCH 107 108
ENDBRANCH  75 100
ENDBRANCH  49  50
ENDBRANCH  41  44
ENDBRANCH  39  40
ENDBRANCH  38  39
ENDBRANCH  37  38
ENDBRANCH  36  37
ENDBRANCH   1  36
TORSDOF 21
