REMARK SMILES Cc1ccc(S(=O)(=O)N2c3ccc(C(=O)NCCCCCCNC(=O)c4ccc(-c5c6nc(c(-c7c(F)cc(S(=O)(=O)[O-])cc7F)c7ccc([nH]7)c(-c7c(F)cc(S(=O)(=O)[O-])cc7F)c7nc(c(-c8c(F)cc(S(=O)(=O)[O-])cc8F)c8ccc5[nH]8)C=C7)C=C6)cc4)cc3C[C@H]2C)cc1
REMARK SMILES IDX 20 1 19 2 18 3 17 4 16 5 14 6 15 7 13 9 9 10 10 11 95 12
REMARK SMILES IDX 11 13 93 14 94 15 96 16 12 17 92 18 6 19 7 20 8 21 5 22 1 23
REMARK SMILES IDX 2 24 3 25 98 26 4 27 97 28 21 29 22 30 23 31 24 32 25 34
REMARK SMILES IDX 26 35 27 36 91 37 28 38 90 39 29 40 30 41 31 42 84 43 32 44
REMARK SMILES IDX 89 45 83 46 85 47 33 48 88 49 82 50 81 51 34 53 68 54 47 55
REMARK SMILES IDX 67 56 48 57 51 58 66 59 86 60 49 61 50 62 65 64 87 65 52 66
REMARK SMILES IDX 35 67 36 68 45 69 37 70 38 71 44 72 46 73 39 74 40 75 41 76
REMARK SMILES IDX 42 77 43 78 69 79 70 80 79 81 71 82 72 83 78 84 80 85 73 86
REMARK SMILES IDX 74 87 75 88 76 89 77 90 53 91 54 92 63 93 55 94 56 95 62 96
REMARK SMILES IDX 64 97 57 98 58 99 59 100 60 101 61 102
REMARK H PARENT 16 8 23 33 85 52 51 63
REMARK Flexibility Score: inf
ROOT
ATOM      1  C   UNL     1     -13.270   0.003   2.308  1.00  0.00     0.002 C 
ENDROOT
BRANCH   1   2
ATOM      2  C   UNL     1     -12.789   1.349   2.868  1.00  0.00     0.002 C 
BRANCH   2   3
ATOM      3  C   UNL     1     -11.288   1.600   3.035  1.00  0.00     0.021 C 
BRANCH   3   4
ATOM      4  C   UNL     1     -10.363   1.275   1.868  1.00  0.00     0.116 C 
BRANCH   4   5
ATOM      5  N   UNL     1     -10.584   2.041   0.657  1.00  0.00    -0.352 N 
ATOM      6  C   UNL     1      -9.686   2.394  -0.327  1.00  0.00     0.251 C 
ATOM      7  O   UNL     1     -10.082   3.043  -1.295  1.00  0.00    -0.269 OA
ATOM      8  H   UNL     1     -11.507   2.354   0.518  1.00  0.00     0.163 HD
BRANCH   6   9
ATOM      9  C   UNL     1      -8.231   2.070  -0.225  1.00  0.00     0.040 A 
ATOM     10  N   UNL     1      -4.039   1.643   0.178  1.00  0.00    -0.263 N 
ATOM     11  C   UNL     1      -5.485   1.635   0.065  1.00  0.00     0.055 A 
ATOM     12  C   UNL     1      -3.631   3.014  -0.339  1.00  0.00     0.101 C 
ATOM     13  C   UNL     1      -6.366   0.676   0.529  1.00  0.00     0.028 A 
ATOM     14  C   UNL     1      -5.959   2.769  -0.591  1.00  0.00    -0.021 A 
ATOM     15  C   UNL     1      -4.828   3.569  -1.139  1.00  0.00     0.063 C 
ATOM     16  C   UNL     1      -3.332   3.917   0.865  1.00  0.00     0.032 C 
ATOM     17  C   UNL     1      -7.740   0.877   0.336  1.00  0.00     0.016 A 
ATOM     18  C   UNL     1      -7.320   3.006  -0.738  1.00  0.00     0.019 A 
BRANCH  10  19
ATOM     19  S   UNL     1      -3.316   0.279  -0.586  1.00  0.00     0.264 S 
ATOM     20  O   UNL     1      -3.372   0.497  -2.019  1.00  0.00    -0.201 OA
ATOM     21  O   UNL     1      -3.885  -0.919   0.002  1.00  0.00    -0.201 OA
BRANCH  19  22
ATOM     22  C   UNL     1      -1.577   0.206  -0.174  1.00  0.00     0.088 A 
ATOM     23  C   UNL     1       2.703  -0.185   0.175  1.00  0.00     0.044 C 
ATOM     24  C   UNL     1       1.210  -0.055   0.106  1.00  0.00    -0.051 A 
ATOM     25  C   UNL     1       0.420  -1.181  -0.144  1.00  0.00     0.005 A 
ATOM     26  C   UNL     1       0.586   1.183   0.293  1.00  0.00     0.005 A 
ATOM     27  C   UNL     1      -0.963  -1.051  -0.285  1.00  0.00     0.022 A 
ATOM     28  C   UNL     1      -0.802   1.313   0.159  1.00  0.00     0.022 A 
ENDBRANCH  19  22
ENDBRANCH  10  19
ENDBRANCH   6   9
ENDBRANCH   4   5
ENDBRANCH   3   4
ENDBRANCH   2   3
ENDBRANCH   1   2
BRANCH   1  29
ATOM     29  C   UNL     1     -12.627  -1.284   2.827  1.00  0.00     0.021 C 
BRANCH  29  30
ATOM     30  C   UNL     1     -12.659  -1.490   4.329  1.00  0.00     0.116 C 
BRANCH  30  31
ATOM     31  N   UNL     1     -13.811  -2.202   4.857  1.00  0.00    -0.352 N 
ATOM     32  C   UNL     1     -13.594  -3.039   5.958  1.00  0.00     0.251 C 
ATOM     33  H   UNL     1     -14.705  -2.100   4.458  1.00  0.00     0.163 HD
ATOM     34  O   UNL     1     -13.340  -4.220   5.900  1.00  0.00    -0.269 OA
BRANCH  32  35
ATOM     35  C   UNL     1     -13.383  -2.272   7.210  1.00  0.00     0.039 A 
ATOM     36  C   UNL     1     -14.436  -1.967   8.070  1.00  0.00     0.014 A 
ATOM     37  C   UNL     1     -12.137  -1.655   7.340  1.00  0.00     0.014 A 
ATOM     38  C   UNL     1     -14.274  -0.930   8.993  1.00  0.00     0.010 A 
ATOM     39  C   UNL     1     -12.013  -0.573   8.181  1.00  0.00     0.010 A 
ATOM     40  C   UNL     1     -13.090  -0.190   8.989  1.00  0.00    -0.014 A 
BRANCH  40  41
ATOM     41  C   UNL     1     -12.868   1.037   9.746  1.00  0.00     0.031 A 
ATOM     42  C   UNL     1     -11.971   1.030  10.925  1.00  0.00     0.074 A 
ATOM     43  C   UNL     1     -13.327   2.207   9.254  1.00  0.00     0.049 A 
ATOM     44  N   UNL     1     -11.890   1.982  11.793  1.00  0.00    -0.248 NA
ATOM     45  C   UNL     1     -11.103  -0.098  11.237  1.00  0.00     0.031 C 
ATOM     46  C   UNL     1     -12.874   3.551   9.601  1.00  0.00     0.029 A 
ATOM     47  N   UNL     1     -14.457   2.416   8.464  1.00  0.00    -0.354 N 
ATOM     48  C   UNL     1     -10.803   1.732  12.604  1.00  0.00     0.074 A 
ATOM     49  C   UNL     1     -10.383   0.396  12.248  1.00  0.00     0.031 C 
ATOM     50  C   UNL     1     -13.820   4.435   9.250  1.00  0.00     0.029 A 
ATOM     51  C   UNL     1     -14.980   3.674   8.820  1.00  0.00     0.049 A 
ATOM     52  H   UNL     1     -14.820   1.802   7.786  1.00  0.00     0.167 HD
ATOM     53  C   UNL     1     -10.314   2.735  13.393  1.00  0.00     0.037 A 
ATOM     54  C   UNL     1     -16.222   3.783   9.380  1.00  0.00     0.037 A 
ATOM     55  C   UNL     1     -11.167   3.922  13.310  1.00  0.00     0.049 A 
ATOM     56  C   UNL     1     -16.220   4.359  10.778  1.00  0.00     0.074 A 
ATOM     57  C   UNL     1     -11.080   5.091  12.570  1.00  0.00     0.029 A 
ATOM     58  N   UNL     1     -12.456   3.882  13.831  1.00  0.00    -0.354 N 
ATOM     59  N   UNL     1     -15.162   4.432  11.539  1.00  0.00    -0.248 NA
ATOM     60  C   UNL     1     -17.409   4.899  11.430  1.00  0.00     0.031 C 
ATOM     61  C   UNL     1     -12.348   5.722  12.594  1.00  0.00     0.029 A 
ATOM     62  C   UNL     1     -13.200   4.950  13.366  1.00  0.00     0.049 A 
ATOM     63  H   UNL     1     -12.791   3.189  14.444  1.00  0.00     0.167 HD
ATOM     64  C   UNL     1     -15.501   4.975  12.752  1.00  0.00     0.074 A 
ATOM     65  C   UNL     1     -16.914   5.279  12.621  1.00  0.00     0.031 C 
ATOM     66  C   UNL     1     -14.591   5.121  13.762  1.00  0.00     0.037 A 
BRANCH  53  67
ATOM     67  C   UNL     1      -8.923   2.748  14.011  1.00  0.00     0.058 A 
ATOM     68  C   UNL     1      -8.253   3.970  14.255  1.00  0.00     0.135 A 
ATOM     69  C   UNL     1      -8.166   1.604  14.329  1.00  0.00     0.135 A 
ATOM     70  F   UNL     1      -8.869   5.151  14.112  1.00  0.00    -0.206 F 
ATOM     71  C   UNL     1      -6.914   4.045  14.651  1.00  0.00     0.059 A 
ATOM     72  C   UNL     1      -6.810   1.649  14.672  1.00  0.00     0.059 A 
ATOM     73  F   UNL     1      -8.725   0.389  14.382  1.00  0.00    -0.206 F 
ATOM     74  C   UNL     1      -6.184   2.878  14.816  1.00  0.00     0.060 A 
BRANCH  74  75
ATOM     75  S   UNL     1      -4.434   2.990  15.232  1.00  0.00     0.124 S 
ATOM     76  O   UNL     1      -3.911   3.808  14.142  1.00  0.00    -0.237 OA
ATOM     77  O   UNL     1      -4.472   3.628  16.544  1.00  0.00    -0.237 OA
ATOM     78  O   UNL     1      -3.993   1.598  15.226  1.00  0.00    -0.744 OA
ENDBRANCH  74  75
ENDBRANCH  53  67
BRANCH  54  79
ATOM     79  C   UNL     1     -17.180   2.770   8.851  1.00  0.00     0.058 A 
ATOM     80  C   UNL     1     -17.549   2.884   7.497  1.00  0.00     0.135 A 
ATOM     81  C   UNL     1     -17.303   1.508   9.452  1.00  0.00     0.135 A 
ATOM     82  F   UNL     1     -17.480   4.077   6.883  1.00  0.00    -0.206 F 
ATOM     83  C   UNL     1     -17.822   1.765   6.717  1.00  0.00     0.059 A 
ATOM     84  C   UNL     1     -17.592   0.373   8.691  1.00  0.00     0.059 A 
ATOM     85  F   UNL     1     -16.981   1.340  10.743  1.00  0.00    -0.206 F 
ATOM     86  C   UNL     1     -17.753   0.506   7.310  1.00  0.00     0.060 A 
BRANCH  86  87
ATOM     87  S   UNL     1     -17.695  -0.942   6.223  1.00  0.00     0.124 S 
ATOM     88  O   UNL     1     -18.847  -0.724   5.357  1.00  0.00    -0.237 OA
ATOM     89  O   UNL     1     -16.384  -0.791   5.586  1.00  0.00    -0.237 OA
ATOM     90  O   UNL     1     -17.806  -2.061   7.151  1.00  0.00    -0.744 OA
ENDBRANCH  86  87
ENDBRANCH  54  79
BRANCH  66  91
ATOM     91  C   UNL     1     -14.895   5.522  15.190  1.00  0.00     0.058 A 
ATOM     92  C   UNL     1     -16.111   5.258  15.843  1.00  0.00     0.135 A 
ATOM     93  C   UNL     1     -13.879   6.080  16.008  1.00  0.00     0.135 A 
ATOM     94  F   UNL     1     -17.115   4.625  15.220  1.00  0.00    -0.206 F 
ATOM     95  C   UNL     1     -16.331   5.587  17.183  1.00  0.00     0.059 A 
ATOM     96  C   UNL     1     -14.059   6.363  17.360  1.00  0.00     0.059 A 
ATOM     97  F   UNL     1     -12.661   6.360  15.519  1.00  0.00    -0.206 F 
ATOM     98  C   UNL     1     -15.300   6.138  17.935  1.00  0.00     0.060 A 
BRANCH  98  99
ATOM     99  S   UNL     1     -15.549   6.502  19.683  1.00  0.00     0.124 S 
ATOM    100  O   UNL     1     -15.953   7.903  19.635  1.00  0.00    -0.237 OA
ATOM    101  O   UNL     1     -16.596   5.559  20.067  1.00  0.00    -0.237 OA
ATOM    102  O   UNL     1     -14.237   6.239  20.265  1.00  0.00    -0.744 OA
ENDBRANCH  98  99
ENDBRANCH  66  91
ENDBRANCH  40  41
ENDBRANCH  32  35
ENDBRANCH  30  31
ENDBRANCH  29  30
ENDBRANCH   1  29
TORSDOF 18
