REMARK SMILES O=C(NCCCCCCNC(=O)c1ccccc1O[C@@H]1CCOC2(CCOCC2)C1)c1ccc(-c2c3nc(c(-c4c(F)cc(S(=O)(=O)[O-])cc4F)c4ccc([nH]4)c(-c4c(F)cc(S(=O)(=O)[O-])cc4F)c4nc(c(-c5c(F)cc(S(=O)(=O)[O-])cc5F)c5ccc2[nH]5)C=C4)C=C3)cc1
REMARK SMILES IDX 6 1 5 2 4 3 3 4 1 5 2 6 31 8 32 9 96 10 33 11 95 12 34 13
REMARK SMILES IDX 35 14 36 15 89 16 37 17 94 18 88 19 90 20 38 21 93 22 87 23
REMARK SMILES IDX 86 24 39 26 73 27 52 28 72 29 53 30 56 31 71 32 91 33 54 34
REMARK SMILES IDX 55 35 70 37 92 38 57 39 40 40 41 41 50 42 42 43 43 44 49 45
REMARK SMILES IDX 51 46 44 47 45 48 46 49 47 50 48 51 74 52 75 53 84 54 76 55
REMARK SMILES IDX 77 56 83 57 85 58 78 59 79 60 80 61 81 62 82 63 58 64 59 65
REMARK SMILES IDX 68 66 60 67 61 68 67 69 69 70 62 71 63 72 64 73 65 74 66 75
REMARK SMILES IDX 7 76 8 77 9 78 10 79 11 80 12 82 13 83 14 84 18 85 15 86
REMARK SMILES IDX 17 87 16 88 19 89 20 90 21 91 30 92 22 93 24 94 23 95 25 96
REMARK SMILES IDX 29 97 26 98 28 99 27 100
REMARK H PARENT 3 7 90 25 56 36 10 81
REMARK Flexibility Score: inf
ROOT
ATOM      1  C   UNL     1       5.460  -3.338  -0.496  1.00  0.00     0.002 C 
ENDROOT
BRANCH   1   2
ATOM      2  C   UNL     1       5.122  -2.355   0.617  1.00  0.00     0.021 C 
BRANCH   2   3
ATOM      3  C   UNL     1       4.596  -1.010   0.148  1.00  0.00     0.116 C 
BRANCH   3   4
ATOM      4  N   UNL     1       3.190  -0.989  -0.232  1.00  0.00    -0.352 N 
ATOM      5  O   UNL     1       1.144  -0.001  -0.354  1.00  0.00    -0.269 OA
ATOM      6  C   UNL     1       2.316   0.084  -0.083  1.00  0.00     0.251 C 
ATOM      7  H   UNL     1       2.824  -1.811  -0.631  1.00  0.00     0.163 HD
BRANCH   6   8
ATOM      8  C   UNL     1       2.892   1.335   0.479  1.00  0.00     0.039 A 
ATOM      9  C   UNL     1       4.040   1.877  -0.100  1.00  0.00     0.014 A 
ATOM     10  C   UNL     1       2.394   1.839   1.682  1.00  0.00     0.014 A 
ATOM     11  C   UNL     1       4.805   2.778   0.627  1.00  0.00     0.010 A 
ATOM     12  C   UNL     1       3.112   2.833   2.357  1.00  0.00     0.010 A 
ATOM     13  C   UNL     1       4.353   3.270   1.864  1.00  0.00    -0.014 A 
BRANCH  13  14
ATOM     14  C   UNL     1       5.187   4.261   2.596  1.00  0.00     0.031 A 
ATOM     15  C   UNL     1       5.750   3.963   3.963  1.00  0.00     0.074 A 
ATOM     16  C   UNL     1       5.473   5.429   1.989  1.00  0.00     0.049 A 
ATOM     17  N   UNL     1       6.506   4.715   4.723  1.00  0.00    -0.248 NA
ATOM     18  C   UNL     1       5.416   2.661   4.561  1.00  0.00     0.031 C 
ATOM     19  C   UNL     1       4.986   5.829   0.665  1.00  0.00     0.029 A 
ATOM     20  N   UNL     1       6.258   6.481   2.382  1.00  0.00    -0.354 N 
ATOM     21  C   UNL     1       6.708   4.000   5.899  1.00  0.00     0.074 A 
ATOM     22  C   UNL     1       5.982   2.755   5.757  1.00  0.00     0.031 C 
ATOM     23  C   UNL     1       5.532   7.005   0.330  1.00  0.00     0.029 A 
ATOM     24  C   UNL     1       6.344   7.481   1.443  1.00  0.00     0.049 A 
ATOM     25  H   UNL     1       6.716   6.517   3.253  1.00  0.00     0.167 HD
ATOM     26  C   UNL     1       7.431   4.350   6.992  1.00  0.00     0.037 A 
ATOM     27  C   UNL     1       6.989   8.661   1.475  1.00  0.00     0.037 A 
ATOM     28  C   UNL     1       8.173   5.582   7.109  1.00  0.00     0.049 A 
ATOM     29  C   UNL     1       7.777   9.025   2.697  1.00  0.00     0.074 A 
ATOM     30  C   UNL     1       8.968   6.012   8.158  1.00  0.00     0.029 A 
ATOM     31  N   UNL     1       8.211   6.581   6.147  1.00  0.00    -0.354 N 
ATOM     32  N   UNL     1       7.966   8.328   3.792  1.00  0.00    -0.248 NA
ATOM     33  C   UNL     1       8.436  10.336   2.691  1.00  0.00     0.031 C 
ATOM     34  C   UNL     1       9.449   7.290   7.850  1.00  0.00     0.029 A 
ATOM     35  C   UNL     1       8.999   7.635   6.586  1.00  0.00     0.049 A 
ATOM     36  H   UNL     1       7.746   6.548   5.280  1.00  0.00     0.167 HD
ATOM     37  C   UNL     1       8.789   9.106   4.597  1.00  0.00     0.074 A 
ATOM     38  C   UNL     1       9.068  10.320   3.857  1.00  0.00     0.031 C 
ATOM     39  C   UNL     1       9.273   8.835   5.835  1.00  0.00     0.037 A 
BRANCH  26  40
ATOM     40  C   UNL     1       7.431   3.406   8.168  1.00  0.00     0.058 A 
ATOM     41  C   UNL     1       8.101   2.173   8.138  1.00  0.00     0.135 A 
ATOM     42  C   UNL     1       6.775   3.760   9.360  1.00  0.00     0.135 A 
ATOM     43  F   UNL     1       8.737   1.776   7.024  1.00  0.00    -0.206 F 
ATOM     44  C   UNL     1       8.091   1.310   9.231  1.00  0.00     0.059 A 
ATOM     45  C   UNL     1       6.774   2.925  10.475  1.00  0.00     0.059 A 
ATOM     46  F   UNL     1       6.122   4.930   9.450  1.00  0.00    -0.206 F 
ATOM     47  C   UNL     1       7.419   1.693  10.394  1.00  0.00     0.060 A 
BRANCH  47  48
ATOM     48  S   UNL     1       7.396   0.554  11.796  1.00  0.00     0.124 S 
ATOM     49  O   UNL     1       6.458  -0.462  11.328  1.00  0.00    -0.237 OA
ATOM     50  O   UNL     1       8.792   0.135  11.882  1.00  0.00    -0.237 OA
ATOM     51  O   UNL     1       6.924   1.383  12.900  1.00  0.00    -0.744 OA
ENDBRANCH  47  48
ENDBRANCH  26  40
BRANCH  27  52
ATOM     52  C   UNL     1       6.914   9.569   0.301  1.00  0.00     0.058 A 
ATOM     53  C   UNL     1       8.034   9.786  -0.513  1.00  0.00     0.135 A 
ATOM     54  C   UNL     1       5.711  10.200  -0.055  1.00  0.00     0.135 A 
ATOM     55  F   UNL     1       9.205   9.206  -0.212  1.00  0.00    -0.206 F 
ATOM     56  C   UNL     1       7.968  10.604  -1.636  1.00  0.00     0.059 A 
ATOM     57  C   UNL     1       5.613  10.998  -1.189  1.00  0.00     0.059 A 
ATOM     58  F   UNL     1       4.606  10.006   0.681  1.00  0.00    -0.206 F 
ATOM     59  C   UNL     1       6.750  11.201  -1.968  1.00  0.00     0.060 A 
BRANCH  59  60
ATOM     60  S   UNL     1       6.661  12.213  -3.461  1.00  0.00     0.124 S 
ATOM     61  O   UNL     1       7.366  13.418  -3.040  1.00  0.00    -0.237 OA
ATOM     62  O   UNL     1       7.350  11.377  -4.440  1.00  0.00    -0.237 OA
ATOM     63  O   UNL     1       5.225  12.363  -3.677  1.00  0.00    -0.744 OA
ENDBRANCH  59  60
ENDBRANCH  27  52
BRANCH  39  64
ATOM     64  C   UNL     1      10.195   9.854   6.444  1.00  0.00     0.058 A 
ATOM     65  C   UNL     1       9.727  11.090   6.917  1.00  0.00     0.135 A 
ATOM     66  C   UNL     1      11.566   9.579   6.571  1.00  0.00     0.135 A 
ATOM     67  F   UNL     1       8.427  11.407   6.810  1.00  0.00    -0.206 F 
ATOM     68  C   UNL     1      10.592  12.032   7.464  1.00  0.00     0.059 A 
ATOM     69  C   UNL     1      12.444  10.494   7.141  1.00  0.00     0.059 A 
ATOM     70  F   UNL     1      12.063   8.407   6.143  1.00  0.00    -0.206 F 
ATOM     71  C   UNL     1      11.951  11.725   7.570  1.00  0.00     0.060 A 
BRANCH  71  72
ATOM     72  S   UNL     1      13.063  12.947   8.294  1.00  0.00     0.124 S 
ATOM     73  O   UNL     1      13.192  13.909   7.205  1.00  0.00    -0.237 OA
ATOM     74  O   UNL     1      12.312  13.405   9.459  1.00  0.00    -0.237 OA
ATOM     75  O   UNL     1      14.265  12.175   8.596  1.00  0.00    -0.744 OA
ENDBRANCH  71  72
ENDBRANCH  39  64
ENDBRANCH  13  14
ENDBRANCH   6   8
ENDBRANCH   3   4
ENDBRANCH   2   3
ENDBRANCH   1   2
BRANCH   1  76
ATOM     76  C   UNL     1       6.495  -2.861  -1.535  1.00  0.00     0.002 C 
BRANCH  76  77
ATOM     77  C   UNL     1       7.961  -2.627  -1.106  1.00  0.00     0.021 C 
BRANCH  77  78
ATOM     78  C   UNL     1       8.839  -3.811  -0.675  1.00  0.00     0.116 C 
BRANCH  78  79
ATOM     79  N   UNL     1       8.913  -4.841  -1.687  1.00  0.00    -0.352 N 
ATOM     80  C   UNL     1       9.966  -5.672  -2.011  1.00  0.00     0.255 C 
ATOM     81  H   UNL     1       8.095  -4.968  -2.221  1.00  0.00     0.163 HD
ATOM     82  O   UNL     1      10.897  -5.335  -2.732  1.00  0.00    -0.269 OA
BRANCH  80  83
ATOM     83  C   UNL     1       9.830  -7.104  -1.483  1.00  0.00     0.081 A 
ATOM     84  C   UNL     1      11.045  -7.789  -1.614  1.00  0.00     0.018 A 
ATOM     85  C   UNL     1       9.193  -7.115  -0.246  1.00  0.00     0.132 A 
ATOM     86  C   UNL     1      11.887  -7.832  -0.509  1.00  0.00     0.001 A 
ATOM     87  C   UNL     1      10.044  -7.073   0.864  1.00  0.00     0.047 A 
ATOM     88  C   UNL     1      11.411  -7.363   0.715  1.00  0.00     0.004 A 
BRANCH  85  89
ATOM     89  O   UNL     1       7.871  -6.790  -0.073  1.00  0.00    -0.489 OA
BRANCH  89  90
ATOM     90  C   UNL     1       6.806  -7.348  -0.894  1.00  0.00     0.178 C 
ATOM     91  C   UNL     1       6.922  -8.800  -1.336  1.00  0.00     0.074 C 
ATOM     92  C   UNL     1       6.194  -6.430  -1.988  1.00  0.00     0.081 C 
ATOM     93  C   UNL     1       6.848  -8.965  -2.849  1.00  0.00     0.165 C 
ATOM     94  C   UNL     1       6.615  -6.652  -3.477  1.00  0.00     0.076 C 
ATOM     95  O   UNL     1       7.386  -7.856  -3.554  1.00  0.00    -0.375 OA
ATOM     96  C   UNL     1       7.452  -5.533  -4.158  1.00  0.00     0.064 C 
ATOM     97  C   UNL     1       5.335  -6.691  -4.349  1.00  0.00     0.064 C 
ATOM     98  C   UNL     1       7.742  -5.843  -5.618  1.00  0.00     0.163 C 
ATOM     99  C   UNL     1       5.636  -6.860  -5.837  1.00  0.00     0.163 C 
ATOM    100  O   UNL     1       6.517  -5.860  -6.336  1.00  0.00    -0.381 OA
ENDBRANCH  89  90
ENDBRANCH  85  89
ENDBRANCH  80  83
ENDBRANCH  78  79
ENDBRANCH  77  78
ENDBRANCH  76  77
ENDBRANCH   1  76
TORSDOF 18
