REMARK SMILES COc1ccc(OCCNc2c(Cl)cccc2C(=O)NCCCCCCNC(=O)c2ccc(-c3c4nc(c(-c5c(F)cc(S(=O)(=O)[O-])cc5F)c5ccc([nH]5)c(-c5c(F)cc(S(=O)(=O)[O-])cc5F)c5nc(c(-c6c(F)cc(S(=O)(=O)[O-])cc6F)c6ccc3[nH]6)C=C5)C=C4)cc2)cc1
REMARK SMILES IDX 22 1 21 2 20 3 18 4 19 5 17 7 11 8 12 9 13 10 14 11 16 12
REMARK SMILES IDX 15 13 10 14 9 16 8 17 7 18 6 19 3 20 4 21 97 22 5 23 96 24
REMARK SMILES IDX 2 25 1 26 23 27 24 28 25 29 26 30 27 31 28 32 29 34 30 35
REMARK SMILES IDX 31 36 95 37 32 38 94 39 33 40 34 41 35 42 88 43 36 44 93 45
REMARK SMILES IDX 87 46 89 47 37 48 92 49 86 50 85 51 38 53 72 54 51 55 71 56
REMARK SMILES IDX 52 57 55 58 70 59 90 60 53 61 54 62 69 64 91 65 56 66 39 67
REMARK SMILES IDX 40 68 49 69 41 70 42 71 48 72 50 73 43 74 44 75 45 76 46 77
REMARK SMILES IDX 47 78 73 79 74 80 83 81 75 82 76 83 82 84 84 85 77 86 78 87
REMARK SMILES IDX 79 88 80 89 81 90 57 91 58 92 67 93 59 94 60 95 66 96 68 97
REMARK SMILES IDX 61 98 62 99 63 100 64 101 65 102
REMARK H PARENT 20 6 10 15 27 33 89 52 55 63
REMARK Flexibility Score: inf
ROOT
ATOM      1  C   UNL     1       1.141  -6.697   1.314  1.00  0.00     0.021 C 
ENDROOT
BRANCH   1   2
ATOM      2  C   UNL     1       2.483  -5.977   1.447  1.00  0.00     0.116 C 
BRANCH   2   3
ATOM      3  N   UNL     1       3.632  -6.817   1.185  1.00  0.00    -0.352 N 
ATOM      4  C   UNL     1       4.938  -6.495   0.915  1.00  0.00     0.253 C 
ATOM      5  O   UNL     1       5.739  -7.423   0.772  1.00  0.00    -0.269 OA
ATOM      6  H   UNL     1       3.445  -7.784   1.203  1.00  0.00     0.163 HD
BRANCH   4   7
ATOM      7  C   UNL     1       5.432  -5.112   0.682  1.00  0.00     0.064 A 
ATOM      8  C   UNL     1       5.306  -4.019   1.560  1.00  0.00     0.066 A 
ATOM      9  C   UNL     1       5.921  -2.800   1.157  1.00  0.00     0.065 A 
ATOM     10  Cl  UNL     1       5.837  -1.374   2.145  1.00  0.00    -0.082 Cl
ATOM     11  C   UNL     1       6.644  -2.675  -0.033  1.00  0.00     0.023 A 
ATOM     12  C   UNL     1       6.186  -4.976  -0.509  1.00  0.00     0.016 A 
ATOM     13  C   UNL     1       6.777  -3.767  -0.871  1.00  0.00     0.003 A 
BRANCH   8  14
ATOM     14  N   UNL     1       4.472  -3.991   2.662  1.00  0.00    -0.380 N 
ATOM     15  H   UNL     1       3.669  -3.425   2.591  1.00  0.00     0.160 HD
BRANCH  14  16
ATOM     16  C   UNL     1       4.655  -4.707   3.913  1.00  0.00     0.154 C 
BRANCH  16  17
ATOM     17  C   UNL     1       3.870  -4.024   5.065  1.00  0.00     0.250 C 
BRANCH  17  18
ATOM     18  O   UNL     1       2.445  -3.965   4.872  1.00  0.00    -0.492 OA
BRANCH  18  19
ATOM     19  C   UNL     1       1.891  -2.935   4.160  1.00  0.00     0.119 A 
ATOM     20  C   UNL     1       0.638  -1.171   2.363  1.00  0.00     0.119 A 
ATOM     21  C   UNL     1      -0.101  -2.168   2.995  1.00  0.00     0.050 A 
ATOM     22  C   UNL     1       1.969  -0.985   2.719  1.00  0.00     0.050 A 
ATOM     23  C   UNL     1       0.526  -3.050   3.882  1.00  0.00     0.050 A 
ATOM     24  C   UNL     1       2.579  -1.843   3.641  1.00  0.00     0.050 A 
BRANCH  20  25
ATOM     25  O   UNL     1      -0.032  -0.374   1.478  1.00  0.00    -0.497 OA
ATOM     26  C   UNL     1       0.677  -0.104   0.271  1.00  0.00     0.278 C 
ENDBRANCH  20  25
ENDBRANCH  18  19
ENDBRANCH  17  18
ENDBRANCH  16  17
ENDBRANCH  14  16
ENDBRANCH   8  14
ENDBRANCH   4   7
ENDBRANCH   2   3
ENDBRANCH   1   2
BRANCH   1  27
ATOM     27  C   UNL     1       0.957  -7.982   2.138  1.00  0.00     0.002 C 
BRANCH  27  28
ATOM     28  C   UNL     1       1.322  -7.941   3.625  1.00  0.00     0.002 C 
BRANCH  28  29
ATOM     29  C   UNL     1       0.646  -6.867   4.473  1.00  0.00     0.021 C 
BRANCH  29  30
ATOM     30  C   UNL     1      -0.875  -6.776   4.415  1.00  0.00     0.116 C 
BRANCH  30  31
ATOM     31  N   UNL     1      -1.547  -7.988   4.835  1.00  0.00    -0.352 N 
ATOM     32  C   UNL     1      -2.635  -8.166   5.656  1.00  0.00     0.251 C 
ATOM     33  H   UNL     1      -1.162  -8.819   4.474  1.00  0.00     0.163 HD
ATOM     34  O   UNL     1      -2.980  -9.312   5.934  1.00  0.00    -0.269 OA
BRANCH  32  35
ATOM     35  C   UNL     1      -3.376  -7.016   6.241  1.00  0.00     0.039 A 
ATOM     36  C   UNL     1      -3.851  -7.143   7.551  1.00  0.00     0.014 A 
ATOM     37  C   UNL     1      -3.649  -5.845   5.528  1.00  0.00     0.014 A 
ATOM     38  C   UNL     1      -4.542  -6.089   8.157  1.00  0.00     0.010 A 
ATOM     39  C   UNL     1      -4.278  -4.764   6.158  1.00  0.00     0.010 A 
ATOM     40  C   UNL     1      -4.732  -4.873   7.481  1.00  0.00    -0.014 A 
BRANCH  40  41
ATOM     41  C   UNL     1      -5.377  -3.720   8.171  1.00  0.00     0.031 A 
ATOM     42  C   UNL     1      -6.700  -3.171   7.703  1.00  0.00     0.074 A 
ATOM     43  C   UNL     1      -4.754  -3.150   9.222  1.00  0.00     0.049 A 
ATOM     44  N   UNL     1      -7.415  -2.197   8.209  1.00  0.00    -0.248 NA
ATOM     45  C   UNL     1      -7.288  -3.780   6.500  1.00  0.00     0.031 C 
ATOM     46  C   UNL     1      -3.442  -3.545   9.740  1.00  0.00     0.029 A 
ATOM     47  N   UNL     1      -5.137  -2.121  10.048  1.00  0.00    -0.354 N 
ATOM     48  C   UNL     1      -8.532  -2.074   7.390  1.00  0.00     0.074 A 
ATOM     49  C   UNL     1      -8.373  -3.038   6.322  1.00  0.00     0.031 C 
ATOM     50  C   UNL     1      -3.147  -2.795  10.813  1.00  0.00     0.029 A 
ATOM     51  C   UNL     1      -4.229  -1.843  11.043  1.00  0.00     0.049 A 
ATOM     52  H   UNL     1      -5.983  -1.629   9.938  1.00  0.00     0.167 HD
ATOM     53  C   UNL     1      -9.601  -1.252   7.525  1.00  0.00     0.037 A 
ATOM     54  C   UNL     1      -4.261  -0.928  12.031  1.00  0.00     0.037 A 
ATOM     55  C   UNL     1      -9.763  -0.300   8.597  1.00  0.00     0.049 A 
ATOM     56  C   UNL     1      -5.463  -0.034  12.167  1.00  0.00     0.074 A 
ATOM     57  C   UNL     1     -10.837   0.536   8.853  1.00  0.00     0.029 A 
ATOM     58  N   UNL     1      -8.824  -0.051   9.588  1.00  0.00    -0.354 N 
ATOM     59  N   UNL     1      -6.544   0.014  11.425  1.00  0.00    -0.248 NA
ATOM     60  C   UNL     1      -5.454   0.923  13.281  1.00  0.00     0.031 C 
ATOM     61  C   UNL     1     -10.528   1.323   9.968  1.00  0.00     0.029 A 
ATOM     62  C   UNL     1      -9.283   0.942  10.441  1.00  0.00     0.049 A 
ATOM     63  H   UNL     1      -7.957  -0.511   9.673  1.00  0.00     0.167 HD
ATOM     64  C   UNL     1      -7.351   0.994  11.993  1.00  0.00     0.074 A 
ATOM     65  C   UNL     1      -6.644   1.493  13.156  1.00  0.00     0.031 C 
ATOM     66  C   UNL     1      -8.565   1.443  11.587  1.00  0.00     0.037 A 
BRANCH  53  67
ATOM     67  C   UNL     1     -10.691  -1.344   6.488  1.00  0.00     0.058 A 
ATOM     68  C   UNL     1     -11.537  -2.462   6.405  1.00  0.00     0.135 A 
ATOM     69  C   UNL     1     -10.922  -0.284   5.596  1.00  0.00     0.135 A 
ATOM     70  F   UNL     1     -11.356  -3.509   7.225  1.00  0.00    -0.206 F 
ATOM     71  C   UNL     1     -12.552  -2.539   5.456  1.00  0.00     0.059 A 
ATOM     72  C   UNL     1     -11.950  -0.328   4.657  1.00  0.00     0.059 A 
ATOM     73  F   UNL     1     -10.148   0.811   5.631  1.00  0.00    -0.206 F 
ATOM     74  C   UNL     1     -12.751  -1.467   4.585  1.00  0.00     0.060 A 
BRANCH  74  75
ATOM     75  S   UNL     1     -14.076  -1.583   3.364  1.00  0.00     0.124 S 
ATOM     76  O   UNL     1     -13.522  -2.554   2.425  1.00  0.00    -0.237 OA
ATOM     77  O   UNL     1     -15.201  -2.048   4.167  1.00  0.00    -0.237 OA
ATOM     78  O   UNL     1     -14.192  -0.218   2.857  1.00  0.00    -0.744 OA
ENDBRANCH  74  75
ENDBRANCH  53  67
BRANCH  54  79
ATOM     79  C   UNL     1      -3.126  -0.831  12.990  1.00  0.00     0.058 A 
ATOM     80  C   UNL     1      -3.272  -1.228  14.327  1.00  0.00     0.135 A 
ATOM     81  C   UNL     1      -1.872  -0.350  12.584  1.00  0.00     0.135 A 
ATOM     82  F   UNL     1      -4.454  -1.688  14.765  1.00  0.00    -0.206 F 
ATOM     83  C   UNL     1      -2.220  -1.138  15.233  1.00  0.00     0.059 A 
ATOM     84  C   UNL     1      -0.797  -0.276  13.465  1.00  0.00     0.059 A 
ATOM     85  F   UNL     1      -1.675   0.029  11.312  1.00  0.00    -0.206 F 
ATOM     86  C   UNL     1      -0.984  -0.663  14.791  1.00  0.00     0.060 A 
BRANCH  86  87
ATOM     87  S   UNL     1       0.390  -0.600  15.962  1.00  0.00     0.124 S 
ATOM     88  O   UNL     1       0.017   0.540  16.791  1.00  0.00    -0.237 OA
ATOM     89  O   UNL     1       0.309  -1.910  16.601  1.00  0.00    -0.237 OA
ATOM     90  O   UNL     1       1.554  -0.403  15.102  1.00  0.00    -0.744 OA
ENDBRANCH  86  87
ENDBRANCH  54  79
BRANCH  66  91
ATOM     91  C   UNL     1      -9.210   2.519  12.420  1.00  0.00     0.058 A 
ATOM     92  C   UNL     1      -8.707   3.830  12.448  1.00  0.00     0.135 A 
ATOM     93  C   UNL     1     -10.343   2.237  13.200  1.00  0.00     0.135 A 
ATOM     94  F   UNL     1      -7.624   4.154  11.725  1.00  0.00    -0.206 F 
ATOM     95  C   UNL     1      -9.277   4.811  13.255  1.00  0.00     0.059 A 
ATOM     96  C   UNL     1     -10.947   3.210  13.990  1.00  0.00     0.059 A 
ATOM     97  F   UNL     1     -10.875   1.004  13.200  1.00  0.00    -0.206 F 
ATOM     98  C   UNL     1     -10.393   4.489  14.028  1.00  0.00     0.060 A 
BRANCH  98  99
ATOM     99  S   UNL     1     -11.116   5.765  15.081  1.00  0.00     0.124 S 
ATOM    100  O   UNL     1     -10.148   5.827  16.172  1.00  0.00    -0.237 OA
ATOM    101  O   UNL     1     -11.146   6.924  14.194  1.00  0.00    -0.237 OA
ATOM    102  O   UNL     1     -12.423   5.217  15.431  1.00  0.00    -0.744 OA
ENDBRANCH  98  99
ENDBRANCH  66  91
ENDBRANCH  40  41
ENDBRANCH  32  35
ENDBRANCH  30  31
ENDBRANCH  29  30
ENDBRANCH  28  29
ENDBRANCH  27  28
ENDBRANCH   1  27
TORSDOF 22
