REMARK SMILES CC(C)C[C@H](NC(=O)CNC(=O)[C@@H](NC(=O)OCc1ccccc1)C(C)C)C(=O)NCCCCCCNC(=O)c1ccc(-c2c3nc(c(-c4c(F)cc(S(=O)(=O)[O-])cc4F)c4ccc([nH]4)c(-c4c(F)cc(S(=O)(=O)[O-])cc4F)c4nc(c(-c5c(F)cc(S(=O)(=O)[O-])cc5F)c5ccc2[nH]5)C=C4)C=C3)cc1
REMARK SMILES IDX 31 1 30 2 28 3 29 4 5 6 4 7 2 8 1 9 3 10 6 11 7 12 8 14 9 15
REMARK SMILES IDX 10 16 11 17 12 19 13 20 14 21 15 22 16 24 17 25 18 26 19 27
REMARK SMILES IDX 20 28 24 29 21 30 23 31 22 32 25 33 26 34 27 35 32 36 33 37
REMARK SMILES IDX 34 38 35 39 36 40 37 41 38 42 39 44 40 45 41 46 105 47 42 48
REMARK SMILES IDX 104 49 43 50 44 51 45 52 98 53 46 54 103 55 97 56 99 57
REMARK SMILES IDX 47 58 102 59 96 60 95 61 48 63 82 64 61 65 81 66 62 67 65 68
REMARK SMILES IDX 80 69 100 70 63 71 64 72 79 74 101 75 66 76 49 77 50 78
REMARK SMILES IDX 59 79 51 80 52 81 58 82 60 83 53 84 54 85 55 86 56 87 57 88
REMARK SMILES IDX 83 89 84 90 93 91 85 92 86 93 92 94 94 95 87 96 88 97 89 98
REMARK SMILES IDX 90 99 91 100 67 101 68 102 77 103 69 104 70 105 76 106
REMARK SMILES IDX 78 107 71 108 72 109 73 110 74 111 75 112
REMARK H PARENT 30 5 6 13 10 18 14 23 37 43 99 62 65 73
REMARK Flexibility Score: inf
ROOT
ATOM      1  C   UNL     1      -4.626   1.656  -1.358  1.00  0.00     0.116 C 
ENDROOT
BRANCH   1   2
ATOM      2  N   UNL     1      -3.451   0.921  -0.834  1.00  0.00    -0.354 N 
ATOM      3  C   UNL     1      -2.293   1.542  -0.335  1.00  0.00     0.242 C 
ATOM      4  O   UNL     1      -2.208   1.754   0.875  1.00  0.00    -0.273 OA
ATOM      5  H   UNL     1      -3.483  -0.063  -0.836  1.00  0.00     0.163 HD
BRANCH   3   6
ATOM      6  C   UNL     1      -1.034   1.558  -1.297  1.00  0.00     0.171 C 
BRANCH   6   7
ATOM      7  C   UNL     1       0.160   2.541  -1.071  1.00  0.00     0.038 C 
BRANCH   7   8
ATOM      8  C   UNL     1       0.867   3.248  -2.299  1.00  0.00    -0.015 C 
ATOM      9  C   UNL     1       0.495   4.736  -2.496  1.00  0.00     0.007 C 
ATOM     10  C   UNL     1       2.388   3.245  -2.211  1.00  0.00     0.007 C 
ENDBRANCH   7   8
ENDBRANCH   6   7
BRANCH   6  11
ATOM     11  N   UNL     1      -1.506   1.675  -2.633  1.00  0.00    -0.343 N 
ATOM     12  C   UNL     1      -1.956   2.838  -3.158  1.00  0.00     0.240 C 
ATOM     13  H   UNL     1      -1.505   0.873  -3.203  1.00  0.00     0.164 HD
ATOM     14  O   UNL     1      -2.068   2.882  -4.388  1.00  0.00    -0.273 OA
BRANCH  12  15
ATOM     15  C   UNL     1      -2.369   4.075  -2.264  1.00  0.00     0.216 C 
BRANCH  15  16
ATOM     16  N   UNL     1      -2.612   4.400  -0.822  1.00  0.00    -0.345 N 
ATOM     17  C   UNL     1      -2.237   4.887   0.372  1.00  0.00     0.243 C 
ATOM     18  H   UNL     1      -3.535   4.094  -0.668  1.00  0.00     0.164 HD
ATOM     19  O   UNL     1      -3.273   5.107   1.044  1.00  0.00    -0.273 OA
BRANCH  17  20
ATOM     20  C   UNL     1      -0.877   5.137   1.151  1.00  0.00     0.177 C 
BRANCH  20  21
ATOM     21  N   UNL     1      -0.365   3.906   1.802  1.00  0.00    -0.309 N 
ATOM     22  C   UNL     1       0.849   3.308   1.909  1.00  0.00     0.408 C 
ATOM     23  H   UNL     1      -1.074   3.405   2.267  1.00  0.00     0.167 HD
ATOM     24  O   UNL     1       0.946   2.205   2.473  1.00  0.00    -0.225 OA
BRANCH  22  25
ATOM     25  O   UNL     1       1.887   3.934   1.316  1.00  0.00    -0.445 OA
BRANCH  25  26
ATOM     26  C   UNL     1       3.071   3.141   1.108  1.00  0.00     0.270 C 
BRANCH  26  27
ATOM     27  C   UNL     1       4.198   3.276   2.101  1.00  0.00    -0.011 A 
ATOM     28  C   UNL     1       3.975   3.374   3.475  1.00  0.00     0.007 A 
ATOM     29  C   UNL     1       5.524   3.179   1.634  1.00  0.00     0.007 A 
ATOM     30  C   UNL     1       5.054   3.384   4.362  1.00  0.00     0.000 A 
ATOM     31  C   UNL     1       6.600   3.191   2.520  1.00  0.00     0.000 A 
ATOM     32  C   UNL     1       6.363   3.291   3.886  1.00  0.00     0.000 A 
ENDBRANCH  26  27
ENDBRANCH  25  26
ENDBRANCH  22  25
ENDBRANCH  20  21
BRANCH  20  33
ATOM     33  C   UNL     1       0.124   6.229   0.714  1.00  0.00     0.015 C 
ATOM     34  C   UNL     1      -0.600   7.453   0.136  1.00  0.00     0.010 C 
ATOM     35  C   UNL     1       0.963   6.743   1.908  1.00  0.00     0.010 C 
ENDBRANCH  20  33
ENDBRANCH  17  20
ENDBRANCH  15  16
ENDBRANCH  12  15
ENDBRANCH   6  11
ENDBRANCH   3   6
ENDBRANCH   1   2
BRANCH   1  36
ATOM     36  C   UNL     1      -4.936   1.402  -2.844  1.00  0.00     0.021 C 
BRANCH  36  37
ATOM     37  C   UNL     1      -6.109   2.202  -3.455  1.00  0.00     0.002 C 
BRANCH  37  38
ATOM     38  C   UNL     1      -6.085   3.740  -3.421  1.00  0.00     0.002 C 
BRANCH  38  39
ATOM     39  C   UNL     1      -5.226   4.516  -4.433  1.00  0.00     0.021 C 
BRANCH  39  40
ATOM     40  C   UNL     1      -5.271   4.103  -5.894  1.00  0.00     0.116 C 
BRANCH  40  41
ATOM     41  N   UNL     1      -6.583   4.285  -6.478  1.00  0.00    -0.352 N 
ATOM     42  C   UNL     1      -6.960   5.027  -7.571  1.00  0.00     0.251 C 
ATOM     43  H   UNL     1      -7.314   3.806  -6.024  1.00  0.00     0.163 HD
ATOM     44  O   UNL     1      -8.156   5.196  -7.797  1.00  0.00    -0.269 OA
BRANCH  42  45
ATOM     45  C   UNL     1      -5.947   5.642  -8.466  1.00  0.00     0.039 A 
ATOM     46  C   UNL     1      -6.174   6.936  -8.946  1.00  0.00     0.014 A 
ATOM     47  C   UNL     1      -4.804   4.946  -8.870  1.00  0.00     0.014 A 
ATOM     48  C   UNL     1      -5.236   7.549  -9.785  1.00  0.00     0.010 A 
ATOM     49  C   UNL     1      -3.840   5.580  -9.655  1.00  0.00     0.010 A 
ATOM     50  C   UNL     1      -4.048   6.885 -10.127  1.00  0.00    -0.014 A 
BRANCH  50  51
ATOM     51  C   UNL     1      -3.017   7.525 -10.988  1.00  0.00     0.031 A 
ATOM     52  C   UNL     1      -2.698   6.939 -12.339  1.00  0.00     0.074 A 
ATOM     53  C   UNL     1      -2.316   8.581 -10.527  1.00  0.00     0.049 A 
ATOM     54  N   UNL     1      -1.754   7.270 -13.182  1.00  0.00    -0.248 NA
ATOM     55  C   UNL     1      -3.534   5.814 -12.791  1.00  0.00     0.031 C 
ATOM     56  C   UNL     1      -2.505   9.219  -9.222  1.00  0.00     0.029 A 
ATOM     57  N   UNL     1      -1.287   9.292 -11.095  1.00  0.00    -0.354 N 
ATOM     58  C   UNL     1      -1.859   6.377 -14.242  1.00  0.00     0.074 A 
ATOM     59  C   UNL     1      -2.943   5.473 -13.927  1.00  0.00     0.031 C 
ATOM     60  C   UNL     1      -1.626  10.227  -9.092  1.00  0.00     0.029 A 
ATOM     61  C   UNL     1      -0.786  10.285 -10.284  1.00  0.00     0.049 A 
ATOM     62  H   UNL     1      -0.940   9.108 -11.997  1.00  0.00     0.167 HD
ATOM     63  C   UNL     1      -1.127   6.325 -15.380  1.00  0.00     0.037 A 
ATOM     64  C   UNL     1       0.244  11.133 -10.473  1.00  0.00     0.037 A 
ATOM     65  C   UNL     1      -0.088   7.264 -15.715  1.00  0.00     0.049 A 
ATOM     66  C   UNL     1       1.028  11.065 -11.758  1.00  0.00     0.074 A 
ATOM     67  C   UNL     1       0.649   7.348 -16.884  1.00  0.00     0.029 A 
ATOM     68  N   UNL     1       0.358   8.281 -14.886  1.00  0.00    -0.354 N 
ATOM     69  N   UNL     1       0.867  10.257 -12.778  1.00  0.00    -0.248 NA
ATOM     70  C   UNL     1       2.131  12.023 -11.919  1.00  0.00     0.031 C 
ATOM     71  C   UNL     1       1.567   8.393 -16.747  1.00  0.00     0.029 A 
ATOM     72  C   UNL     1       1.373   8.986 -15.510  1.00  0.00     0.049 A 
ATOM     73  H   UNL     1       0.006   8.474 -13.987  1.00  0.00     0.167 HD
ATOM     74  C   UNL     1       1.823  10.634 -13.715  1.00  0.00     0.074 A 
ATOM     75  C   UNL     1       2.556  11.744 -13.144  1.00  0.00     0.031 C 
ATOM     76  C   UNL     1       2.071  10.109 -14.939  1.00  0.00     0.037 A 
BRANCH  63  77
ATOM     77  C   UNL     1      -1.419   5.227 -16.364  1.00  0.00     0.058 A 
ATOM     78  C   UNL     1      -2.568   5.243 -17.168  1.00  0.00     0.135 A 
ATOM     79  C   UNL     1      -0.492   4.190 -16.564  1.00  0.00     0.135 A 
ATOM     80  F   UNL     1      -3.493   6.202 -17.007  1.00  0.00    -0.206 F 
ATOM     81  C   UNL     1      -2.794   4.265 -18.132  1.00  0.00     0.059 A 
ATOM     82  C   UNL     1      -0.686   3.215 -17.538  1.00  0.00     0.059 A 
ATOM     83  F   UNL     1       0.623   4.127 -15.819  1.00  0.00    -0.206 F 
ATOM     84  C   UNL     1      -1.844   3.258 -18.313  1.00  0.00     0.060 A 
BRANCH  84  85
ATOM     85  S   UNL     1      -2.130   2.023 -19.599  1.00  0.00     0.124 S 
ATOM     86  O   UNL     1      -3.181   1.211 -18.994  1.00  0.00    -0.237 OA
ATOM     87  O   UNL     1      -2.538   2.843 -20.735  1.00  0.00    -0.237 OA
ATOM     88  O   UNL     1      -0.833   1.368 -19.736  1.00  0.00    -0.744 OA
ENDBRANCH  84  85
ENDBRANCH  63  77
BRANCH  64  89
ATOM     89  C   UNL     1       0.605  12.128  -9.426  1.00  0.00     0.058 A 
ATOM     90  C   UNL     1       0.402  13.500  -9.636  1.00  0.00     0.135 A 
ATOM     91  C   UNL     1       1.190  11.732  -8.213  1.00  0.00     0.135 A 
ATOM     92  F   UNL     1      -0.150  13.928 -10.782  1.00  0.00    -0.206 F 
ATOM     93  C   UNL     1       0.797  14.448  -8.698  1.00  0.00     0.059 A 
ATOM     94  C   UNL     1       1.571  12.659  -7.249  1.00  0.00     0.059 A 
ATOM     95  F   UNL     1       1.389  10.430  -7.955  1.00  0.00    -0.206 F 
ATOM     96  C   UNL     1       1.388  14.017  -7.509  1.00  0.00     0.060 A 
BRANCH  96  97
ATOM     97  S   UNL     1       1.897  15.252  -6.293  1.00  0.00     0.124 S 
ATOM     98  O   UNL     1       3.123  15.765  -6.893  1.00  0.00    -0.237 OA
ATOM     99  O   UNL     1       0.759  16.166  -6.284  1.00  0.00    -0.237 OA
ATOM    100  O   UNL     1       2.069  14.467  -5.074  1.00  0.00    -0.744 OA
ENDBRANCH  96  97
ENDBRANCH  64  89
BRANCH  76 101
ATOM    101  C   UNL     1       3.140  10.758 -15.773  1.00  0.00     0.058 A 
ATOM    102  C   UNL     1       4.503  10.571 -15.500  1.00  0.00     0.135 A 
ATOM    103  C   UNL     1       2.791  11.516 -16.903  1.00  0.00     0.135 A 
ATOM    104  F   UNL     1       4.887   9.861 -14.428  1.00  0.00    -0.206 F 
ATOM    105  C   UNL     1       5.486  11.125 -16.313  1.00  0.00     0.059 A 
ATOM    106  C   UNL     1       3.757  12.058 -17.743  1.00  0.00     0.059 A 
ATOM    107  F   UNL     1       1.500  11.715 -17.211  1.00  0.00    -0.206 F 
ATOM    108  C   UNL     1       5.103  11.863 -17.435  1.00  0.00     0.060 A 
BRANCH 108 109
ATOM    109  S   UNL     1       6.388  12.531 -18.514  1.00  0.00     0.124 S 
ATOM    110  O   UNL     1       6.870  13.664 -17.730  1.00  0.00    -0.237 OA
ATOM    111  O   UNL     1       7.311  11.407 -18.637  1.00  0.00    -0.237 OA
ATOM    112  O   UNL     1       5.663  12.874 -19.734  1.00  0.00    -0.744 OA
ENDBRANCH 108 109
ENDBRANCH  76 101
ENDBRANCH  50  51
ENDBRANCH  42  45
ENDBRANCH  40  41
ENDBRANCH  39  40
ENDBRANCH  38  39
ENDBRANCH  37  38
ENDBRANCH  36  37
ENDBRANCH   1  36
TORSDOF 27
