REMARK SMILES COc1cc(-c2ccc(NC(=O)CCC(=O)NCCCCCCNC(=O)c3ccc(-c4c5nc(c(-c6c(F)cc(S(=O)(=O)[O-])cc6F)c6ccc([nH]6)c(-c6c(F)cc(S(=O)(=O)[O-])cc6F)c6nc(c(-c7c(F)cc(S(=O)(=O)[O-])cc7F)c7ccc4[nH]7)C=C6)C=C5)cc3)c(OC)c2)ccc1N
REMARK SMILES IDX 19 1 18 2 17 3 15 4 16 5 14 7 13 8 11 9 10 10 12 12 9 13
REMARK SMILES IDX 6 14 7 15 96 16 8 17 93 18 5 19 3 20 4 21 99 22 98 23 97 24
REMARK SMILES IDX 2 25 1 26 100 27 94 30 95 31 20 32 21 33 22 34 23 35 24 36
REMARK SMILES IDX 25 37 26 39 27 40 28 41 92 42 29 43 91 44 30 45 31 46 32 47
REMARK SMILES IDX 85 48 33 49 90 50 84 51 86 52 34 53 89 54 83 55 82 56 35 58
REMARK SMILES IDX 69 59 48 60 68 61 49 62 52 63 67 64 87 65 50 66 51 67 66 69
REMARK SMILES IDX 88 70 53 71 36 72 37 73 46 74 38 75 39 76 45 77 47 78 40 79
REMARK SMILES IDX 41 80 42 81 43 82 44 83 70 84 71 85 80 86 72 87 73 88 79 89
REMARK SMILES IDX 81 90 74 91 75 92 76 93 77 94 78 95 54 96 55 97 64 98 56 99
REMARK SMILES IDX 57 100 63 101 65 102 58 103 59 104 60 105 61 106 62 107
REMARK H PARENT 17 6 10 11 100 28 100 29 24 38 86 57 52 68
REMARK Flexibility Score: inf
ROOT
ATOM      1  C   UNL     1      -3.950  -1.420   8.675  1.00  0.00     0.021 C 
ENDROOT
BRANCH   1   2
ATOM      2  C   UNL     1      -4.828  -0.820   7.499  1.00  0.00     0.116 C 
BRANCH   2   3
ATOM      3  N   UNL     1      -4.543  -0.948   6.012  1.00  0.00    -0.356 N 
ATOM      4  C   UNL     1      -4.758  -1.754   4.893  1.00  0.00     0.220 C 
ATOM      5  O   UNL     1      -4.464  -1.163   3.833  1.00  0.00    -0.275 OA
ATOM      6  H   UNL     1      -4.006  -0.171   5.733  1.00  0.00     0.163 HD
BRANCH   4   7
ATOM      7  C   UNL     1      -5.268  -3.304   4.720  1.00  0.00     0.110 C 
BRANCH   7   8
ATOM      8  C   UNL     1      -4.316  -4.655   4.615  1.00  0.00     0.110 C 
BRANCH   8   9
ATOM      9  C   UNL     1      -3.970  -5.791   5.758  1.00  0.00     0.224 C 
ATOM     10  N   UNL     1      -2.892  -5.706   6.660  1.00  0.00    -0.323 N 
ATOM     11  H   UNL     1      -2.672  -6.507   7.189  1.00  0.00     0.170 HD
ATOM     12  O   UNL     1      -4.663  -6.815   5.831  1.00  0.00    -0.275 OA
BRANCH  10  13
ATOM     13  C   UNL     1      -2.114  -4.563   6.855  1.00  0.00     0.083 A 
ATOM     14  C   UNL     1      -0.506  -2.616   5.698  1.00  0.00    -0.014 A 
ATOM     15  C   UNL     1      -0.008  -3.461   6.712  1.00  0.00     0.011 A 
ATOM     16  C   UNL     1      -1.900  -2.529   5.703  1.00  0.00     0.057 A 
ATOM     17  C   UNL     1      -0.801  -4.492   7.259  1.00  0.00     0.031 A 
ATOM     18  C   UNL     1      -2.688  -3.406   6.481  1.00  0.00     0.142 A 
BRANCH  14  19
ATOM     19  C   UNL     1       0.393  -1.949   4.678  1.00  0.00    -0.014 A 
ATOM     20  C   UNL     1       0.864  -0.590   2.647  1.00  0.00     0.142 A 
ATOM     21  C   UNL     1      -0.039  -1.108   3.619  1.00  0.00     0.057 A 
ATOM     22  C   UNL     1       2.243  -0.819   2.754  1.00  0.00     0.074 A 
ATOM     23  C   UNL     1       2.665  -1.717   3.724  1.00  0.00     0.030 A 
ATOM     24  C   UNL     1       1.768  -2.257   4.657  1.00  0.00     0.011 A 
BRANCH  20  25
ATOM     25  O   UNL     1       0.339   0.227   1.666  1.00  0.00    -0.495 OA
ATOM     26  C   UNL     1       0.545  -0.277   0.341  1.00  0.00     0.278 C 
ENDBRANCH  20  25
BRANCH  22  27
ATOM     27  N   UNL     1       3.183  -0.286   1.874  1.00  0.00    -0.396 N 
ATOM     28  H   UNL     1       2.900   0.352   1.180  1.00  0.00     0.156 HD
ATOM     29  H   UNL     1       4.129  -0.547   1.947  1.00  0.00     0.156 HD
ENDBRANCH  22  27
ENDBRANCH  14  19
BRANCH  18  30
ATOM     30  O   UNL     1      -4.029  -3.264   6.704  1.00  0.00    -0.495 OA
ATOM     31  C   UNL     1      -4.908  -3.988   7.616  1.00  0.00     0.278 C 
ENDBRANCH  18  30
ENDBRANCH  10  13
ENDBRANCH   8   9
ENDBRANCH   7   8
ENDBRANCH   4   7
ENDBRANCH   2   3
ENDBRANCH   1   2
BRANCH   1  32
ATOM     32  C   UNL     1      -2.677  -0.766   9.214  1.00  0.00     0.002 C 
BRANCH  32  33
ATOM     33  C   UNL     1      -2.881   0.183  10.394  1.00  0.00     0.002 C 
BRANCH  33  34
ATOM     34  C   UNL     1      -3.654  -0.368  11.608  1.00  0.00     0.021 C 
BRANCH  34  35
ATOM     35  C   UNL     1      -3.063  -1.601  12.297  1.00  0.00     0.116 C 
BRANCH  35  36
ATOM     36  N   UNL     1      -1.805  -1.305  12.964  1.00  0.00    -0.352 N 
ATOM     37  C   UNL     1      -1.538  -1.131  14.307  1.00  0.00     0.251 C 
ATOM     38  H   UNL     1      -1.027  -1.214  12.368  1.00  0.00     0.163 HD
ATOM     39  O   UNL     1      -0.487  -0.625  14.659  1.00  0.00    -0.269 OA
BRANCH  37  40
ATOM     40  C   UNL     1      -2.533  -1.557  15.321  1.00  0.00     0.039 A 
ATOM     41  C   UNL     1      -2.832  -0.701  16.385  1.00  0.00     0.014 A 
ATOM     42  C   UNL     1      -3.137  -2.814  15.246  1.00  0.00     0.014 A 
ATOM     43  C   UNL     1      -3.781  -1.084  17.340  1.00  0.00     0.010 A 
ATOM     44  C   UNL     1      -4.134  -3.164  16.157  1.00  0.00     0.010 A 
ATOM     45  C   UNL     1      -4.463  -2.307  17.218  1.00  0.00    -0.014 A 
BRANCH  45  46
ATOM     46  C   UNL     1      -5.509  -2.708  18.198  1.00  0.00     0.031 A 
ATOM     47  C   UNL     1      -5.316  -3.930  19.058  1.00  0.00     0.074 A 
ATOM     48  C   UNL     1      -6.655  -2.003  18.280  1.00  0.00     0.049 A 
ATOM     49  N   UNL     1      -6.128  -4.463  19.935  1.00  0.00    -0.248 NA
ATOM     50  C   UNL     1      -4.053  -4.667  18.890  1.00  0.00     0.031 C 
ATOM     51  C   UNL     1      -6.983  -0.826  17.473  1.00  0.00     0.029 A 
ATOM     52  N   UNL     1      -7.760  -2.172  19.078  1.00  0.00    -0.354 N 
ATOM     53  C   UNL     1      -5.480  -5.595  20.417  1.00  0.00     0.074 A 
ATOM     54  C   UNL     1      -4.237  -5.710  19.685  1.00  0.00     0.031 C 
ATOM     55  C   UNL     1      -8.188  -0.361  17.838  1.00  0.00     0.029 A 
ATOM     56  C   UNL     1      -8.739  -1.227  18.877  1.00  0.00     0.049 A 
ATOM     57  H   UNL     1      -7.843  -2.902  19.734  1.00  0.00     0.167 HD
ATOM     58  C   UNL     1      -5.868  -6.445  21.399  1.00  0.00     0.037 A 
ATOM     59  C   UNL     1      -9.944  -1.076  19.460  1.00  0.00     0.037 A 
ATOM     60  C   UNL     1      -7.102  -6.317  22.132  1.00  0.00     0.049 A 
ATOM     61  C   UNL     1     -10.365  -2.044  20.534  1.00  0.00     0.074 A 
ATOM     62  C   UNL     1      -7.571  -7.101  23.172  1.00  0.00     0.029 A 
ATOM     63  N   UNL     1      -8.064  -5.344  21.901  1.00  0.00    -0.354 N 
ATOM     64  N   UNL     1      -9.713  -3.075  21.017  1.00  0.00    -0.248 NA
ATOM     65  C   UNL     1     -11.681  -1.824  21.148  1.00  0.00     0.031 C 
ATOM     66  C   UNL     1      -8.839  -6.633  23.535  1.00  0.00     0.029 A 
ATOM     67  C   UNL     1      -9.134  -5.520  22.764  1.00  0.00     0.049 A 
ATOM     68  H   UNL     1      -7.997  -4.633  21.223  1.00  0.00     0.167 HD
ATOM     69  C   UNL     1     -10.523  -3.605  22.016  1.00  0.00     0.074 A 
ATOM     70  C   UNL     1     -11.709  -2.774  22.073  1.00  0.00     0.031 C 
ATOM     71  C   UNL     1     -10.305  -4.679  22.815  1.00  0.00     0.037 A 
BRANCH  58  72
ATOM     72  C   UNL     1      -4.944  -7.586  21.737  1.00  0.00     0.058 A 
ATOM     73  C   UNL     1      -3.694  -7.370  22.340  1.00  0.00     0.135 A 
ATOM     74  C   UNL     1      -5.319  -8.914  21.474  1.00  0.00     0.135 A 
ATOM     75  F   UNL     1      -3.277  -6.121  22.603  1.00  0.00    -0.206 F 
ATOM     76  C   UNL     1      -2.832  -8.422  22.631  1.00  0.00     0.059 A 
ATOM     77  C   UNL     1      -4.486  -9.986  21.788  1.00  0.00     0.059 A 
ATOM     78  F   UNL     1      -6.503  -9.183  20.901  1.00  0.00    -0.206 F 
ATOM     79  C   UNL     1      -3.236  -9.728  22.349  1.00  0.00     0.060 A 
BRANCH  79  80
ATOM     80  S   UNL     1      -2.101 -11.080  22.723  1.00  0.00     0.124 S 
ATOM     81  O   UNL     1      -1.082 -10.897  21.693  1.00  0.00    -0.237 OA
ATOM     82  O   UNL     1      -1.685 -10.770  24.087  1.00  0.00    -0.237 OA
ATOM     83  O   UNL     1      -2.930 -12.272  22.579  1.00  0.00    -0.744 OA
ENDBRANCH  79  80
ENDBRANCH  58  72
BRANCH  59  84
ATOM     84  C   UNL     1     -10.826   0.058  19.068  1.00  0.00     0.058 A 
ATOM     85  C   UNL     1     -11.078   1.116  19.955  1.00  0.00     0.135 A 
ATOM     86  C   UNL     1     -11.428   0.113  17.801  1.00  0.00     0.135 A 
ATOM     87  F   UNL     1     -10.533   1.107  21.181  1.00  0.00    -0.206 F 
ATOM     88  C   UNL     1     -11.907   2.178  19.609  1.00  0.00     0.059 A 
ATOM     89  C   UNL     1     -12.238   1.179  17.421  1.00  0.00     0.059 A 
ATOM     90  F   UNL     1     -11.207  -0.864  16.908  1.00  0.00    -0.206 F 
ATOM     91  C   UNL     1     -12.481   2.202  18.337  1.00  0.00     0.060 A 
BRANCH  91  92
ATOM     92  S   UNL     1     -13.518   3.609  17.882  1.00  0.00     0.124 S 
ATOM     93  O   UNL     1     -14.707   3.371  18.691  1.00  0.00    -0.237 OA
ATOM     94  O   UNL     1     -12.688   4.741  18.282  1.00  0.00    -0.237 OA
ATOM     95  O   UNL     1     -13.691   3.446  16.441  1.00  0.00    -0.744 OA
ENDBRANCH  91  92
ENDBRANCH  59  84
BRANCH  71  96
ATOM     96  C   UNL     1     -11.347  -4.992  23.855  1.00  0.00     0.058 A 
ATOM     97  C   UNL     1     -12.608  -5.504  23.514  1.00  0.00     0.135 A 
ATOM     98  C   UNL     1     -11.060  -4.816  25.220  1.00  0.00     0.135 A 
ATOM     99  F   UNL     1     -12.938  -5.687  22.225  1.00  0.00    -0.206 F 
ATOM    100  C   UNL     1     -13.560  -5.801  24.485  1.00  0.00     0.059 A 
ATOM    101  C   UNL     1     -11.984  -5.137  26.209  1.00  0.00     0.059 A 
ATOM    102  F   UNL     1      -9.865  -4.340  25.604  1.00  0.00    -0.206 F 
ATOM    103  C   UNL     1     -13.237  -5.615  25.831  1.00  0.00     0.060 A 
BRANCH 103 104
ATOM    104  S   UNL     1     -14.471  -6.028  27.082  1.00  0.00     0.124 S 
ATOM    105  O   UNL     1     -15.428  -4.937  26.922  1.00  0.00    -0.237 OA
ATOM    106  O   UNL     1     -14.930  -7.343  26.645  1.00  0.00    -0.237 OA
ATOM    107  O   UNL     1     -13.710  -6.018  28.328  1.00  0.00    -0.744 OA
ENDBRANCH 103 104
ENDBRANCH  71  96
ENDBRANCH  45  46
ENDBRANCH  37  40
ENDBRANCH  35  36
ENDBRANCH  34  35
ENDBRANCH  33  34
ENDBRANCH  32  33
ENDBRANCH   1  32
TORSDOF 23
