REMARK SMILES O=C(NCCCCCCNC(=O)[C@@H]1CC2(CC[NH2+]CC2)C[N@@H+]1Cc1cccc2nonc12)c1ccc(-c2c3nc(c(-c4c(F)cc(S(=O)(=O)[O-])cc4F)c4ccc([nH]4)c(-c4c(F)cc(S(=O)(=O)[O-])cc4F)c4nc(c(-c5c(F)cc(S(=O)(=O)[O-])cc5F)c5ccc2[nH]5)C=C4)C=C3)cc1
REMARK SMILES IDX 6 1 5 2 4 3 3 4 1 5 2 6 33 8 34 9 98 10 35 11 97 12 36 13
REMARK SMILES IDX 37 14 38 15 91 16 39 17 96 18 90 19 92 20 40 21 95 22 89 23
REMARK SMILES IDX 88 24 41 26 75 27 54 28 74 29 55 30 58 31 73 32 93 33 56 34
REMARK SMILES IDX 57 35 72 37 94 38 59 39 42 40 43 41 52 42 44 43 45 44 51 45
REMARK SMILES IDX 53 46 46 47 47 48 48 49 49 50 50 51 76 52 77 53 86 54 78 55
REMARK SMILES IDX 79 56 85 57 87 58 80 59 81 60 82 61 83 62 84 63 60 64 61 65
REMARK SMILES IDX 70 66 62 67 63 68 69 69 71 70 64 71 65 72 66 73 67 74 68 75
REMARK SMILES IDX 7 76 8 77 9 78 10 79 11 80 12 82 13 83 14 84 22 85 15 86
REMARK SMILES IDX 21 87 16 89 20 90 17 91 19 92 18 93 23 96 24 97 25 98 32 99
REMARK SMILES IDX 26 100 28 101 31 102 27 103 29 104 30 105
REMARK H PARENT 3 7 92 25 58 36 10 81 22 88 18 94 18 95
REMARK Flexibility Score: inf
ROOT
ATOM      1  C   UNL     1       4.385   1.592   2.862  1.00  0.00     0.002 C 
ENDROOT
BRANCH   1   2
ATOM      2  C   UNL     1       4.784   1.369   1.394  1.00  0.00     0.021 C 
BRANCH   2   3
ATOM      3  C   UNL     1       4.267   0.059   0.782  1.00  0.00     0.116 C 
BRANCH   3   4
ATOM      4  N   UNL     1       2.817   0.081   0.732  1.00  0.00    -0.352 N 
ATOM      5  O   UNL     1       0.848   0.359  -0.262  1.00  0.00    -0.269 OA
ATOM      6  C   UNL     1       1.957  -0.174  -0.297  1.00  0.00     0.251 C 
ATOM      7  H   UNL     1       2.380   0.319   1.582  1.00  0.00     0.163 HD
BRANCH   6   8
ATOM      8  C   UNL     1       2.289  -1.093  -1.411  1.00  0.00     0.039 A 
ATOM      9  C   UNL     1       1.608  -0.900  -2.620  1.00  0.00     0.014 A 
ATOM     10  C   UNL     1       3.088  -2.229  -1.243  1.00  0.00     0.014 A 
ATOM     11  C   UNL     1       1.710  -1.836  -3.647  1.00  0.00     0.010 A 
ATOM     12  C   UNL     1       3.196  -3.166  -2.279  1.00  0.00     0.010 A 
ATOM     13  C   UNL     1       2.501  -2.980  -3.483  1.00  0.00    -0.014 A 
BRANCH  13  14
ATOM     14  C   UNL     1       2.597  -3.922  -4.618  1.00  0.00     0.031 A 
ATOM     15  C   UNL     1       3.982  -4.303  -5.021  1.00  0.00     0.074 A 
ATOM     16  C   UNL     1       1.579  -4.752  -4.940  1.00  0.00     0.049 A 
ATOM     17  N   UNL     1       4.675  -5.184  -4.362  1.00  0.00    -0.248 NA
ATOM     18  C   UNL     1       4.761  -3.566  -6.015  1.00  0.00     0.031 C 
ATOM     19  C   UNL     1       0.597  -5.240  -3.962  1.00  0.00     0.029 A 
ATOM     20  N   UNL     1       1.331  -5.503  -6.068  1.00  0.00    -0.354 N 
ATOM     21  C   UNL     1       5.976  -5.117  -4.818  1.00  0.00     0.074 A 
ATOM     22  C   UNL     1       5.983  -4.102  -5.849  1.00  0.00     0.031 C 
ATOM     23  C   UNL     1      -0.024  -6.322  -4.475  1.00  0.00     0.029 A 
ATOM     24  C   UNL     1       0.390  -6.515  -5.864  1.00  0.00     0.049 A 
ATOM     25  H   UNL     1       1.772  -5.341  -6.933  1.00  0.00     0.167 HD
ATOM     26  C   UNL     1       6.966  -5.900  -4.316  1.00  0.00     0.037 A 
ATOM     27  C   UNL     1       0.392  -7.733  -6.478  1.00  0.00     0.037 A 
ATOM     28  C   UNL     1       6.559  -6.821  -3.295  1.00  0.00     0.049 A 
ATOM     29  C   UNL     1       1.670  -8.332  -5.948  1.00  0.00     0.074 A 
ATOM     30  C   UNL     1       6.503  -6.846  -1.919  1.00  0.00     0.029 A 
ATOM     31  N   UNL     1       5.977  -8.003  -3.692  1.00  0.00    -0.354 N 
ATOM     32  N   UNL     1       1.832  -8.883  -4.774  1.00  0.00    -0.248 NA
ATOM     33  C   UNL     1       2.915  -7.978  -6.634  1.00  0.00     0.031 C 
ATOM     34  C   UNL     1       5.486  -7.800  -1.598  1.00  0.00     0.029 A 
ATOM     35  C   UNL     1       4.963  -8.263  -2.804  1.00  0.00     0.049 A 
ATOM     36  H   UNL     1       6.237  -8.555  -4.464  1.00  0.00     0.167 HD
ATOM     37  C   UNL     1       3.179  -8.695  -4.460  1.00  0.00     0.074 A 
ATOM     38  C   UNL     1       3.789  -8.141  -5.652  1.00  0.00     0.031 C 
ATOM     39  C   UNL     1       3.695  -8.829  -3.204  1.00  0.00     0.037 A 
BRANCH  26  40
ATOM     40  C   UNL     1       8.339  -5.983  -4.849  1.00  0.00     0.058 A 
ATOM     41  C   UNL     1       8.651  -7.051  -5.703  1.00  0.00     0.135 A 
ATOM     42  C   UNL     1       9.386  -5.199  -4.354  1.00  0.00     0.135 A 
ATOM     43  F   UNL     1       7.668  -7.833  -6.182  1.00  0.00    -0.206 F 
ATOM     44  C   UNL     1       9.963  -7.373  -6.014  1.00  0.00     0.059 A 
ATOM     45  C   UNL     1      10.714  -5.498  -4.659  1.00  0.00     0.059 A 
ATOM     46  F   UNL     1       9.134  -4.174  -3.525  1.00  0.00    -0.206 F 
ATOM     47  C   UNL     1      10.990  -6.604  -5.467  1.00  0.00     0.060 A 
BRANCH  47  48
ATOM     48  S   UNL     1      12.691  -7.118  -5.789  1.00  0.00     0.124 S 
ATOM     49  O   UNL     1      12.730  -8.436  -5.165  1.00  0.00    -0.237 OA
ATOM     50  O   UNL     1      12.738  -7.102  -7.247  1.00  0.00    -0.237 OA
ATOM     51  O   UNL     1      13.487  -6.088  -5.128  1.00  0.00    -0.744 OA
ENDBRANCH  47  48
ENDBRANCH  26  40
BRANCH  27  52
ATOM     52  C   UNL     1       0.021  -7.748  -7.933  1.00  0.00     0.058 A 
ATOM     53  C   UNL     1      -1.136  -7.053  -8.348  1.00  0.00     0.135 A 
ATOM     54  C   UNL     1       0.725  -8.421  -8.945  1.00  0.00     0.135 A 
ATOM     55  F   UNL     1      -1.954  -6.496  -7.441  1.00  0.00    -0.206 F 
ATOM     56  C   UNL     1      -1.479  -6.904  -9.690  1.00  0.00     0.059 A 
ATOM     57  C   UNL     1       0.419  -8.265 -10.300  1.00  0.00     0.059 A 
ATOM     58  F   UNL     1       1.748  -9.236  -8.652  1.00  0.00    -0.206 F 
ATOM     59  C   UNL     1      -0.667  -7.475 -10.664  1.00  0.00     0.060 A 
BRANCH  59  60
ATOM     60  S   UNL     1      -1.010  -7.116 -12.399  1.00  0.00     0.124 S 
ATOM     61  O   UNL     1      -2.307  -7.761 -12.591  1.00  0.00    -0.237 OA
ATOM     62  O   UNL     1      -1.025  -5.654 -12.402  1.00  0.00    -0.237 OA
ATOM     63  O   UNL     1       0.107  -7.726 -13.101  1.00  0.00    -0.744 OA
ENDBRANCH  59  60
ENDBRANCH  27  52
BRANCH  39  64
ATOM     64  C   UNL     1       2.792  -9.406  -2.168  1.00  0.00     0.058 A 
ATOM     65  C   UNL     1       2.531 -10.783  -2.158  1.00  0.00     0.135 A 
ATOM     66  C   UNL     1       2.277  -8.630  -1.117  1.00  0.00     0.135 A 
ATOM     67  F   UNL     1       3.007 -11.570  -3.136  1.00  0.00    -0.206 F 
ATOM     68  C   UNL     1       1.835 -11.380  -1.112  1.00  0.00     0.059 A 
ATOM     69  C   UNL     1       1.594  -9.210  -0.050  1.00  0.00     0.059 A 
ATOM     70  F   UNL     1       2.481  -7.303  -1.081  1.00  0.00    -0.206 F 
ATOM     71  C   UNL     1       1.394 -10.590  -0.049  1.00  0.00     0.060 A 
BRANCH  71  72
ATOM     72  S   UNL     1       0.647 -11.408   1.376  1.00  0.00     0.124 S 
ATOM     73  O   UNL     1      -0.606 -11.908   0.822  1.00  0.00    -0.237 OA
ATOM     74  O   UNL     1       1.644 -12.424   1.705  1.00  0.00    -0.237 OA
ATOM     75  O   UNL     1       0.514 -10.336   2.359  1.00  0.00    -0.744 OA
ENDBRANCH  71  72
ENDBRANCH  39  64
ENDBRANCH  13  14
ENDBRANCH   6   8
ENDBRANCH   3   4
ENDBRANCH   2   3
ENDBRANCH   1   2
BRANCH   1  76
ATOM     76  C   UNL     1       5.027   0.619   3.854  1.00  0.00     0.002 C 
BRANCH  76  77
ATOM     77  C   UNL     1       6.562   0.670   3.906  1.00  0.00     0.021 C 
BRANCH  77  78
ATOM     78  C   UNL     1       7.140   2.053   4.240  1.00  0.00     0.116 C 
BRANCH  78  79
ATOM     79  N   UNL     1       6.675   2.478   5.542  1.00  0.00    -0.351 N 
ATOM     80  C   UNL     1       7.276   2.169   6.729  1.00  0.00     0.278 C 
ATOM     81  H   UNL     1       5.863   3.033   5.575  1.00  0.00     0.163 HD
ATOM     82  O   UNL     1       6.534   1.806   7.641  1.00  0.00    -0.268 OA
BRANCH  80  83
ATOM     83  C   UNL     1       8.808   2.314   6.831  1.00  0.00     0.275 C 
ATOM     84  C   UNL     1       9.512   0.976   6.608  1.00  0.00     0.089 C 
ATOM     85  N   UNL     1       9.296   2.728   8.146  1.00  0.00    -0.320 N 
ATOM     86  C   UNL     1       9.823   0.420   8.016  1.00  0.00     0.036 C 
ATOM     87  C   UNL     1      10.033   1.699   8.843  1.00  0.00     0.270 C 
ATOM     88  H   UNL     1       9.890   3.530   7.936  1.00  0.00     0.349 HD
ATOM     89  C   UNL     1      11.081  -0.469   8.010  1.00  0.00     0.074 C 
ATOM     90  C   UNL     1       8.667  -0.429   8.601  1.00  0.00     0.074 C 
ATOM     91  C   UNL     1      10.835  -1.795   7.285  1.00  0.00     0.261 C 
ATOM     92  C   UNL     1       8.485  -1.755   7.863  1.00  0.00     0.261 C 
ATOM     93  N   UNL     1       9.720  -2.540   7.868  1.00  0.00    -0.346 N 
ATOM     94  H   UNL     1       9.953  -2.784   8.831  1.00  0.00     0.346 HD
ATOM     95  H   UNL     1       9.568  -3.377   7.306  1.00  0.00     0.346 HD
BRANCH  85  96
ATOM     96  C   UNL     1       8.875   3.944   8.807  1.00  0.00     0.302 C 
BRANCH  96  97
ATOM     97  C   UNL     1       7.491   3.871   9.386  1.00  0.00     0.038 A 
ATOM     98  C   UNL     1       7.165   2.994  10.456  1.00  0.00     0.012 A 
ATOM     99  C   UNL     1       6.358   4.511   8.826  1.00  0.00     0.144 A 
ATOM    100  C   UNL     1       5.837   2.706  10.870  1.00  0.00     0.003 A 
ATOM    101  C   UNL     1       4.996   4.214   9.256  1.00  0.00     0.135 A 
ATOM    102  N   UNL     1       6.292   5.409   7.832  1.00  0.00    -0.049 NA
ATOM    103  C   UNL     1       4.707   3.290  10.275  1.00  0.00     0.034 A 
ATOM    104  N   UNL     1       4.152   4.939   8.511  1.00  0.00    -0.050 NA
ATOM    105  O   UNL     1       4.945   5.661   7.638  1.00  0.00    -0.243 OA
ENDBRANCH  96  97
ENDBRANCH  85  96
ENDBRANCH  80  83
ENDBRANCH  78  79
ENDBRANCH  77  78
ENDBRANCH  76  77
ENDBRANCH   1  76
TORSDOF 18
