REMARK SMILES O=C(NCCCCCCNC(=O)c1cncc(Nc2cc(Cl)ccc2Cl)n1)c1ccc(-c2c3nc(c(-c4c(F)cc(S(=O)(=O)[O-])cc4F)c4ccc([nH]4)c(-c4c(F)cc(S(=O)(=O)[O-])cc4F)c4nc(c(-c5c(F)cc(S(=O)(=O)[O-])cc5F)c5ccc2[nH]5)C=C4)C=C3)cc1
REMARK SMILES IDX 6 1 5 2 4 3 3 4 1 5 2 6 28 8 29 9 93 10 30 11 92 12 31 13
REMARK SMILES IDX 32 14 33 15 86 16 34 17 91 18 85 19 87 20 35 21 90 22 84 23
REMARK SMILES IDX 83 24 36 26 70 27 49 28 69 29 50 30 53 31 68 32 88 33 51 34
REMARK SMILES IDX 52 35 67 37 89 38 54 39 37 40 38 41 47 42 39 43 40 44 46 45
REMARK SMILES IDX 48 46 41 47 42 48 43 49 44 50 45 51 71 52 72 53 81 54 73 55
REMARK SMILES IDX 74 56 80 57 82 58 75 59 76 60 77 61 78 62 79 63 55 64 56 65
REMARK SMILES IDX 65 66 57 67 58 68 64 69 66 70 59 71 60 72 61 73 62 74 63 75
REMARK SMILES IDX 7 76 8 77 9 78 10 79 11 80 12 82 13 83 14 84 27 85 15 86
REMARK SMILES IDX 17 87 16 88 18 89 19 91 20 92 25 93 21 94 24 95 26 96 22 97
REMARK SMILES IDX 23 98
REMARK H PARENT 3 7 87 25 53 36 10 81 18 90
REMARK Flexibility Score: inf
ROOT
ATOM      1  C   UNL     1       4.134  -3.961   0.232  1.00  0.00     0.002 C 
ENDROOT
BRANCH   1   2
ATOM      2  C   UNL     1       4.600  -2.637   0.839  1.00  0.00     0.021 C 
BRANCH   2   3
ATOM      3  C   UNL     1       4.362  -1.402  -0.024  1.00  0.00     0.116 C 
BRANCH   3   4
ATOM      4  N   UNL     1       2.952  -1.145  -0.266  1.00  0.00    -0.352 N 
ATOM      5  O   UNL     1       1.017   0.009  -0.215  1.00  0.00    -0.269 OA
ATOM      6  C   UNL     1       2.239   0.017  -0.090  1.00  0.00     0.251 C 
ATOM      7  H   UNL     1       2.435  -1.912  -0.602  1.00  0.00     0.163 HD
BRANCH   6   8
ATOM      8  C   UNL     1       2.940   1.268   0.277  1.00  0.00     0.039 A 
ATOM      9  C   UNL     1       4.114   1.652  -0.376  1.00  0.00     0.014 A 
ATOM     10  C   UNL     1       2.409   2.070   1.291  1.00  0.00     0.014 A 
ATOM     11  C   UNL     1       4.827   2.759   0.074  1.00  0.00     0.010 A 
ATOM     12  C   UNL     1       3.088   3.225   1.692  1.00  0.00     0.010 A 
ATOM     13  C   UNL     1       4.320   3.561   1.110  1.00  0.00    -0.014 A 
BRANCH  13  14
ATOM     14  C   UNL     1       5.074   4.768   1.538  1.00  0.00     0.031 A 
ATOM     15  C   UNL     1       5.676   4.862   2.913  1.00  0.00     0.074 A 
ATOM     16  C   UNL     1       5.235   5.777   0.660  1.00  0.00     0.049 A 
ATOM     17  N   UNL     1       6.388   5.828   3.436  1.00  0.00    -0.248 NA
ATOM     18  C   UNL     1       5.443   3.730   3.823  1.00  0.00     0.031 C 
ATOM     19  C   UNL     1       4.688   5.805  -0.698  1.00  0.00     0.029 A 
ATOM     20  N   UNL     1       5.916   6.962   0.768  1.00  0.00    -0.354 N 
ATOM     21  C   UNL     1       6.669   5.435   4.739  1.00  0.00     0.074 A 
ATOM     22  C   UNL     1       6.031   4.150   4.935  1.00  0.00     0.031 C 
ATOM     23  C   UNL     1       5.095   6.925  -1.313  1.00  0.00     0.029 A 
ATOM     24  C   UNL     1       5.885   7.719  -0.378  1.00  0.00     0.049 A 
ATOM     25  H   UNL     1       6.383   7.243   1.588  1.00  0.00     0.167 HD
ATOM     26  C   UNL     1       7.397   6.083   5.682  1.00  0.00     0.037 A 
ATOM     27  C   UNL     1       6.425   8.922  -0.648  1.00  0.00     0.037 A 
ATOM     28  C   UNL     1       8.041   7.356   5.476  1.00  0.00     0.049 A 
ATOM     29  C   UNL     1       7.220   9.623   0.414  1.00  0.00     0.074 A 
ATOM     30  C   UNL     1       8.832   8.075   6.356  1.00  0.00     0.029 A 
ATOM     31  N   UNL     1       7.964   8.104   4.309  1.00  0.00    -0.354 N 
ATOM     32  N   UNL     1       7.502   9.221   1.630  1.00  0.00    -0.248 NA
ATOM     33  C   UNL     1       7.767  10.942   0.070  1.00  0.00     0.031 C 
ATOM     34  C   UNL     1       9.202   9.274   5.734  1.00  0.00     0.029 A 
ATOM     35  C   UNL     1       8.677   9.284   4.452  1.00  0.00     0.049 A 
ATOM     36  H   UNL     1       7.475   7.835   3.498  1.00  0.00     0.167 HD
ATOM     37  C   UNL     1       8.276  10.229   2.192  1.00  0.00     0.074 A 
ATOM     38  C   UNL     1       8.425  11.255   1.178  1.00  0.00     0.031 C 
ATOM     39  C   UNL     1       8.815  10.297   3.434  1.00  0.00     0.037 A 
BRANCH  26  40
ATOM     40  C   UNL     1       7.511   5.434   7.035  1.00  0.00     0.058 A 
ATOM     41  C   UNL     1       8.294   4.287   7.243  1.00  0.00     0.135 A 
ATOM     42  C   UNL     1       6.835   5.973   8.142  1.00  0.00     0.135 A 
ATOM     43  F   UNL     1       8.952   3.722   6.217  1.00  0.00    -0.206 F 
ATOM     44  C   UNL     1       8.369   3.673   8.489  1.00  0.00     0.059 A 
ATOM     45  C   UNL     1       6.915   5.389   9.404  1.00  0.00     0.059 A 
ATOM     46  F   UNL     1       6.077   7.071   8.002  1.00  0.00    -0.206 F 
ATOM     47  C   UNL     1       7.667   4.226   9.562  1.00  0.00     0.060 A 
BRANCH  47  48
ATOM     48  S   UNL     1       7.744   3.401  11.166  1.00  0.00     0.124 S 
ATOM     49  O   UNL     1       6.851   2.267  10.950  1.00  0.00    -0.237 OA
ATOM     50  O   UNL     1       9.162   3.075  11.286  1.00  0.00    -0.237 OA
ATOM     51  O   UNL     1       7.257   4.417  12.094  1.00  0.00    -0.744 OA
ENDBRANCH  47  48
ENDBRANCH  26  40
BRANCH  27  52
ATOM     52  C   UNL     1       6.244   9.516  -1.998  1.00  0.00     0.058 A 
ATOM     53  C   UNL     1       7.307   9.565  -2.909  1.00  0.00     0.135 A 
ATOM     54  C   UNL     1       4.991   9.986  -2.423  1.00  0.00     0.135 A 
ATOM     55  F   UNL     1       8.523   9.131  -2.545  1.00  0.00    -0.206 F 
ATOM     56  C   UNL     1       7.137  10.057  -4.199  1.00  0.00     0.059 A 
ATOM     57  C   UNL     1       4.790  10.460  -3.714  1.00  0.00     0.059 A 
ATOM     58  F   UNL     1       3.939   9.942  -1.590  1.00  0.00    -0.206 F 
ATOM     59  C   UNL     1       5.871  10.495  -4.594  1.00  0.00     0.060 A 
BRANCH  59  60
ATOM     60  S   UNL     1       5.639  11.049  -6.297  1.00  0.00     0.124 S 
ATOM     61  O   UNL     1       6.267  12.365  -6.265  1.00  0.00    -0.237 OA
ATOM     62  O   UNL     1       6.348  10.022  -7.055  1.00  0.00    -0.237 OA
ATOM     63  O   UNL     1       4.188  11.044  -6.456  1.00  0.00    -0.744 OA
ENDBRANCH  59  60
ENDBRANCH  27  52
BRANCH  39  64
ATOM     64  C   UNL     1       9.641  11.510   3.756  1.00  0.00     0.058 A 
ATOM     65  C   UNL     1       9.051  12.759   4.001  1.00  0.00     0.135 A 
ATOM     66  C   UNL     1      11.038  11.412   3.851  1.00  0.00     0.135 A 
ATOM     67  F   UNL     1       7.719  12.906   3.914  1.00  0.00    -0.206 F 
ATOM     68  C   UNL     1       9.820  13.877   4.306  1.00  0.00     0.059 A 
ATOM     69  C   UNL     1      11.825  12.512   4.177  1.00  0.00     0.059 A 
ATOM     70  F   UNL     1      11.650  10.238   3.633  1.00  0.00    -0.206 F 
ATOM     71  C   UNL     1      11.208  13.744   4.390  1.00  0.00     0.060 A 
BRANCH  71  72
ATOM     72  S   UNL     1      12.197  15.195   4.810  1.00  0.00     0.124 S 
ATOM     73  O   UNL     1      12.204  15.921   3.544  1.00  0.00    -0.237 OA
ATOM     74  O   UNL     1      11.422  15.804   5.886  1.00  0.00    -0.237 OA
ATOM     75  O   UNL     1      13.478  14.625   5.215  1.00  0.00    -0.744 OA
ENDBRANCH  71  72
ENDBRANCH  39  64
ENDBRANCH  13  14
ENDBRANCH   6   8
ENDBRANCH   3   4
ENDBRANCH   2   3
ENDBRANCH   1   2
BRANCH   1  76
ATOM     76  C   UNL     1       4.688  -4.286  -1.159  1.00  0.00     0.002 C 
BRANCH  76  77
ATOM     77  C   UNL     1       6.214  -4.241  -1.298  1.00  0.00     0.021 C 
BRANCH  77  78
ATOM     78  C   UNL     1       6.985  -5.135  -0.329  1.00  0.00     0.116 C 
BRANCH  78  79
ATOM     79  N   UNL     1       6.682  -6.543  -0.523  1.00  0.00    -0.351 N 
ATOM     80  C   UNL     1       7.556  -7.600  -0.648  1.00  0.00     0.271 C 
ATOM     81  H   UNL     1       5.726  -6.772  -0.572  1.00  0.00     0.163 HD
ATOM     82  O   UNL     1       7.133  -8.723  -0.903  1.00  0.00    -0.267 OA
BRANCH  80  83
ATOM     83  C   UNL     1       9.002  -7.375  -0.432  1.00  0.00     0.148 A 
ATOM     84  C   UNL     1       9.440  -6.947   0.811  1.00  0.00     0.145 A 
ATOM     85  N   UNL     1       9.840  -7.596  -1.482  1.00  0.00    -0.222 NA
ATOM     86  N   UNL     1      10.740  -6.681   1.054  1.00  0.00    -0.258 NA
ATOM     87  C   UNL     1      11.149  -7.362  -1.253  1.00  0.00     0.149 A 
ATOM     88  C   UNL     1      11.568  -6.889  -0.002  1.00  0.00     0.158 A 
BRANCH  87  89
ATOM     89  N   UNL     1      12.013  -7.569  -2.328  1.00  0.00    -0.338 N 
ATOM     90  H   UNL     1      11.555  -7.778  -3.174  1.00  0.00     0.168 HD
BRANCH  89  91
ATOM     91  C   UNL     1      13.414  -7.534  -2.430  1.00  0.00     0.060 A 
ATOM     92  C   UNL     1      14.232  -8.042  -1.409  1.00  0.00     0.048 A 
ATOM     93  C   UNL     1      14.039  -6.902  -3.523  1.00  0.00     0.064 A 
ATOM     94  C   UNL     1      15.619  -7.888  -1.459  1.00  0.00     0.043 A 
ATOM     95  C   UNL     1      15.428  -6.740  -3.567  1.00  0.00     0.024 A 
ATOM     96  Cl  UNL     1      13.104  -6.271  -4.835  1.00  0.00    -0.082 Cl
ATOM     97  Cl  UNL     1      16.591  -8.511  -0.184  1.00  0.00    -0.084 Cl
ATOM     98  C   UNL     1      16.219  -7.226  -2.526  1.00  0.00     0.022 A 
ENDBRANCH  89  91
ENDBRANCH  87  89
ENDBRANCH  80  83
ENDBRANCH  78  79
ENDBRANCH  77  78
ENDBRANCH  76  77
ENDBRANCH   1  76
TORSDOF 18
