REMARK SMILES Cc1ccc(S(=O)(=O)/C=C/C(=O)NCCCCCCNC(=O)c2ccc(-c3c4nc(c(-c5c(F)cc(S(=O)(=O)[O-])cc5F)c5ccc([nH]5)c(-c5c(F)cc(S(=O)(=O)[O-])cc5F)c5nc(c(-c6c(F)cc(S(=O)(=O)[O-])cc6F)c6ccc3[nH]6)C=C5)C=C4)cc2)cc1
REMARK SMILES IDX 17 1 16 2 15 3 14 4 13 5 11 6 12 7 10 9 9 10 6 11 7 12 8 13
REMARK SMILES IDX 5 14 1 15 2 16 3 17 90 18 4 19 89 20 18 21 19 22 20 23 21 24
REMARK SMILES IDX 22 26 23 27 24 28 88 29 25 30 87 31 26 32 27 33 28 34 81 35
REMARK SMILES IDX 29 36 86 37 80 38 82 39 30 40 85 41 79 42 78 43 31 45 65 46
REMARK SMILES IDX 44 47 64 48 45 49 48 50 63 51 83 52 46 53 47 54 62 56 84 57
REMARK SMILES IDX 49 58 32 59 33 60 42 61 34 62 35 63 41 64 43 65 36 66 37 67
REMARK SMILES IDX 38 68 39 69 40 70 66 71 67 72 76 73 68 74 69 75 75 76 77 77
REMARK SMILES IDX 70 78 71 79 72 80 73 81 74 82 50 83 51 84 60 85 52 86 53 87
REMARK SMILES IDX 59 88 61 89 54 90 55 91 56 92 57 93 58 94
REMARK H PARENT 13 8 20 25 82 44 48 55
REMARK Flexibility Score: inf
ROOT
ATOM      1  C   UNL     1      -8.768   5.514  -0.304  1.00  0.00     0.002 C 
ENDROOT
BRANCH   1   2
ATOM      2  C   UNL     1      -8.014   5.073   0.960  1.00  0.00     0.002 C 
BRANCH   2   3
ATOM      3  C   UNL     1      -7.283   3.727   0.891  1.00  0.00     0.021 C 
BRANCH   3   4
ATOM      4  C   UNL     1      -6.331   3.564  -0.291  1.00  0.00     0.116 C 
BRANCH   4   5
ATOM      5  N   UNL     1      -5.126   4.361  -0.135  1.00  0.00    -0.353 N 
ATOM      6  C   UNL     1      -3.832   3.994  -0.325  1.00  0.00     0.244 C 
ATOM      7  O   UNL     1      -2.917   4.810  -0.305  1.00  0.00    -0.270 OA
ATOM      8  H   UNL     1      -5.267   5.293   0.147  1.00  0.00     0.163 HD
BRANCH   6   9
ATOM      9  C   UNL     1      -3.531   2.583  -0.599  1.00  0.00     0.083 C 
ATOM     10  C   UNL     1      -3.701   1.668   0.365  1.00  0.00     0.117 C 
BRANCH  10  11
ATOM     11  S   UNL     1      -3.241   0.034   0.053  1.00  0.00     0.200 S 
ATOM     12  O   UNL     1      -3.587  -0.300  -1.315  1.00  0.00    -0.219 OA
ATOM     13  O   UNL     1      -3.709  -0.785   1.156  1.00  0.00    -0.219 OA
BRANCH  11  14
ATOM     14  C   UNL     1      -1.461  -0.015   0.130  1.00  0.00     0.071 A 
ATOM     15  C   UNL     1       2.826  -0.306   0.019  1.00  0.00     0.044 C 
ATOM     16  C   UNL     1       1.331  -0.203   0.069  1.00  0.00    -0.051 A 
ATOM     17  C   UNL     1       0.542  -1.346  -0.116  1.00  0.00     0.005 A 
ATOM     18  C   UNL     1       0.709   1.025   0.322  1.00  0.00     0.005 A 
ATOM     19  C   UNL     1      -0.850  -1.254  -0.092  1.00  0.00     0.021 A 
ATOM     20  C   UNL     1      -0.684   1.123   0.359  1.00  0.00     0.021 A 
ENDBRANCH  11  14
ENDBRANCH  10  11
ENDBRANCH   6   9
ENDBRANCH   4   5
ENDBRANCH   3   4
ENDBRANCH   2   3
ENDBRANCH   1   2
BRANCH   1  21
ATOM     21  C   UNL     1      -9.644   4.459  -0.984  1.00  0.00     0.021 C 
BRANCH  21  22
ATOM     22  C   UNL     1     -10.824   3.993  -0.141  1.00  0.00     0.116 C 
BRANCH  22  23
ATOM     23  N   UNL     1     -12.110   4.319  -0.742  1.00  0.00    -0.352 N 
ATOM     24  C   UNL     1     -13.324   3.705  -0.482  1.00  0.00     0.251 C 
ATOM     25  H   UNL     1     -12.117   5.052  -1.400  1.00  0.00     0.163 HD
ATOM     26  O   UNL     1     -14.247   3.667  -1.284  1.00  0.00    -0.269 OA
BRANCH  24  27
ATOM     27  C   UNL     1     -13.522   3.248   0.905  1.00  0.00     0.039 A 
ATOM     28  C   UNL     1     -14.314   4.055   1.733  1.00  0.00     0.014 A 
ATOM     29  C   UNL     1     -12.677   2.276   1.429  1.00  0.00     0.014 A 
ATOM     30  C   UNL     1     -14.111   4.027   3.106  1.00  0.00     0.010 A 
ATOM     31  C   UNL     1     -12.405   2.321   2.777  1.00  0.00     0.010 A 
ATOM     32  C   UNL     1     -13.084   3.231   3.602  1.00  0.00    -0.014 A 
BRANCH  32  33
ATOM     33  C   UNL     1     -12.588   3.297   4.966  1.00  0.00     0.031 A 
ATOM     34  C   UNL     1     -12.903   2.194   5.894  1.00  0.00     0.074 A 
ATOM     35  C   UNL     1     -11.694   4.256   5.285  1.00  0.00     0.049 A 
ATOM     36  N   UNL     1     -12.699   2.215   7.165  1.00  0.00    -0.248 NA
ATOM     37  C   UNL     1     -13.546   0.966   5.441  1.00  0.00     0.031 C 
ATOM     38  C   UNL     1     -10.764   4.266   6.408  1.00  0.00     0.029 A 
ATOM     39  N   UNL     1     -11.581   5.532   4.730  1.00  0.00    -0.354 N 
ATOM     40  C   UNL     1     -12.882   0.934   7.643  1.00  0.00     0.074 A 
ATOM     41  C   UNL     1     -13.511   0.230   6.554  1.00  0.00     0.031 C 
ATOM     42  C   UNL     1     -10.351   5.526   6.620  1.00  0.00     0.029 A 
ATOM     43  C   UNL     1     -11.138   6.389   5.755  1.00  0.00     0.049 A 
ATOM     44  H   UNL     1     -11.774   5.784   3.799  1.00  0.00     0.167 HD
ATOM     45  C   UNL     1     -12.333   0.606   8.850  1.00  0.00     0.037 A 
ATOM     46  C   UNL     1     -11.950   7.391   6.211  1.00  0.00     0.037 A 
ATOM     47  C   UNL     1     -11.844   1.817   9.521  1.00  0.00     0.049 A 
ATOM     48  C   UNL     1     -12.383   7.209   7.651  1.00  0.00     0.074 A 
ATOM     49  C   UNL     1     -10.584   2.379   9.645  1.00  0.00     0.029 A 
ATOM     50  N   UNL     1     -12.752   2.806   9.893  1.00  0.00    -0.354 N 
ATOM     51  N   UNL     1     -12.319   6.076   8.297  1.00  0.00    -0.248 NA
ATOM     52  C   UNL     1     -12.905   8.290   8.485  1.00  0.00     0.031 C 
ATOM     53  C   UNL     1     -10.747   3.748   9.985  1.00  0.00     0.029 A 
ATOM     54  C   UNL     1     -12.102   4.008  10.106  1.00  0.00     0.049 A 
ATOM     55  H   UNL     1     -13.722   2.669   9.990  1.00  0.00     0.167 HD
ATOM     56  C   UNL     1     -12.782   6.241   9.576  1.00  0.00     0.074 A 
ATOM     57  C   UNL     1     -13.120   7.651   9.649  1.00  0.00     0.031 C 
ATOM     58  C   UNL     1     -12.848   5.208  10.469  1.00  0.00     0.037 A 
BRANCH  45  59
ATOM     59  C   UNL     1     -11.953  -0.810   9.281  1.00  0.00     0.058 A 
ATOM     60  C   UNL     1     -10.974  -1.011  10.284  1.00  0.00     0.135 A 
ATOM     61  C   UNL     1     -12.419  -2.007   8.699  1.00  0.00     0.135 A 
ATOM     62  F   UNL     1     -10.491   0.011  11.005  1.00  0.00    -0.206 F 
ATOM     63  C   UNL     1     -10.433  -2.265  10.594  1.00  0.00     0.059 A 
ATOM     64  C   UNL     1     -11.874  -3.267   8.967  1.00  0.00     0.059 A 
ATOM     65  F   UNL     1     -13.465  -2.038   7.872  1.00  0.00    -0.206 F 
ATOM     66  C   UNL     1     -10.867  -3.387   9.906  1.00  0.00     0.060 A 
BRANCH  66  67
ATOM     67  S   UNL     1     -10.129  -4.990  10.267  1.00  0.00     0.124 S 
ATOM     68  O   UNL     1      -8.725  -4.761   9.939  1.00  0.00    -0.237 OA
ATOM     69  O   UNL     1     -10.434  -5.156  11.683  1.00  0.00    -0.237 OA
ATOM     70  O   UNL     1     -10.834  -5.901   9.368  1.00  0.00    -0.744 OA
ENDBRANCH  66  67
ENDBRANCH  45  59
BRANCH  46  71
ATOM     71  C   UNL     1     -12.748   8.022   5.119  1.00  0.00     0.058 A 
ATOM     72  C   UNL     1     -12.036   8.756   4.148  1.00  0.00     0.135 A 
ATOM     73  C   UNL     1     -14.009   7.528   4.755  1.00  0.00     0.135 A 
ATOM     74  F   UNL     1     -10.835   9.276   4.451  1.00  0.00    -0.206 F 
ATOM     75  C   UNL     1     -12.462   8.829   2.826  1.00  0.00     0.059 A 
ATOM     76  C   UNL     1     -14.461   7.601   3.434  1.00  0.00     0.059 A 
ATOM     77  F   UNL     1     -14.742   6.832   5.637  1.00  0.00    -0.206 F 
ATOM     78  C   UNL     1     -13.639   8.180   2.465  1.00  0.00     0.060 A 
BRANCH  78  79
ATOM     79  S   UNL     1     -13.970   7.949   0.698  1.00  0.00     0.124 S 
ATOM     80  O   UNL     1     -14.014   9.325   0.216  1.00  0.00    -0.237 OA
ATOM     81  O   UNL     1     -12.809   7.167   0.271  1.00  0.00    -0.237 OA
ATOM     82  O   UNL     1     -15.241   7.236   0.687  1.00  0.00    -0.744 OA
ENDBRANCH  78  79
ENDBRANCH  46  71
BRANCH  58  83
ATOM     83  C   UNL     1     -13.542   5.248  11.811  1.00  0.00     0.058 A 
ATOM     84  C   UNL     1     -14.669   6.038  12.090  1.00  0.00     0.135 A 
ATOM     85  C   UNL     1     -13.161   4.348  12.838  1.00  0.00     0.135 A 
ATOM     86  F   UNL     1     -15.199   6.850  11.164  1.00  0.00    -0.206 F 
ATOM     87  C   UNL     1     -15.329   5.994  13.320  1.00  0.00     0.059 A 
ATOM     88  C   UNL     1     -13.840   4.244  14.048  1.00  0.00     0.059 A 
ATOM     89  F   UNL     1     -12.113   3.522  12.691  1.00  0.00    -0.206 F 
ATOM     90  C   UNL     1     -14.908   5.093  14.294  1.00  0.00     0.060 A 
BRANCH  90  91
ATOM     91  S   UNL     1     -15.786   4.990  15.863  1.00  0.00     0.124 S 
ATOM     92  O   UNL     1     -15.062   5.971  16.665  1.00  0.00    -0.237 OA
ATOM     93  O   UNL     1     -17.150   5.359  15.496  1.00  0.00    -0.237 OA
ATOM     94  O   UNL     1     -15.607   3.595  16.254  1.00  0.00    -0.744 OA
ENDBRANCH  90  91
ENDBRANCH  58  83
ENDBRANCH  32  33
ENDBRANCH  24  27
ENDBRANCH  22  23
ENDBRANCH  21  22
ENDBRANCH   1  21
TORSDOF 18
