REMARK SMILES CC(C)(Cn1ccc2ccc([N+](=O)[O-])cc21)C(=O)NCCCCCCNC(=O)c1ccc(-c2c3nc(c(-c4c(F)cc(S(=O)(=O)[O-])cc4F)c4ccc([nH]4)c(-c4c(F)cc(S(=O)(=O)[O-])cc4F)c4nc(c(-c5c(F)cc(S(=O)(=O)[O-])cc5F)c5ccc2[nH]5)C=C4)C=C3)cc1
REMARK SMILES IDX 22 1 21 2 20 3 19 4 17 5 18 6 2 8 1 9 3 10 4 11 5 12 6 13
REMARK SMILES IDX 16 14 7 15 8 16 15 17 9 18 11 19 10 20 12 21 13 22 14 23
REMARK SMILES IDX 23 24 24 25 25 26 26 27 27 28 28 30 29 31 30 32 94 33 31 34
REMARK SMILES IDX 93 35 32 36 33 37 34 38 87 39 35 40 92 41 86 42 88 43 36 44
REMARK SMILES IDX 91 45 85 46 84 47 37 49 71 50 50 51 70 52 51 53 54 54 69 55
REMARK SMILES IDX 89 56 52 57 53 58 68 60 90 61 55 62 38 63 39 64 48 65 40 66
REMARK SMILES IDX 41 67 47 68 49 69 42 70 43 71 44 72 45 73 46 74 72 75 73 76
REMARK SMILES IDX 82 77 74 78 75 79 81 80 83 81 76 82 77 83 78 84 79 85 80 86
REMARK SMILES IDX 56 87 57 88 66 89 58 90 59 91 65 92 67 93 60 94 61 95 62 96
REMARK SMILES IDX 63 97 64 98
REMARK H PARENT 19 7 26 29 88 48 54 59
REMARK Flexibility Score: inf
ROOT
ATOM      1  C   UNL     1      -0.917  -4.764   4.002  1.00  0.00     0.002 C 
ENDROOT
BRANCH   1   2
ATOM      2  C   UNL     1      -1.285  -3.318   3.666  1.00  0.00     0.021 C 
BRANCH   2   3
ATOM      3  C   UNL     1      -0.101  -2.353   3.661  1.00  0.00     0.116 C 
BRANCH   3   4
ATOM      4  N   UNL     1       0.811  -2.606   2.558  1.00  0.00    -0.356 N 
ATOM      5  C   UNL     1       1.172  -1.878   1.465  1.00  0.00     0.227 C 
ATOM      6  O   UNL     1       2.002  -2.398   0.714  1.00  0.00    -0.274 OA
ATOM      7  H   UNL     1       1.258  -3.482   2.611  1.00  0.00     0.163 HD
BRANCH   5   8
ATOM      8  C   UNL     1       0.588  -0.486   1.168  1.00  0.00     0.061 C 
ATOM      9  C   UNL     1       1.218   0.064  -0.137  1.00  0.00     0.023 C 
ATOM     10  C   UNL     1       1.022   0.493   2.279  1.00  0.00     0.023 C 
BRANCH   8  11
ATOM     11  C   UNL     1      -0.952  -0.528   1.003  1.00  0.00     0.138 C 
BRANCH  11  12
ATOM     12  N   UNL     1      -1.439  -1.301  -0.140  1.00  0.00    -0.346 N 
ATOM     13  C   UNL     1      -1.387  -2.669  -0.230  1.00  0.00     0.087 A 
ATOM     14  C   UNL     1      -2.027  -0.786  -1.283  1.00  0.00     0.055 A 
ATOM     15  C   UNL     1      -1.835  -3.041  -1.473  1.00  0.00     0.028 A 
ATOM     16  C   UNL     1      -2.241  -1.865  -2.150  1.00  0.00     0.000 A 
ATOM     17  C   UNL     1      -2.375   0.529  -1.642  1.00  0.00     0.112 A 
ATOM     18  C   UNL     1      -2.780  -1.632  -3.430  1.00  0.00     0.017 A 
ATOM     19  C   UNL     1      -2.932   0.728  -2.917  1.00  0.00     0.271 A 
ATOM     20  C   UNL     1      -3.123  -0.332  -3.809  1.00  0.00     0.086 A 
BRANCH  19  21
ATOM     21  N   UNL     1      -3.326   2.085  -3.321  1.00  0.00     0.062 N 
ATOM     22  O   UNL     1      -3.178   3.000  -2.497  1.00  0.00    -0.258 OA
ATOM     23  O   UNL     1      -3.789   2.239  -4.461  1.00  0.00    -0.258 OA
ENDBRANCH  19  21
ENDBRANCH  11  12
ENDBRANCH   8  11
ENDBRANCH   5   8
ENDBRANCH   3   4
ENDBRANCH   2   3
ENDBRANCH   1   2
BRANCH   1  24
ATOM     24  C   UNL     1      -0.292  -4.961   5.388  1.00  0.00     0.002 C 
BRANCH  24  25
ATOM     25  C   UNL     1      -1.109  -4.406   6.563  1.00  0.00     0.021 C 
BRANCH  25  26
ATOM     26  C   UNL     1      -2.555  -4.900   6.618  1.00  0.00     0.116 C 
BRANCH  26  27
ATOM     27  N   UNL     1      -2.671  -6.341   6.640  1.00  0.00    -0.352 N 
ATOM     28  C   UNL     1      -2.676  -7.297   7.615  1.00  0.00     0.251 C 
ATOM     29  H   UNL     1      -2.768  -6.724   5.739  1.00  0.00     0.163 HD
ATOM     30  O   UNL     1      -2.904  -8.448   7.231  1.00  0.00    -0.269 OA
BRANCH  28  31
ATOM     31  C   UNL     1      -2.370  -7.066   9.053  1.00  0.00     0.039 A 
ATOM     32  C   UNL     1      -2.161  -5.827   9.660  1.00  0.00     0.014 A 
ATOM     33  C   UNL     1      -2.228  -8.230   9.834  1.00  0.00     0.014 A 
ATOM     34  C   UNL     1      -1.710  -5.760  10.975  1.00  0.00     0.010 A 
ATOM     35  C   UNL     1      -1.797  -8.167  11.152  1.00  0.00     0.010 A 
ATOM     36  C   UNL     1      -1.484  -6.933  11.703  1.00  0.00    -0.014 A 
BRANCH  36  37
ATOM     37  C   UNL     1      -1.033  -6.809  13.087  1.00  0.00     0.031 A 
ATOM     38  C   UNL     1      -1.997  -6.083  13.958  1.00  0.00     0.074 A 
ATOM     39  C   UNL     1       0.094  -7.381  13.565  1.00  0.00     0.049 A 
ATOM     40  N   UNL     1      -1.861  -4.911  14.484  1.00  0.00    -0.248 NA
ATOM     41  C   UNL     1      -3.343  -6.657  14.131  1.00  0.00     0.031 C 
ATOM     42  C   UNL     1       0.963  -8.347  12.884  1.00  0.00     0.029 A 
ATOM     43  N   UNL     1       0.665  -7.287  14.803  1.00  0.00    -0.354 N 
ATOM     44  C   UNL     1      -2.999  -4.713  15.265  1.00  0.00     0.074 A 
ATOM     45  C   UNL     1      -3.947  -5.716  14.861  1.00  0.00     0.031 C 
ATOM     46  C   UNL     1       1.794  -8.922  13.784  1.00  0.00     0.029 A 
ATOM     47  C   UNL     1       1.636  -8.253  15.064  1.00  0.00     0.049 A 
ATOM     48  H   UNL     1       0.412  -6.596  15.457  1.00  0.00     0.167 HD
ATOM     49  C   UNL     1      -2.956  -3.925  16.375  1.00  0.00     0.037 A 
ATOM     50  C   UNL     1       2.250  -8.491  16.252  1.00  0.00     0.037 A 
ATOM     51  C   UNL     1      -1.760  -3.127  16.394  1.00  0.00     0.049 A 
ATOM     52  C   UNL     1       2.152  -7.244  17.047  1.00  0.00     0.074 A 
ATOM     53  C   UNL     1      -1.310  -1.970  15.799  1.00  0.00     0.029 A 
ATOM     54  N   UNL     1      -0.666  -3.797  16.869  1.00  0.00    -0.354 N 
ATOM     55  N   UNL     1       2.741  -6.129  16.715  1.00  0.00    -0.248 NA
ATOM     56  C   UNL     1       1.115  -7.127  18.067  1.00  0.00     0.031 C 
ATOM     57  C   UNL     1       0.115  -2.052  15.795  1.00  0.00     0.029 A 
ATOM     58  C   UNL     1       0.498  -3.232  16.428  1.00  0.00     0.049 A 
ATOM     59  H   UNL     1      -0.712  -4.588  17.455  1.00  0.00     0.167 HD
ATOM     60  C   UNL     1       1.882  -5.146  17.158  1.00  0.00     0.074 A 
ATOM     61  C   UNL     1       1.006  -5.798  18.122  1.00  0.00     0.031 C 
ATOM     62  C   UNL     1       1.736  -3.980  16.467  1.00  0.00     0.037 A 
BRANCH  49  63
ATOM     63  C   UNL     1      -3.715  -4.211  17.655  1.00  0.00     0.058 A 
ATOM     64  C   UNL     1      -3.752  -3.244  18.682  1.00  0.00     0.135 A 
ATOM     65  C   UNL     1      -4.154  -5.502  18.026  1.00  0.00     0.135 A 
ATOM     66  F   UNL     1      -3.323  -1.992  18.455  1.00  0.00    -0.206 F 
ATOM     67  C   UNL     1      -4.172  -3.544  19.982  1.00  0.00     0.059 A 
ATOM     68  C   UNL     1      -4.623  -5.811  19.299  1.00  0.00     0.059 A 
ATOM     69  F   UNL     1      -4.057  -6.550  17.198  1.00  0.00    -0.206 F 
ATOM     70  C   UNL     1      -4.605  -4.833  20.279  1.00  0.00     0.060 A 
BRANCH  70  71
ATOM     71  S   UNL     1      -5.110  -5.233  21.963  1.00  0.00     0.124 S 
ATOM     72  O   UNL     1      -3.853  -5.114  22.688  1.00  0.00    -0.237 OA
ATOM     73  O   UNL     1      -6.107  -4.204  22.231  1.00  0.00    -0.237 OA
ATOM     74  O   UNL     1      -5.643  -6.592  21.839  1.00  0.00    -0.744 OA
ENDBRANCH  70  71
ENDBRANCH  49  63
BRANCH  50  75
ATOM     75  C   UNL     1       2.619  -9.785  16.891  1.00  0.00     0.058 A 
ATOM     76  C   UNL     1       3.390  -9.806  18.071  1.00  0.00     0.135 A 
ATOM     77  C   UNL     1       1.940 -10.977  16.574  1.00  0.00     0.135 A 
ATOM     78  F   UNL     1       4.080  -8.717  18.446  1.00  0.00    -0.206 F 
ATOM     79  C   UNL     1       3.397 -10.900  18.942  1.00  0.00     0.059 A 
ATOM     80  C   UNL     1       1.939 -12.085  17.424  1.00  0.00     0.059 A 
ATOM     81  F   UNL     1       1.172 -11.061  15.479  1.00  0.00    -0.206 F 
ATOM     82  C   UNL     1       2.634 -12.022  18.627  1.00  0.00     0.060 A 
BRANCH  82  83
ATOM     83  S   UNL     1       2.445 -13.332  19.862  1.00  0.00     0.124 S 
ATOM     84  O   UNL     1       3.793 -13.886  19.926  1.00  0.00    -0.237 OA
ATOM     85  O   UNL     1       2.007 -12.585  21.035  1.00  0.00    -0.237 OA
ATOM     86  O   UNL     1       1.438 -14.210  19.272  1.00  0.00    -0.744 OA
ENDBRANCH  82  83
ENDBRANCH  50  75
BRANCH  62  87
ATOM     87  C   UNL     1       2.874  -3.529  15.604  1.00  0.00     0.058 A 
ATOM     88  C   UNL     1       3.292  -4.157  14.419  1.00  0.00     0.135 A 
ATOM     89  C   UNL     1       3.523  -2.341  15.970  1.00  0.00     0.135 A 
ATOM     90  F   UNL     1       2.675  -5.257  13.965  1.00  0.00    -0.206 F 
ATOM     91  C   UNL     1       4.331  -3.633  13.645  1.00  0.00     0.059 A 
ATOM     92  C   UNL     1       4.538  -1.786  15.201  1.00  0.00     0.059 A 
ATOM     93  F   UNL     1       3.139  -1.678  17.073  1.00  0.00    -0.206 F 
ATOM     94  C   UNL     1       4.944  -2.443  14.043  1.00  0.00     0.060 A 
BRANCH  94  95
ATOM     95  S   UNL     1       6.236  -1.724  13.006  1.00  0.00     0.124 S 
ATOM     96  O   UNL     1       7.316  -2.695  13.141  1.00  0.00    -0.237 OA
ATOM     97  O   UNL     1       5.592  -1.668  11.697  1.00  0.00    -0.237 OA
ATOM     98  O   UNL     1       6.486  -0.424  13.623  1.00  0.00    -0.744 OA
ENDBRANCH  94  95
ENDBRANCH  62  87
ENDBRANCH  36  37
ENDBRANCH  28  31
ENDBRANCH  26  27
ENDBRANCH  25  26
ENDBRANCH  24  25
ENDBRANCH   1  24
TORSDOF 19
