REMARK SMILES CCn1nccc1[C@H](F)C(=O)NCCCCCCNC(=O)c1ccc(-c2c3nc(c(-c4c(F)cc(S(=O)(=O)[O-])cc4F)c4ccc([nH]4)c(-c4c(F)cc(S(=O)(=O)[O-])cc4F)c4nc(c(-c5c(F)cc(S(=O)(=O)[O-])cc5F)c5ccc2[nH]5)C=C4)C=C3)cc1
REMARK SMILES IDX 16 1 15 2 14 3 13 4 12 5 10 6 11 7 8 9 9 10 7 11 3 12 4 13
REMARK SMILES IDX 5 14 6 15 2 16 1 17 17 18 18 19 19 20 20 21 21 23 22 24
REMARK SMILES IDX 23 25 87 26 24 27 86 28 25 29 26 30 27 31 80 32 28 33 85 34
REMARK SMILES IDX 79 35 81 36 29 37 84 38 78 39 77 40 30 42 64 43 43 44 63 45
REMARK SMILES IDX 44 46 47 47 62 48 82 49 45 50 46 51 61 53 83 54 48 55 31 56
REMARK SMILES IDX 32 57 41 58 33 59 34 60 40 61 42 62 35 63 36 64 37 65 38 66
REMARK SMILES IDX 39 67 65 68 66 69 75 70 67 71 68 72 74 73 76 74 69 75 70 76
REMARK SMILES IDX 71 77 72 78 73 79 49 80 50 81 59 82 51 83 52 84 58 85 60 86
REMARK SMILES IDX 53 87 54 88 55 89 56 90 57 91
REMARK H PARENT 12 8 19 22 81 41 47 52
REMARK Flexibility Score: inf
ROOT
ATOM      1  C   UNL     1       3.951   5.103   7.330  1.00  0.00     0.002 C 
ENDROOT
BRANCH   1   2
ATOM      2  C   UNL     1       2.531   4.798   6.832  1.00  0.00     0.002 C 
BRANCH   2   3
ATOM      3  C   UNL     1       2.409   4.396   5.363  1.00  0.00     0.021 C 
BRANCH   3   4
ATOM      4  C   UNL     1       3.295   3.233   4.941  1.00  0.00     0.116 C 
BRANCH   4   5
ATOM      5  N   UNL     1       2.884   1.961   5.495  1.00  0.00    -0.353 N 
ATOM      6  C   UNL     1       2.719   0.771   4.830  1.00  0.00     0.260 C 
ATOM      7  O   UNL     1       2.516  -0.244   5.506  1.00  0.00    -0.271 OA
ATOM      8  H   UNL     1       2.702   1.947   6.463  1.00  0.00     0.163 HD
BRANCH   6   9
ATOM      9  C   UNL     1       2.828   0.707   3.291  1.00  0.00     0.303 C 
ATOM     10  F   UNL     1       1.988   1.597   2.692  1.00  0.00    -0.230 F 
BRANCH   9  11
ATOM     11  C   UNL     1       4.257   0.881   2.865  1.00  0.00     0.082 A 
ATOM     12  N   UNL     1       4.744   1.852   2.018  1.00  0.00    -0.266 N 
ATOM     13  N   UNL     1       6.092   1.804   1.899  1.00  0.00    -0.181 NA
ATOM     14  C   UNL     1       6.455   0.754   2.632  1.00  0.00     0.135 A 
ATOM     15  C   UNL     1       5.360   0.132   3.241  1.00  0.00     0.049 A 
BRANCH  12  16
ATOM     16  C   UNL     1       4.062   2.937   1.329  1.00  0.00     0.141 C 
ATOM     17  C   UNL     1       3.879   2.681  -0.154  1.00  0.00     0.029 C 
ENDBRANCH  12  16
ENDBRANCH   9  11
ENDBRANCH   6   9
ENDBRANCH   4   5
ENDBRANCH   3   4
ENDBRANCH   2   3
ENDBRANCH   1   2
BRANCH   1  18
ATOM     18  C   UNL     1       4.758   6.127   6.519  1.00  0.00     0.021 C 
BRANCH  18  19
ATOM     19  C   UNL     1       4.168   7.530   6.516  1.00  0.00     0.116 C 
BRANCH  19  20
ATOM     20  N   UNL     1       4.197   8.148   7.840  1.00  0.00    -0.352 N 
ATOM     21  C   UNL     1       3.662   9.361   8.218  1.00  0.00     0.251 C 
ATOM     22  H   UNL     1       4.653   7.636   8.546  1.00  0.00     0.163 HD
ATOM     23  O   UNL     1       4.054   9.931   9.233  1.00  0.00    -0.269 OA
BRANCH  21  24
ATOM     24  C   UNL     1       2.615   9.962   7.378  1.00  0.00     0.039 A 
ATOM     25  C   UNL     1       2.668  11.312   7.018  1.00  0.00     0.014 A 
ATOM     26  C   UNL     1       1.596   9.134   6.911  1.00  0.00     0.014 A 
ATOM     27  C   UNL     1       1.738  11.802   6.105  1.00  0.00     0.010 A 
ATOM     28  C   UNL     1       0.752   9.590   5.926  1.00  0.00     0.010 A 
ATOM     29  C   UNL     1       0.796  10.930   5.540  1.00  0.00    -0.014 A 
BRANCH  29  30
ATOM     30  C   UNL     1      -0.057  11.369   4.436  1.00  0.00     0.031 A 
ATOM     31  C   UNL     1       0.663  11.900   3.241  1.00  0.00     0.074 A 
ATOM     32  C   UNL     1      -1.375  11.079   4.380  1.00  0.00     0.049 A 
ATOM     33  N   UNL     1       0.587  13.085   2.731  1.00  0.00    -0.248 NA
ATOM     34  C   UNL     1       1.673  11.045   2.596  1.00  0.00     0.031 C 
ATOM     35  C   UNL     1      -2.167  10.306   5.342  1.00  0.00     0.029 A 
ATOM     36  N   UNL     1      -2.262  11.300   3.371  1.00  0.00    -0.354 N 
ATOM     37  C   UNL     1       1.365  13.062   1.575  1.00  0.00     0.074 A 
ATOM     38  C   UNL     1       2.143  11.853   1.643  1.00  0.00     0.031 C 
ATOM     39  C   UNL     1      -3.322   9.917   4.764  1.00  0.00     0.029 A 
ATOM     40  C   UNL     1      -3.425  10.542   3.458  1.00  0.00     0.049 A 
ATOM     41  H   UNL     1      -2.095  11.941   2.643  1.00  0.00     0.167 HD
ATOM     42  C   UNL     1       1.137  13.926   0.544  1.00  0.00     0.037 A 
ATOM     43  C   UNL     1      -4.388  10.405   2.513  1.00  0.00     0.037 A 
ATOM     44  C   UNL     1       0.291  15.019   0.957  1.00  0.00     0.049 A 
ATOM     45  C   UNL     1      -4.274  11.576   1.606  1.00  0.00     0.074 A 
ATOM     46  C   UNL     1       0.371  15.992   1.936  1.00  0.00     0.029 A 
ATOM     47  N   UNL     1      -1.026  14.993   0.567  1.00  0.00    -0.354 N 
ATOM     48  N   UNL     1      -4.527  12.802   1.973  1.00  0.00    -0.248 NA
ATOM     49  C   UNL     1      -3.446  11.446   0.416  1.00  0.00     0.031 C 
ATOM     50  C   UNL     1      -0.962  16.130   2.426  1.00  0.00     0.029 A 
ATOM     51  C   UNL     1      -1.783  15.290   1.673  1.00  0.00     0.049 A 
ATOM     52  H   UNL     1      -1.365  14.797  -0.336  1.00  0.00     0.167 HD
ATOM     53  C   UNL     1      -3.543  13.564   1.361  1.00  0.00     0.074 A 
ATOM     54  C   UNL     1      -2.983  12.696   0.328  1.00  0.00     0.031 C 
ATOM     55  C   UNL     1      -3.083  14.716   1.937  1.00  0.00     0.037 A 
BRANCH  42  56
ATOM     56  C   UNL     1       1.371  13.608  -0.918  1.00  0.00     0.058 A 
ATOM     57  C   UNL     1       1.258  14.638  -1.878  1.00  0.00     0.135 A 
ATOM     58  C   UNL     1       1.415  12.297  -1.440  1.00  0.00     0.135 A 
ATOM     59  F   UNL     1       1.203  15.925  -1.497  1.00  0.00    -0.206 F 
ATOM     60  C   UNL     1       1.115  14.379  -3.242  1.00  0.00     0.059 A 
ATOM     61  C   UNL     1       1.331  12.020  -2.801  1.00  0.00     0.059 A 
ATOM     62  F   UNL     1       1.440  11.215  -0.654  1.00  0.00    -0.206 F 
ATOM     63  C   UNL     1       1.134  13.062  -3.691  1.00  0.00     0.060 A 
BRANCH  63  64
ATOM     64  S   UNL     1       0.828  12.713  -5.431  1.00  0.00     0.124 S 
ATOM     65  O   UNL     1      -0.588  13.044  -5.548  1.00  0.00    -0.237 OA
ATOM     66  O   UNL     1       1.756  13.625  -6.092  1.00  0.00    -0.237 OA
ATOM     67  O   UNL     1       1.158  11.296  -5.551  1.00  0.00    -0.744 OA
ENDBRANCH  63  64
ENDBRANCH  42  56
BRANCH  43  68
ATOM     68  C   UNL     1      -5.203   9.203   2.190  1.00  0.00     0.058 A 
ATOM     69  C   UNL     1      -6.298   9.282   1.311  1.00  0.00     0.135 A 
ATOM     70  C   UNL     1      -4.760   7.903   2.510  1.00  0.00     0.135 A 
ATOM     71  F   UNL     1      -6.782  10.477   0.940  1.00  0.00    -0.206 F 
ATOM     72  C   UNL     1      -6.874   8.146   0.731  1.00  0.00     0.059 A 
ATOM     73  C   UNL     1      -5.327   6.756   1.958  1.00  0.00     0.059 A 
ATOM     74  F   UNL     1      -3.691   7.705   3.297  1.00  0.00    -0.206 F 
ATOM     75  C   UNL     1      -6.362   6.886   1.041  1.00  0.00     0.060 A 
BRANCH  75  76
ATOM     76  S   UNL     1      -6.948   5.436   0.133  1.00  0.00     0.124 S 
ATOM     77  O   UNL     1      -8.285   5.253   0.685  1.00  0.00    -0.237 OA
ATOM     78  O   UNL     1      -6.884   5.892  -1.251  1.00  0.00    -0.237 OA
ATOM     79  O   UNL     1      -5.978   4.402   0.488  1.00  0.00    -0.744 OA
ENDBRANCH  75  76
ENDBRANCH  43  68
BRANCH  55  80
ATOM     80  C   UNL     1      -3.875  15.298   3.082  1.00  0.00     0.058 A 
ATOM     81  C   UNL     1      -4.107  14.646   4.307  1.00  0.00     0.135 A 
ATOM     82  C   UNL     1      -4.324  16.622   2.975  1.00  0.00     0.135 A 
ATOM     83  F   UNL     1      -3.608  13.427   4.548  1.00  0.00    -0.206 F 
ATOM     84  C   UNL     1      -4.816  15.252   5.346  1.00  0.00     0.059 A 
ATOM     85  C   UNL     1      -5.003  17.261   4.011  1.00  0.00     0.059 A 
ATOM     86  F   UNL     1      -4.073  17.331   1.861  1.00  0.00    -0.206 F 
ATOM     87  C   UNL     1      -5.268  16.559   5.185  1.00  0.00     0.060 A 
BRANCH  87  88
ATOM     88  S   UNL     1      -6.160  17.353   6.539  1.00  0.00     0.124 S 
ATOM     89  O   UNL     1      -7.454  16.682   6.487  1.00  0.00    -0.237 OA
ATOM     90  O   UNL     1      -5.329  17.038   7.697  1.00  0.00    -0.237 OA
ATOM     91  O   UNL     1      -6.172  18.763   6.158  1.00  0.00    -0.744 OA
ENDBRANCH  87  88
ENDBRANCH  55  80
ENDBRANCH  29  30
ENDBRANCH  21  24
ENDBRANCH  19  20
ENDBRANCH  18  19
ENDBRANCH   1  18
TORSDOF 18
