REMARK SMILES O=C(Cc1ccc(F)c(F)c1)NC1(C(=O)NCCCCCCNC(=O)c2ccc(-c3c4nc(c(-c5c(F)cc(S(=O)(=O)[O-])cc5F)c5ccc([nH]5)c(-c5c(F)cc(S(=O)(=O)[O-])cc5F)c5nc(c(-c6c(F)cc(S(=O)(=O)[O-])cc6F)c6ccc3[nH]6)C=C5)C=C4)cc2)CCCC1
REMARK SMILES IDX 19 1 18 2 17 3 16 4 14 5 15 6 13 8 92 9 95 10 93 11 94 12
REMARK SMILES IDX 12 13 1 14 2 15 3 17 4 18 5 19 11 20 6 21 9 22 7 23 10 24
REMARK SMILES IDX 8 25 20 26 21 27 22 28 23 29 24 30 25 32 26 33 27 34 91 35
REMARK SMILES IDX 28 36 90 37 29 38 30 39 31 40 84 41 32 42 89 43 83 44 85 45
REMARK SMILES IDX 33 46 88 47 82 48 81 49 34 51 68 52 47 53 67 54 48 55 51 56
REMARK SMILES IDX 66 57 86 58 49 59 50 60 65 62 87 63 52 64 35 65 36 66 45 67
REMARK SMILES IDX 37 68 38 69 44 70 46 71 39 72 40 73 41 74 42 75 43 76 69 77
REMARK SMILES IDX 70 78 79 79 71 80 72 81 78 82 80 83 73 84 74 85 75 86 76 87
REMARK SMILES IDX 77 88 53 89 54 90 63 91 55 92 56 93 62 94 64 95 57 96 58 97
REMARK SMILES IDX 59 98 60 99 61 100
REMARK H PARENT 16 7 12 16 23 31 85 50 51 61
REMARK Flexibility Score: inf
ROOT
ATOM      1  C   UNL     1      -1.280   4.896   3.926  1.00  0.00     0.002 C 
ENDROOT
BRANCH   1   2
ATOM      2  C   UNL     1      -0.943   4.540   2.479  1.00  0.00     0.021 C 
BRANCH   2   3
ATOM      3  C   UNL     1       0.547   4.518   2.182  1.00  0.00     0.116 C 
BRANCH   3   4
ATOM      4  N   UNL     1       1.186   3.320   2.658  1.00  0.00    -0.354 N 
ATOM      5  C   UNL     1       1.961   2.415   2.008  1.00  0.00     0.245 C 
ATOM      6  O   UNL     1       2.520   1.581   2.737  1.00  0.00    -0.272 OA
ATOM      7  H   UNL     1       1.036   3.124   3.611  1.00  0.00     0.163 HD
BRANCH   5   8
ATOM      8  C   UNL     1       2.260   2.469   0.468  1.00  0.00     0.119 C 
ATOM      9  C   UNL     1       3.240   3.608   0.122  1.00  0.00     0.038 C 
ATOM     10  C   UNL     1       1.073   2.658  -0.493  1.00  0.00     0.038 C 
ATOM     11  C   UNL     1       2.476   4.670  -0.654  1.00  0.00     0.003 C 
ATOM     12  C   UNL     1       1.222   4.007  -1.195  1.00  0.00     0.003 C 
BRANCH   8  13
ATOM     13  N   UNL     1       2.958   1.191   0.218  1.00  0.00    -0.341 N 
ATOM     14  O   UNL     1       1.118  -0.176  -0.029  1.00  0.00    -0.275 OA
ATOM     15  C   UNL     1       2.334  -0.018  -0.010  1.00  0.00     0.225 C 
ATOM     16  H   UNL     1       3.942   1.203   0.213  1.00  0.00     0.164 HD
BRANCH  15  17
ATOM     17  C   UNL     1       3.301  -1.162  -0.251  1.00  0.00     0.135 C 
BRANCH  17  18
ATOM     18  C   UNL     1       4.062  -1.124  -1.566  1.00  0.00    -0.036 A 
ATOM     19  C   UNL     1       4.552  -2.334  -2.090  1.00  0.00     0.007 A 
ATOM     20  C   UNL     1       4.377   0.064  -2.248  1.00  0.00     0.046 A 
ATOM     21  C   UNL     1       5.323  -2.354  -3.256  1.00  0.00     0.043 A 
ATOM     22  C   UNL     1       5.153   0.039  -3.404  1.00  0.00     0.159 A 
ATOM     23  C   UNL     1       5.624  -1.163  -3.905  1.00  0.00     0.158 A 
ATOM     24  F   UNL     1       5.451   1.193  -4.016  1.00  0.00    -0.204 F 
ATOM     25  F   UNL     1       6.379  -1.185  -5.011  1.00  0.00    -0.204 F 
ENDBRANCH  17  18
ENDBRANCH  15  17
ENDBRANCH   8  13
ENDBRANCH   5   8
ENDBRANCH   3   4
ENDBRANCH   2   3
ENDBRANCH   1   2
BRANCH   1  26
ATOM     26  C   UNL     1      -0.688   6.221   4.421  1.00  0.00     0.002 C 
BRANCH  26  27
ATOM     27  C   UNL     1      -0.958   7.433   3.525  1.00  0.00     0.021 C 
BRANCH  27  28
ATOM     28  C   UNL     1      -2.433   7.690   3.231  1.00  0.00     0.116 C 
BRANCH  28  29
ATOM     29  N   UNL     1      -3.204   7.868   4.450  1.00  0.00    -0.352 N 
ATOM     30  C   UNL     1      -3.933   8.952   4.870  1.00  0.00     0.251 C 
ATOM     31  H   UNL     1      -3.204   7.098   5.064  1.00  0.00     0.163 HD
ATOM     32  O   UNL     1      -4.335   9.014   6.025  1.00  0.00    -0.269 OA
BRANCH  30  33
ATOM     33  C   UNL     1      -4.211  10.050   3.921  1.00  0.00     0.039 A 
ATOM     34  C   UNL     1      -4.002  11.368   4.332  1.00  0.00     0.014 A 
ATOM     35  C   UNL     1      -4.662   9.774   2.627  1.00  0.00     0.014 A 
ATOM     36  C   UNL     1      -4.178  12.408   3.418  1.00  0.00     0.010 A 
ATOM     37  C   UNL     1      -4.767  10.804   1.699  1.00  0.00     0.010 A 
ATOM     38  C   UNL     1      -4.520  12.131   2.083  1.00  0.00    -0.014 A 
BRANCH  38  39
ATOM     39  C   UNL     1      -4.591  13.210   1.066  1.00  0.00     0.031 A 
ATOM     40  C   UNL     1      -5.893  13.522   0.383  1.00  0.00     0.074 A 
ATOM     41  C   UNL     1      -3.463  13.855   0.707  1.00  0.00     0.049 A 
ATOM     42  N   UNL     1      -6.133  14.365  -0.588  1.00  0.00    -0.248 NA
ATOM     43  C   UNL     1      -7.077  12.772   0.834  1.00  0.00     0.031 C 
ATOM     44  C   UNL     1      -2.133  13.609   1.270  1.00  0.00     0.029 A 
ATOM     45  N   UNL     1      -3.249  14.837  -0.228  1.00  0.00    -0.354 N 
ATOM     46  C   UNL     1      -7.489  14.241  -0.871  1.00  0.00     0.074 A 
ATOM     47  C   UNL     1      -8.008  13.206  -0.004  1.00  0.00     0.031 C 
ATOM     48  C   UNL     1      -1.248  14.430   0.684  1.00  0.00     0.029 A 
ATOM     49  C   UNL     1      -1.934  15.225  -0.330  1.00  0.00     0.049 A 
ATOM     50  H   UNL     1      -3.970  15.227  -0.773  1.00  0.00     0.167 HD
ATOM     51  C   UNL     1      -8.234  14.942  -1.758  1.00  0.00     0.037 A 
ATOM     52  C   UNL     1      -1.342  16.107  -1.159  1.00  0.00     0.037 A 
ATOM     53  C   UNL     1      -7.709  15.979  -2.609  1.00  0.00     0.049 A 
ATOM     54  C   UNL     1      -2.187  16.850  -2.158  1.00  0.00     0.074 A 
ATOM     55  C   UNL     1      -8.392  16.787  -3.501  1.00  0.00     0.029 A 
ATOM     56  N   UNL     1      -6.372  16.346  -2.682  1.00  0.00    -0.354 N 
ATOM     57  N   UNL     1      -3.480  16.771  -2.365  1.00  0.00    -0.248 NA
ATOM     58  C   UNL     1      -1.494  17.802  -3.037  1.00  0.00     0.031 C 
ATOM     59  C   UNL     1      -7.461  17.601  -4.156  1.00  0.00     0.029 A 
ATOM     60  C   UNL     1      -6.205  17.344  -3.629  1.00  0.00     0.049 A 
ATOM     61  H   UNL     1      -5.649  15.955  -2.141  1.00  0.00     0.167 HD
ATOM     62  C   UNL     1      -3.759  17.678  -3.381  1.00  0.00     0.074 A 
ATOM     63  C   UNL     1      -2.503  18.308  -3.733  1.00  0.00     0.031 C 
ATOM     64  C   UNL     1      -4.947  17.962  -3.970  1.00  0.00     0.037 A 
BRANCH  51  65
ATOM     65  C   UNL     1      -9.699  14.610  -1.860  1.00  0.00     0.058 A 
ATOM     66  C   UNL     1     -10.598  14.910  -0.824  1.00  0.00     0.135 A 
ATOM     67  C   UNL     1     -10.218  14.021  -3.024  1.00  0.00     0.135 A 
ATOM     68  F   UNL     1     -10.156  15.460   0.318  1.00  0.00    -0.206 F 
ATOM     69  C   UNL     1     -11.953  14.614  -0.927  1.00  0.00     0.059 A 
ATOM     70  C   UNL     1     -11.575  13.744  -3.162  1.00  0.00     0.059 A 
ATOM     71  F   UNL     1      -9.404  13.711  -4.046  1.00  0.00    -0.206 F 
ATOM     72  C   UNL     1     -12.433  14.031  -2.102  1.00  0.00     0.060 A 
BRANCH  72  73
ATOM     73  S   UNL     1     -14.195  13.661  -2.220  1.00  0.00     0.124 S 
ATOM     74  O   UNL     1     -14.321  12.541  -1.292  1.00  0.00    -0.237 OA
ATOM     75  O   UNL     1     -14.806  14.914  -1.787  1.00  0.00    -0.237 OA
ATOM     76  O   UNL     1     -14.380  13.330  -3.630  1.00  0.00    -0.744 OA
ENDBRANCH  72  73
ENDBRANCH  51  65
BRANCH  52  77
ATOM     77  C   UNL     1       0.126  16.336  -1.077  1.00  0.00     0.058 A 
ATOM     78  C   UNL     1       0.642  17.556  -0.613  1.00  0.00     0.135 A 
ATOM     79  C   UNL     1       1.042  15.339  -1.448  1.00  0.00     0.135 A 
ATOM     80  F   UNL     1      -0.192  18.543  -0.253  1.00  0.00    -0.206 F 
ATOM     81  C   UNL     1       2.012  17.786  -0.537  1.00  0.00     0.059 A 
ATOM     82  C   UNL     1       2.416  15.535  -1.353  1.00  0.00     0.059 A 
ATOM     83  F   UNL     1       0.601  14.148  -1.883  1.00  0.00    -0.206 F 
ATOM     84  C   UNL     1       2.891  16.767  -0.905  1.00  0.00     0.060 A 
BRANCH  84  85
ATOM     85  S   UNL     1       4.667  17.059  -0.755  1.00  0.00     0.124 S 
ATOM     86  O   UNL     1       4.903  17.999  -1.845  1.00  0.00    -0.237 OA
ATOM     87  O   UNL     1       4.773  17.604   0.595  1.00  0.00    -0.237 OA
ATOM     88  O   UNL     1       5.242  15.729  -0.932  1.00  0.00    -0.744 OA
ENDBRANCH  84  85
ENDBRANCH  52  77
BRANCH  64  89
ATOM     89  C   UNL     1      -4.953  19.015  -5.045  1.00  0.00     0.058 A 
ATOM     90  C   UNL     1      -4.390  18.782  -6.310  1.00  0.00     0.135 A 
ATOM     91  C   UNL     1      -5.580  20.253  -4.827  1.00  0.00     0.135 A 
ATOM     92  F   UNL     1      -3.770  17.619  -6.570  1.00  0.00    -0.206 F 
ATOM     93  C   UNL     1      -4.428  19.746  -7.312  1.00  0.00     0.059 A 
ATOM     94  C   UNL     1      -5.659  21.219  -5.824  1.00  0.00     0.059 A 
ATOM     95  F   UNL     1      -6.144  20.525  -3.639  1.00  0.00    -0.206 F 
ATOM     96  C   UNL     1      -5.070  20.960  -7.061  1.00  0.00     0.060 A 
BRANCH  96  97
ATOM     97  S   UNL     1      -5.148  22.185  -8.385  1.00  0.00     0.124 S 
ATOM     98  O   UNL     1      -3.764  22.643  -8.444  1.00  0.00    -0.237 OA
ATOM     99  O   UNL     1      -5.601  21.386  -9.520  1.00  0.00    -0.237 OA
ATOM    100  O   UNL     1      -6.113  23.162  -7.889  1.00  0.00    -0.744 OA
ENDBRANCH  96  97
ENDBRANCH  64  89
ENDBRANCH  38  39
ENDBRANCH  30  33
ENDBRANCH  28  29
ENDBRANCH  27  28
ENDBRANCH  26  27
ENDBRANCH   1  26
TORSDOF 19
