REMARK SMILES Cc1cc(=O)cc(C)n1C[C@H]1CCCC[C@@H]1C(=O)NCCCCCCNC(=O)c1ccc(-c2c3nc(c(-c4c(F)cc(S(=O)(=O)[O-])cc4F)c4ccc([nH]4)c(-c4c(F)cc(S(=O)(=O)[O-])cc4F)c4nc(c(-c5c(F)cc(S(=O)(=O)[O-])cc5F)c5ccc2[nH]5)C=C4)C=C3)cc1
REMARK SMILES IDX 23 1 22 2 21 3 20 4 19 5 17 6 18 7 16 9 11 10 12 11 13 12
REMARK SMILES IDX 15 13 14 14 10 15 9 16 1 17 2 18 3 19 4 20 7 21 5 22 6 23
REMARK SMILES IDX 8 24 24 25 25 26 26 27 27 28 28 30 29 31 30 32 94 33 31 34
REMARK SMILES IDX 93 35 32 36 33 37 34 38 87 39 35 40 92 41 86 42 88 43 36 44
REMARK SMILES IDX 91 45 85 46 84 47 37 49 71 50 50 51 70 52 51 53 54 54 69 55
REMARK SMILES IDX 89 56 52 57 53 58 68 60 90 61 55 62 38 63 39 64 48 65 40 66
REMARK SMILES IDX 41 67 47 68 49 69 42 70 43 71 44 72 45 73 46 74 72 75 73 76
REMARK SMILES IDX 82 77 74 78 75 79 81 80 83 81 76 82 77 83 78 84 79 85 80 86
REMARK SMILES IDX 56 87 57 88 66 89 58 90 59 91 65 92 67 93 60 94 61 95 62 96
REMARK SMILES IDX 63 97 64 98
REMARK H PARENT 19 8 26 29 88 48 54 59
REMARK Flexibility Score: inf
ROOT
ATOM      1  C   UNL     1      -2.529   0.369  -1.798  1.00  0.00     0.002 C 
ENDROOT
BRANCH   1   2
ATOM      2  C   UNL     1      -1.553   0.960  -2.816  1.00  0.00     0.002 C 
BRANCH   2   3
ATOM      3  C   UNL     1      -0.524   1.925  -2.226  1.00  0.00     0.021 C 
BRANCH   3   4
ATOM      4  C   UNL     1       0.497   1.273  -1.287  1.00  0.00     0.116 C 
BRANCH   4   5
ATOM      5  N   UNL     1       1.614   0.732  -2.032  1.00  0.00    -0.356 N 
ATOM      6  C   UNL     1       2.822   1.267  -2.348  1.00  0.00     0.223 C 
ATOM      7  O   UNL     1       3.580   0.536  -2.994  1.00  0.00    -0.275 OA
ATOM      8  H   UNL     1       1.474  -0.183  -2.367  1.00  0.00     0.163 HD
BRANCH   6   9
ATOM      9  C   UNL     1       3.265   2.670  -1.861  1.00  0.00     0.083 C 
ATOM     10  C   UNL     1       2.287   3.837  -2.165  1.00  0.00     0.021 C 
ATOM     11  C   UNL     1       2.203   4.008  -3.691  1.00  0.00     0.006 C 
ATOM     12  C   UNL     1       3.547   4.344  -4.325  1.00  0.00     0.000 C 
ATOM     13  C   UNL     1       4.655   3.004  -2.462  1.00  0.00     0.014 C 
ATOM     14  C   UNL     1       4.603   3.305  -3.966  1.00  0.00     0.001 C 
BRANCH  10  15
ATOM     15  C   UNL     1       2.660   5.134  -1.388  1.00  0.00     0.126 C 
BRANCH  15  16
ATOM     16  N   UNL     1       1.456   5.943  -1.018  1.00  0.00    -0.349 N 
ATOM     17  C   UNL     1       1.570   5.057   1.375  1.00  0.00     0.064 C 
ATOM     18  C   UNL     1       0.866   5.817   0.275  1.00  0.00     0.018 A 
ATOM     19  C   UNL     1      -0.306   6.397   0.598  1.00  0.00     0.073 A 
ATOM     20  C   UNL     1      -1.028   7.190  -0.406  1.00  0.00     0.182 A 
ATOM     21  C   UNL     1       0.848   6.851  -1.928  1.00  0.00     0.018 A 
ATOM     22  O   UNL     1      -2.146   7.640  -0.191  1.00  0.00    -0.290 OA
ATOM     23  C   UNL     1      -0.334   7.445  -1.674  1.00  0.00     0.073 A 
ATOM     24  C   UNL     1       1.510   7.271  -3.216  1.00  0.00     0.064 C 
ENDBRANCH  15  16
ENDBRANCH  10  15
ENDBRANCH   6   9
ENDBRANCH   4   5
ENDBRANCH   3   4
ENDBRANCH   2   3
ENDBRANCH   1   2
BRANCH   1  25
ATOM     25  C   UNL     1      -3.242   1.396  -0.912  1.00  0.00     0.021 C 
BRANCH  25  26
ATOM     26  C   UNL     1      -4.002   2.475  -1.681  1.00  0.00     0.116 C 
BRANCH  26  27
ATOM     27  N   UNL     1      -5.075   1.900  -2.476  1.00  0.00    -0.352 N 
ATOM     28  C   UNL     1      -6.431   2.007  -2.296  1.00  0.00     0.251 C 
ATOM     29  H   UNL     1      -4.789   1.361  -3.248  1.00  0.00     0.163 HD
ATOM     30  O   UNL     1      -7.191   1.235  -2.870  1.00  0.00    -0.269 OA
BRANCH  28  31
ATOM     31  C   UNL     1      -6.966   3.058  -1.406  1.00  0.00     0.039 A 
ATOM     32  C   UNL     1      -7.961   2.730  -0.483  1.00  0.00     0.014 A 
ATOM     33  C   UNL     1      -6.496   4.372  -1.503  1.00  0.00     0.014 A 
ATOM     34  C   UNL     1      -8.458   3.715   0.373  1.00  0.00     0.010 A 
ATOM     35  C   UNL     1      -6.946   5.337  -0.607  1.00  0.00     0.010 A 
ATOM     36  C   UNL     1      -7.941   5.020   0.330  1.00  0.00    -0.014 A 
BRANCH  36  37
ATOM     37  C   UNL     1      -8.451   6.080   1.234  1.00  0.00     0.031 A 
ATOM     38  C   UNL     1      -9.209   7.247   0.662  1.00  0.00     0.074 A 
ATOM     39  C   UNL     1      -8.197   6.011   2.555  1.00  0.00     0.049 A 
ATOM     40  N   UNL     1      -9.683   8.302   1.272  1.00  0.00    -0.248 NA
ATOM     41  C   UNL     1      -9.450   7.235  -0.790  1.00  0.00     0.031 C 
ATOM     42  C   UNL     1      -7.448   4.941   3.217  1.00  0.00     0.029 A 
ATOM     43  N   UNL     1      -8.534   6.861   3.577  1.00  0.00    -0.354 N 
ATOM     44  C   UNL     1     -10.270   9.079   0.281  1.00  0.00     0.074 A 
ATOM     45  C   UNL     1     -10.049   8.402  -0.977  1.00  0.00     0.031 C 
ATOM     46  C   UNL     1      -7.403   5.187   4.537  1.00  0.00     0.029 A 
ATOM     47  C   UNL     1      -8.085   6.449   4.809  1.00  0.00     0.049 A 
ATOM     48  H   UNL     1      -9.049   7.689   3.441  1.00  0.00     0.167 HD
ATOM     49  C   UNL     1     -10.954  10.240   0.413  1.00  0.00     0.037 A 
ATOM     50  C   UNL     1      -8.206   7.027   6.021  1.00  0.00     0.037 A 
ATOM     51  C   UNL     1     -11.184  10.899   1.672  1.00  0.00     0.049 A 
ATOM     52  C   UNL     1      -8.950   8.330   6.137  1.00  0.00     0.074 A 
ATOM     53  C   UNL     1     -11.895  12.061   1.918  1.00  0.00     0.029 A 
ATOM     54  N   UNL     1     -10.709  10.453   2.897  1.00  0.00    -0.354 N 
ATOM     55  N   UNL     1      -9.532   9.034   5.195  1.00  0.00    -0.248 NA
ATOM     56  C   UNL     1      -9.056   8.918   7.480  1.00  0.00     0.031 C 
ATOM     57  C   UNL     1     -11.818  12.338   3.287  1.00  0.00     0.029 A 
ATOM     58  C   UNL     1     -11.099  11.324   3.901  1.00  0.00     0.049 A 
ATOM     59  H   UNL     1     -10.175   9.638   3.033  1.00  0.00     0.167 HD
ATOM     60  C   UNL     1     -10.092  10.135   5.834  1.00  0.00     0.074 A 
ATOM     61  C   UNL     1      -9.790   9.996   7.244  1.00  0.00     0.031 C 
ATOM     62  C   UNL     1     -10.791  11.168   5.301  1.00  0.00     0.037 A 
BRANCH  49  63
ATOM     63  C   UNL     1     -11.519  10.865  -0.833  1.00  0.00     0.058 A 
ATOM     64  C   UNL     1     -12.614  10.298  -1.504  1.00  0.00     0.135 A 
ATOM     65  C   UNL     1     -10.998  12.070  -1.332  1.00  0.00     0.135 A 
ATOM     66  F   UNL     1     -13.140   9.137  -1.081  1.00  0.00    -0.206 F 
ATOM     67  C   UNL     1     -13.162  10.893  -2.635  1.00  0.00     0.059 A 
ATOM     68  C   UNL     1     -11.547  12.696  -2.448  1.00  0.00     0.059 A 
ATOM     69  F   UNL     1      -9.949  12.654  -0.731  1.00  0.00    -0.206 F 
ATOM     70  C   UNL     1     -12.624  12.095  -3.097  1.00  0.00     0.060 A 
BRANCH  70  71
ATOM     71  S   UNL     1     -13.368  12.866  -4.551  1.00  0.00     0.124 S 
ATOM     72  O   UNL     1     -12.960  11.947  -5.610  1.00  0.00    -0.237 OA
ATOM     73  O   UNL     1     -14.788  12.854  -4.216  1.00  0.00    -0.237 OA
ATOM     74  O   UNL     1     -12.747  14.186  -4.593  1.00  0.00    -0.744 OA
ENDBRANCH  70  71
ENDBRANCH  49  63
BRANCH  50  75
ATOM     75  C   UNL     1      -7.633   6.362   7.221  1.00  0.00     0.058 A 
ATOM     76  C   UNL     1      -8.467   5.780   8.187  1.00  0.00     0.135 A 
ATOM     77  C   UNL     1      -6.246   6.271   7.416  1.00  0.00     0.135 A 
ATOM     78  F   UNL     1      -9.800   5.848   8.049  1.00  0.00    -0.206 F 
ATOM     79  C   UNL     1      -7.950   5.141   9.309  1.00  0.00     0.059 A 
ATOM     80  C   UNL     1      -5.704   5.615   8.517  1.00  0.00     0.059 A 
ATOM     81  F   UNL     1      -5.403   6.797   6.513  1.00  0.00    -0.206 F 
ATOM     82  C   UNL     1      -6.565   5.059   9.462  1.00  0.00     0.060 A 
BRANCH  82  83
ATOM     83  S   UNL     1      -5.904   4.176  10.893  1.00  0.00     0.124 S 
ATOM     84  O   UNL     1      -6.233   5.089  11.981  1.00  0.00    -0.237 OA
ATOM     85  O   UNL     1      -6.660   2.927  10.856  1.00  0.00    -0.237 OA
ATOM     86  O   UNL     1      -4.483   4.048  10.582  1.00  0.00    -0.744 OA
ENDBRANCH  82  83
ENDBRANCH  50  75
BRANCH  62  87
ATOM     87  C   UNL     1     -11.298  12.221   6.245  1.00  0.00     0.058 A 
ATOM     88  C   UNL     1     -10.435  13.160   6.830  1.00  0.00     0.135 A 
ATOM     89  C   UNL     1     -12.671  12.332   6.517  1.00  0.00     0.135 A 
ATOM     90  F   UNL     1      -9.113  13.094   6.607  1.00  0.00    -0.206 F 
ATOM     91  C   UNL     1     -10.914  14.161   7.669  1.00  0.00     0.059 A 
ATOM     92  C   UNL     1     -13.175  13.341   7.331  1.00  0.00     0.059 A 
ATOM     93  F   UNL     1     -13.541  11.465   5.974  1.00  0.00    -0.206 F 
ATOM     94  C   UNL     1     -12.286  14.246   7.910  1.00  0.00     0.060 A 
BRANCH  94  95
ATOM     95  S   UNL     1     -12.895  15.572   8.973  1.00  0.00     0.124 S 
ATOM     96  O   UNL     1     -12.445  15.127  10.287  1.00  0.00    -0.237 OA
ATOM     97  O   UNL     1     -12.211  16.743   8.432  1.00  0.00    -0.237 OA
ATOM     98  O   UNL     1     -14.339  15.543   8.761  1.00  0.00    -0.744 OA
ENDBRANCH  94  95
ENDBRANCH  62  87
ENDBRANCH  36  37
ENDBRANCH  28  31
ENDBRANCH  26  27
ENDBRANCH  25  26
ENDBRANCH   1  25
TORSDOF 18
