REMARK SMILES CCc1cc(C(=O)N[C@@H]2C=C[C@H](C(=O)NCCCCCCNC(=O)c3ccc(-c4c5nc(c(-c6c(F)cc(S(=O)(=O)[O-])cc6F)c6ccc([nH]6)c(-c6c(F)cc(S(=O)(=O)[O-])cc6F)c6nc(c(-c7c(F)cc(S(=O)(=O)[O-])cc7F)c7ccc4[nH]7)C=C6)C=C5)cc3)C2)n(C)n1
REMARK SMILES IDX 18 1 17 2 16 3 15 4 13 5 14 6 12 8 9 9 10 10 91 11 11 12
REMARK SMILES IDX 8 13 6 14 7 15 5 17 3 18 4 19 94 20 92 21 93 22 2 23 1 24
REMARK SMILES IDX 19 25 20 26 21 27 22 28 23 29 24 31 25 32 26 33 90 34 27 35
REMARK SMILES IDX 89 36 28 37 29 38 30 39 83 40 31 41 88 42 82 43 84 44 32 45
REMARK SMILES IDX 87 46 81 47 80 48 33 50 67 51 46 52 66 53 47 54 50 55 65 56
REMARK SMILES IDX 85 57 48 58 49 59 64 61 86 62 51 63 34 64 35 65 44 66 36 67
REMARK SMILES IDX 37 68 43 69 45 70 38 71 39 72 40 73 41 74 42 75 68 76 69 77
REMARK SMILES IDX 78 78 70 79 71 80 77 81 79 82 72 83 73 84 74 85 75 86 76 87
REMARK SMILES IDX 52 88 53 89 62 90 54 91 55 92 61 93 63 94 56 95 57 96 58 97
REMARK SMILES IDX 59 98 60 99
REMARK H PARENT 15 7 8 16 22 30 84 49 50 60
REMARK Flexibility Score: inf
ROOT
ATOM      1  C   UNL     1       7.838  -2.663   4.801  1.00  0.00     0.002 C 
ENDROOT
BRANCH   1   2
ATOM      2  C   UNL     1       6.342  -2.361   4.819  1.00  0.00     0.021 C 
BRANCH   2   3
ATOM      3  C   UNL     1       5.460  -3.378   4.088  1.00  0.00     0.116 C 
BRANCH   3   4
ATOM      4  N   UNL     1       5.010  -4.428   4.988  1.00  0.00    -0.356 N 
ATOM      5  C   UNL     1       3.806  -4.583   5.621  1.00  0.00     0.227 C 
ATOM      6  O   UNL     1       3.662  -5.570   6.346  1.00  0.00    -0.274 OA
ATOM      7  H   UNL     1       5.672  -5.134   5.170  1.00  0.00     0.163 HD
BRANCH   5   8
ATOM      8  C   UNL     1       2.661  -3.601   5.324  1.00  0.00     0.103 C 
ATOM      9  C   UNL     1       2.158  -1.716   6.866  1.00  0.00     0.106 C 
ATOM     10  C   UNL     1       1.156  -2.824   6.970  1.00  0.00    -0.006 C 
ATOM     11  C   UNL     1       2.975  -2.136   5.651  1.00  0.00     0.047 C 
ATOM     12  C   UNL     1       1.435  -3.846   6.152  1.00  0.00    -0.016 C 
BRANCH   9  13
ATOM     13  N   UNL     1       2.857  -1.653   8.131  1.00  0.00    -0.344 N 
ATOM     14  C   UNL     1       3.960  -1.036   8.648  1.00  0.00     0.270 C 
ATOM     15  O   UNL     1       4.071  -1.177   9.872  1.00  0.00    -0.268 OA
ATOM     16  H   UNL     1       2.414  -2.212   8.809  1.00  0.00     0.164 HD
BRANCH  14  17
ATOM     17  C   UNL     1       5.003  -0.371   7.899  1.00  0.00     0.126 A 
ATOM     18  C   UNL     1       7.059   0.396   7.376  1.00  0.00     0.063 A 
ATOM     19  C   UNL     1       6.330  -0.340   8.326  1.00  0.00     0.059 A 
ATOM     20  N   UNL     1       6.253   0.810   6.395  1.00  0.00    -0.178 NA
ATOM     21  N   UNL     1       5.013   0.426   6.782  1.00  0.00    -0.263 N 
ATOM     22  C   UNL     1       3.919   0.976   6.022  1.00  0.00     0.174 C 
BRANCH  18  23
ATOM     23  C   UNL     1       8.511   0.756   7.361  1.00  0.00     0.055 C 
ATOM     24  C   UNL     1       9.406  -0.174   8.167  1.00  0.00     0.011 C 
ENDBRANCH  18  23
ENDBRANCH  14  17
ENDBRANCH   9  13
ENDBRANCH   5   8
ENDBRANCH   3   4
ENDBRANCH   2   3
ENDBRANCH   1   2
BRANCH   1  25
ATOM     25  C   UNL     1       8.499  -2.590   3.425  1.00  0.00     0.002 C 
BRANCH  25  26
ATOM     26  C   UNL     1       8.344  -1.264   2.670  1.00  0.00     0.021 C 
BRANCH  26  27
ATOM     27  C   UNL     1       8.799  -0.005   3.410  1.00  0.00     0.116 C 
BRANCH  27  28
ATOM     28  N   UNL     1      10.140  -0.130   3.960  1.00  0.00    -0.352 N 
ATOM     29  C   UNL     1      11.203   0.729   3.905  1.00  0.00     0.251 C 
ATOM     30  H   UNL     1      10.309  -0.967   4.449  1.00  0.00     0.163 HD
ATOM     31  O   UNL     1      12.296   0.365   4.346  1.00  0.00    -0.269 OA
BRANCH  29  32
ATOM     32  C   UNL     1      11.067   2.073   3.307  1.00  0.00     0.039 A 
ATOM     33  C   UNL     1      12.052   2.501   2.413  1.00  0.00     0.014 A 
ATOM     34  C   UNL     1      10.012   2.926   3.647  1.00  0.00     0.014 A 
ATOM     35  C   UNL     1      11.953   3.760   1.819  1.00  0.00     0.010 A 
ATOM     36  C   UNL     1       9.890   4.169   3.018  1.00  0.00     0.010 A 
ATOM     37  C   UNL     1      10.856   4.595   2.093  1.00  0.00    -0.014 A 
BRANCH  37  38
ATOM     38  C   UNL     1      10.702   5.879   1.360  1.00  0.00     0.031 A 
ATOM     39  C   UNL     1      10.825   7.201   2.065  1.00  0.00     0.074 A 
ATOM     40  C   UNL     1      10.436   5.844   0.038  1.00  0.00     0.049 A 
ATOM     41  N   UNL     1      10.782   8.409   1.562  1.00  0.00    -0.248 NA
ATOM     42  C   UNL     1      11.002   7.166   3.524  1.00  0.00     0.031 C 
ATOM     43  C   UNL     1      10.235   4.623  -0.747  1.00  0.00     0.029 A 
ATOM     44  N   UNL     1      10.297   6.854  -0.880  1.00  0.00    -0.354 N 
ATOM     45  C   UNL     1      10.930   9.278   2.637  1.00  0.00     0.074 A 
ATOM     46  C   UNL     1      11.012   8.457   3.828  1.00  0.00     0.031 C 
ATOM     47  C   UNL     1      10.032   4.954  -2.031  1.00  0.00     0.029 A 
ATOM     48  C   UNL     1      10.060   6.408  -2.159  1.00  0.00     0.049 A 
ATOM     49  H   UNL     1      10.360   7.808  -0.645  1.00  0.00     0.167 HD
ATOM     50  C   UNL     1      11.010  10.631   2.629  1.00  0.00     0.037 A 
ATOM     51  C   UNL     1       9.890   7.089  -3.308  1.00  0.00     0.037 A 
ATOM     52  C   UNL     1      10.930  11.440   1.438  1.00  0.00     0.049 A 
ATOM     53  C   UNL     1       9.991   8.589  -3.292  1.00  0.00     0.074 A 
ATOM     54  C   UNL     1      11.061  12.814   1.319  1.00  0.00     0.029 A 
ATOM     55  N   UNL     1      10.690  10.954   0.160  1.00  0.00    -0.354 N 
ATOM     56  N   UNL     1      10.218   9.389  -2.276  1.00  0.00    -0.248 NA
ATOM     57  C   UNL     1       9.825   9.279  -4.577  1.00  0.00     0.031 C 
ATOM     58  C   UNL     1      10.848  13.162  -0.020  1.00  0.00     0.029 A 
ATOM     59  C   UNL     1      10.638  12.002  -0.747  1.00  0.00     0.049 A 
ATOM     60  H   UNL     1      10.572  10.004  -0.069  1.00  0.00     0.167 HD
ATOM     61  C   UNL     1      10.238  10.675  -2.804  1.00  0.00     0.074 A 
ATOM     62  C   UNL     1      10.027  10.543  -4.231  1.00  0.00     0.031 C 
ATOM     63  C   UNL     1      10.412  11.859  -2.164  1.00  0.00     0.037 A 
BRANCH  50  64
ATOM     64  C   UNL     1      11.194  11.330   3.951  1.00  0.00     0.058 A 
ATOM     65  C   UNL     1      12.399  11.248   4.667  1.00  0.00     0.135 A 
ATOM     66  C   UNL     1      10.172  12.132   4.486  1.00  0.00     0.135 A 
ATOM     67  F   UNL     1      13.407  10.487   4.209  1.00  0.00    -0.206 F 
ATOM     68  C   UNL     1      12.576  11.912   5.877  1.00  0.00     0.059 A 
ATOM     69  C   UNL     1      10.337  12.828   5.681  1.00  0.00     0.059 A 
ATOM     70  F   UNL     1       8.999  12.251   3.844  1.00  0.00    -0.206 F 
ATOM     71  C   UNL     1      11.539  12.701   6.376  1.00  0.00     0.060 A 
BRANCH  71  72
ATOM     72  S   UNL     1      11.788  13.563   7.943  1.00  0.00     0.124 S 
ATOM     73  O   UNL     1      11.736  12.458   8.895  1.00  0.00    -0.237 OA
ATOM     74  O   UNL     1      13.099  14.176   7.756  1.00  0.00    -0.237 OA
ATOM     75  O   UNL     1      10.666  14.494   8.002  1.00  0.00    -0.744 OA
ENDBRANCH  71  72
ENDBRANCH  50  64
BRANCH  51  76
ATOM     76  C   UNL     1       9.633   6.353  -4.575  1.00  0.00     0.058 A 
ATOM     77  C   UNL     1      10.599   6.297  -5.590  1.00  0.00     0.135 A 
ATOM     78  C   UNL     1       8.422   5.676  -4.787  1.00  0.00     0.135 A 
ATOM     79  F   UNL     1      11.770   6.933  -5.437  1.00  0.00    -0.206 F 
ATOM     80  C   UNL     1      10.369   5.611  -6.778  1.00  0.00     0.059 A 
ATOM     81  C   UNL     1       8.179   4.960  -5.955  1.00  0.00     0.059 A 
ATOM     82  F   UNL     1       7.471   5.683  -3.839  1.00  0.00    -0.206 F 
ATOM     83  C   UNL     1       9.156   4.942  -6.950  1.00  0.00     0.060 A 
BRANCH  83  84
ATOM     84  S   UNL     1       8.886   4.010  -8.473  1.00  0.00     0.124 S 
ATOM     85  O   UNL     1       8.671   5.081  -9.438  1.00  0.00    -0.237 OA
ATOM     86  O   UNL     1      10.138   3.270  -8.605  1.00  0.00    -0.237 OA
ATOM     87  O   UNL     1       7.716   3.193  -8.163  1.00  0.00    -0.744 OA
ENDBRANCH  83  84
ENDBRANCH  51  76
BRANCH  63  88
ATOM     88  C   UNL     1      10.389  13.104  -3.011  1.00  0.00     0.058 A 
ATOM     89  C   UNL     1       9.203  13.572  -3.600  1.00  0.00     0.135 A 
ATOM     90  C   UNL     1      11.563  13.843  -3.228  1.00  0.00     0.135 A 
ATOM     91  F   UNL     1       8.053  12.902  -3.430  1.00  0.00    -0.206 F 
ATOM     92  C   UNL     1       9.191  14.704  -4.409  1.00  0.00     0.059 A 
ATOM     93  C   UNL     1      11.568  14.995  -4.008  1.00  0.00     0.059 A 
ATOM     94  F   UNL     1      12.723  13.448  -2.679  1.00  0.00    -0.206 F 
ATOM     95  C   UNL     1      10.380  15.407  -4.611  1.00  0.00     0.060 A 
BRANCH  95  96
ATOM     96  S   UNL     1      10.352  16.872  -5.665  1.00  0.00     0.124 S 
ATOM     97  O   UNL     1      10.249  16.277  -6.993  1.00  0.00    -0.237 OA
ATOM     98  O   UNL     1       9.163  17.575  -5.192  1.00  0.00    -0.237 OA
ATOM     99  O   UNL     1      11.621  17.529  -5.367  1.00  0.00    -0.744 OA
ENDBRANCH  95  96
ENDBRANCH  63  88
ENDBRANCH  37  38
ENDBRANCH  29  32
ENDBRANCH  27  28
ENDBRANCH  26  27
ENDBRANCH  25  26
ENDBRANCH   1  25
TORSDOF 19
