REMARK SMILES CC(C)[NH2+][C@]1(C(=O)NCCCCCCNC(=O)c2ccc(-c3c4nc(c(-c5c(F)cc(S(=O)(=O)[O-])cc5F)c5ccc([nH]5)c(-c5c(F)cc(S(=O)(=O)[O-])cc5F)c5nc(c(-c6c(F)cc(S(=O)(=O)[O-])cc6F)c6ccc3[nH]6)C=C5)C=C4)cc2)CC[C@H]([N@H+](C)C2CCCC2)C1
REMARK SMILES IDX 12 1 11 2 10 3 9 4 8 5 6 6 7 7 5 9 84 10 94 11 85 12 86 13
REMARK SMILES IDX 4 14 2 17 1 18 3 19 87 20 88 21 89 23 90 24 93 25 91 26
REMARK SMILES IDX 92 27 13 28 14 29 15 30 16 31 17 33 18 34 19 35 83 36 20 37
REMARK SMILES IDX 82 38 21 39 22 40 23 41 76 42 24 43 81 44 75 45 77 46 25 47
REMARK SMILES IDX 80 48 74 49 73 50 26 52 60 53 39 54 59 55 40 56 43 57 58 58
REMARK SMILES IDX 78 59 41 60 42 61 57 63 79 64 44 65 27 66 28 67 37 68 29 69
REMARK SMILES IDX 30 70 36 71 38 72 31 73 32 74 33 75 34 76 35 77 61 78 62 79
REMARK SMILES IDX 71 80 63 81 64 82 70 83 72 84 65 85 66 86 67 87 68 88 69 89
REMARK SMILES IDX 45 90 46 91 55 92 47 93 48 94 54 95 56 96 49 97 50 98 51 99
REMARK SMILES IDX 52 100 53 101
REMARK H PARENT 8 8 4 15 4 16 87 22 15 32 77 51 43 62
REMARK Flexibility Score: inf
ROOT
ATOM      1  C   UNL     1       4.237  -0.003  -0.489  1.00  0.00     0.002 C 
ENDROOT
BRANCH   1   2
ATOM      2  C   UNL     1       3.250   1.133  -0.777  1.00  0.00     0.002 C 
BRANCH   2   3
ATOM      3  C   UNL     1       2.606   1.099  -2.174  1.00  0.00     0.021 C 
BRANCH   3   4
ATOM      4  C   UNL     1       2.009  -0.261  -2.560  1.00  0.00     0.116 C 
BRANCH   4   5
ATOM      5  N   UNL     1       1.001  -0.634  -1.606  1.00  0.00    -0.351 N 
ATOM      6  C   UNL     1      -0.308  -0.323  -1.516  1.00  0.00     0.281 C 
ATOM      7  O   UNL     1      -0.772  -0.482  -0.376  1.00  0.00    -0.268 OA
ATOM      8  H   UNL     1       1.325  -1.225  -0.888  1.00  0.00     0.163 HD
BRANCH   6   9
ATOM      9  C   UNL     1      -1.229   0.101  -2.734  1.00  0.00     0.181 C 
ATOM     10  C   UNL     1      -0.695   1.105  -3.775  1.00  0.00     0.085 C 
ATOM     11  C   UNL     1      -1.541  -1.194  -3.559  1.00  0.00     0.144 C 
ATOM     12  C   UNL     1      -1.130   0.634  -5.174  1.00  0.00     0.072 C 
ATOM     13  C   UNL     1      -1.490  -0.848  -5.068  1.00  0.00     0.191 C 
BRANCH   9  14
ATOM     14  N   UNL     1      -2.380   0.732  -2.046  1.00  0.00    -0.331 N 
ATOM     15  H   UNL     1      -2.506   0.241  -1.161  1.00  0.00     0.347 HD
ATOM     16  H   UNL     1      -2.121   1.716  -1.986  1.00  0.00     0.347 HD
BRANCH  14  17
ATOM     17  C   UNL     1      -3.651   0.748  -2.702  1.00  0.00     0.176 C 
ATOM     18  C   UNL     1      -4.753   0.351  -1.727  1.00  0.00     0.075 C 
ATOM     19  C   UNL     1      -3.962   2.067  -3.397  1.00  0.00     0.075 C 
ENDBRANCH  14  17
ENDBRANCH   9  14
BRANCH  13  20
ATOM     20  N   UNL     1      -2.478  -1.465  -6.025  1.00  0.00    -0.332 N 
ATOM     21  C   UNL     1      -1.753  -1.740  -7.290  1.00  0.00     0.333 C 
ATOM     22  H   UNL     1      -2.815  -2.277  -5.508  1.00  0.00     0.348 HD
BRANCH  20  23
ATOM     23  C   UNL     1      -3.773  -0.776  -6.351  1.00  0.00     0.184 C 
ATOM     24  C   UNL     1      -4.535  -1.400  -7.566  1.00  0.00     0.065 C 
ATOM     25  C   UNL     1      -4.937  -0.855  -5.350  1.00  0.00     0.065 C 
ATOM     26  C   UNL     1      -5.990  -0.932  -7.499  1.00  0.00     0.006 C 
ATOM     27  C   UNL     1      -6.167  -0.379  -6.109  1.00  0.00     0.006 C 
ENDBRANCH  20  23
ENDBRANCH  13  20
ENDBRANCH   6   9
ENDBRANCH   4   5
ENDBRANCH   3   4
ENDBRANCH   2   3
ENDBRANCH   1   2
BRANCH   1  28
ATOM     28  C   UNL     1       5.309  -0.198  -1.560  1.00  0.00     0.021 C 
BRANCH  28  29
ATOM     29  C   UNL     1       6.135   1.048  -1.835  1.00  0.00     0.116 C 
BRANCH  29  30
ATOM     30  N   UNL     1       6.934   1.417  -0.680  1.00  0.00    -0.352 N 
ATOM     31  C   UNL     1       8.297   1.536  -0.602  1.00  0.00     0.251 C 
ATOM     32  H   UNL     1       6.436   1.605   0.148  1.00  0.00     0.163 HD
ATOM     33  O   UNL     1       8.855   1.596   0.492  1.00  0.00    -0.269 OA
BRANCH  31  34
ATOM     34  C   UNL     1       9.082   1.576  -1.851  1.00  0.00     0.039 A 
ATOM     35  C   UNL     1      10.226   0.785  -1.963  1.00  0.00     0.014 A 
ATOM     36  C   UNL     1       8.663   2.375  -2.920  1.00  0.00     0.014 A 
ATOM     37  C   UNL     1      10.929   0.765  -3.167  1.00  0.00     0.010 A 
ATOM     38  C   UNL     1       9.313   2.285  -4.145  1.00  0.00     0.010 A 
ATOM     39  C   UNL     1      10.462   1.493  -4.276  1.00  0.00    -0.014 A 
BRANCH  39  40
ATOM     40  C   UNL     1      11.177   1.453  -5.576  1.00  0.00     0.031 A 
ATOM     41  C   UNL     1      11.780   2.711  -6.139  1.00  0.00     0.074 A 
ATOM     42  C   UNL     1      11.234   0.299  -6.270  1.00  0.00     0.049 A 
ATOM     43  N   UNL     1      12.398   2.892  -7.277  1.00  0.00    -0.248 NA
ATOM     44  C   UNL     1      11.648   3.934  -5.329  1.00  0.00     0.031 C 
ATOM     45  C   UNL     1      10.641  -0.972  -5.848  1.00  0.00     0.029 A 
ATOM     46  N   UNL     1      11.812   0.009  -7.480  1.00  0.00    -0.354 N 
ATOM     47  C   UNL     1      12.716   4.245  -7.325  1.00  0.00     0.074 A 
ATOM     48  C   UNL     1      12.170   4.851  -6.131  1.00  0.00     0.031 C 
ATOM     49  C   UNL     1      10.909  -1.911  -6.770  1.00  0.00     0.029 A 
ATOM     50  C   UNL     1      11.653  -1.301  -7.867  1.00  0.00     0.049 A 
ATOM     51  H   UNL     1      12.294   0.675  -8.020  1.00  0.00     0.167 HD
ATOM     52  C   UNL     1      13.420   4.915  -8.267  1.00  0.00     0.037 A 
ATOM     53  C   UNL     1      12.056  -1.937  -8.985  1.00  0.00     0.037 A 
ATOM     54  C   UNL     1      13.979   4.296  -9.440  1.00  0.00     0.049 A 
ATOM     55  C   UNL     1      12.832  -1.168 -10.021  1.00  0.00     0.074 A 
ATOM     56  C   UNL     1      14.763   4.872 -10.424  1.00  0.00     0.029 A 
ATOM     57  N   UNL     1      13.811   2.965  -9.790  1.00  0.00    -0.354 N 
ATOM     58  N   UNL     1      13.186   0.096 -10.015  1.00  0.00    -0.248 NA
ATOM     59  C   UNL     1      13.269  -1.910 -11.210  1.00  0.00     0.031 C 
ATOM     60  C   UNL     1      15.020   3.904 -11.399  1.00  0.00     0.029 A 
ATOM     61  C   UNL     1      14.452   2.707 -10.991  1.00  0.00     0.049 A 
ATOM     62  H   UNL     1      13.311   2.300  -9.264  1.00  0.00     0.167 HD
ATOM     63  C   UNL     1      13.914   0.292 -11.184  1.00  0.00     0.074 A 
ATOM     64  C   UNL     1      13.959  -0.986 -11.865  1.00  0.00     0.031 C 
ATOM     65  C   UNL     1      14.493   1.426 -11.652  1.00  0.00     0.037 A 
BRANCH  52  66
ATOM     66  C   UNL     1      13.626   6.393  -8.069  1.00  0.00     0.058 A 
ATOM     67  C   UNL     1      14.448   6.898  -7.048  1.00  0.00     0.135 A 
ATOM     68  C   UNL     1      13.024   7.318  -8.939  1.00  0.00     0.135 A 
ATOM     69  F   UNL     1      15.035   6.062  -6.177  1.00  0.00    -0.206 F 
ATOM     70  C   UNL     1      14.644   8.264  -6.879  1.00  0.00     0.059 A 
ATOM     71  C   UNL     1      13.232   8.688  -8.809  1.00  0.00     0.059 A 
ATOM     72  F   UNL     1      12.226   6.893  -9.931  1.00  0.00    -0.206 F 
ATOM     73  C   UNL     1      14.034   9.152  -7.766  1.00  0.00     0.060 A 
BRANCH  73  74
ATOM     74  S   UNL     1      14.309  10.921  -7.540  1.00  0.00     0.124 S 
ATOM     75  O   UNL     1      13.538  11.183  -6.329  1.00  0.00    -0.237 OA
ATOM     76  O   UNL     1      15.760  10.994  -7.395  1.00  0.00    -0.237 OA
ATOM     77  O   UNL     1      13.774  11.509  -8.763  1.00  0.00    -0.744 OA
ENDBRANCH  73  74
ENDBRANCH  52  66
BRANCH  53  78
ATOM     78  C   UNL     1      11.745  -3.379  -9.175  1.00  0.00     0.058 A 
ATOM     79  C   UNL     1      12.760  -4.348  -9.151  1.00  0.00     0.135 A 
ATOM     80  C   UNL     1      10.427  -3.820  -9.375  1.00  0.00     0.135 A 
ATOM     81  F   UNL     1      14.036  -3.978  -8.967  1.00  0.00    -0.206 F 
ATOM     82  C   UNL     1      12.484  -5.699  -9.341  1.00  0.00     0.059 A 
ATOM     83  C   UNL     1      10.123  -5.168  -9.538  1.00  0.00     0.059 A 
ATOM     84  F   UNL     1       9.417  -2.937  -9.388  1.00  0.00    -0.206 F 
ATOM     85  C   UNL     1      11.160  -6.098  -9.532  1.00  0.00     0.060 A 
BRANCH  85  86
ATOM     86  S   UNL     1      10.808  -7.858  -9.738  1.00  0.00     0.124 S 
ATOM     87  O   UNL     1      11.339  -8.109 -11.072  1.00  0.00    -0.237 OA
ATOM     88  O   UNL     1      11.553  -8.450  -8.631  1.00  0.00    -0.237 OA
ATOM     89  O   UNL     1       9.355  -7.925  -9.613  1.00  0.00    -0.744 OA
ENDBRANCH  85  86
ENDBRANCH  53  78
BRANCH  65  90
ATOM     90  C   UNL     1      15.261   1.332 -12.943  1.00  0.00     0.058 A 
ATOM     91  C   UNL     1      14.616   1.162 -14.178  1.00  0.00     0.135 A 
ATOM     92  C   UNL     1      16.659   1.471 -12.947  1.00  0.00     0.135 A 
ATOM     93  F   UNL     1      13.282   1.018 -14.230  1.00  0.00    -0.206 F 
ATOM     94  C   UNL     1      15.332   1.107 -15.369  1.00  0.00     0.059 A 
ATOM     95  C   UNL     1      17.391   1.452 -14.129  1.00  0.00     0.059 A 
ATOM     96  F   UNL     1      17.324   1.647 -11.794  1.00  0.00    -0.206 F 
ATOM     97  C   UNL     1      16.720   1.257 -15.334  1.00  0.00     0.060 A 
BRANCH  97  98
ATOM     98  S   UNL     1      17.632   1.219 -16.891  1.00  0.00     0.124 S 
ATOM     99  O   UNL     1      17.553  -0.194 -17.244  1.00  0.00    -0.237 OA
ATOM    100  O   UNL     1      16.854   2.126 -17.729  1.00  0.00    -0.237 OA
ATOM    101  O   UNL     1      18.959   1.701 -16.520  1.00  0.00    -0.744 OA
ENDBRANCH  97  98
ENDBRANCH  65  90
ENDBRANCH  39  40
ENDBRANCH  31  34
ENDBRANCH  29  30
ENDBRANCH  28  29
ENDBRANCH   1  28
TORSDOF 20
