REMARK SMILES CCC(CC)COc1cc2c(cc1Cl)C=C(C(=O)NCCCCCCNC(=O)c1ccc(-c3c4nc(c(-c5c(F)cc(S(=O)(=O)[O-])cc5F)c5ccc([nH]5)c(-c5c(F)cc(S(=O)(=O)[O-])cc5F)c5nc(c(-c6c(F)cc(S(=O)(=O)[O-])cc6F)c6ccc3[nH]6)C=C5)C=C4)cc1)[C@@H](C(F)(F)F)O2
REMARK SMILES IDX 22 1 21 2 20 3 19 4 17 5 18 6 16 8 8 9 9 10 13 11 10 12
REMARK SMILES IDX 12 13 14 14 11 15 100 16 15 17 95 18 7 19 6 20 3 21 2 22
REMARK SMILES IDX 1 23 4 24 5 25 96 26 97 27 98 28 99 29 23 30 24 31 25 32
REMARK SMILES IDX 26 33 27 34 28 36 29 37 30 38 94 39 31 40 93 41 32 42 33 43
REMARK SMILES IDX 34 44 87 45 35 46 92 47 86 48 88 49 36 50 91 51 85 52 84 53
REMARK SMILES IDX 37 55 71 56 50 57 70 58 51 59 54 60 69 61 89 62 52 63 53 64
REMARK SMILES IDX 68 66 90 67 55 68 38 69 39 70 48 71 40 72 41 73 47 74 49 75
REMARK SMILES IDX 42 76 43 77 44 78 45 79 46 80 72 81 73 82 82 83 74 84 75 85
REMARK SMILES IDX 81 86 83 87 76 88 77 89 78 90 79 91 80 92 56 93 57 94 66 95
REMARK SMILES IDX 58 96 59 97 65 98 67 99 60 100 61 101 62 102 63 103 64 104
REMARK H PARENT 19 7 26 35 88 54 54 65
REMARK Flexibility Score: inf
ROOT
ATOM      1  C   UNL     1      -4.832   3.031  10.214  1.00  0.00     0.002 C 
ENDROOT
BRANCH   1   2
ATOM      2  C   UNL     1      -4.249   3.550   8.897  1.00  0.00     0.021 C 
BRANCH   2   3
ATOM      3  C   UNL     1      -2.760   3.269   8.720  1.00  0.00     0.116 C 
BRANCH   3   4
ATOM      4  N   UNL     1      -2.535   1.926   8.218  1.00  0.00    -0.352 N 
ATOM      5  C   UNL     1      -1.857   1.362   7.193  1.00  0.00     0.251 C 
ATOM      6  O   UNL     1      -1.880   0.127   7.160  1.00  0.00    -0.270 OA
ATOM      7  H   UNL     1      -2.995   1.250   8.766  1.00  0.00     0.163 HD
BRANCH   5   8
ATOM      8  C   UNL     1      -1.128   2.109   6.133  1.00  0.00     0.067 C 
ATOM      9  C   UNL     1       1.271   3.209   1.873  1.00  0.00     0.141 A 
ATOM     10  C   UNL     1       0.263   3.848   2.594  1.00  0.00     0.095 A 
ATOM     11  C   UNL     1       1.913   2.083   2.407  1.00  0.00     0.083 A 
ATOM     12  C   UNL     1      -0.184   3.273   3.777  1.00  0.00     0.131 A 
ATOM     13  C   UNL     1       1.401   1.467   3.550  1.00  0.00     0.036 A 
ATOM     14  Cl  UNL     1       3.280   1.366   1.635  1.00  0.00    -0.080 Cl
ATOM     15  C   UNL     1       0.320   2.043   4.213  1.00  0.00     0.019 A 
ATOM     16  O   UNL     1      -1.157   3.938   4.474  1.00  0.00    -0.475 OA
ATOM     17  C   UNL     1      -0.349   1.369   5.321  1.00  0.00     0.025 C 
ATOM     18  C   UNL     1      -1.215   3.590   5.891  1.00  0.00     0.314 C 
BRANCH   9  19
ATOM     19  O   UNL     1       1.617   3.678   0.634  1.00  0.00    -0.492 OA
BRANCH  19  20
ATOM     20  C   UNL     1       0.600   3.408  -0.360  1.00  0.00     0.233 C 
BRANCH  20  21
ATOM     21  C   UNL     1       0.813   2.025  -1.024  1.00  0.00     0.026 C 
BRANCH  21  22
ATOM     22  C   UNL     1       0.086   0.896  -0.255  1.00  0.00     0.003 C 
ATOM     23  C   UNL     1       0.640  -0.485  -0.574  1.00  0.00     0.004 C 
ENDBRANCH  21  22
BRANCH  21  24
ATOM     24  C   UNL     1       0.421   2.044  -2.518  1.00  0.00     0.003 C 
ATOM     25  C   UNL     1      -1.067   2.194  -2.804  1.00  0.00     0.004 C 
ENDBRANCH  21  24
ENDBRANCH  20  21
ENDBRANCH  19  20
ENDBRANCH   9  19
BRANCH  18  26
ATOM     26  C   UNL     1      -0.143   4.359   6.698  1.00  0.00     0.429 C 
ATOM     27  F   UNL     1      -0.429   5.681   6.740  1.00  0.00    -0.167 F 
ATOM     28  F   UNL     1      -0.080   3.933   7.984  1.00  0.00    -0.167 F 
ATOM     29  F   UNL     1       1.101   4.225   6.187  1.00  0.00    -0.167 F 
ENDBRANCH  18  26
ENDBRANCH   5   8
ENDBRANCH   3   4
ENDBRANCH   2   3
ENDBRANCH   1   2
BRANCH   1  30
ATOM     30  C   UNL     1      -4.168   3.574  11.486  1.00  0.00     0.002 C 
BRANCH  30  31
ATOM     31  C   UNL     1      -3.992   5.093  11.544  1.00  0.00     0.021 C 
BRANCH  31  32
ATOM     32  C   UNL     1      -5.277   5.897  11.385  1.00  0.00     0.116 C 
BRANCH  32  33
ATOM     33  N   UNL     1      -6.229   5.644  12.454  1.00  0.00    -0.352 N 
ATOM     34  C   UNL     1      -6.892   6.545  13.255  1.00  0.00     0.251 C 
ATOM     35  H   UNL     1      -6.428   4.695  12.629  1.00  0.00     0.163 HD
ATOM     36  O   UNL     1      -7.549   6.154  14.211  1.00  0.00    -0.269 OA
BRANCH  34  37
ATOM     37  C   UNL     1      -6.772   7.991  12.968  1.00  0.00     0.039 A 
ATOM     38  C   UNL     1      -6.946   8.474  11.669  1.00  0.00     0.014 A 
ATOM     39  C   UNL     1      -6.442   8.863  14.008  1.00  0.00     0.014 A 
ATOM     40  C   UNL     1      -6.635   9.799  11.381  1.00  0.00     0.010 A 
ATOM     41  C   UNL     1      -6.202  10.211  13.728  1.00  0.00     0.010 A 
ATOM     42  C   UNL     1      -6.247  10.679  12.404  1.00  0.00    -0.014 A 
BRANCH  42  43
ATOM     43  C   UNL     1      -5.859  12.074  12.072  1.00  0.00     0.031 A 
ATOM     44  C   UNL     1      -4.442  12.540  12.281  1.00  0.00     0.074 A 
ATOM     45  C   UNL     1      -6.773  12.909  11.540  1.00  0.00     0.049 A 
ATOM     46  N   UNL     1      -3.927  13.727  12.088  1.00  0.00    -0.248 NA
ATOM     47  C   UNL     1      -3.477  11.543  12.773  1.00  0.00     0.031 C 
ATOM     48  C   UNL     1      -8.169  12.566  11.265  1.00  0.00     0.029 A 
ATOM     49  N   UNL     1      -6.661  14.210  11.120  1.00  0.00    -0.354 N 
ATOM     50  C   UNL     1      -2.588  13.627  12.451  1.00  0.00     0.074 A 
ATOM     51  C   UNL     1      -2.374  12.269  12.901  1.00  0.00     0.031 C 
ATOM     52  C   UNL     1      -8.773  13.615  10.685  1.00  0.00     0.029 A 
ATOM     53  C   UNL     1      -7.827  14.723  10.605  1.00  0.00     0.049 A 
ATOM     54  H   UNL     1      -5.825  14.727  11.181  1.00  0.00     0.167 HD
ATOM     55  C   UNL     1      -1.623  14.577  12.400  1.00  0.00     0.037 A 
ATOM     56  C   UNL     1      -8.111  15.955  10.139  1.00  0.00     0.037 A 
ATOM     57  C   UNL     1      -1.836  15.921  11.928  1.00  0.00     0.049 A 
ATOM     58  C   UNL     1      -7.038  17.006  10.146  1.00  0.00     0.074 A 
ATOM     59  C   UNL     1      -0.918  16.953  11.826  1.00  0.00     0.029 A 
ATOM     60  N   UNL     1      -3.047  16.419  11.472  1.00  0.00    -0.354 N 
ATOM     61  N   UNL     1      -5.784  16.899  10.513  1.00  0.00    -0.248 NA
ATOM     62  C   UNL     1      -7.423  18.349   9.692  1.00  0.00     0.031 C 
ATOM     63  C   UNL     1      -1.584  18.085  11.343  1.00  0.00     0.029 A 
ATOM     64  C   UNL     1      -2.906  17.748  11.106  1.00  0.00     0.049 A 
ATOM     65  H   UNL     1      -3.885  15.904  11.417  1.00  0.00     0.167 HD
ATOM     66  C   UNL     1      -5.228  18.160  10.332  1.00  0.00     0.074 A 
ATOM     67  C   UNL     1      -6.276  19.006   9.799  1.00  0.00     0.031 C 
ATOM     68  C   UNL     1      -3.965  18.579  10.589  1.00  0.00     0.037 A 
BRANCH  55  69
ATOM     69  C   UNL     1      -0.247  14.204  12.877  1.00  0.00     0.058 A 
ATOM     70  C   UNL     1       0.596  13.376  12.118  1.00  0.00     0.135 A 
ATOM     71  C   UNL     1       0.255  14.719  14.083  1.00  0.00     0.135 A 
ATOM     72  F   UNL     1       0.159  12.842  10.966  1.00  0.00    -0.206 F 
ATOM     73  C   UNL     1       1.881  13.058  12.546  1.00  0.00     0.059 A 
ATOM     74  C   UNL     1       1.545  14.432  14.521  1.00  0.00     0.059 A 
ATOM     75  F   UNL     1      -0.510  15.513  14.849  1.00  0.00    -0.206 F 
ATOM     76  C   UNL     1       2.347  13.592  13.749  1.00  0.00     0.060 A 
BRANCH  76  77
ATOM     77  S   UNL     1       4.021  13.175  14.284  1.00  0.00     0.124 S 
ATOM     78  O   UNL     1       3.864  11.774  14.662  1.00  0.00    -0.237 OA
ATOM     79  O   UNL     1       4.803  13.422  13.078  1.00  0.00    -0.237 OA
ATOM     80  O   UNL     1       4.266  14.098  15.388  1.00  0.00    -0.744 OA
ENDBRANCH  76  77
ENDBRANCH  55  69
BRANCH  56  81
ATOM     81  C   UNL     1      -9.478  16.256   9.641  1.00  0.00     0.058 A 
ATOM     82  C   UNL     1      -9.719  16.453   8.274  1.00  0.00     0.135 A 
ATOM     83  C   UNL     1     -10.574  16.320  10.517  1.00  0.00     0.135 A 
ATOM     84  F   UNL     1      -8.701  16.411   7.401  1.00  0.00    -0.206 F 
ATOM     85  C   UNL     1     -10.999  16.704   7.791  1.00  0.00     0.059 A 
ATOM     86  C   UNL     1     -11.866  16.545  10.054  1.00  0.00     0.059 A 
ATOM     87  F   UNL     1     -10.396  16.127  11.833  1.00  0.00    -0.206 F 
ATOM     88  C   UNL     1     -12.067  16.741   8.689  1.00  0.00     0.060 A 
BRANCH  88  89
ATOM     89  S   UNL     1     -13.733  16.997   8.041  1.00  0.00     0.124 S 
ATOM     90  O   UNL     1     -13.695  18.410   7.684  1.00  0.00    -0.237 OA
ATOM     91  O   UNL     1     -13.775  16.057   6.925  1.00  0.00    -0.237 OA
ATOM     92  O   UNL     1     -14.590  16.653   9.172  1.00  0.00    -0.744 OA
ENDBRANCH  88  89
ENDBRANCH  56  81
BRANCH  68  93
ATOM     93  C   UNL     1      -3.647  20.019  10.301  1.00  0.00     0.058 A 
ATOM     94  C   UNL     1      -4.106  21.049  11.136  1.00  0.00     0.135 A 
ATOM     95  C   UNL     1      -2.839  20.369   9.208  1.00  0.00     0.135 A 
ATOM     96  F   UNL     1      -4.889  20.766  12.189  1.00  0.00    -0.206 F 
ATOM     97  C   UNL     1      -3.790  22.380  10.887  1.00  0.00     0.059 A 
ATOM     98  C   UNL     1      -2.490  21.692   8.953  1.00  0.00     0.059 A 
ATOM     99  F   UNL     1      -2.367  19.420   8.384  1.00  0.00    -0.206 F 
ATOM    100  C   UNL     1      -2.980  22.691   9.794  1.00  0.00     0.060 A 
BRANCH 100 101
ATOM    101  S   UNL     1      -2.553  24.421   9.501  1.00  0.00     0.124 S 
ATOM    102  O   UNL     1      -3.813  24.953   8.993  1.00  0.00    -0.237 OA
ATOM    103  O   UNL     1      -2.163  24.876  10.832  1.00  0.00    -0.237 OA
ATOM    104  O   UNL     1      -1.467  24.343   8.528  1.00  0.00    -0.744 OA
ENDBRANCH 100 101
ENDBRANCH  68  93
ENDBRANCH  42  43
ENDBRANCH  34  37
ENDBRANCH  32  33
ENDBRANCH  31  32
ENDBRANCH  30  31
ENDBRANCH   1  30
TORSDOF 22
