REMARK SMILES C[NH+](Cc1ccc2nsnc2c1)Cc1ccccc1C(=O)NCCCCCCNC(=O)c1ccc(-c2c3nc(c(-c4c(F)cc(S(=O)(=O)[O-])cc4F)c4ccc([nH]4)c(-c4c(F)cc(S(=O)(=O)[O-])cc4F)c4nc(c(-c5c(F)cc(S(=O)(=O)[O-])cc5F)c5ccc2[nH]5)C=C4)C=C3)cc1
REMARK SMILES IDX 25 1 24 2 23 3 22 4 20 5 21 6 19 8 14 9 15 10 16 11 18 12
REMARK SMILES IDX 17 13 13 14 2 15 1 16 3 18 4 19 5 20 12 21 6 22 11 23 7 24
REMARK SMILES IDX 10 25 8 26 9 27 26 28 27 29 28 30 29 31 30 32 31 34 32 35
REMARK SMILES IDX 33 36 97 37 34 38 96 39 35 40 36 41 37 42 90 43 38 44 95 45
REMARK SMILES IDX 89 46 91 47 39 48 94 49 88 50 87 51 40 53 74 54 53 55 73 56
REMARK SMILES IDX 54 57 57 58 72 59 92 60 55 61 56 62 71 64 93 65 58 66 41 67
REMARK SMILES IDX 42 68 51 69 43 70 44 71 50 72 52 73 45 74 46 75 47 76 48 77
REMARK SMILES IDX 49 78 75 79 76 80 85 81 77 82 78 83 84 84 86 85 79 86 80 87
REMARK SMILES IDX 81 88 82 89 83 90 59 91 60 92 69 93 61 94 62 95 68 96 70 97
REMARK SMILES IDX 63 98 64 99 65 100 66 101 67 102
REMARK H PARENT 22 7 2 17 29 33 91 52 57 63
REMARK Flexibility Score: inf
ROOT
ATOM      1  C   UNL     1       2.900  -1.555   5.867  1.00  0.00     0.002 C 
ENDROOT
BRANCH   1   2
ATOM      2  C   UNL     1       1.650  -1.996   5.116  1.00  0.00     0.021 C 
BRANCH   2   3
ATOM      3  C   UNL     1       1.772  -2.301   3.635  1.00  0.00     0.116 C 
BRANCH   3   4
ATOM      4  N   UNL     1       2.438  -3.489   3.209  1.00  0.00    -0.352 N 
ATOM      5  C   UNL     1       2.322  -4.202   2.036  1.00  0.00     0.251 C 
ATOM      6  O   UNL     1       2.970  -5.259   2.037  1.00  0.00    -0.269 OA
ATOM      7  H   UNL     1       3.082  -3.858   3.856  1.00  0.00     0.163 HD
BRANCH   5   8
ATOM      8  C   UNL     1       1.507  -3.872   0.781  1.00  0.00     0.048 A 
ATOM      9  C   UNL     1       1.076  -2.637   0.206  1.00  0.00     0.019 A 
ATOM     10  C   UNL     1       0.604  -2.654  -1.132  1.00  0.00     0.010 A 
ATOM     11  C   UNL     1       0.411  -3.828  -1.854  1.00  0.00     0.001 A 
ATOM     12  C   UNL     1       1.262  -5.051   0.019  1.00  0.00     0.014 A 
ATOM     13  C   UNL     1       0.707  -5.037  -1.262  1.00  0.00     0.001 A 
BRANCH   9  14
ATOM     14  C   UNL     1       1.071  -1.291   0.904  1.00  0.00     0.299 C 
BRANCH  14  15
ATOM     15  N   UNL     1       0.224  -0.199   0.442  1.00  0.00    -0.330 N 
ATOM     16  C   UNL     1       0.769   0.808  -0.427  1.00  0.00     0.333 C 
ATOM     17  H   UNL     1      -0.158  -1.117   0.214  1.00  0.00     0.348 HD
BRANCH  15  18
ATOM     18  C   UNL     1      -1.168  -0.107   0.867  1.00  0.00     0.299 C 
BRANCH  18  19
ATOM     19  C   UNL     1      -2.039  -1.148   0.190  1.00  0.00     0.009 A 
ATOM     20  C   UNL     1      -2.242  -2.410   0.826  1.00  0.00     0.012 A 
ATOM     21  C   UNL     1      -2.472  -0.888  -1.130  1.00  0.00     0.041 A 
ATOM     22  C   UNL     1      -2.791  -3.528   0.172  1.00  0.00     0.032 A 
ATOM     23  C   UNL     1      -2.989  -1.992  -1.843  1.00  0.00     0.105 A 
ATOM     24  C   UNL     1      -3.137  -3.340  -1.186  1.00  0.00     0.104 A 
ATOM     25  N   UNL     1      -3.351  -1.989  -3.135  1.00  0.00    -0.173 NA
ATOM     26  N   UNL     1      -3.588  -4.287  -2.024  1.00  0.00    -0.173 NA
ATOM     27  S   UNL     1      -3.795  -3.547  -3.497  1.00  0.00     0.069 S 
ENDBRANCH  18  19
ENDBRANCH  15  18
ENDBRANCH  14  15
ENDBRANCH   9  14
ENDBRANCH   5   8
ENDBRANCH   3   4
ENDBRANCH   2   3
ENDBRANCH   1   2
BRANCH   1  28
ATOM     28  C   UNL     1       3.728  -0.416   5.265  1.00  0.00     0.002 C 
BRANCH  28  29
ATOM     29  C   UNL     1       3.002   0.890   4.921  1.00  0.00     0.021 C 
BRANCH  29  30
ATOM     30  C   UNL     1       2.147   1.514   6.022  1.00  0.00     0.116 C 
BRANCH  30  31
ATOM     31  N   UNL     1       2.862   1.673   7.277  1.00  0.00    -0.352 N 
ATOM     32  C   UNL     1       3.049   2.782   8.060  1.00  0.00     0.251 C 
ATOM     33  H   UNL     1       3.281   0.851   7.621  1.00  0.00     0.163 HD
ATOM     34  O   UNL     1       3.828   2.721   9.015  1.00  0.00    -0.269 OA
BRANCH  32  35
ATOM     35  C   UNL     1       2.350   4.050   7.765  1.00  0.00     0.039 A 
ATOM     36  C   UNL     1       3.069   5.247   7.846  1.00  0.00     0.014 A 
ATOM     37  C   UNL     1       0.991   4.074   7.438  1.00  0.00     0.014 A 
ATOM     38  C   UNL     1       2.445   6.457   7.532  1.00  0.00     0.010 A 
ATOM     39  C   UNL     1       0.387   5.273   7.061  1.00  0.00     0.010 A 
ATOM     40  C   UNL     1       1.109   6.476   7.097  1.00  0.00    -0.014 A 
BRANCH  40  41
ATOM     41  C   UNL     1       0.471   7.739   6.641  1.00  0.00     0.031 A 
ATOM     42  C   UNL     1      -0.707   8.314   7.378  1.00  0.00     0.074 A 
ATOM     43  C   UNL     1       0.922   8.334   5.518  1.00  0.00     0.049 A 
ATOM     44  N   UNL     1      -1.422   9.372   7.092  1.00  0.00    -0.248 NA
ATOM     45  C   UNL     1      -1.155   7.595   8.581  1.00  0.00     0.031 C 
ATOM     46  C   UNL     1       2.028   7.846   4.690  1.00  0.00     0.029 A 
ATOM     47  N   UNL     1       0.503   9.470   4.871  1.00  0.00    -0.354 N 
ATOM     48  C   UNL     1      -2.407   9.442   8.071  1.00  0.00     0.074 A 
ATOM     49  C   UNL     1      -2.229   8.290   8.929  1.00  0.00     0.031 C 
ATOM     50  C   UNL     1       2.214   8.687   3.661  1.00  0.00     0.029 A 
ATOM     51  C   UNL     1       1.215   9.748   3.727  1.00  0.00     0.049 A 
ATOM     52  H   UNL     1      -0.236  10.032   5.195  1.00  0.00     0.167 HD
ATOM     53  C   UNL     1      -3.357  10.391   8.249  1.00  0.00     0.037 A 
ATOM     54  C   UNL     1       1.073  10.739   2.825  1.00  0.00     0.037 A 
ATOM     55  C   UNL     1      -3.518  11.542   7.396  1.00  0.00     0.049 A 
ATOM     56  C   UNL     1      -0.005  11.768   3.033  1.00  0.00     0.074 A 
ATOM     57  C   UNL     1      -4.411  12.591   7.527  1.00  0.00     0.029 A 
ATOM     58  N   UNL     1      -2.777  11.790   6.249  1.00  0.00    -0.354 N 
ATOM     59  N   UNL     1      -0.880  11.859   4.006  1.00  0.00    -0.248 NA
ATOM     60  C   UNL     1      -0.114  12.829   2.023  1.00  0.00     0.031 C 
ATOM     61  C   UNL     1      -4.249  13.443   6.430  1.00  0.00     0.029 A 
ATOM     62  C   UNL     1      -3.216  12.958   5.644  1.00  0.00     0.049 A 
ATOM     63  H   UNL     1      -2.047  11.221   5.914  1.00  0.00     0.167 HD
ATOM     64  C   UNL     1      -1.631  12.997   3.736  1.00  0.00     0.074 A 
ATOM     65  C   UNL     1      -1.093  13.573   2.520  1.00  0.00     0.031 C 
ATOM     66  C   UNL     1      -2.674  13.517   4.430  1.00  0.00     0.037 A 
BRANCH  53  67
ATOM     67  C   UNL     1      -4.303  10.228   9.410  1.00  0.00     0.058 A 
ATOM     68  C   UNL     1      -3.873  10.372  10.739  1.00  0.00     0.135 A 
ATOM     69  C   UNL     1      -5.666   9.969   9.190  1.00  0.00     0.135 A 
ATOM     70  F   UNL     1      -2.579  10.608  11.010  1.00  0.00    -0.206 F 
ATOM     71  C   UNL     1      -4.753  10.237  11.809  1.00  0.00     0.059 A 
ATOM     72  C   UNL     1      -6.570   9.860  10.244  1.00  0.00     0.059 A 
ATOM     73  F   UNL     1      -6.134   9.823   7.941  1.00  0.00    -0.206 F 
ATOM     74  C   UNL     1      -6.101   9.982  11.550  1.00  0.00     0.060 A 
BRANCH  74  75
ATOM     75  S   UNL     1      -7.228   9.815  12.950  1.00  0.00     0.124 S 
ATOM     76  O   UNL     1      -6.815   8.530  13.506  1.00  0.00    -0.237 OA
ATOM     77  O   UNL     1      -6.901  10.988  13.755  1.00  0.00    -0.237 OA
ATOM     78  O   UNL     1      -8.549   9.833  12.329  1.00  0.00    -0.744 OA
ENDBRANCH  74  75
ENDBRANCH  53  67
BRANCH  54  79
ATOM     79  C   UNL     1       1.980  10.806   1.647  1.00  0.00     0.058 A 
ATOM     80  C   UNL     1       2.931  11.829   1.524  1.00  0.00     0.135 A 
ATOM     81  C   UNL     1       1.924   9.841   0.628  1.00  0.00     0.135 A 
ATOM     82  F   UNL     1       3.019  12.780   2.467  1.00  0.00    -0.206 F 
ATOM     83  C   UNL     1       3.785  11.904   0.428  1.00  0.00     0.059 A 
ATOM     84  C   UNL     1       2.786   9.878  -0.463  1.00  0.00     0.059 A 
ATOM     85  F   UNL     1       1.043   8.831   0.705  1.00  0.00    -0.206 F 
ATOM     86  C   UNL     1       3.707  10.920  -0.559  1.00  0.00     0.060 A 
BRANCH  86  87
ATOM     87  S   UNL     1       4.854  10.998  -1.952  1.00  0.00     0.124 S 
ATOM     88  O   UNL     1       4.330  12.134  -2.700  1.00  0.00    -0.237 OA
ATOM     89  O   UNL     1       6.134  11.207  -1.282  1.00  0.00    -0.237 OA
ATOM     90  O   UNL     1       4.695   9.694  -2.589  1.00  0.00    -0.744 OA
ENDBRANCH  86  87
ENDBRANCH  54  79
BRANCH  66  91
ATOM     91  C   UNL     1      -3.296  14.780   3.900  1.00  0.00     0.058 A 
ATOM     92  C   UNL     1      -4.074  14.784   2.731  1.00  0.00     0.135 A 
ATOM     93  C   UNL     1      -3.152  15.993   4.594  1.00  0.00     0.135 A 
ATOM     94  F   UNL     1      -4.237  13.655   2.024  1.00  0.00    -0.206 F 
ATOM     95  C   UNL     1      -4.669  15.949   2.257  1.00  0.00     0.059 A 
ATOM     96  C   UNL     1      -3.764  17.163   4.156  1.00  0.00     0.059 A 
ATOM     97  F   UNL     1      -2.426  16.044   5.723  1.00  0.00    -0.206 F 
ATOM     98  C   UNL     1      -4.511  17.134   2.979  1.00  0.00     0.060 A 
BRANCH  98  99
ATOM     99  S   UNL     1      -5.318  18.629   2.371  1.00  0.00     0.124 S 
ATOM    100  O   UNL     1      -4.504  18.948   1.202  1.00  0.00    -0.237 OA
ATOM    101  O   UNL     1      -6.671  18.160   2.092  1.00  0.00    -0.237 OA
ATOM    102  O   UNL     1      -5.200  19.559   3.490  1.00  0.00    -0.744 OA
ENDBRANCH  98  99
ENDBRANCH  66  91
ENDBRANCH  40  41
ENDBRANCH  32  35
ENDBRANCH  30  31
ENDBRANCH  29  30
ENDBRANCH  28  29
ENDBRANCH   1  28
TORSDOF 20
