REMARK SMILES O=C(NCCCCCCNC(=O)[C@@H]1CN(c2ncccn2)CCN1C(=O)C1CCOCC1)c1ccc(-c2c3nc(c(-c4c(F)cc(S(=O)(=O)[O-])cc4F)c4ccc([nH]4)c(-c4c(F)cc(S(=O)(=O)[O-])cc4F)c4nc(c(-c5c(F)cc(S(=O)(=O)[O-])cc5F)c5ccc2[nH]5)C=C4)C=C3)cc1
REMARK SMILES IDX 6 1 5 2 4 3 3 4 1 5 2 6 33 8 34 9 98 10 35 11 97 12 36 13
REMARK SMILES IDX 37 14 38 15 91 16 39 17 96 18 90 19 92 20 40 21 95 22 89 23
REMARK SMILES IDX 88 24 41 26 75 27 54 28 74 29 55 30 58 31 73 32 93 33 56 34
REMARK SMILES IDX 57 35 72 37 94 38 59 39 42 40 43 41 52 42 44 43 45 44 51 45
REMARK SMILES IDX 53 46 46 47 47 48 48 49 49 50 50 51 76 52 77 53 86 54 78 55
REMARK SMILES IDX 79 56 85 57 87 58 80 59 81 60 82 61 83 62 84 63 60 64 61 65
REMARK SMILES IDX 70 66 62 67 63 68 69 69 71 70 64 71 65 72 66 73 67 74 68 75
REMARK SMILES IDX 7 76 8 77 9 78 10 79 11 80 12 82 13 83 14 84 24 85 15 86
REMARK SMILES IDX 23 87 22 88 25 89 26 90 27 91 28 92 32 93 29 94 31 95 30 96
REMARK SMILES IDX 16 97 17 98 21 99 18 100 20 101 19 102
REMARK H PARENT 3 7 92 25 58 36 10 81
REMARK Flexibility Score: inf
ROOT
ATOM      1  C   UNL     1       3.895  -2.625   2.603  1.00  0.00     0.002 C 
ENDROOT
BRANCH   1   2
ATOM      2  C   UNL     1       4.378  -1.249   2.139  1.00  0.00     0.021 C 
BRANCH   2   3
ATOM      3  C   UNL     1       4.244  -1.018   0.641  1.00  0.00     0.116 C 
BRANCH   3   4
ATOM      4  N   UNL     1       2.854  -1.026   0.222  1.00  0.00    -0.352 N 
ATOM      5  O   UNL     1       0.887  -0.091  -0.362  1.00  0.00    -0.269 OA
ATOM      6  C   UNL     1       2.106   0.003  -0.294  1.00  0.00     0.251 C 
ATOM      7  H   UNL     1       2.384  -1.886   0.322  1.00  0.00     0.163 HD
BRANCH   6   8
ATOM      8  C   UNL     1       2.792   1.228  -0.754  1.00  0.00     0.039 A 
ATOM      9  C   UNL     1       3.937   1.137  -1.553  1.00  0.00     0.014 A 
ATOM     10  C   UNL     1       2.282   2.474  -0.387  1.00  0.00     0.014 A 
ATOM     11  C   UNL     1       4.641   2.288  -1.883  1.00  0.00     0.010 A 
ATOM     12  C   UNL     1       2.946   3.634  -0.790  1.00  0.00     0.010 A 
ATOM     13  C   UNL     1       4.142   3.549  -1.523  1.00  0.00    -0.014 A 
BRANCH  13  14
ATOM     14  C   UNL     1       4.840   4.776  -1.975  1.00  0.00     0.031 A 
ATOM     15  C   UNL     1       5.444   5.729  -0.984  1.00  0.00     0.074 A 
ATOM     16  C   UNL     1       4.904   5.033  -3.296  1.00  0.00     0.049 A 
ATOM     17  N   UNL     1       6.024   6.882  -1.198  1.00  0.00    -0.248 NA
ATOM     18  C   UNL     1       5.381   5.342   0.434  1.00  0.00     0.031 C 
ATOM     19  C   UNL     1       4.349   4.176  -4.348  1.00  0.00     0.029 A 
ATOM     20  N   UNL     1       5.454   6.085  -3.981  1.00  0.00    -0.354 N 
ATOM     21  C   UNL     1       6.373   7.372   0.055  1.00  0.00     0.074 A 
ATOM     22  C   UNL     1       5.919   6.399   1.027  1.00  0.00     0.031 C 
ATOM     23  C   UNL     1       4.603   4.727  -5.543  1.00  0.00     0.029 A 
ATOM     24  C   UNL     1       5.275   6.005  -5.341  1.00  0.00     0.049 A 
ATOM     25  H   UNL     1       5.931   6.826  -3.542  1.00  0.00     0.167 HD
ATOM     26  C   UNL     1       7.016   8.525   0.360  1.00  0.00     0.037 A 
ATOM     27  C   UNL     1       5.584   6.877  -6.318  1.00  0.00     0.037 A 
ATOM     28  C   UNL     1       7.461   9.481  -0.623  1.00  0.00     0.049 A 
ATOM     29  C   UNL     1       6.263   8.165  -5.954  1.00  0.00     0.074 A 
ATOM     30  C   UNL     1       8.145  10.667  -0.421  1.00  0.00     0.029 A 
ATOM     31  N   UNL     1       7.257   9.367  -1.992  1.00  0.00    -0.354 N 
ATOM     32  N   UNL     1       6.611   8.602  -4.767  1.00  0.00    -0.248 NA
ATOM     33  C   UNL     1       6.594   9.076  -7.055  1.00  0.00     0.031 C 
ATOM     34  C   UNL     1       8.310  11.294  -1.662  1.00  0.00     0.029 A 
ATOM     35  C   UNL     1       7.782  10.470  -2.644  1.00  0.00     0.049 A 
ATOM     36  H   UNL     1       6.805   8.612  -2.433  1.00  0.00     0.167 HD
ATOM     37  C   UNL     1       7.226   9.830  -4.980  1.00  0.00     0.074 A 
ATOM     38  C   UNL     1       7.207  10.061  -6.411  1.00  0.00     0.031 C 
ATOM     39  C   UNL     1       7.763  10.682  -4.072  1.00  0.00     0.037 A 
BRANCH  26  40
ATOM     40  C   UNL     1       7.245   8.831   1.817  1.00  0.00     0.058 A 
ATOM     41  C   UNL     1       8.152   8.095   2.597  1.00  0.00     0.135 A 
ATOM     42  C   UNL     1       6.557   9.885   2.440  1.00  0.00     0.135 A 
ATOM     43  F   UNL     1       8.830   7.068   2.059  1.00  0.00    -0.206 F 
ATOM     44  C   UNL     1       8.338   8.367   3.949  1.00  0.00     0.059 A 
ATOM     45  C   UNL     1       6.748  10.194   3.784  1.00  0.00     0.059 A 
ATOM     46  F   UNL     1       5.681  10.626   1.743  1.00  0.00    -0.206 F 
ATOM     47  C   UNL     1       7.625   9.414   4.535  1.00  0.00     0.060 A 
BRANCH  47  48
ATOM     48  S   UNL     1       7.854   9.732   6.298  1.00  0.00     0.124 S 
ATOM     49  O   UNL     1       7.144   8.602   6.890  1.00  0.00    -0.237 OA
ATOM     50  O   UNL     1       9.307   9.706   6.434  1.00  0.00    -0.237 OA
ATOM     51  O   UNL     1       7.231  11.037   6.493  1.00  0.00    -0.744 OA
ENDBRANCH  47  48
ENDBRANCH  26  40
BRANCH  27  52
ATOM     52  C   UNL     1       5.243   6.544  -7.725  1.00  0.00     0.058 A 
ATOM     53  C   UNL     1       6.241   6.208  -8.650  1.00  0.00     0.135 A 
ATOM     54  C   UNL     1       3.906   6.490  -8.153  1.00  0.00     0.135 A 
ATOM     55  F   UNL     1       7.532   6.248  -8.288  1.00  0.00    -0.206 F 
ATOM     56  C   UNL     1       5.928   5.829  -9.951  1.00  0.00     0.059 A 
ATOM     57  C   UNL     1       3.567   6.088  -9.440  1.00  0.00     0.059 A 
ATOM     58  F   UNL     1       2.914   6.783  -7.299  1.00  0.00    -0.206 F 
ATOM     59  C   UNL     1       4.586   5.763 -10.334  1.00  0.00     0.060 A 
BRANCH  59  60
ATOM     60  S   UNL     1       4.190   5.194 -12.001  1.00  0.00     0.124 S 
ATOM     61  O   UNL     1       4.607   6.335 -12.807  1.00  0.00    -0.237 OA
ATOM     62  O   UNL     1       5.014   3.994 -12.117  1.00  0.00    -0.237 OA
ATOM     63  O   UNL     1       2.752   4.953 -11.941  1.00  0.00    -0.744 OA
ENDBRANCH  59  60
ENDBRANCH  27  52
BRANCH  39  64
ATOM     64  C   UNL     1       8.421  11.927  -4.598  1.00  0.00     0.058 A 
ATOM     65  C   UNL     1       7.676  13.005  -5.102  1.00  0.00     0.135 A 
ATOM     66  C   UNL     1       9.817  12.066  -4.536  1.00  0.00     0.135 A 
ATOM     67  F   UNL     1       6.339  12.919  -5.194  1.00  0.00    -0.206 F 
ATOM     68  C   UNL     1       8.294  14.173  -5.537  1.00  0.00     0.059 A 
ATOM     69  C   UNL     1      10.454  13.235  -4.939  1.00  0.00     0.059 A 
ATOM     70  F   UNL     1      10.575  11.067  -4.057  1.00  0.00    -0.206 F 
ATOM     71  C   UNL     1       9.684  14.280  -5.446  1.00  0.00     0.060 A 
BRANCH  71  72
ATOM     72  S   UNL     1      10.469  15.821  -5.963  1.00  0.00     0.124 S 
ATOM     73  O   UNL     1      10.357  15.736  -7.415  1.00  0.00    -0.237 OA
ATOM     74  O   UNL     1       9.632  16.829  -5.320  1.00  0.00    -0.237 OA
ATOM     75  O   UNL     1      11.823  15.708  -5.430  1.00  0.00    -0.744 OA
ENDBRANCH  71  72
ENDBRANCH  39  64
ENDBRANCH  13  14
ENDBRANCH   6   8
ENDBRANCH   3   4
ENDBRANCH   2   3
ENDBRANCH   1   2
BRANCH   1  76
ATOM     76  C   UNL     1       4.572  -3.815   1.915  1.00  0.00     0.002 C 
BRANCH  76  77
ATOM     77  C   UNL     1       6.102  -3.761   1.876  1.00  0.00     0.021 C 
BRANCH  77  78
ATOM     78  C   UNL     1       6.745  -3.614   3.248  1.00  0.00     0.116 C 
BRANCH  78  79
ATOM     79  N   UNL     1       6.641  -4.810   4.066  1.00  0.00    -0.354 N 
ATOM     80  C   UNL     1       7.532  -5.663   4.632  1.00  0.00     0.244 C 
ATOM     81  H   UNL     1       5.707  -5.061   4.252  1.00  0.00     0.163 HD
ATOM     82  O   UNL     1       7.098  -6.267   5.623  1.00  0.00    -0.273 OA
BRANCH  80  83
ATOM     83  C   UNL     1       8.989  -5.952   4.157  1.00  0.00     0.193 C 
ATOM     84  C   UNL     1       9.657  -4.580   3.948  1.00  0.00     0.155 C 
ATOM     85  N   UNL     1       9.418  -6.917   3.064  1.00  0.00    -0.327 N 
ATOM     86  N   UNL     1      11.109  -4.681   3.842  1.00  0.00    -0.336 N 
ATOM     87  C   UNL     1      10.890  -6.866   2.801  1.00  0.00     0.142 C 
ATOM     88  C   UNL     1      11.529  -5.468   2.694  1.00  0.00     0.141 C 
BRANCH  85  89
ATOM     89  C   UNL     1       8.895  -8.185   2.788  1.00  0.00     0.226 C 
ATOM     90  O   UNL     1       9.636  -9.092   2.375  1.00  0.00    -0.275 OA
BRANCH  89  91
ATOM     91  C   UNL     1       7.413  -8.535   2.878  1.00  0.00     0.083 C 
ATOM     92  C   UNL     1       6.528  -7.574   2.098  1.00  0.00     0.042 C 
ATOM     93  C   UNL     1       6.981  -8.905   4.292  1.00  0.00     0.042 C 
ATOM     94  C   UNL     1       5.068  -7.723   2.472  1.00  0.00     0.161 C 
ATOM     95  C   UNL     1       5.487  -8.742   4.552  1.00  0.00     0.161 C 
ATOM     96  O   UNL     1       4.920  -7.619   3.881  1.00  0.00    -0.381 OA
ENDBRANCH  89  91
ENDBRANCH  85  89
BRANCH  86  97
ATOM     97  C   UNL     1      11.705  -3.457   4.081  1.00  0.00     0.225 A 
ATOM     98  N   UNL     1      12.291  -2.787   3.078  1.00  0.00    -0.221 NA
ATOM     99  N   UNL     1      11.553  -2.950   5.318  1.00  0.00    -0.221 NA
ATOM    100  C   UNL     1      12.710  -1.532   3.348  1.00  0.00     0.117 A 
ATOM    101  C   UNL     1      12.013  -1.708   5.547  1.00  0.00     0.117 A 
ATOM    102  C   UNL     1      12.596  -0.935   4.579  1.00  0.00     0.040 A 
ENDBRANCH  86  97
ENDBRANCH  80  83
ENDBRANCH  78  79
ENDBRANCH  77  78
ENDBRANCH  76  77
ENDBRANCH   1  76
TORSDOF 19
