REMARK SMILES COc1ccc(-c2ccc(CCC(=O)NCCCCCCNC(=O)c3ccc(-c4c5nc(c(-c6c(F)cc(S(=O)(=O)[O-])cc6F)c6ccc([nH]6)c(-c6c(F)cc(S(=O)(=O)[O-])cc6F)c6nc(c(-c7c(F)cc(S(=O)(=O)[O-])cc7F)c7ccc4[nH]7)C=C6)C=C5)cc3)n2-c2ccc(C(C)=O)cc2)cc1
REMARK SMILES IDX 18 1 17 2 16 3 15 4 13 5 14 6 12 8 11 9 10 10 7 11 8 12
REMARK SMILES IDX 91 13 9 14 6 15 3 16 4 17 102 18 5 19 101 20 2 21 1 22 92 23
REMARK SMILES IDX 93 24 100 25 94 26 99 27 95 28 96 29 97 30 98 31 19 32 20 33
REMARK SMILES IDX 21 34 22 35 23 36 24 38 25 39 26 40 90 41 27 42 89 43 28 44
REMARK SMILES IDX 29 45 30 46 83 47 31 48 88 49 82 50 84 51 32 52 87 53 81 54
REMARK SMILES IDX 80 55 33 57 67 58 46 59 66 60 47 61 50 62 65 63 85 64 48 65
REMARK SMILES IDX 49 66 64 68 86 69 51 70 34 71 35 72 44 73 36 74 37 75 43 76
REMARK SMILES IDX 45 77 38 78 39 79 40 80 41 81 42 82 68 83 69 84 78 85 70 86
REMARK SMILES IDX 71 87 77 88 79 89 72 90 73 91 74 92 75 93 76 94 52 95 53 96
REMARK SMILES IDX 62 97 54 98 55 99 61 100 63 101 56 102 57 103 58 104 59 105
REMARK SMILES IDX 60 106
REMARK H PARENT 15 7 22 37 84 56 50 67
REMARK Flexibility Score: inf
ROOT
ATOM      1  C   UNL     1       5.768  -7.184   4.244  1.00  0.00     0.002 C 
ENDROOT
BRANCH   1   2
ATOM      2  C   UNL     1       4.546  -7.545   3.408  1.00  0.00     0.021 C 
BRANCH   2   3
ATOM      3  C   UNL     1       4.841  -8.190   2.057  1.00  0.00     0.116 C 
BRANCH   3   4
ATOM      4  N   UNL     1       4.811  -9.636   2.170  1.00  0.00    -0.356 N 
ATOM      5  C   UNL     1       3.872 -10.514   1.720  1.00  0.00     0.220 C 
ATOM      6  O   UNL     1       3.958 -11.693   2.069  1.00  0.00    -0.275 OA
ATOM      7  H   UNL     1       5.578 -10.039   2.638  1.00  0.00     0.163 HD
BRANCH   5   8
ATOM      8  C   UNL     1       2.780 -10.058   0.770  1.00  0.00     0.106 C 
BRANCH   8   9
ATOM      9  C   UNL     1       1.431  -9.838   1.454  1.00  0.00     0.064 C 
BRANCH   9  10
ATOM     10  C   UNL     1       1.285  -8.487   2.102  1.00  0.00     0.024 A 
ATOM     11  C   UNL     1       1.214  -6.231   2.258  1.00  0.00     0.053 A 
ATOM     12  C   UNL     1       1.310  -6.757   3.540  1.00  0.00     0.029 A 
ATOM     13  N   UNL     1       0.937  -7.316   1.426  1.00  0.00    -0.314 N 
ATOM     14  C   UNL     1       1.357  -8.163   3.442  1.00  0.00     0.024 A 
BRANCH  11  15
ATOM     15  C   UNL     1       1.077  -4.815   1.911  1.00  0.00    -0.001 A 
ATOM     16  C   UNL     1       0.838  -2.062   1.421  1.00  0.00     0.118 A 
ATOM     17  C   UNL     1      -0.230  -2.773   1.964  1.00  0.00     0.047 A 
ATOM     18  C   UNL     1       2.035  -2.719   1.131  1.00  0.00     0.047 A 
ATOM     19  C   UNL     1      -0.115  -4.144   2.201  1.00  0.00     0.014 A 
ATOM     20  C   UNL     1       2.153  -4.095   1.375  1.00  0.00     0.014 A 
BRANCH  16  21
ATOM     21  O   UNL     1       0.656  -0.713   1.294  1.00  0.00    -0.497 OA
ATOM     22  C   UNL     1       1.125  -0.168   0.067  1.00  0.00     0.278 C 
ENDBRANCH  16  21
ENDBRANCH  11  15
BRANCH  13  23
ATOM     23  C   UNL     1       0.076  -7.265   0.302  1.00  0.00     0.046 A 
ATOM     24  C   UNL     1      -1.131  -7.968   0.403  1.00  0.00     0.027 A 
ATOM     25  C   UNL     1       0.329  -6.447  -0.796  1.00  0.00     0.027 A 
ATOM     26  C   UNL     1      -2.092  -7.862  -0.597  1.00  0.00     0.014 A 
ATOM     27  C   UNL     1      -0.631  -6.366  -1.812  1.00  0.00     0.014 A 
ATOM     28  C   UNL     1      -1.851  -7.063  -1.717  1.00  0.00     0.017 A 
BRANCH  28  29
ATOM     29  C   UNL     1      -2.840  -6.925  -2.828  1.00  0.00     0.159 C 
ATOM     30  C   UNL     1      -4.250  -7.448  -2.683  1.00  0.00     0.093 C 
ATOM     31  O   UNL     1      -2.490  -6.379  -3.877  1.00  0.00    -0.295 OA
ENDBRANCH  28  29
ENDBRANCH  13  23
ENDBRANCH   9  10
ENDBRANCH   8   9
ENDBRANCH   5   8
ENDBRANCH   3   4
ENDBRANCH   2   3
ENDBRANCH   1   2
BRANCH   1  32
ATOM     32  C   UNL     1       6.626  -6.062   3.656  1.00  0.00     0.002 C 
BRANCH  32  33
ATOM     33  C   UNL     1       5.872  -4.778   3.262  1.00  0.00     0.021 C 
BRANCH  33  34
ATOM     34  C   UNL     1       5.079  -4.122   4.399  1.00  0.00     0.116 C 
BRANCH  34  35
ATOM     35  N   UNL     1       5.988  -3.658   5.429  1.00  0.00    -0.352 N 
ATOM     36  C   UNL     1       5.856  -2.663   6.359  1.00  0.00     0.251 C 
ATOM     37  H   UNL     1       6.846  -4.141   5.465  1.00  0.00     0.163 HD
ATOM     38  O   UNL     1       6.881  -2.186   6.833  1.00  0.00    -0.269 OA
BRANCH  36  39
ATOM     39  C   UNL     1       4.539  -2.175   6.826  1.00  0.00     0.039 A 
ATOM     40  C   UNL     1       4.488  -0.859   7.311  1.00  0.00     0.014 A 
ATOM     41  C   UNL     1       3.416  -3.004   6.939  1.00  0.00     0.014 A 
ATOM     42  C   UNL     1       3.322  -0.369   7.886  1.00  0.00     0.010 A 
ATOM     43  C   UNL     1       2.243  -2.516   7.514  1.00  0.00     0.010 A 
ATOM     44  C   UNL     1       2.195  -1.194   7.975  1.00  0.00    -0.014 A 
BRANCH  44  45
ATOM     45  C   UNL     1       0.905  -0.569   8.353  1.00  0.00     0.031 A 
ATOM     46  C   UNL     1       0.292   0.176   7.112  1.00  0.00     0.074 A 
ATOM     47  C   UNL     1       0.529  -0.713   9.668  1.00  0.00     0.049 A 
ATOM     48  N   UNL     1      -0.461   1.236   7.026  1.00  0.00    -0.248 NA
ATOM     49  C   UNL     1       0.660  -0.303   5.742  1.00  0.00     0.031 C 
ATOM     50  C   UNL     1       1.247  -1.516  10.694  1.00  0.00     0.029 A 
ATOM     51  N   UNL     1      -0.518  -0.231  10.425  1.00  0.00    -0.354 N 
ATOM     52  C   UNL     1      -0.825   1.400   5.658  1.00  0.00     0.074 A 
ATOM     53  C   UNL     1      -0.004   0.502   4.911  1.00  0.00     0.031 C 
ATOM     54  C   UNL     1       0.677  -1.389  11.917  1.00  0.00     0.029 A 
ATOM     55  C   UNL     1      -0.465  -0.502  11.830  1.00  0.00     0.049 A 
ATOM     56  H   UNL     1      -1.262   0.273  10.021  1.00  0.00     0.167 HD
ATOM     57  C   UNL     1      -1.882   2.161   5.236  1.00  0.00     0.037 A 
ATOM     58  C   UNL     1      -1.249   0.020  12.834  1.00  0.00     0.037 A 
ATOM     59  C   UNL     1      -2.523   2.744   6.359  1.00  0.00     0.049 A 
ATOM     60  C   UNL     1      -2.201   0.856  12.097  1.00  0.00     0.074 A 
ATOM     61  C   UNL     1      -2.348   3.889   7.082  1.00  0.00     0.029 A 
ATOM     62  N   UNL     1      -3.455   1.960   6.987  1.00  0.00    -0.354 N 
ATOM     63  N   UNL     1      -3.188   0.419  11.380  1.00  0.00    -0.248 NA
ATOM     64  C   UNL     1      -1.921   2.291  12.037  1.00  0.00     0.031 C 
ATOM     65  C   UNL     1      -2.962   3.622   8.324  1.00  0.00     0.029 A 
ATOM     66  C   UNL     1      -3.466   2.318   8.311  1.00  0.00     0.049 A 
ATOM     67  H   UNL     1      -4.014   1.268   6.566  1.00  0.00     0.167 HD
ATOM     68  C   UNL     1      -3.467   1.481  10.555  1.00  0.00     0.074 A 
ATOM     69  C   UNL     1      -2.856   2.645  11.165  1.00  0.00     0.031 C 
ATOM     70  C   UNL     1      -3.812   1.283   9.259  1.00  0.00     0.037 A 
BRANCH  57  71
ATOM     71  C   UNL     1      -2.644   2.290   3.928  1.00  0.00     0.058 A 
ATOM     72  C   UNL     1      -3.481   3.429   3.764  1.00  0.00     0.135 A 
ATOM     73  C   UNL     1      -2.908   1.219   3.062  1.00  0.00     0.135 A 
ATOM     74  F   UNL     1      -3.256   4.554   4.465  1.00  0.00    -0.206 F 
ATOM     75  C   UNL     1      -4.610   3.432   2.952  1.00  0.00     0.059 A 
ATOM     76  C   UNL     1      -4.008   1.224   2.189  1.00  0.00     0.059 A 
ATOM     77  F   UNL     1      -2.160   0.108   3.096  1.00  0.00    -0.206 F 
ATOM     78  C   UNL     1      -4.892   2.305   2.196  1.00  0.00     0.060 A 
BRANCH  78  79
ATOM     79  S   UNL     1      -6.438   2.274   1.259  1.00  0.00     0.124 S 
ATOM     80  O   UNL     1      -7.424   2.071   2.314  1.00  0.00    -0.237 OA
ATOM     81  O   UNL     1      -6.450   3.593   0.632  1.00  0.00    -0.237 OA
ATOM     82  O   UNL     1      -6.251   1.156   0.340  1.00  0.00    -0.744 OA
ENDBRANCH  78  79
ENDBRANCH  57  71
BRANCH  58  83
ATOM     83  C   UNL     1      -1.312   0.147  14.357  1.00  0.00     0.058 A 
ATOM     84  C   UNL     1      -0.508  -0.515  15.293  1.00  0.00     0.135 A 
ATOM     85  C   UNL     1      -2.179   1.124  14.944  1.00  0.00     0.135 A 
ATOM     86  F   UNL     1       0.249  -1.558  14.926  1.00  0.00    -0.206 F 
ATOM     87  C   UNL     1      -0.444  -0.121  16.653  1.00  0.00     0.059 A 
ATOM     88  C   UNL     1      -2.094   1.569  16.263  1.00  0.00     0.059 A 
ATOM     89  F   UNL     1      -3.143   1.729  14.235  1.00  0.00    -0.206 F 
ATOM     90  C   UNL     1      -1.194   0.964  17.113  1.00  0.00     0.060 A 
BRANCH  90  91
ATOM     91  S   UNL     1      -0.921   1.680  18.754  1.00  0.00     0.124 S 
ATOM     92  O   UNL     1      -1.760   0.841  19.602  1.00  0.00    -0.237 OA
ATOM     93  O   UNL     1       0.520   1.525  18.931  1.00  0.00    -0.237 OA
ATOM     94  O   UNL     1      -1.371   3.062  18.596  1.00  0.00    -0.744 OA
ENDBRANCH  90  91
ENDBRANCH  58  83
BRANCH  70  95
ATOM     95  C   UNL     1      -4.154  -0.168   8.903  1.00  0.00     0.058 A 
ATOM     96  C   UNL     1      -5.339  -0.761   9.355  1.00  0.00     0.135 A 
ATOM     97  C   UNL     1      -3.290  -1.022   8.189  1.00  0.00     0.135 A 
ATOM     98  F   UNL     1      -6.220  -0.033  10.059  1.00  0.00    -0.206 F 
ATOM     99  C   UNL     1      -5.654  -2.103   9.090  1.00  0.00     0.059 A 
ATOM    100  C   UNL     1      -3.578  -2.359   7.899  1.00  0.00     0.059 A 
ATOM    101  F   UNL     1      -2.124  -0.571   7.735  1.00  0.00    -0.206 F 
ATOM    102  C   UNL     1      -4.771  -2.895   8.353  1.00  0.00     0.060 A 
BRANCH 102 103
ATOM    103  S   UNL     1      -5.206  -4.611   7.981  1.00  0.00     0.124 S 
ATOM    104  O   UNL     1      -5.354  -5.195   9.310  1.00  0.00    -0.237 OA
ATOM    105  O   UNL     1      -6.440  -4.457   7.218  1.00  0.00    -0.237 OA
ATOM    106  O   UNL     1      -4.062  -5.104   7.215  1.00  0.00    -0.744 OA
ENDBRANCH 102 103
ENDBRANCH  70  95
ENDBRANCH  44  45
ENDBRANCH  36  39
ENDBRANCH  34  35
ENDBRANCH  33  34
ENDBRANCH  32  33
ENDBRANCH   1  32
TORSDOF 22
