REMARK SMILES Cc1cc([C@@H](C)NC(=O)N[C@H]2C=C[C@@H](C(=O)NCCCCCCNC(=O)c3ccc(-c4c5nc(c(-c6c(F)cc(S(=O)(=O)[O-])cc6F)c6ccc([nH]6)c(-c6c(F)cc(S(=O)(=O)[O-])cc6F)c6nc(c(-c7c(F)cc(S(=O)(=O)[O-])cc7F)c7ccc4[nH]7)C=C6)C=C5)cc3)C2)c(C)s1
REMARK SMILES IDX 20 1 19 2 18 3 17 4 15 5 16 6 14 8 11 9 12 10 93 11 13 12
REMARK SMILES IDX 10 13 7 14 8 15 9 17 5 19 6 20 4 21 1 22 2 23 3 24 96 25
REMARK SMILES IDX 94 26 95 27 21 28 22 29 23 30 24 31 25 32 26 34 27 35 28 36
REMARK SMILES IDX 92 37 29 38 91 39 30 40 31 41 32 42 85 43 33 44 90 45 84 46
REMARK SMILES IDX 86 47 34 48 89 49 83 50 82 51 35 53 69 54 48 55 68 56 49 57
REMARK SMILES IDX 52 58 67 59 87 60 50 61 51 62 66 64 88 65 53 66 36 67 37 68
REMARK SMILES IDX 46 69 38 70 39 71 45 72 47 73 40 74 41 75 42 76 43 77 44 78
REMARK SMILES IDX 70 79 71 80 80 81 72 82 73 83 79 84 81 85 74 86 75 87 76 88
REMARK SMILES IDX 77 89 78 90 54 91 55 92 64 93 56 94 57 95 63 96 65 97 58 98
REMARK SMILES IDX 59 99 60 100 61 101 62 102
REMARK H PARENT 17 7 7 16 10 18 24 33 86 52 52 63
REMARK Flexibility Score: inf
ROOT
ATOM      1  C   UNL     1      -2.320  -2.941   5.435  1.00  0.00     0.002 C 
ENDROOT
BRANCH   1   2
ATOM      2  C   UNL     1      -1.362  -3.402   4.334  1.00  0.00     0.021 C 
BRANCH   2   3
ATOM      3  C   UNL     1      -1.928  -4.481   3.417  1.00  0.00     0.116 C 
BRANCH   3   4
ATOM      4  N   UNL     1      -3.003  -3.983   2.586  1.00  0.00    -0.356 N 
ATOM      5  C   UNL     1      -3.240  -4.178   1.262  1.00  0.00     0.227 C 
ATOM      6  O   UNL     1      -4.246  -3.648   0.777  1.00  0.00    -0.274 OA
ATOM      7  H   UNL     1      -3.663  -3.417   3.049  1.00  0.00     0.163 HD
BRANCH   5   8
ATOM      8  C   UNL     1      -2.271  -4.950   0.360  1.00  0.00     0.103 C 
ATOM      9  C   UNL     1       0.203  -5.204   0.363  1.00  0.00     0.107 C 
ATOM     10  C   UNL     1      -0.518  -6.464   0.746  1.00  0.00    -0.006 C 
ATOM     11  C   UNL     1      -0.949  -4.211   0.183  1.00  0.00     0.047 C 
ATOM     12  C   UNL     1      -1.851  -6.321   0.771  1.00  0.00    -0.016 C 
BRANCH   9  13
ATOM     13  N   UNL     1       1.113  -4.849   1.433  1.00  0.00    -0.332 N 
ATOM     14  N   UNL     1       2.163  -2.795   0.867  1.00  0.00    -0.332 N 
ATOM     15  C   UNL     1       1.955  -3.840   1.670  1.00  0.00     0.315 C 
ATOM     16  H   UNL     1       2.795  -2.150   1.258  1.00  0.00     0.165 HD
ATOM     17  O   UNL     1       2.583  -3.871   2.732  1.00  0.00    -0.249 OA
ATOM     18  H   UNL     1       1.110  -5.512   2.161  1.00  0.00     0.165 HD
BRANCH  14  19
ATOM     19  C   UNL     1       1.692  -2.369  -0.440  1.00  0.00     0.112 C 
ATOM     20  C   UNL     1       2.820  -2.351  -1.465  1.00  0.00     0.036 C 
BRANCH  19  21
ATOM     21  C   UNL     1       0.959  -1.045  -0.276  1.00  0.00    -0.012 A 
ATOM     22  C   UNL     1      -2.408   0.718  -0.045  1.00  0.00     0.056 C 
ATOM     23  C   UNL     1      -0.977   0.308  -0.106  1.00  0.00     0.002 A 
ATOM     24  C   UNL     1      -0.470  -0.926  -0.435  1.00  0.00     0.021 A 
ATOM     25  S   UNL     1       0.272   1.405   0.236  1.00  0.00    -0.146 S 
ATOM     26  C   UNL     1       1.489   0.201   0.047  1.00  0.00     0.007 A 
ATOM     27  C   UNL     1       2.906   0.630   0.240  1.00  0.00     0.057 C 
ENDBRANCH  19  21
ENDBRANCH  14  19
ENDBRANCH   9  13
ENDBRANCH   5   8
ENDBRANCH   3   4
ENDBRANCH   2   3
ENDBRANCH   1   2
BRANCH   1  28
ATOM     28  C   UNL     1      -2.902  -4.065   6.298  1.00  0.00     0.002 C 
BRANCH  28  29
ATOM     29  C   UNL     1      -1.868  -5.002   6.928  1.00  0.00     0.021 C 
BRANCH  29  30
ATOM     30  C   UNL     1      -0.844  -4.307   7.818  1.00  0.00     0.116 C 
BRANCH  30  31
ATOM     31  N   UNL     1      -1.472  -3.651   8.953  1.00  0.00    -0.352 N 
ATOM     32  C   UNL     1      -1.227  -3.811  10.292  1.00  0.00     0.251 C 
ATOM     33  H   UNL     1      -2.174  -2.999   8.728  1.00  0.00     0.163 HD
ATOM     34  O   UNL     1      -2.009  -3.341  11.118  1.00  0.00    -0.269 OA
BRANCH  32  35
ATOM     35  C   UNL     1      -0.036  -4.562  10.740  1.00  0.00     0.039 A 
ATOM     36  C   UNL     1      -0.167  -5.477  11.787  1.00  0.00     0.014 A 
ATOM     37  C   UNL     1       1.208  -4.361  10.134  1.00  0.00     0.014 A 
ATOM     38  C   UNL     1       0.938  -6.229  12.189  1.00  0.00     0.010 A 
ATOM     39  C   UNL     1       2.288  -5.166  10.483  1.00  0.00     0.010 A 
ATOM     40  C   UNL     1       2.167  -6.104  11.519  1.00  0.00    -0.014 A 
BRANCH  40  41
ATOM     41  C   UNL     1       3.327  -6.957  11.883  1.00  0.00     0.031 A 
ATOM     42  C   UNL     1       4.590  -6.338  12.419  1.00  0.00     0.074 A 
ATOM     43  C   UNL     1       3.262  -8.287  11.674  1.00  0.00     0.049 A 
ATOM     44  N   UNL     1       5.715  -6.917  12.754  1.00  0.00    -0.248 NA
ATOM     45  C   UNL     1       4.601  -4.875  12.573  1.00  0.00     0.031 C 
ATOM     46  C   UNL     1       2.114  -8.996  11.103  1.00  0.00     0.029 A 
ATOM     47  N   UNL     1       4.182  -9.279  11.904  1.00  0.00    -0.354 N 
ATOM     48  C   UNL     1       6.569  -5.891  13.143  1.00  0.00     0.074 A 
ATOM     49  C   UNL     1       5.850  -4.650  12.953  1.00  0.00     0.031 C 
ATOM     50  C   UNL     1       2.390 -10.308  11.046  1.00  0.00     0.029 A 
ATOM     51  C   UNL     1       3.747 -10.531  11.536  1.00  0.00     0.049 A 
ATOM     52  H   UNL     1       5.069  -9.111  12.295  1.00  0.00     0.167 HD
ATOM     53  C   UNL     1       7.829  -5.978  13.631  1.00  0.00     0.037 A 
ATOM     54  C   UNL     1       4.373 -11.724  11.577  1.00  0.00     0.037 A 
ATOM     55  C   UNL     1       8.529  -7.222  13.832  1.00  0.00     0.049 A 
ATOM     56  C   UNL     1       5.770 -11.797  12.130  1.00  0.00     0.074 A 
ATOM     57  C   UNL     1       9.778  -7.424  14.392  1.00  0.00     0.029 A 
ATOM     58  N   UNL     1       8.048  -8.472  13.470  1.00  0.00    -0.354 N 
ATOM     59  N   UNL     1       6.531 -10.827  12.577  1.00  0.00    -0.248 NA
ATOM     60  C   UNL     1       6.390 -13.127  12.194  1.00  0.00     0.031 C 
ATOM     61  C   UNL     1      10.078  -8.788  14.312  1.00  0.00     0.029 A 
ATOM     62  C   UNL     1       8.989  -9.446  13.762  1.00  0.00     0.049 A 
ATOM     63  H   UNL     1       7.167  -8.642  13.064  1.00  0.00     0.167 HD
ATOM     64  C   UNL     1       7.712 -11.431  12.995  1.00  0.00     0.074 A 
ATOM     65  C   UNL     1       7.556 -12.852  12.764  1.00  0.00     0.031 C 
ATOM     66  C   UNL     1       8.823 -10.859  13.523  1.00  0.00     0.037 A 
BRANCH  53  67
ATOM     67  C   UNL     1       8.538  -4.694  13.974  1.00  0.00     0.058 A 
ATOM     68  C   UNL     1       8.136  -3.888  15.051  1.00  0.00     0.135 A 
ATOM     69  C   UNL     1       9.659  -4.281  13.234  1.00  0.00     0.135 A 
ATOM     70  F   UNL     1       7.065  -4.226  15.787  1.00  0.00    -0.206 F 
ATOM     71  C   UNL     1       8.795  -2.702  15.360  1.00  0.00     0.059 A 
ATOM     72  C   UNL     1      10.353  -3.115  13.545  1.00  0.00     0.059 A 
ATOM     73  F   UNL     1      10.090  -5.012  12.194  1.00  0.00    -0.206 F 
ATOM     74  C   UNL     1       9.903  -2.324  14.600  1.00  0.00     0.060 A 
BRANCH  74  75
ATOM     75  S   UNL     1      10.747  -0.783  15.016  1.00  0.00     0.124 S 
ATOM     76  O   UNL     1       9.776   0.211  14.569  1.00  0.00    -0.237 OA
ATOM     77  O   UNL     1      10.914  -0.899  16.461  1.00  0.00    -0.237 OA
ATOM     78  O   UNL     1      11.980  -0.848  14.237  1.00  0.00    -0.744 OA
ENDBRANCH  74  75
ENDBRANCH  53  67
BRANCH  54  79
ATOM     79  C   UNL     1       3.672 -12.941  11.087  1.00  0.00     0.058 A 
ATOM     80  C   UNL     1       3.248 -13.942  11.973  1.00  0.00     0.135 A 
ATOM     81  C   UNL     1       3.387 -13.114   9.723  1.00  0.00     0.135 A 
ATOM     82  F   UNL     1       3.503 -13.828  13.285  1.00  0.00    -0.206 F 
ATOM     83  C   UNL     1       2.576 -15.075  11.525  1.00  0.00     0.059 A 
ATOM     84  C   UNL     1       2.691 -14.224   9.255  1.00  0.00     0.059 A 
ATOM     85  F   UNL     1       3.756 -12.177   8.835  1.00  0.00    -0.206 F 
ATOM     86  C   UNL     1       2.296 -15.204  10.164  1.00  0.00     0.060 A 
BRANCH  86  87
ATOM     87  S   UNL     1       1.368 -16.648   9.601  1.00  0.00     0.124 S 
ATOM     88  O   UNL     1       2.358 -17.709   9.747  1.00  0.00    -0.237 OA
ATOM     89  O   UNL     1       0.253 -16.679  10.543  1.00  0.00    -0.237 OA
ATOM     90  O   UNL     1       1.010 -16.303   8.229  1.00  0.00    -0.744 OA
ENDBRANCH  86  87
ENDBRANCH  54  79
BRANCH  66  91
ATOM     91  C   UNL     1       9.954 -11.774  13.912  1.00  0.00     0.058 A 
ATOM     92  C   UNL     1      10.743 -12.426  12.951  1.00  0.00     0.135 A 
ATOM     93  C   UNL     1      10.281 -11.963  15.265  1.00  0.00     0.135 A 
ATOM     94  F   UNL     1      10.471 -12.285  11.644  1.00  0.00    -0.206 F 
ATOM     95  C   UNL     1      11.798 -13.255  13.319  1.00  0.00     0.059 A 
ATOM     96  C   UNL     1      11.351 -12.762  15.654  1.00  0.00     0.059 A 
ATOM     97  F   UNL     1       9.566 -11.356  16.225  1.00  0.00    -0.206 F 
ATOM     98  C   UNL     1      12.096 -13.415  14.673  1.00  0.00     0.060 A 
BRANCH  98  99
ATOM     99  S   UNL     1      13.485 -14.473  15.134  1.00  0.00     0.124 S 
ATOM    100  O   UNL     1      12.949 -15.801  14.852  1.00  0.00    -0.237 OA
ATOM    101  O   UNL     1      14.540 -14.011  14.237  1.00  0.00    -0.237 OA
ATOM    102  O   UNL     1      13.692 -14.166  16.546  1.00  0.00    -0.744 OA
ENDBRANCH  98  99
ENDBRANCH  66  91
ENDBRANCH  40  41
ENDBRANCH  32  35
ENDBRANCH  30  31
ENDBRANCH  29  30
ENDBRANCH  28  29
ENDBRANCH   1  28
TORSDOF 19
