REMARK SMILES CC[C@H]1CN(C(=O)N(CC(=O)NCCCCCCNC(=O)c2ccc(-c3c4nc(c(-c5c(F)cc(S(=O)(=O)[O-])cc5F)c5ccc([nH]5)c(-c5c(F)cc(S(=O)(=O)[O-])cc5F)c5nc(c(-c6c(F)cc(S(=O)(=O)[O-])cc6F)c6ccc3[nH]6)C=C5)C=C4)cc2)C(C)(C)C)CC[N@@H+]1C
REMARK SMILES IDX 15 1 14 2 13 3 12 4 10 5 11 6 9 8 8 9 6 10 7 11 5 12 3 13
REMARK SMILES IDX 4 14 94 15 93 16 95 17 92 19 2 20 1 21 88 22 89 23 90 24
REMARK SMILES IDX 91 25 16 26 17 27 18 28 19 29 20 30 21 32 22 33 23 34 87 35
REMARK SMILES IDX 24 36 86 37 25 38 26 39 27 40 80 41 28 42 85 43 79 44 81 45
REMARK SMILES IDX 29 46 84 47 78 48 77 49 30 51 64 52 43 53 63 54 44 55 47 56
REMARK SMILES IDX 62 57 82 58 45 59 46 60 61 62 83 63 48 64 31 65 32 66 41 67
REMARK SMILES IDX 33 68 34 69 40 70 42 71 35 72 36 73 37 74 38 75 39 76 65 77
REMARK SMILES IDX 66 78 75 79 67 80 68 81 74 82 76 83 69 84 70 85 71 86 72 87
REMARK SMILES IDX 73 88 49 89 50 90 59 91 51 92 52 93 58 94 60 95 53 96 54 97
REMARK SMILES IDX 55 98 56 99 57 100
REMARK H PARENT 12 7 94 18 19 31 81 50 47 61
REMARK Flexibility Score: inf
ROOT
ATOM      1  C   UNL     1       3.575   3.122   9.001  1.00  0.00     0.002 C 
ENDROOT
BRANCH   1   2
ATOM      2  C   UNL     1       2.505   3.017   7.910  1.00  0.00     0.021 C 
BRANCH   2   3
ATOM      3  C   UNL     1       2.769   1.899   6.911  1.00  0.00     0.116 C 
BRANCH   3   4
ATOM      4  N   UNL     1       2.716   0.600   7.549  1.00  0.00    -0.355 N 
ATOM      5  C   UNL     1       1.827  -0.412   7.354  1.00  0.00     0.239 C 
ATOM      6  O   UNL     1       2.027  -1.484   7.931  1.00  0.00    -0.273 OA
ATOM      7  H   UNL     1       3.420   0.424   8.214  1.00  0.00     0.163 HD
BRANCH   5   8
ATOM      8  C   UNL     1       0.699  -0.258   6.330  1.00  0.00     0.221 C 
BRANCH   8   9
ATOM      9  N   UNL     1      -0.362   0.743   6.561  1.00  0.00    -0.311 N 
BRANCH   9  10
ATOM     10  C   UNL     1      -0.522   1.872   5.758  1.00  0.00     0.321 C 
ATOM     11  O   UNL     1      -1.087   2.882   6.186  1.00  0.00    -0.248 OA
BRANCH  10  12
ATOM     12  N   UNL     1      -0.027   1.888   4.461  1.00  0.00    -0.313 N 
ATOM     13  C   UNL     1       0.922   0.900   2.343  1.00  0.00     0.203 C 
ATOM     14  C   UNL     1      -0.119   0.778   3.498  1.00  0.00     0.186 C 
ATOM     15  N   UNL     1       0.842   2.203   1.643  1.00  0.00    -0.332 N 
ATOM     16  C   UNL     1       0.938   3.317   2.606  1.00  0.00     0.284 C 
ATOM     17  C   UNL     1      -0.355   2.316   0.812  1.00  0.00     0.333 C 
ATOM     18  H   UNL     1       1.640   2.256   1.010  1.00  0.00     0.348 HD
ATOM     19  C   UNL     1      -0.002   3.215   3.820  1.00  0.00     0.183 C 
BRANCH  13  20
ATOM     20  C   UNL     1       2.363   0.636   2.856  1.00  0.00     0.063 C 
ATOM     21  C   UNL     1       3.446   0.848   1.800  1.00  0.00     0.010 C 
ENDBRANCH  13  20
ENDBRANCH  10  12
ENDBRANCH   9  10
BRANCH   9  22
ATOM     22  C   UNL     1      -1.228   0.627   7.804  1.00  0.00     0.037 C 
ATOM     23  C   UNL     1      -0.908   1.716   8.854  1.00  0.00     0.034 C 
ATOM     24  C   UNL     1      -2.723   0.721   7.411  1.00  0.00     0.034 C 
ATOM     25  C   UNL     1      -1.086  -0.723   8.553  1.00  0.00     0.034 C 
ENDBRANCH   9  22
ENDBRANCH   8   9
ENDBRANCH   5   8
ENDBRANCH   3   4
ENDBRANCH   2   3
ENDBRANCH   1   2
BRANCH   1  26
ATOM     26  C   UNL     1       4.979   3.429   8.472  1.00  0.00     0.002 C 
BRANCH  26  27
ATOM     27  C   UNL     1       5.063   4.681   7.597  1.00  0.00     0.021 C 
BRANCH  27  28
ATOM     28  C   UNL     1       4.544   5.946   8.273  1.00  0.00     0.116 C 
BRANCH  28  29
ATOM     29  N   UNL     1       5.337   6.292   9.443  1.00  0.00    -0.352 N 
ATOM     30  C   UNL     1       6.056   7.436   9.684  1.00  0.00     0.251 C 
ATOM     31  H   UNL     1       5.361   5.615  10.158  1.00  0.00     0.163 HD
ATOM     32  O   UNL     1       6.861   7.484  10.608  1.00  0.00    -0.269 OA
BRANCH  30  33
ATOM     33  C   UNL     1       5.859   8.601   8.799  1.00  0.00     0.039 A 
ATOM     34  C   UNL     1       6.973   9.231   8.242  1.00  0.00     0.014 A 
ATOM     35  C   UNL     1       4.566   9.034   8.489  1.00  0.00     0.014 A 
ATOM     36  C   UNL     1       6.786  10.255   7.312  1.00  0.00     0.010 A 
ATOM     37  C   UNL     1       4.383  10.004   7.511  1.00  0.00     0.010 A 
ATOM     38  C   UNL     1       5.490  10.620   6.909  1.00  0.00    -0.014 A 
BRANCH  38  39
ATOM     39  C   UNL     1       5.265  11.621   5.837  1.00  0.00     0.031 A 
ATOM     40  C   UNL     1       4.563  12.912   6.146  1.00  0.00     0.074 A 
ATOM     41  C   UNL     1       5.622  11.328   4.571  1.00  0.00     0.049 A 
ATOM     42  N   UNL     1       4.203  13.871   5.333  1.00  0.00    -0.248 NA
ATOM     43  C   UNL     1       4.196  13.143   7.551  1.00  0.00     0.031 C 
ATOM     44  C   UNL     1       6.284  10.093   4.144  1.00  0.00     0.029 A 
ATOM     45  N   UNL     1       5.470  12.042   3.410  1.00  0.00    -0.354 N 
ATOM     46  C   UNL     1       3.560  14.815   6.125  1.00  0.00     0.074 A 
ATOM     47  C   UNL     1       3.528  14.284   7.471  1.00  0.00     0.031 C 
ATOM     48  C   UNL     1       6.508  10.150   2.822  1.00  0.00     0.029 A 
ATOM     49  C   UNL     1       5.962  11.399   2.299  1.00  0.00     0.049 A 
ATOM     50  H   UNL     1       5.049  12.931   3.375  1.00  0.00     0.167 HD
ATOM     51  C   UNL     1       3.062  16.024   5.766  1.00  0.00     0.037 A 
ATOM     52  C   UNL     1       5.964  11.768   1.003  1.00  0.00     0.037 A 
ATOM     53  C   UNL     1       3.098  16.540   4.423  1.00  0.00     0.049 A 
ATOM     54  C   UNL     1       5.347  13.084   0.616  1.00  0.00     0.074 A 
ATOM     55  C   UNL     1       2.670  17.773   3.962  1.00  0.00     0.029 A 
ATOM     56  N   UNL     1       3.574  15.845   3.319  1.00  0.00    -0.354 N 
ATOM     57  N   UNL     1       4.805  13.998   1.386  1.00  0.00    -0.248 NA
ATOM     58  C   UNL     1       5.331  13.414  -0.815  1.00  0.00     0.031 C 
ATOM     59  C   UNL     1       2.833  17.800   2.572  1.00  0.00     0.029 A 
ATOM     60  C   UNL     1       3.412  16.605   2.172  1.00  0.00     0.049 A 
ATOM     61  H   UNL     1       3.969  14.944   3.347  1.00  0.00     0.167 HD
ATOM     62  C   UNL     1       4.399  15.020   0.535  1.00  0.00     0.074 A 
ATOM     63  C   UNL     1       4.771  14.617  -0.807  1.00  0.00     0.031 C 
ATOM     64  C   UNL     1       3.776  16.186   0.839  1.00  0.00     0.037 A 
BRANCH  51  65
ATOM     65  C   UNL     1       2.423  16.852   6.849  1.00  0.00     0.058 A 
ATOM     66  C   UNL     1       3.176  17.399   7.902  1.00  0.00     0.135 A 
ATOM     67  C   UNL     1       1.039  17.090   6.845  1.00  0.00     0.135 A 
ATOM     68  F   UNL     1       4.502  17.196   7.963  1.00  0.00    -0.206 F 
ATOM     69  C   UNL     1       2.572  18.098   8.943  1.00  0.00     0.059 A 
ATOM     70  C   UNL     1       0.419  17.816   7.858  1.00  0.00     0.059 A 
ATOM     71  F   UNL     1       0.271  16.599   5.860  1.00  0.00    -0.206 F 
ATOM     72  C   UNL     1       1.191  18.292   8.917  1.00  0.00     0.060 A 
BRANCH  72  73
ATOM     73  S   UNL     1       0.416  19.156  10.300  1.00  0.00     0.124 S 
ATOM     74  O   UNL     1       0.487  18.144  11.350  1.00  0.00    -0.237 OA
ATOM     75  O   UNL     1       1.289  20.312  10.475  1.00  0.00    -0.237 OA
ATOM     76  O   UNL     1      -0.924  19.455   9.806  1.00  0.00    -0.744 OA
ENDBRANCH  72  73
ENDBRANCH  51  65
BRANCH  52  77
ATOM     77  C   UNL     1       6.599  10.888  -0.012  1.00  0.00     0.058 A 
ATOM     78  C   UNL     1       7.812  11.254  -0.614  1.00  0.00     0.135 A 
ATOM     79  C   UNL     1       6.042   9.649  -0.365  1.00  0.00     0.135 A 
ATOM     80  F   UNL     1       8.378  12.433  -0.317  1.00  0.00    -0.206 F 
ATOM     81  C   UNL     1       8.453  10.423  -1.526  1.00  0.00     0.059 A 
ATOM     82  C   UNL     1       6.676   8.789  -1.256  1.00  0.00     0.059 A 
ATOM     83  F   UNL     1       4.889   9.246   0.192  1.00  0.00    -0.206 F 
ATOM     84  C   UNL     1       7.882   9.186  -1.833  1.00  0.00     0.060 A 
BRANCH  84  85
ATOM     85  S   UNL     1       8.769   8.082  -2.954  1.00  0.00     0.124 S 
ATOM     86  O   UNL     1       8.616   8.773  -4.229  1.00  0.00    -0.237 OA
ATOM     87  O   UNL     1      10.112   8.084  -2.383  1.00  0.00    -0.237 OA
ATOM     88  O   UNL     1       8.044   6.822  -2.827  1.00  0.00    -0.744 OA
ENDBRANCH  84  85
ENDBRANCH  52  77
BRANCH  64  89
ATOM     89  C   UNL     1       3.453  17.117  -0.297  1.00  0.00     0.058 A 
ATOM     90  C   UNL     1       2.415  16.838  -1.200  1.00  0.00     0.135 A 
ATOM     91  C   UNL     1       4.136  18.336  -0.439  1.00  0.00     0.135 A 
ATOM     92  F   UNL     1       1.739  15.681  -1.117  1.00  0.00    -0.206 F 
ATOM     93  C   UNL     1       2.069  17.733  -2.208  1.00  0.00     0.059 A 
ATOM     94  C   UNL     1       3.788  19.258  -1.423  1.00  0.00     0.059 A 
ATOM     95  F   UNL     1       5.133  18.654   0.401  1.00  0.00    -0.206 F 
ATOM     96  C   UNL     1       2.756  18.945  -2.305  1.00  0.00     0.060 A 
BRANCH  96  97
ATOM     97  S   UNL     1       2.249  20.123  -3.576  1.00  0.00     0.124 S 
ATOM     98  O   UNL     1       2.723  19.468  -4.791  1.00  0.00    -0.237 OA
ATOM     99  O   UNL     1       0.801  20.164  -3.402  1.00  0.00    -0.237 OA
ATOM    100  O   UNL     1       2.955  21.346  -3.207  1.00  0.00    -0.744 OA
ENDBRANCH  96  97
ENDBRANCH  64  89
ENDBRANCH  38  39
ENDBRANCH  30  33
ENDBRANCH  28  29
ENDBRANCH  27  28
ENDBRANCH  26  27
ENDBRANCH   1  26
TORSDOF 21
