REMARK SMILES CCc1cccc(-c2ccc([C@@H](C)C(=O)NCCCCCCNC(=O)c3ccc(-c4c5nc(c(-c6c(F)cc(S(=O)(=O)[O-])cc6F)c6ccc([nH]6)c(-c6c(F)cc(S(=O)(=O)[O-])cc6F)c6nc(c(-c7c(F)cc(S(=O)(=O)[O-])cc7F)c7ccc4[nH]7)C=C6)C=C5)cc3)cc2)c1
REMARK SMILES IDX 19 1 18 2 17 3 16 4 14 5 15 6 12 8 13 9 11 10 8 11 9 12
REMARK SMILES IDX 93 13 10 14 92 15 7 16 3 17 4 18 94 19 5 20 6 21 2 22 1 23
REMARK SMILES IDX 20 24 21 25 22 26 23 27 24 28 25 30 26 31 27 32 91 33 28 34
REMARK SMILES IDX 90 35 29 36 30 37 31 38 84 39 32 40 89 41 83 42 85 43 33 44
REMARK SMILES IDX 88 45 82 46 81 47 34 49 68 50 47 51 67 52 48 53 51 54 66 55
REMARK SMILES IDX 86 56 49 57 50 58 65 60 87 61 52 62 35 63 36 64 45 65 37 66
REMARK SMILES IDX 38 67 44 68 46 69 39 70 40 71 41 72 42 73 43 74 69 75 70 76
REMARK SMILES IDX 79 77 71 78 72 79 78 80 80 81 73 82 74 83 75 84 76 85 77 86
REMARK SMILES IDX 53 87 54 88 63 89 55 90 56 91 62 92 64 93 57 94 58 95 59 96
REMARK SMILES IDX 60 97 61 98
REMARK H PARENT 16 7 23 29 85 48 51 59
REMARK Flexibility Score: inf
ROOT
ATOM      1  C   UNL     1       7.874  -3.927   4.915  1.00  0.00     0.002 C 
ENDROOT
BRANCH   1   2
ATOM      2  C   UNL     1       6.403  -4.275   5.162  1.00  0.00     0.021 C 
BRANCH   2   3
ATOM      3  C   UNL     1       6.074  -4.530   6.634  1.00  0.00     0.116 C 
BRANCH   3   4
ATOM      4  N   UNL     1       5.714  -3.306   7.317  1.00  0.00    -0.356 N 
ATOM      5  C   UNL     1       4.502  -2.797   7.669  1.00  0.00     0.227 C 
ATOM      6  O   UNL     1       4.505  -1.662   8.162  1.00  0.00    -0.274 OA
ATOM      7  H   UNL     1       6.480  -2.743   7.571  1.00  0.00     0.163 HD
BRANCH   5   8
ATOM      8  C   UNL     1       3.178  -3.561   7.510  1.00  0.00     0.105 C 
ATOM      9  C   UNL     1       3.116  -4.863   8.308  1.00  0.00     0.023 C 
BRANCH   8  10
ATOM     10  C   UNL     1       2.680  -3.635   6.075  1.00  0.00    -0.036 A 
ATOM     11  C   UNL     1       1.834  -3.607   3.342  1.00  0.00    -0.018 A 
ATOM     12  C   UNL     1       2.655  -4.624   3.849  1.00  0.00     0.009 A 
ATOM     13  C   UNL     1       1.412  -2.624   4.250  1.00  0.00     0.009 A 
ATOM     14  C   UNL     1       3.034  -4.660   5.195  1.00  0.00     0.005 A 
ATOM     15  C   UNL     1       1.845  -2.623   5.583  1.00  0.00     0.005 A 
BRANCH  11  16
ATOM     16  C   UNL     1       1.432  -3.585   1.916  1.00  0.00    -0.018 A 
ATOM     17  C   UNL     1       0.865  -2.331  -0.129  1.00  0.00    -0.048 A 
ATOM     18  C   UNL     1       0.664  -3.544  -0.800  1.00  0.00     0.004 A 
ATOM     19  C   UNL     1       1.258  -2.370   1.219  1.00  0.00     0.012 A 
ATOM     20  C   UNL     1       0.843  -4.758  -0.143  1.00  0.00     0.001 A 
ATOM     21  C   UNL     1       1.212  -4.775   1.202  1.00  0.00     0.009 A 
BRANCH  17  22
ATOM     22  C   UNL     1       0.598  -1.048  -0.884  1.00  0.00     0.032 C 
ATOM     23  C   UNL     1       1.046   0.249  -0.223  1.00  0.00     0.009 C 
ENDBRANCH  17  22
ENDBRANCH  11  16
ENDBRANCH   8  10
ENDBRANCH   5   8
ENDBRANCH   3   4
ENDBRANCH   2   3
ENDBRANCH   1   2
BRANCH   1  24
ATOM     24  C   UNL     1       8.870  -5.025   5.311  1.00  0.00     0.002 C 
BRANCH  24  25
ATOM     25  C   UNL     1       8.614  -6.393   4.673  1.00  0.00     0.021 C 
BRANCH  25  26
ATOM     26  C   UNL     1       8.694  -6.393   3.150  1.00  0.00     0.116 C 
BRANCH  26  27
ATOM     27  N   UNL     1      10.033  -6.058   2.687  1.00  0.00    -0.352 N 
ATOM     28  C   UNL     1      10.894  -6.809   1.923  1.00  0.00     0.251 C 
ATOM     29  H   UNL     1      10.367  -5.173   2.959  1.00  0.00     0.163 HD
ATOM     30  O   UNL     1      12.074  -6.500   1.831  1.00  0.00    -0.269 OA
BRANCH  28  31
ATOM     31  C   UNL     1      10.371  -7.998   1.220  1.00  0.00     0.039 A 
ATOM     32  C   UNL     1      11.072  -9.204   1.287  1.00  0.00     0.014 A 
ATOM     33  C   UNL     1       9.175  -7.911   0.503  1.00  0.00     0.014 A 
ATOM     34  C   UNL     1      10.541 -10.343   0.678  1.00  0.00     0.010 A 
ATOM     35  C   UNL     1       8.611  -9.061  -0.035  1.00  0.00     0.010 A 
ATOM     36  C   UNL     1       9.292 -10.287   0.038  1.00  0.00    -0.014 A 
BRANCH  36  37
ATOM     37  C   UNL     1       8.678 -11.477  -0.602  1.00  0.00     0.031 A 
ATOM     38  C   UNL     1       8.423 -11.464  -2.085  1.00  0.00     0.074 A 
ATOM     39  C   UNL     1       8.263 -12.514   0.154  1.00  0.00     0.049 A 
ATOM     40  N   UNL     1       7.751 -12.314  -2.816  1.00  0.00    -0.248 NA
ATOM     41  C   UNL     1       8.967 -10.322  -2.841  1.00  0.00     0.031 C 
ATOM     42  C   UNL     1       8.433 -12.629   1.604  1.00  0.00     0.029 A 
ATOM     43  N   UNL     1       7.592 -13.660  -0.192  1.00  0.00    -0.354 N 
ATOM     44  C   UNL     1       7.764 -11.795  -4.106  1.00  0.00     0.074 A 
ATOM     45  C   UNL     1       8.474 -10.537  -4.052  1.00  0.00     0.031 C 
ATOM     46  C   UNL     1       7.891 -13.786   2.021  1.00  0.00     0.029 A 
ATOM     47  C   UNL     1       7.292 -14.471   0.879  1.00  0.00     0.049 A 
ATOM     48  H   UNL     1       7.348 -13.882  -1.119  1.00  0.00     0.167 HD
ATOM     49  C   UNL     1       7.244 -12.330  -5.235  1.00  0.00     0.037 A 
ATOM     50  C   UNL     1       6.595 -15.623   0.935  1.00  0.00     0.037 A 
ATOM     51  C   UNL     1       6.579 -13.604  -5.284  1.00  0.00     0.049 A 
ATOM     52  C   UNL     1       6.020 -16.193  -0.337  1.00  0.00     0.074 A 
ATOM     53  C   UNL     1       6.076 -14.267  -6.389  1.00  0.00     0.029 A 
ATOM     54  N   UNL     1       6.328 -14.410  -4.184  1.00  0.00    -0.354 N 
ATOM     55  N   UNL     1       6.086 -15.715  -1.557  1.00  0.00    -0.248 NA
ATOM     56  C   UNL     1       5.278 -17.457  -0.228  1.00  0.00     0.031 C 
ATOM     57  C   UNL     1       5.474 -15.449  -5.951  1.00  0.00     0.029 A 
ATOM     58  C   UNL     1       5.659 -15.554  -4.582  1.00  0.00     0.049 A 
ATOM     59  H   UNL     1       6.587 -14.200  -3.257  1.00  0.00     0.167 HD
ATOM     60  C   UNL     1       5.441 -16.646  -2.365  1.00  0.00     0.074 A 
ATOM     61  C   UNL     1       4.985 -17.710  -1.496  1.00  0.00     0.031 C 
ATOM     62  C   UNL     1       5.250 -16.624  -3.707  1.00  0.00     0.037 A 
BRANCH  49  63
ATOM     63  C   UNL     1       7.369 -11.548  -6.513  1.00  0.00     0.058 A 
ATOM     64  C   UNL     1       8.602 -11.380  -7.162  1.00  0.00     0.135 A 
ATOM     65  C   UNL     1       6.225 -11.018  -7.134  1.00  0.00     0.135 A 
ATOM     66  F   UNL     1       9.729 -11.850  -6.605  1.00  0.00    -0.206 F 
ATOM     67  C   UNL     1       8.700 -10.702  -8.372  1.00  0.00     0.059 A 
ATOM     68  C   UNL     1       6.295 -10.362  -8.359  1.00  0.00     0.059 A 
ATOM     69  F   UNL     1       5.021 -11.146  -6.555  1.00  0.00    -0.206 F 
ATOM     70  C   UNL     1       7.540 -10.202  -8.966  1.00  0.00     0.060 A 
BRANCH  70  71
ATOM     71  S   UNL     1       7.682  -9.358 -10.555  1.00  0.00     0.124 S 
ATOM     72  O   UNL     1       8.332  -8.111 -10.165  1.00  0.00    -0.237 OA
ATOM     73  O   UNL     1       8.502 -10.286 -11.328  1.00  0.00    -0.237 OA
ATOM     74  O   UNL     1       6.297  -9.231 -10.999  1.00  0.00    -0.744 OA
ENDBRANCH  70  71
ENDBRANCH  49  63
BRANCH  50  75
ATOM     75  C   UNL     1       6.407 -16.330   2.232  1.00  0.00     0.058 A 
ATOM     76  C   UNL     1       7.014 -17.573   2.469  1.00  0.00     0.135 A 
ATOM     77  C   UNL     1       5.602 -15.794   3.250  1.00  0.00     0.135 A 
ATOM     78  F   UNL     1       7.789 -18.130   1.526  1.00  0.00    -0.206 F 
ATOM     79  C   UNL     1       6.804 -18.276   3.650  1.00  0.00     0.059 A 
ATOM     80  C   UNL     1       5.401 -16.465   4.453  1.00  0.00     0.059 A 
ATOM     81  F   UNL     1       5.013 -14.600   3.086  1.00  0.00    -0.206 F 
ATOM     82  C   UNL     1       5.992 -17.714   4.636  1.00  0.00     0.060 A 
BRANCH  82  83
ATOM     83  S   UNL     1       5.734 -18.631   6.171  1.00  0.00     0.124 S 
ATOM     84  O   UNL     1       4.859 -19.709   5.725  1.00  0.00    -0.237 OA
ATOM     85  O   UNL     1       7.095 -19.018   6.529  1.00  0.00    -0.237 OA
ATOM     86  O   UNL     1       5.120 -17.642   7.052  1.00  0.00    -0.744 OA
ENDBRANCH  82  83
ENDBRANCH  50  75
BRANCH  62  87
ATOM     87  C   UNL     1       4.594 -17.816  -4.346  1.00  0.00     0.058 A 
ATOM     88  C   UNL     1       3.219 -18.063  -4.226  1.00  0.00     0.135 A 
ATOM     89  C   UNL     1       5.345 -18.664  -5.179  1.00  0.00     0.135 A 
ATOM     90  F   UNL     1       2.458 -17.288  -3.438  1.00  0.00    -0.206 F 
ATOM     91  C   UNL     1       2.610 -19.113  -4.906  1.00  0.00     0.059 A 
ATOM     92  C   UNL     1       4.752 -19.701  -5.890  1.00  0.00     0.059 A 
ATOM     93  F   UNL     1       6.663 -18.464  -5.334  1.00  0.00    -0.206 F 
ATOM     94  C   UNL     1       3.384 -19.920  -5.745  1.00  0.00     0.060 A 
BRANCH  94  95
ATOM     95  S   UNL     1       2.567 -21.230  -6.680  1.00  0.00     0.124 S 
ATOM     96  O   UNL     1       2.273 -22.201  -5.631  1.00  0.00    -0.237 OA
ATOM     97  O   UNL     1       1.413 -20.537  -7.243  1.00  0.00    -0.237 OA
ATOM     98  O   UNL     1       3.579 -21.639  -7.649  1.00  0.00    -0.744 OA
ENDBRANCH  94  95
ENDBRANCH  62  87
ENDBRANCH  36  37
ENDBRANCH  28  31
ENDBRANCH  26  27
ENDBRANCH  25  26
ENDBRANCH  24  25
ENDBRANCH   1  24
TORSDOF 19
