REMARK SMILES CC[C@](C)(NC(=O)CCOc1ccc(Cl)c(Cl)c1)C(=O)NCCCCCCNC(=O)c1ccc(-c2c3nc(c(-c4c(F)cc(S(=O)(=O)[O-])cc4F)c4ccc([nH]4)c(-c4c(F)cc(S(=O)(=O)[O-])cc4F)c4nc(c(-c5c(F)cc(S(=O)(=O)[O-])cc5F)c5ccc2[nH]5)C=C4)C=C3)cc1
REMARK SMILES IDX 23 1 22 2 21 3 19 4 20 5 3 7 4 8 2 9 1 10 5 11 6 12 7 14
REMARK SMILES IDX 8 15 9 16 10 17 11 18 12 19 18 20 13 21 16 22 14 23 17 24
REMARK SMILES IDX 15 25 24 26 25 27 26 28 27 29 28 30 29 31 30 33 31 34 32 35
REMARK SMILES IDX 96 36 33 37 95 38 34 39 35 40 36 41 89 42 37 43 94 44 88 45
REMARK SMILES IDX 90 46 38 47 93 48 87 49 86 50 39 52 73 53 52 54 72 55 53 56
REMARK SMILES IDX 56 57 71 58 91 59 54 60 55 61 70 63 92 64 57 65 40 66 41 67
REMARK SMILES IDX 50 68 42 69 43 70 49 71 51 72 44 73 45 74 46 75 47 76 48 77
REMARK SMILES IDX 74 78 75 79 84 80 76 81 77 82 83 83 85 84 78 85 79 86 80 87
REMARK SMILES IDX 81 88 82 89 58 90 59 91 68 92 60 93 61 94 67 95 69 96 62 97
REMARK SMILES IDX 63 98 64 99 65 100 66 101
REMARK H PARENT 21 6 5 13 28 32 90 51 56 62
REMARK Flexibility Score: inf
ROOT
ATOM      1  C   UNL     1       3.125   5.180  -3.454  1.00  0.00     0.021 C 
ENDROOT
BRANCH   1   2
ATOM      2  C   UNL     1       2.584   3.814  -3.865  1.00  0.00     0.116 C 
BRANCH   2   3
ATOM      3  N   UNL     1       3.202   2.727  -3.130  1.00  0.00    -0.354 N 
ATOM      4  C   UNL     1       2.672   1.850  -2.233  1.00  0.00     0.245 C 
ATOM      5  O   UNL     1       3.404   0.938  -1.839  1.00  0.00    -0.272 OA
ATOM      6  H   UNL     1       4.162   2.602  -3.308  1.00  0.00     0.163 HD
BRANCH   4   7
ATOM      7  C   UNL     1       1.182   1.947  -1.807  1.00  0.00     0.116 C 
ATOM      8  C   UNL     1       0.928   1.066  -0.585  1.00  0.00     0.045 C 
BRANCH   7   9
ATOM      9  C   UNL     1       0.314   1.450  -3.009  1.00  0.00     0.035 C 
ATOM     10  C   UNL     1       0.250  -0.063  -3.199  1.00  0.00     0.007 C 
ENDBRANCH   7   9
BRANCH   7  11
ATOM     11  N   UNL     1       0.802   3.356  -1.505  1.00  0.00    -0.342 N 
ATOM     12  C   UNL     1       1.324   4.298  -0.672  1.00  0.00     0.224 C 
ATOM     13  H   UNL     1       0.015   3.668  -2.009  1.00  0.00     0.164 HD
ATOM     14  O   UNL     1       0.735   5.382  -0.610  1.00  0.00    -0.275 OA
BRANCH  12  15
ATOM     15  C   UNL     1       2.629   4.096   0.070  1.00  0.00     0.141 C 
BRANCH  15  16
ATOM     16  C   UNL     1       2.547   4.134   1.597  1.00  0.00     0.239 C 
BRANCH  16  17
ATOM     17  O   UNL     1       1.892   3.021   2.216  1.00  0.00    -0.493 OA
BRANCH  17  18
ATOM     18  C   UNL     1       0.526   2.974   2.205  1.00  0.00     0.120 A 
ATOM     19  C   UNL     1      -0.315   4.013   1.825  1.00  0.00     0.048 A 
ATOM     20  C   UNL     1      -0.027   1.727   2.508  1.00  0.00     0.068 A 
ATOM     21  C   UNL     1      -1.657   3.760   1.533  1.00  0.00     0.026 A 
ATOM     22  C   UNL     1      -1.382   1.478   2.265  1.00  0.00     0.063 A 
ATOM     23  C   UNL     1      -2.187   2.486   1.724  1.00  0.00     0.059 A 
ATOM     24  Cl  UNL     1      -1.976  -0.115   2.570  1.00  0.00    -0.083 Cl
ATOM     25  Cl  UNL     1      -3.818   2.211   1.230  1.00  0.00    -0.083 Cl
ENDBRANCH  17  18
ENDBRANCH  16  17
ENDBRANCH  15  16
ENDBRANCH  12  15
ENDBRANCH   7  11
ENDBRANCH   4   7
ENDBRANCH   2   3
ENDBRANCH   1   2
BRANCH   1  26
ATOM     26  C   UNL     1       4.646   5.308  -3.543  1.00  0.00     0.002 C 
BRANCH  26  27
ATOM     27  C   UNL     1       5.228   4.927  -4.905  1.00  0.00     0.002 C 
BRANCH  27  28
ATOM     28  C   UNL     1       4.547   5.608  -6.093  1.00  0.00     0.021 C 
BRANCH  28  29
ATOM     29  C   UNL     1       4.497   7.125  -5.986  1.00  0.00     0.116 C 
BRANCH  29  30
ATOM     30  N   UNL     1       5.832   7.696  -6.017  1.00  0.00    -0.352 N 
ATOM     31  C   UNL     1       6.364   8.532  -6.963  1.00  0.00     0.251 C 
ATOM     32  H   UNL     1       6.425   7.453  -5.270  1.00  0.00     0.163 HD
ATOM     33  O   UNL     1       7.579   8.716  -7.025  1.00  0.00    -0.269 OA
BRANCH  31  34
ATOM     34  C   UNL     1       5.450   9.191  -7.914  1.00  0.00     0.039 A 
ATOM     35  C   UNL     1       5.722   9.124  -9.280  1.00  0.00     0.014 A 
ATOM     36  C   UNL     1       4.295   9.825  -7.444  1.00  0.00     0.014 A 
ATOM     37  C   UNL     1       4.801   9.653 -10.184  1.00  0.00     0.010 A 
ATOM     38  C   UNL     1       3.343  10.277  -8.349  1.00  0.00     0.010 A 
ATOM     39  C   UNL     1       3.590  10.202  -9.727  1.00  0.00    -0.014 A 
BRANCH  39  40
ATOM     40  C   UNL     1       2.566  10.699 -10.679  1.00  0.00     0.031 A 
ATOM     41  C   UNL     1       2.179  12.151 -10.679  1.00  0.00     0.074 A 
ATOM     42  C   UNL     1       1.940   9.828 -11.494  1.00  0.00     0.049 A 
ATOM     43  N   UNL     1       1.266  12.762 -11.389  1.00  0.00    -0.248 NA
ATOM     44  C   UNL     1       2.892  13.027  -9.735  1.00  0.00     0.031 C 
ATOM     45  C   UNL     1       2.190   8.386 -11.542  1.00  0.00     0.029 A 
ATOM     46  N   UNL     1       0.953  10.024 -12.427  1.00  0.00    -0.354 N 
ATOM     47  C   UNL     1       1.292  14.089 -10.976  1.00  0.00     0.074 A 
ATOM     48  C   UNL     1       2.263  14.180  -9.908  1.00  0.00     0.031 C 
ATOM     49  C   UNL     1       1.389   7.830 -12.464  1.00  0.00     0.029 A 
ATOM     50  C   UNL     1       0.539   8.866 -13.043  1.00  0.00     0.049 A 
ATOM     51  H   UNL     1       0.577  10.909 -12.636  1.00  0.00     0.167 HD
ATOM     52  C   UNL     1       0.589  15.140 -11.461  1.00  0.00     0.037 A 
ATOM     53  C   UNL     1      -0.429   8.659 -13.957  1.00  0.00     0.037 A 
ATOM     54  C   UNL     1      -0.374  15.036 -12.526  1.00  0.00     0.049 A 
ATOM     55  C   UNL     1      -1.212   9.835 -14.471  1.00  0.00     0.074 A 
ATOM     56  C   UNL     1      -1.103  16.046 -13.129  1.00  0.00     0.029 A 
ATOM     57  N   UNL     1      -0.754  13.850 -13.139  1.00  0.00    -0.354 N 
ATOM     58  N   UNL     1      -1.120  11.098 -14.127  1.00  0.00    -0.248 NA
ATOM     59  C   UNL     1      -2.224   9.563 -15.499  1.00  0.00     0.031 C 
ATOM     60  C   UNL     1      -1.964  15.464 -14.064  1.00  0.00     0.029 A 
ATOM     61  C   UNL     1      -1.729  14.098 -14.091  1.00  0.00     0.049 A 
ATOM     62  H   UNL     1      -0.384  12.962 -12.929  1.00  0.00     0.167 HD
ATOM     63  C   UNL     1      -2.050  11.775 -14.909  1.00  0.00     0.074 A 
ATOM     64  C   UNL     1      -2.680  10.782 -15.756  1.00  0.00     0.031 C 
ATOM     65  C   UNL     1      -2.353  13.097 -14.923  1.00  0.00     0.037 A 
BRANCH  52  66
ATOM     66  C   UNL     1       0.834  16.487 -10.833  1.00  0.00     0.058 A 
ATOM     67  C   UNL     1       2.062  17.157 -10.975  1.00  0.00     0.135 A 
ATOM     68  C   UNL     1      -0.170  17.121 -10.085  1.00  0.00     0.135 A 
ATOM     69  F   UNL     1       3.063  16.593 -11.669  1.00  0.00    -0.206 F 
ATOM     70  C   UNL     1       2.300  18.381 -10.360  1.00  0.00     0.059 A 
ATOM     71  C   UNL     1       0.034  18.363  -9.489  1.00  0.00     0.059 A 
ATOM     72  F   UNL     1      -1.364  16.531  -9.917  1.00  0.00    -0.206 F 
ATOM     73  C   UNL     1       1.280  18.975  -9.614  1.00  0.00     0.060 A 
BRANCH  73  74
ATOM     74  S   UNL     1       1.614  20.552  -8.803  1.00  0.00     0.124 S 
ATOM     75  O   UNL     1       2.514  20.142  -7.730  1.00  0.00    -0.237 OA
ATOM     76  O   UNL     1       2.223  21.331  -9.876  1.00  0.00    -0.237 OA
ATOM     77  O   UNL     1       0.293  21.002  -8.377  1.00  0.00    -0.744 OA
ENDBRANCH  73  74
ENDBRANCH  52  66
BRANCH  53  78
ATOM     78  C   UNL     1      -0.701   7.277 -14.435  1.00  0.00     0.058 A 
ATOM     79  C   UNL     1      -0.368   6.878 -15.738  1.00  0.00     0.135 A 
ATOM     80  C   UNL     1      -1.258   6.312 -13.579  1.00  0.00     0.135 A 
ATOM     81  F   UNL     1       0.160   7.764 -16.596  1.00  0.00    -0.206 F 
ATOM     82  C   UNL     1      -0.580   5.575 -16.177  1.00  0.00     0.059 A 
ATOM     83  C   UNL     1      -1.454   4.997 -13.987  1.00  0.00     0.059 A 
ATOM     84  F   UNL     1      -1.577   6.638 -12.317  1.00  0.00    -0.206 F 
ATOM     85  C   UNL     1      -1.116   4.639 -15.290  1.00  0.00     0.060 A 
BRANCH  85  86
ATOM     86  S   UNL     1      -1.316   2.933 -15.847  1.00  0.00     0.124 S 
ATOM     87  O   UNL     1      -2.429   3.056 -16.781  1.00  0.00    -0.237 OA
ATOM     88  O   UNL     1      -0.012   2.651 -16.439  1.00  0.00    -0.237 OA
ATOM     89  O   UNL     1      -1.604   2.209 -14.612  1.00  0.00    -0.744 OA
ENDBRANCH  85  86
ENDBRANCH  53  78
BRANCH  65  90
ATOM     90  C   UNL     1      -3.405  13.557 -15.896  1.00  0.00     0.058 A 
ATOM     91  C   UNL     1      -4.764  13.260 -15.709  1.00  0.00     0.135 A 
ATOM     92  C   UNL     1      -3.055  14.360 -16.995  1.00  0.00     0.135 A 
ATOM     93  F   UNL     1      -5.153  12.489 -14.681  1.00  0.00    -0.206 F 
ATOM     94  C   UNL     1      -5.737  13.728 -16.587  1.00  0.00     0.059 A 
ATOM     95  C   UNL     1      -4.015  14.864 -17.866  1.00  0.00     0.059 A 
ATOM     96  F   UNL     1      -1.770  14.681 -17.215  1.00  0.00    -0.206 F 
ATOM     97  C   UNL     1      -5.353  14.535 -17.659  1.00  0.00     0.060 A 
BRANCH  97  98
ATOM     98  S   UNL     1      -6.632  15.174 -18.761  1.00  0.00     0.124 S 
ATOM     99  O   UNL     1      -7.028  13.969 -19.482  1.00  0.00    -0.237 OA
ATOM    100  O   UNL     1      -7.616  15.703 -17.822  1.00  0.00    -0.237 OA
ATOM    101  O   UNL     1      -5.929  16.177 -19.555  1.00  0.00    -0.744 OA
ENDBRANCH  97  98
ENDBRANCH  65  90
ENDBRANCH  39  40
ENDBRANCH  31  34
ENDBRANCH  29  30
ENDBRANCH  28  29
ENDBRANCH  27  28
ENDBRANCH  26  27
ENDBRANCH   1  26
TORSDOF 22
