REMARK SMILES CC(C)COc1cccc(C(=O)Nc2ccc(O)c(C(=O)NCCCCCCNC(=O)c3ccc(-c4c5nc(c(-c6c(F)cc(S(=O)(=O)[O-])cc6F)c6ccc([nH]6)c(-c6c(F)cc(S(=O)(=O)[O-])cc6F)c6nc(c(-c7c(F)cc(S(=O)(=O)[O-])cc7F)c7ccc4[nH]7)C=C6)C=C5)cc3)c2)c1
REMARK SMILES IDX 24 1 23 2 22 3 20 4 21 5 19 7 14 8 15 9 98 10 16 11 17 12
REMARK SMILES IDX 13 13 11 14 12 15 10 17 6 18 7 19 99 20 8 21 9 22 5 23 4 24
REMARK SMILES IDX 2 25 1 26 3 27 18 28 25 30 26 31 27 32 28 33 29 34 30 35
REMARK SMILES IDX 31 37 32 38 33 39 97 40 34 41 96 42 35 43 36 44 37 45 90 46
REMARK SMILES IDX 38 47 95 48 89 49 91 50 39 51 94 52 88 53 87 54 40 56 74 57
REMARK SMILES IDX 53 58 73 59 54 60 57 61 72 62 92 63 55 64 56 65 71 67 93 68
REMARK SMILES IDX 58 69 41 70 42 71 51 72 43 73 44 74 50 75 52 76 45 77 46 78
REMARK SMILES IDX 47 79 48 80 49 81 75 82 76 83 85 84 77 85 78 86 84 87 86 88
REMARK SMILES IDX 79 89 80 90 81 91 82 92 83 93 59 94 60 95 69 96 61 97 62 98
REMARK SMILES IDX 68 99 70 100 63 101 64 102 65 103 66 104 67 105
REMARK H PARENT 22 6 13 16 18 29 29 36 91 55 57 66
REMARK Flexibility Score: inf
ROOT
ATOM      1  C   UNL     1       0.541  -4.589  -2.872  1.00  0.00     0.021 C 
ENDROOT
BRANCH   1   2
ATOM      2  C   UNL     1       0.010  -3.781  -1.691  1.00  0.00     0.116 C 
BRANCH   2   3
ATOM      3  N   UNL     1       0.416  -4.377  -0.436  1.00  0.00    -0.352 N 
ATOM      4  C   UNL     1       1.377  -4.055   0.484  1.00  0.00     0.255 C 
ATOM      5  O   UNL     1       1.428  -4.747   1.508  1.00  0.00    -0.269 OA
ATOM      6  H   UNL     1      -0.105  -5.177  -0.195  1.00  0.00     0.163 HD
BRANCH   4   7
ATOM      7  C   UNL     1       2.302  -2.886   0.384  1.00  0.00     0.083 A 
ATOM      8  C   UNL     1       3.255  -0.983  -0.797  1.00  0.00     0.042 A 
ATOM      9  C   UNL     1       3.855  -0.530   0.379  1.00  0.00     0.030 A 
ATOM     10  C   UNL     1       2.596  -2.219  -0.811  1.00  0.00     0.043 A 
ATOM     11  C   UNL     1       3.662  -1.235   1.565  1.00  0.00     0.049 A 
ATOM     12  C   UNL     1       2.865  -2.380   1.573  1.00  0.00     0.128 A 
BRANCH   8  13
ATOM     13  N   UNL     1       3.267  -0.133  -1.915  1.00  0.00    -0.322 N 
ATOM     14  C   UNL     1       2.297   0.149  -2.869  1.00  0.00     0.255 C 
ATOM     15  O   UNL     1       2.663   0.675  -3.921  1.00  0.00    -0.269 OA
ATOM     16  H   UNL     1       4.115   0.350  -2.046  1.00  0.00     0.170 HD
BRANCH  14  17
ATOM     17  C   UNL     1       0.821  -0.003  -2.630  1.00  0.00     0.043 A 
ATOM     18  C   UNL     1      -1.087  -0.361  -1.137  1.00  0.00     0.120 A 
ATOM     19  C   UNL     1      -1.967  -0.225  -2.200  1.00  0.00     0.046 A 
ATOM     20  C   UNL     1       0.282  -0.233  -1.366  1.00  0.00     0.060 A 
ATOM     21  C   UNL     1      -1.466   0.076  -3.471  1.00  0.00     0.005 A 
ATOM     22  C   UNL     1      -0.081   0.181  -3.686  1.00  0.00     0.014 A 
BRANCH  18  23
ATOM     23  O   UNL     1      -1.540  -0.830   0.065  1.00  0.00    -0.493 OA
BRANCH  23  24
ATOM     24  C   UNL     1      -1.456   0.080   1.180  1.00  0.00     0.232 C 
BRANCH  24  25
ATOM     25  C   UNL     1      -0.038   0.253   1.768  1.00  0.00     0.020 C 
ATOM     26  C   UNL     1       0.570   1.598   1.347  1.00  0.00     0.011 C 
ATOM     27  C   UNL     1      -0.015   0.176   3.295  1.00  0.00     0.011 C 
ENDBRANCH  24  25
ENDBRANCH  23  24
ENDBRANCH  18  23
ENDBRANCH  14  17
ENDBRANCH   8  13
BRANCH  12  28
ATOM     28  O   UNL     1       2.649  -2.936   2.809  1.00  0.00    -0.507 OA
ATOM     29  H   UNL     1       3.048  -2.559   3.568  1.00  0.00     0.293 HD
ENDBRANCH  12  28
ENDBRANCH   4   7
ENDBRANCH   2   3
ENDBRANCH   1   2
BRANCH   1  30
ATOM     30  C   UNL     1      -0.460  -5.642  -3.354  1.00  0.00     0.002 C 
BRANCH  30  31
ATOM     31  C   UNL     1      -1.773  -5.067  -3.901  1.00  0.00     0.002 C 
BRANCH  31  32
ATOM     32  C   UNL     1      -1.612  -4.017  -5.003  1.00  0.00     0.021 C 
BRANCH  32  33
ATOM     33  C   UNL     1      -0.827  -4.500  -6.217  1.00  0.00     0.116 C 
BRANCH  33  34
ATOM     34  N   UNL     1      -1.465  -5.644  -6.852  1.00  0.00    -0.352 N 
ATOM     35  C   UNL     1      -1.809  -5.813  -8.172  1.00  0.00     0.251 C 
ATOM     36  H   UNL     1      -1.678  -6.398  -6.257  1.00  0.00     0.163 HD
ATOM     37  O   UNL     1      -2.520  -6.743  -8.518  1.00  0.00    -0.269 OA
BRANCH  35  38
ATOM     38  C   UNL     1      -1.312  -4.835  -9.161  1.00  0.00     0.039 A 
ATOM     39  C   UNL     1      -2.211  -4.243 -10.051  1.00  0.00     0.014 A 
ATOM     40  C   UNL     1       0.041  -4.487  -9.175  1.00  0.00     0.014 A 
ATOM     41  C   UNL     1      -1.760  -3.251 -10.924  1.00  0.00     0.010 A 
ATOM     42  C   UNL     1       0.473  -3.455  -9.998  1.00  0.00     0.010 A 
ATOM     43  C   UNL     1      -0.421  -2.829 -10.881  1.00  0.00    -0.014 A 
BRANCH  43  44
ATOM     44  C   UNL     1       0.099  -1.759 -11.766  1.00  0.00     0.031 A 
ATOM     45  C   UNL     1       1.162  -2.099 -12.774  1.00  0.00     0.074 A 
ATOM     46  C   UNL     1      -0.305  -0.485 -11.599  1.00  0.00     0.049 A 
ATOM     47  N   UNL     1       1.902  -1.301 -13.497  1.00  0.00    -0.248 NA
ATOM     48  C   UNL     1       1.453  -3.530 -12.966  1.00  0.00     0.031 C 
ATOM     49  C   UNL     1      -1.322  -0.034 -10.647  1.00  0.00     0.029 A 
ATOM     50  N   UNL     1       0.112   0.671 -12.210  1.00  0.00    -0.354 N 
ATOM     51  C   UNL     1       2.758  -2.129 -14.214  1.00  0.00     0.074 A 
ATOM     52  C   UNL     1       2.480  -3.487 -13.802  1.00  0.00     0.031 C 
ATOM     53  C   UNL     1      -1.453   1.300 -10.742  1.00  0.00     0.029 A 
ATOM     54  C   UNL     1      -0.497   1.804 -11.722  1.00  0.00     0.049 A 
ATOM     55  H   UNL     1       0.784   0.688 -12.929  1.00  0.00     0.167 HD
ATOM     56  C   UNL     1       3.679  -1.787 -15.145  1.00  0.00     0.037 A 
ATOM     57  C   UNL     1      -0.287   3.103 -12.017  1.00  0.00     0.037 A 
ATOM     58  C   UNL     1       3.929  -0.434 -15.565  1.00  0.00     0.049 A 
ATOM     59  C   UNL     1       0.765   3.460 -13.035  1.00  0.00     0.074 A 
ATOM     60  C   UNL     1       4.830   0.021 -16.511  1.00  0.00     0.029 A 
ATOM     61  N   UNL     1       3.265   0.680 -15.073  1.00  0.00    -0.354 N 
ATOM     62  N   UNL     1       1.560   2.665 -13.713  1.00  0.00    -0.248 NA
ATOM     63  C   UNL     1       0.952   4.888 -13.329  1.00  0.00     0.031 C 
ATOM     64  C   UNL     1       4.730   1.415 -16.571  1.00  0.00     0.029 A 
ATOM     65  C   UNL     1       3.735   1.822 -15.696  1.00  0.00     0.049 A 
ATOM     66  H   UNL     1       2.563   0.661 -14.382  1.00  0.00     0.167 HD
ATOM     67  C   UNL     1       2.304   3.493 -14.547  1.00  0.00     0.074 A 
ATOM     68  C   UNL     1       1.872   4.849 -14.284  1.00  0.00     0.031 C 
ATOM     69  C   UNL     1       3.255   3.159 -15.452  1.00  0.00     0.037 A 
BRANCH  56  70
ATOM     70  C   UNL     1       4.472  -2.894 -15.781  1.00  0.00     0.058 A 
ATOM     71  C   UNL     1       3.880  -3.797 -16.678  1.00  0.00     0.135 A 
ATOM     72  C   UNL     1       5.845  -3.034 -15.521  1.00  0.00     0.135 A 
ATOM     73  F   UNL     1       2.567  -3.719 -16.948  1.00  0.00    -0.206 F 
ATOM     74  C   UNL     1       4.613  -4.815 -17.276  1.00  0.00     0.059 A 
ATOM     75  C   UNL     1       6.605  -4.029 -16.130  1.00  0.00     0.059 A 
ATOM     76  F   UNL     1       6.461  -2.200 -14.669  1.00  0.00    -0.206 F 
ATOM     77  C   UNL     1       5.976  -4.923 -16.996  1.00  0.00     0.060 A 
BRANCH  77  78
ATOM     78  S   UNL     1       6.915  -6.244 -17.790  1.00  0.00     0.124 S 
ATOM     79  O   UNL     1       6.442  -7.416 -17.059  1.00  0.00    -0.237 OA
ATOM     80  O   UNL     1       6.480  -6.146 -19.179  1.00  0.00    -0.237 OA
ATOM     81  O   UNL     1       8.304  -5.870 -17.543  1.00  0.00    -0.744 OA
ENDBRANCH  77  78
ENDBRANCH  56  70
BRANCH  57  82
ATOM     82  C   UNL     1      -1.091   4.165 -11.355  1.00  0.00     0.058 A 
ATOM     83  C   UNL     1      -2.027   4.914 -12.084  1.00  0.00     0.135 A 
ATOM     84  C   UNL     1      -0.931   4.468  -9.994  1.00  0.00     0.135 A 
ATOM     85  F   UNL     1      -2.214   4.665 -13.389  1.00  0.00    -0.206 F 
ATOM     86  C   UNL     1      -2.755   5.944 -11.497  1.00  0.00     0.059 A 
ATOM     87  C   UNL     1      -1.666   5.477  -9.378  1.00  0.00     0.059 A 
ATOM     88  F   UNL     1      -0.063   3.769  -9.246  1.00  0.00    -0.206 F 
ATOM     89  C   UNL     1      -2.563   6.221 -10.143  1.00  0.00     0.060 A 
BRANCH  89  90
ATOM     90  S   UNL     1      -3.524   7.550  -9.386  1.00  0.00     0.124 S 
ATOM     91  O   UNL     1      -2.863   8.733  -9.926  1.00  0.00    -0.237 OA
ATOM     92  O   UNL     1      -4.868   7.284  -9.890  1.00  0.00    -0.237 OA
ATOM     93  O   UNL     1      -3.343   7.322  -7.956  1.00  0.00    -0.744 OA
ENDBRANCH  89  90
ENDBRANCH  57  82
BRANCH  69  94
ATOM     94  C   UNL     1       3.842   4.257 -16.292  1.00  0.00     0.058 A 
ATOM     95  C   UNL     1       4.790   5.156 -15.782  1.00  0.00     0.135 A 
ATOM     96  C   UNL     1       3.524   4.340 -17.658  1.00  0.00     0.135 A 
ATOM     97  F   UNL     1       5.121   5.123 -14.481  1.00  0.00    -0.206 F 
ATOM     98  C   UNL     1       5.404   6.100 -16.598  1.00  0.00     0.059 A 
ATOM     99  C   UNL     1       4.143   5.259 -18.497  1.00  0.00     0.059 A 
ATOM    100  F   UNL     1       2.628   3.496 -18.195  1.00  0.00    -0.206 F 
ATOM    101  C   UNL     1       5.081   6.137 -17.957  1.00  0.00     0.060 A 
BRANCH 101 102
ATOM    102  S   UNL     1       5.946   7.312 -19.020  1.00  0.00     0.124 S 
ATOM    103  O   UNL     1       5.321   8.573 -18.636  1.00  0.00    -0.237 OA
ATOM    104  O   UNL     1       7.336   7.141 -18.608  1.00  0.00    -0.237 OA
ATOM    105  O   UNL     1       5.636   6.843 -20.368  1.00  0.00    -0.744 OA
ENDBRANCH 101 102
ENDBRANCH  69  94
ENDBRANCH  43  44
ENDBRANCH  35  38
ENDBRANCH  33  34
ENDBRANCH  32  33
ENDBRANCH  31  32
ENDBRANCH  30  31
ENDBRANCH   1  30
TORSDOF 22
