REMARK SMILES CCC[N@@H+]1CC2(CCN(c3nccnc3C)CC2)C[C@H]1C(=O)NCCCCCCNC(=O)c1ccc(-c2c3nc(c(-c4c(F)cc(S(=O)(=O)[O-])cc4F)c4ccc([nH]4)c(-c4c(F)cc(S(=O)(=O)[O-])cc4F)c4nc(c(-c5c(F)cc(S(=O)(=O)[O-])cc5F)c5ccc2[nH]5)C=C4)C=C3)cc1
REMARK SMILES IDX 27 1 26 2 25 3 24 4 23 5 21 6 22 7 20 9 4 10 5 11 6 13 19 14
REMARK SMILES IDX 7 15 18 16 8 17 17 18 9 19 3 20 2 21 1 22 10 23 11 24 15 25
REMARK SMILES IDX 12 26 14 27 16 28 13 29 28 30 29 31 30 32 31 33 32 35 33 36
REMARK SMILES IDX 34 37 98 38 35 39 97 40 36 41 37 42 38 43 91 44 39 45 96 46
REMARK SMILES IDX 90 47 92 48 40 49 95 50 89 51 88 52 41 54 75 55 54 56 74 57
REMARK SMILES IDX 55 58 58 59 73 60 93 61 56 62 57 63 72 65 94 66 59 67 42 68
REMARK SMILES IDX 43 69 52 70 44 71 45 72 51 73 53 74 46 75 47 76 48 77 49 78
REMARK SMILES IDX 50 79 76 80 77 81 86 82 78 83 79 84 85 85 87 86 80 87 81 88
REMARK SMILES IDX 82 89 83 90 84 91 60 92 61 93 70 94 62 95 63 96 69 97 71 98
REMARK SMILES IDX 64 99 65 100 66 101 67 102 68 103
REMARK H PARENT 23 8 4 12 30 34 92 53 58 64
REMARK Flexibility Score: inf
ROOT
ATOM      1  C   UNL     1      -1.973   1.272   6.761  1.00  0.00     0.002 C 
ENDROOT
BRANCH   1   2
ATOM      2  C   UNL     1      -2.417  -0.112   6.264  1.00  0.00     0.002 C 
BRANCH   2   3
ATOM      3  C   UNL     1      -1.728  -0.598   4.988  1.00  0.00     0.021 C 
BRANCH   3   4
ATOM      4  C   UNL     1      -0.220  -0.759   5.149  1.00  0.00     0.116 C 
BRANCH   4   5
ATOM      5  N   UNL     1       0.255  -2.111   5.065  1.00  0.00    -0.351 N 
ATOM      6  C   UNL     1       1.105  -2.695   4.178  1.00  0.00     0.278 C 
ATOM      7  O   UNL     1       1.462  -3.847   4.473  1.00  0.00    -0.268 OA
ATOM      8  H   UNL     1      -0.092  -2.714   5.762  1.00  0.00     0.163 HD
BRANCH   6   9
ATOM      9  C   UNL     1       1.662  -2.037   2.879  1.00  0.00     0.274 C 
ATOM     10  N   UNL     1       0.615  -1.775   1.850  1.00  0.00    -0.324 N 
ATOM     11  C   UNL     1       0.421  -0.316   1.822  1.00  0.00     0.270 C 
ATOM     12  H   UNL     1      -0.293  -2.196   2.047  1.00  0.00     0.348 HD
ATOM     13  C   UNL     1       1.742   0.358   2.253  1.00  0.00     0.029 C 
ATOM     14  C   UNL     1       2.509  -0.770   2.982  1.00  0.00     0.088 C 
ATOM     15  C   UNL     1       1.617   1.575   3.219  1.00  0.00     0.034 C 
ATOM     16  C   UNL     1       2.481   0.883   0.984  1.00  0.00     0.034 C 
ATOM     17  C   UNL     1       0.889   2.752   2.593  1.00  0.00     0.119 C 
ATOM     18  C   UNL     1       1.776   2.115   0.369  1.00  0.00     0.119 C 
ATOM     19  N   UNL     1       1.645   3.104   1.416  1.00  0.00    -0.355 N 
BRANCH  10  20
ATOM     20  C   UNL     1       1.063  -2.382   0.575  1.00  0.00     0.262 C 
BRANCH  20  21
ATOM     21  C   UNL     1       0.203  -2.169  -0.680  1.00  0.00     0.058 C 
ATOM     22  C   UNL     1       0.703  -1.059  -1.597  1.00  0.00     0.010 C 
ENDBRANCH  20  21
ENDBRANCH  10  20
BRANCH  19  23
ATOM     23  C   UNL     1       1.766   4.440   1.103  1.00  0.00     0.150 A 
ATOM     24  N   UNL     1       1.007   4.941   0.104  1.00  0.00    -0.236 NA
ATOM     25  C   UNL     1       2.690   5.256   1.790  1.00  0.00     0.080 A 
ATOM     26  C   UNL     1       1.164   6.262  -0.156  1.00  0.00     0.133 A 
ATOM     27  N   UNL     1       2.847   6.574   1.511  1.00  0.00    -0.256 NA
ATOM     28  C   UNL     1       3.571   4.704   2.873  1.00  0.00     0.071 C 
ATOM     29  C   UNL     1       2.065   7.058   0.526  1.00  0.00     0.131 A 
ENDBRANCH  19  23
ENDBRANCH   6   9
ENDBRANCH   4   5
ENDBRANCH   3   4
ENDBRANCH   2   3
ENDBRANCH   1   2
BRANCH   1  30
ATOM     30  C   UNL     1      -2.220   2.440   5.801  1.00  0.00     0.021 C 
BRANCH  30  31
ATOM     31  C   UNL     1      -3.672   2.616   5.361  1.00  0.00     0.116 C 
BRANCH  31  32
ATOM     32  N   UNL     1      -4.576   2.734   6.497  1.00  0.00    -0.352 N 
ATOM     33  C   UNL     1      -5.381   3.777   6.874  1.00  0.00     0.251 C 
ATOM     34  H   UNL     1      -4.614   1.944   7.084  1.00  0.00     0.163 HD
ATOM     35  O   UNL     1      -5.891   3.784   7.995  1.00  0.00    -0.269 OA
BRANCH  33  36
ATOM     36  C   UNL     1      -5.628   4.894   5.942  1.00  0.00     0.039 A 
ATOM     37  C   UNL     1      -5.564   6.207   6.416  1.00  0.00     0.014 A 
ATOM     38  C   UNL     1      -5.929   4.643   4.600  1.00  0.00     0.014 A 
ATOM     39  C   UNL     1      -5.729   7.270   5.527  1.00  0.00     0.010 A 
ATOM     40  C   UNL     1      -6.022   5.703   3.704  1.00  0.00     0.010 A 
ATOM     41  C   UNL     1      -5.918   7.026   4.157  1.00  0.00    -0.014 A 
BRANCH  41  42
ATOM     42  C   UNL     1      -5.978   8.139   3.175  1.00  0.00     0.031 A 
ATOM     43  C   UNL     1      -7.230   8.378   2.377  1.00  0.00     0.074 A 
ATOM     44  C   UNL     1      -4.874   8.878   2.947  1.00  0.00     0.049 A 
ATOM     45  N   UNL     1      -7.443   9.238   1.415  1.00  0.00    -0.248 NA
ATOM     46  C   UNL     1      -8.388   7.523   2.686  1.00  0.00     0.031 C 
ATOM     47  C   UNL     1      -3.588   8.708   3.628  1.00  0.00     0.029 A 
ATOM     48  N   UNL     1      -4.649   9.908   2.069  1.00  0.00    -0.354 N 
ATOM     49  C   UNL     1      -8.751   9.021   0.995  1.00  0.00     0.074 A 
ATOM     50  C   UNL     1      -9.265   7.916   1.774  1.00  0.00     0.031 C 
ATOM     51  C   UNL     1      -2.717   9.613   3.156  1.00  0.00     0.029 A 
ATOM     52  C   UNL     1      -3.363  10.395   2.108  1.00  0.00     0.049 A 
ATOM     53  H   UNL     1      -5.342  10.265   1.468  1.00  0.00     0.167 HD
ATOM     54  C   UNL     1      -9.461   9.696   0.060  1.00  0.00     0.037 A 
ATOM     55  C   UNL     1      -2.767  11.353   1.371  1.00  0.00     0.037 A 
ATOM     56  C   UNL     1      -8.940  10.804  -0.700  1.00  0.00     0.049 A 
ATOM     57  C   UNL     1      -3.571  12.073   0.323  1.00  0.00     0.074 A 
ATOM     58  C   UNL     1      -9.596  11.591  -1.631  1.00  0.00     0.029 A 
ATOM     59  N   UNL     1      -7.637  11.275  -0.627  1.00  0.00    -0.354 N 
ATOM     60  N   UNL     1      -4.828  11.902  -0.014  1.00  0.00    -0.248 NA
ATOM     61  C   UNL     1      -2.880  13.117  -0.446  1.00  0.00     0.031 C 
ATOM     62  C   UNL     1      -8.675  12.500  -2.161  1.00  0.00     0.029 A 
ATOM     63  C   UNL     1      -7.460  12.321  -1.518  1.00  0.00     0.049 A 
ATOM     64  H   UNL     1      -6.941  10.919  -0.029  1.00  0.00     0.167 HD
ATOM     65  C   UNL     1      -5.083  12.831  -1.017  1.00  0.00     0.074 A 
ATOM     66  C   UNL     1      -3.856  13.574  -1.218  1.00  0.00     0.031 C 
ATOM     67  C   UNL     1      -6.229  13.049  -1.709  1.00  0.00     0.037 A 
BRANCH  54  68
ATOM     68  C   UNL     1     -10.877   9.256  -0.198  1.00  0.00     0.058 A 
ATOM     69  C   UNL     1     -11.895   9.444   0.752  1.00  0.00     0.135 A 
ATOM     70  C   UNL     1     -11.232   8.675  -1.427  1.00  0.00     0.135 A 
ATOM     71  F   UNL     1     -11.611   9.981   1.949  1.00  0.00    -0.206 F 
ATOM     72  C   UNL     1     -13.205   9.048   0.504  1.00  0.00     0.059 A 
ATOM     73  C   UNL     1     -12.542   8.299  -1.708  1.00  0.00     0.059 A 
ATOM     74  F   UNL     1     -10.300   8.470  -2.371  1.00  0.00    -0.206 F 
ATOM     75  C   UNL     1     -13.520   8.478  -0.730  1.00  0.00     0.060 A 
BRANCH  75  76
ATOM     76  S   UNL     1     -15.227   7.979  -1.037  1.00  0.00     0.124 S 
ATOM     77  O   UNL     1     -15.351   6.815  -0.164  1.00  0.00    -0.237 OA
ATOM     78  O   UNL     1     -15.975   9.162  -0.626  1.00  0.00    -0.237 OA
ATOM     79  O   UNL     1     -15.247   7.693  -2.468  1.00  0.00    -0.744 OA
ENDBRANCH  75  76
ENDBRANCH  54  68
BRANCH  55  80
ATOM     80  C   UNL     1      -1.338  11.693   1.609  1.00  0.00     0.058 A 
ATOM     81  C   UNL     1      -0.976  12.930   2.163  1.00  0.00     0.135 A 
ATOM     82  C   UNL     1      -0.308  10.790   1.300  1.00  0.00     0.135 A 
ATOM     83  F   UNL     1      -1.922  13.830   2.471  1.00  0.00    -0.206 F 
ATOM     84  C   UNL     1       0.355  13.271   2.382  1.00  0.00     0.059 A 
ATOM     85  C   UNL     1       1.028  11.095   1.541  1.00  0.00     0.059 A 
ATOM     86  F   UNL     1      -0.597   9.587   0.777  1.00  0.00    -0.206 F 
ATOM     87  C   UNL     1       1.350  12.344   2.069  1.00  0.00     0.060 A 
BRANCH  87  88
ATOM     88  S   UNL     1       3.073  12.786   2.379  1.00  0.00     0.124 S 
ATOM     89  O   UNL     1       3.298  13.810   1.365  1.00  0.00    -0.237 OA
ATOM     90  O   UNL     1       3.023  13.253   3.761  1.00  0.00    -0.237 OA
ATOM     91  O   UNL     1       3.784  11.528   2.171  1.00  0.00    -0.744 OA
ENDBRANCH  87  88
ENDBRANCH  55  80
BRANCH  67  92
ATOM     92  C   UNL     1      -6.219  14.148  -2.737  1.00  0.00     0.058 A 
ATOM     93  C   UNL     1      -5.518  14.020  -3.947  1.00  0.00     0.135 A 
ATOM     94  C   UNL     1      -6.963  15.322  -2.533  1.00  0.00     0.135 A 
ATOM     95  F   UNL     1      -4.784  12.923  -4.190  1.00  0.00    -0.206 F 
ATOM     96  C   UNL     1      -5.536  15.026  -4.907  1.00  0.00     0.059 A 
ATOM     97  C   UNL     1      -7.021  16.327  -3.493  1.00  0.00     0.059 A 
ATOM     98  F   UNL     1      -7.660  15.492  -1.398  1.00  0.00    -0.206 F 
ATOM     99  C   UNL     1      -6.295  16.175  -4.673  1.00  0.00     0.060 A 
BRANCH  99 100
ATOM    100  S   UNL     1      -6.339  17.454  -5.945  1.00  0.00     0.124 S 
ATOM    101  O   UNL     1      -4.999  18.021  -5.839  1.00  0.00    -0.237 OA
ATOM    102  O   UNL     1      -6.606  16.682  -7.154  1.00  0.00    -0.237 OA
ATOM    103  O   UNL     1      -7.426  18.327  -5.513  1.00  0.00    -0.744 OA
ENDBRANCH  99 100
ENDBRANCH  67  92
ENDBRANCH  41  42
ENDBRANCH  33  36
ENDBRANCH  31  32
ENDBRANCH  30  31
ENDBRANCH   1  30
TORSDOF 19
