REMARK SMILES CCN(CCOC)C(=O)Cn1cccc1C(=O)NCCCCCCNC(=O)c1ccc(-c2c3nc(c(-c4c(F)cc(S(=O)(=O)[O-])cc4F)c4ccc([nH]4)c(-c4c(F)cc(S(=O)(=O)[O-])cc4F)c4nc(c(-c5c(F)cc(S(=O)(=O)[O-])cc5F)c5ccc2[nH]5)C=C4)C=C3)cc1
REMARK SMILES IDX 20 1 19 2 18 3 16 4 17 5 15 7 11 8 12 9 13 10 14 11 10 12
REMARK SMILES IDX 8 13 9 14 3 15 2 16 1 17 4 18 5 19 6 20 7 21 21 22 22 23
REMARK SMILES IDX 23 24 24 25 25 26 26 27 27 29 28 30 29 31 93 32 30 33 92 34
REMARK SMILES IDX 31 35 32 36 33 37 86 38 34 39 91 40 85 41 87 42 35 43 90 44
REMARK SMILES IDX 84 45 83 46 36 48 70 49 49 50 69 51 50 52 53 53 68 54 88 55
REMARK SMILES IDX 51 56 52 57 67 59 89 60 54 61 37 62 38 63 47 64 39 65 40 66
REMARK SMILES IDX 46 67 48 68 41 69 42 70 43 71 44 72 45 73 71 74 72 75 81 76
REMARK SMILES IDX 73 77 74 78 80 79 82 80 75 81 76 82 77 83 78 84 79 85 55 86
REMARK SMILES IDX 56 87 65 88 57 89 58 90 64 91 66 92 59 93 60 94 61 95 62 96
REMARK SMILES IDX 63 97
REMARK H PARENT 18 6 25 28 87 47 53 58
REMARK Flexibility Score: inf
ROOT
ATOM      1  C   UNL     1       2.384   2.516  -5.251  1.00  0.00     0.021 C 
ENDROOT
BRANCH   1   2
ATOM      2  C   UNL     1       2.367   1.256  -4.296  1.00  0.00     0.116 C 
BRANCH   2   3
ATOM      3  N   UNL     1       2.315  -0.167  -4.973  1.00  0.00    -0.351 N 
ATOM      4  C   UNL     1       1.645  -1.416  -4.970  1.00  0.00     0.267 C 
ATOM      5  O   UNL     1       0.679  -1.624  -5.700  1.00  0.00    -0.268 OA
ATOM      6  H   UNL     1       3.016  -0.201  -5.663  1.00  0.00     0.163 HD
BRANCH   4   7
ATOM      7  C   UNL     1       2.042  -2.559  -4.217  1.00  0.00     0.107 A 
ATOM      8  N   UNL     1       2.743  -2.546  -3.070  1.00  0.00    -0.334 N 
ATOM      9  C   UNL     1       3.218  -3.810  -2.821  1.00  0.00     0.087 A 
ATOM     10  C   UNL     1       2.503  -4.684  -3.613  1.00  0.00     0.020 A 
ATOM     11  C   UNL     1       1.681  -3.887  -4.436  1.00  0.00     0.033 A 
BRANCH   8  12
ATOM     12  C   UNL     1       3.123  -1.312  -2.448  1.00  0.00     0.222 C 
BRANCH  12  13
ATOM     13  C   UNL     1       2.061  -0.305  -1.965  1.00  0.00     0.242 C 
ATOM     14  O   UNL     1       2.583   0.493  -1.145  1.00  0.00    -0.273 OA
BRANCH  13  15
ATOM     15  N   UNL     1       0.693  -0.052  -2.295  1.00  0.00    -0.339 N 
BRANCH  15  16
ATOM     16  C   UNL     1       0.062   0.669  -1.156  1.00  0.00     0.116 C 
ATOM     17  C   UNL     1       0.198  -0.051   0.202  1.00  0.00     0.027 C 
ENDBRANCH  15  16
BRANCH  15  18
ATOM     18  C   UNL     1      -0.300  -0.284  -3.553  1.00  0.00     0.148 C 
BRANCH  18  19
ATOM     19  C   UNL     1      -0.522   0.569  -5.084  1.00  0.00     0.181 C 
BRANCH  19  20
ATOM     20  O   UNL     1       0.421   0.931  -6.153  1.00  0.00    -0.383 OA
ATOM     21  C   UNL     1       0.809   0.336  -7.428  1.00  0.00     0.194 C 
ENDBRANCH  19  20
ENDBRANCH  18  19
ENDBRANCH  15  18
ENDBRANCH  13  15
ENDBRANCH  12  13
ENDBRANCH   8  12
ENDBRANCH   4   7
ENDBRANCH   2   3
ENDBRANCH   1   2
BRANCH   1  22
ATOM     22  C   UNL     1       1.177   3.526  -5.263  1.00  0.00     0.002 C 
BRANCH  22  23
ATOM     23  C   UNL     1       0.791   4.233  -3.957  1.00  0.00     0.002 C 
BRANCH  23  24
ATOM     24  C   UNL     1       1.940   4.976  -3.278  1.00  0.00     0.021 C 
BRANCH  24  25
ATOM     25  C   UNL     1       2.699   5.929  -4.203  1.00  0.00     0.116 C 
BRANCH  25  26
ATOM     26  N   UNL     1       1.864   7.028  -4.650  1.00  0.00    -0.352 N 
ATOM     27  C   UNL     1       2.237   8.130  -5.389  1.00  0.00     0.251 C 
ATOM     28  H   UNL     1       0.915   6.981  -4.393  1.00  0.00     0.163 HD
ATOM     29  O   UNL     1       1.578   9.145  -5.342  1.00  0.00    -0.269 OA
BRANCH  27  30
ATOM     30  C   UNL     1       3.436   8.063  -6.255  1.00  0.00     0.039 A 
ATOM     31  C   UNL     1       4.284   9.176  -6.298  1.00  0.00     0.014 A 
ATOM     32  C   UNL     1       3.642   6.973  -7.109  1.00  0.00     0.014 A 
ATOM     33  C   UNL     1       5.357   9.186  -7.182  1.00  0.00     0.010 A 
ATOM     34  C   UNL     1       4.720   6.974  -7.984  1.00  0.00     0.010 A 
ATOM     35  C   UNL     1       5.571   8.084  -8.020  1.00  0.00    -0.014 A 
BRANCH  35  36
ATOM     36  C   UNL     1       6.789   8.046  -8.854  1.00  0.00     0.031 A 
ATOM     37  C   UNL     1       8.016   7.624  -8.005  1.00  0.00     0.074 A 
ATOM     38  C   UNL     1       6.629   8.404 -10.171  1.00  0.00     0.049 A 
ATOM     39  N   UNL     1       9.258   7.980  -8.107  1.00  0.00    -0.248 NA
ATOM     40  C   UNL     1       7.826   6.765  -6.797  1.00  0.00     0.031 C 
ATOM     41  C   UNL     1       5.336   8.785 -10.797  1.00  0.00     0.029 A 
ATOM     42  N   UNL     1       7.479   8.527 -11.253  1.00  0.00    -0.354 N 
ATOM     43  C   UNL     1      10.012   7.237  -7.163  1.00  0.00     0.074 A 
ATOM     44  C   UNL     1       9.057   6.624  -6.292  1.00  0.00     0.031 C 
ATOM     45  C   UNL     1       5.505   9.171 -12.084  1.00  0.00     0.029 A 
ATOM     46  C   UNL     1       6.903   9.058 -12.448  1.00  0.00     0.049 A 
ATOM     47  H   UNL     1       8.427   8.263 -11.204  1.00  0.00     0.167 HD
ATOM     48  C   UNL     1      11.366   7.052  -7.271  1.00  0.00     0.037 A 
ATOM     49  C   UNL     1       7.524   9.417 -13.621  1.00  0.00     0.037 A 
ATOM     50  C   UNL     1      11.810   7.651  -8.486  1.00  0.00     0.049 A 
ATOM     51  C   UNL     1       8.907   8.951 -13.456  1.00  0.00     0.074 A 
ATOM     52  C   UNL     1      11.909   8.962  -8.871  1.00  0.00     0.029 A 
ATOM     53  N   UNL     1      11.787   6.840  -9.598  1.00  0.00    -0.354 N 
ATOM     54  N   UNL     1       9.278   7.707 -13.466  1.00  0.00    -0.248 NA
ATOM     55  C   UNL     1       9.943   9.949 -13.163  1.00  0.00     0.031 C 
ATOM     56  C   UNL     1      11.387   8.927 -10.177  1.00  0.00     0.029 A 
ATOM     57  C   UNL     1      11.312   7.602 -10.631  1.00  0.00     0.049 A 
ATOM     58  H   UNL     1      12.059   5.895  -9.642  1.00  0.00     0.167 HD
ATOM     59  C   UNL     1      10.495   7.767 -12.838  1.00  0.00     0.074 A 
ATOM     60  C   UNL     1      10.974   9.130 -12.977  1.00  0.00     0.031 C 
ATOM     61  C   UNL     1      10.726   6.950 -11.778  1.00  0.00     0.037 A 
BRANCH  48  62
ATOM     62  C   UNL     1      12.376   6.164  -6.588  1.00  0.00     0.058 A 
ATOM     63  C   UNL     1      13.749   6.508  -6.726  1.00  0.00     0.135 A 
ATOM     64  C   UNL     1      12.112   4.861  -6.151  1.00  0.00     0.135 A 
ATOM     65  F   UNL     1      14.113   7.755  -7.077  1.00  0.00    -0.206 F 
ATOM     66  C   UNL     1      14.777   5.582  -6.595  1.00  0.00     0.059 A 
ATOM     67  C   UNL     1      13.137   3.922  -5.968  1.00  0.00     0.059 A 
ATOM     68  F   UNL     1      10.854   4.440  -5.968  1.00  0.00    -0.206 F 
ATOM     69  C   UNL     1      14.458   4.277  -6.248  1.00  0.00     0.060 A 
BRANCH  69  70
ATOM     70  S   UNL     1      15.793   3.061  -6.206  1.00  0.00     0.124 S 
ATOM     71  O   UNL     1      16.111   2.916  -7.622  1.00  0.00    -0.237 OA
ATOM     72  O   UNL     1      16.803   3.741  -5.399  1.00  0.00    -0.237 OA
ATOM     73  O   UNL     1      15.174   1.902  -5.573  1.00  0.00    -0.744 OA
ENDBRANCH  69  70
ENDBRANCH  48  62
BRANCH  49  74
ATOM     74  C   UNL     1       7.268  10.215 -14.895  1.00  0.00     0.058 A 
ATOM     75  C   UNL     1       6.085  10.872 -15.251  1.00  0.00     0.135 A 
ATOM     76  C   UNL     1       8.367  10.507 -15.763  1.00  0.00     0.135 A 
ATOM     77  F   UNL     1       4.930  10.589 -14.634  1.00  0.00    -0.206 F 
ATOM     78  C   UNL     1       6.048  11.870 -16.251  1.00  0.00     0.059 A 
ATOM     79  C   UNL     1       8.377  11.533 -16.703  1.00  0.00     0.059 A 
ATOM     80  F   UNL     1       9.520   9.825 -15.697  1.00  0.00    -0.206 F 
ATOM     81  C   UNL     1       7.216  12.244 -16.918  1.00  0.00     0.060 A 
BRANCH  81  82
ATOM     82  S   UNL     1       7.276  13.726 -17.953  1.00  0.00     0.124 S 
ATOM     83  O   UNL     1       6.755  13.236 -19.223  1.00  0.00    -0.237 OA
ATOM     84  O   UNL     1       6.413  14.651 -17.223  1.00  0.00    -0.237 OA
ATOM     85  O   UNL     1       8.693  14.082 -17.949  1.00  0.00    -0.744 OA
ENDBRANCH  81  82
ENDBRANCH  49  74
BRANCH  61  86
ATOM     86  C   UNL     1      10.006   5.608 -11.811  1.00  0.00     0.058 A 
ATOM     87  C   UNL     1      10.182   4.750 -12.912  1.00  0.00     0.135 A 
ATOM     88  C   UNL     1       9.104   5.153 -10.833  1.00  0.00     0.135 A 
ATOM     89  F   UNL     1      11.032   5.088 -13.895  1.00  0.00    -0.206 F 
ATOM     90  C   UNL     1       9.515   3.526 -13.030  1.00  0.00     0.059 A 
ATOM     91  C   UNL     1       8.426   3.930 -10.921  1.00  0.00     0.059 A 
ATOM     92  F   UNL     1       8.852   5.888  -9.751  1.00  0.00    -0.206 F 
ATOM     93  C   UNL     1       8.643   3.116 -12.024  1.00  0.00     0.060 A 
BRANCH  93  94
ATOM     94  S   UNL     1       7.852   1.495 -12.156  1.00  0.00     0.124 S 
ATOM     95  O   UNL     1       7.069   1.624 -13.382  1.00  0.00    -0.237 OA
ATOM     96  O   UNL     1       9.002   0.600 -12.234  1.00  0.00    -0.237 OA
ATOM     97  O   UNL     1       7.065   1.392 -10.929  1.00  0.00    -0.744 OA
ENDBRANCH  93  94
ENDBRANCH  61  86
ENDBRANCH  35  36
ENDBRANCH  27  30
ENDBRANCH  25  26
ENDBRANCH  24  25
ENDBRANCH  23  24
ENDBRANCH  22  23
ENDBRANCH   1  22
TORSDOF 23
