REMARK SMILES CCCc1cc(OCC(=O)NCCCCCCNC(=O)c2ccc(-c3c4nc(c(-c5c(F)cc(S(=O)(=O)[O-])cc5F)c5ccc([nH]5)c(-c5c(F)cc(S(=O)(=O)[O-])cc5F)c5nc(c(-c6c(F)cc(S(=O)(=O)[O-])cc6F)c6ccc3[nH]6)C=C5)C=C4)cc2)nc(Nc2ccc(C#N)cc2)n1
REMARK SMILES IDX 13 1 12 2 11 3 9 4 10 5 8 7 7 8 6 9 4 10 5 11 98 12 88 13
REMARK SMILES IDX 87 14 3 15 2 16 1 17 89 18 90 20 91 21 97 22 92 23 96 24
REMARK SMILES IDX 93 25 94 26 95 27 14 28 15 29 16 30 17 31 18 32 19 33 20 35
REMARK SMILES IDX 21 36 22 37 86 38 23 39 85 40 24 41 25 42 26 43 79 44 27 45
REMARK SMILES IDX 84 46 78 47 80 48 28 49 83 50 77 51 76 52 29 54 63 55 42 56
REMARK SMILES IDX 62 57 43 58 46 59 61 60 81 61 44 62 45 63 60 65 82 66 47 67
REMARK SMILES IDX 30 68 31 69 40 70 32 71 33 72 39 73 41 74 34 75 35 76 36 77
REMARK SMILES IDX 37 78 38 79 64 80 65 81 74 82 66 83 67 84 73 85 75 86 68 87
REMARK SMILES IDX 69 88 70 89 71 90 72 91 48 92 49 93 58 94 50 95 51 96 57 97
REMARK SMILES IDX 59 98 52 99 53 100 54 101 55 102 56 103
REMARK H PARENT 11 6 89 19 18 34 80 53 46 64
REMARK Flexibility Score: inf
ROOT
ATOM      1  C   UNL     1       3.001  -4.777  -5.478  1.00  0.00     0.021 C 
ENDROOT
BRANCH   1   2
ATOM      2  C   UNL     1       3.717  -5.213  -4.202  1.00  0.00     0.116 C 
BRANCH   2   3
ATOM      3  N   UNL     1       4.308  -4.085  -3.509  1.00  0.00    -0.353 N 
ATOM      4  C   UNL     1       3.953  -3.566  -2.302  1.00  0.00     0.258 C 
ATOM      5  O   UNL     1       4.574  -2.599  -1.857  1.00  0.00    -0.271 OA
ATOM      6  H   UNL     1       5.058  -3.640  -3.967  1.00  0.00     0.163 HD
BRANCH   4   7
ATOM      7  C   UNL     1       2.791  -4.199  -1.523  1.00  0.00     0.331 C 
BRANCH   7   8
ATOM      8  O   UNL     1       1.546  -4.312  -2.196  1.00  0.00    -0.467 OA
BRANCH   8   9
ATOM      9  C   UNL     1       0.907  -3.161  -2.562  1.00  0.00     0.218 A 
ATOM     10  C   UNL     1       0.590  -0.852  -2.731  1.00  0.00     0.050 A 
ATOM     11  C   UNL     1       1.366  -1.897  -2.292  1.00  0.00     0.092 A 
ATOM     12  N   UNL     1      -0.552  -1.051  -3.404  1.00  0.00    -0.218 NA
ATOM     13  C   UNL     1      -0.946  -2.317  -3.619  1.00  0.00     0.230 A 
ATOM     14  N   UNL     1      -0.251  -3.387  -3.209  1.00  0.00    -0.177 NA
BRANCH  10  15
ATOM     15  C   UNL     1       0.961   0.562  -2.376  1.00  0.00     0.056 C 
BRANCH  15  16
ATOM     16  C   UNL     1       0.429   0.990  -1.003  1.00  0.00     0.003 C 
ATOM     17  C   UNL     1       0.965   0.165   0.163  1.00  0.00     0.004 C 
ENDBRANCH  15  16
ENDBRANCH  10  15
BRANCH  13  18
ATOM     18  N   UNL     1      -2.187  -2.552  -4.208  1.00  0.00    -0.324 N 
ATOM     19  H   UNL     1      -2.479  -3.491  -4.238  1.00  0.00     0.170 HD
BRANCH  18  20
ATOM     20  C   UNL     1      -3.068  -1.618  -4.760  1.00  0.00     0.041 A 
ATOM     21  C   UNL     1      -4.413  -1.609  -4.372  1.00  0.00     0.027 A 
ATOM     22  C   UNL     1      -2.612  -0.596  -5.604  1.00  0.00     0.027 A 
ATOM     23  C   UNL     1      -5.273  -0.589  -4.797  1.00  0.00     0.021 A 
ATOM     24  C   UNL     1      -3.470   0.411  -6.053  1.00  0.00     0.021 A 
ATOM     25  C   UNL     1      -4.801   0.426  -5.636  1.00  0.00     0.052 A 
BRANCH  25  26
ATOM     26  C   UNL     1      -5.666   1.494  -6.040  1.00  0.00     0.099 C 
ATOM     27  N   UNL     1      -6.359   2.373  -6.355  1.00  0.00    -0.192 NA
ENDBRANCH  25  26
ENDBRANCH  18  20
ENDBRANCH  13  18
ENDBRANCH   8   9
ENDBRANCH   7   8
ENDBRANCH   4   7
ENDBRANCH   2   3
ENDBRANCH   1   2
BRANCH   1  28
ATOM     28  C   UNL     1       3.921  -4.144  -6.529  1.00  0.00     0.002 C 
BRANCH  28  29
ATOM     29  C   UNL     1       5.138  -4.990  -6.918  1.00  0.00     0.002 C 
BRANCH  29  30
ATOM     30  C   UNL     1       4.808  -6.404  -7.398  1.00  0.00     0.021 C 
BRANCH  30  31
ATOM     31  C   UNL     1       3.897  -6.455  -8.618  1.00  0.00     0.116 C 
BRANCH  31  32
ATOM     32  N   UNL     1       4.525  -5.862  -9.788  1.00  0.00    -0.352 N 
ATOM     33  C   UNL     1       4.748  -6.417 -11.024  1.00  0.00     0.251 C 
ATOM     34  H   UNL     1       4.833  -4.933  -9.679  1.00  0.00     0.163 HD
ATOM     35  O   UNL     1       5.487  -5.853 -11.827  1.00  0.00    -0.269 OA
BRANCH  33  36
ATOM     36  C   UNL     1       4.111  -7.705 -11.371  1.00  0.00     0.039 A 
ATOM     37  C   UNL     1       4.868  -8.687 -12.012  1.00  0.00     0.014 A 
ATOM     38  C   UNL     1       2.771  -7.945 -11.054  1.00  0.00     0.014 A 
ATOM     39  C   UNL     1       4.296  -9.933 -12.280  1.00  0.00     0.010 A 
ATOM     40  C   UNL     1       2.232  -9.213 -11.241  1.00  0.00     0.010 A 
ATOM     41  C   UNL     1       2.985 -10.220 -11.864  1.00  0.00    -0.014 A 
BRANCH  41  42
ATOM     42  C   UNL     1       2.380 -11.560 -12.079  1.00  0.00     0.031 A 
ATOM     43  C   UNL     1       1.151 -11.703 -12.938  1.00  0.00     0.074 A 
ATOM     44  C   UNL     1       2.905 -12.639 -11.463  1.00  0.00     0.049 A 
ATOM     45  N   UNL     1       0.438 -12.771 -13.188  1.00  0.00    -0.248 NA
ATOM     46  C   UNL     1       0.641 -10.480 -13.580  1.00  0.00     0.031 C 
ATOM     47  C   UNL     1       4.074 -12.625 -10.580  1.00  0.00     0.029 A 
ATOM     48  N   UNL     1       2.521 -13.957 -11.478  1.00  0.00    -0.354 N 
ATOM     49  C   UNL     1      -0.600 -12.350 -14.011  1.00  0.00     0.074 A 
ATOM     50  C   UNL     1      -0.465 -10.918 -14.163  1.00  0.00     0.031 C 
ATOM     51  C   UNL     1       4.327 -13.875 -10.162  1.00  0.00     0.029 A 
ATOM     52  C   UNL     1       3.312 -14.774 -10.703  1.00  0.00     0.049 A 
ATOM     53  H   UNL     1       1.752 -14.287 -11.996  1.00  0.00     0.167 HD
ATOM     54  C   UNL     1      -1.561 -13.092 -14.610  1.00  0.00     0.037 A 
ATOM     55  C   UNL     1       3.220 -16.093 -10.444  1.00  0.00     0.037 A 
ATOM     56  C   UNL     1      -1.683 -14.520 -14.461  1.00  0.00     0.049 A 
ATOM     57  C   UNL     1       2.110 -16.888 -11.082  1.00  0.00     0.074 A 
ATOM     58  C   UNL     1      -2.603 -15.369 -15.052  1.00  0.00     0.029 A 
ATOM     59  N   UNL     1      -0.866 -15.309 -13.664  1.00  0.00    -0.354 N 
ATOM     60  N   UNL     1       1.169 -16.481 -11.901  1.00  0.00    -0.248 NA
ATOM     61  C   UNL     1       2.051 -18.322 -10.766  1.00  0.00     0.031 C 
ATOM     62  C   UNL     1      -2.382 -16.659 -14.563  1.00  0.00     0.029 A 
ATOM     63  C   UNL     1      -1.277 -16.630 -13.728  1.00  0.00     0.049 A 
ATOM     64  H   UNL     1      -0.106 -14.979 -13.132  1.00  0.00     0.167 HD
ATOM     65  C   UNL     1       0.435 -17.616 -12.231  1.00  0.00     0.074 A 
ATOM     66  C   UNL     1       1.048 -18.726 -11.531  1.00  0.00     0.031 C 
ATOM     67  C   UNL     1      -0.646 -17.730 -13.041  1.00  0.00     0.037 A 
BRANCH  54  68
ATOM     68  C   UNL     1      -2.557 -12.381 -15.487  1.00  0.00     0.058 A 
ATOM     69  C   UNL     1      -2.182 -11.805 -16.712  1.00  0.00     0.135 A 
ATOM     70  C   UNL     1      -3.914 -12.325 -15.129  1.00  0.00     0.135 A 
ATOM     71  F   UNL     1      -0.896 -11.812 -17.098  1.00  0.00    -0.206 F 
ATOM     72  C   UNL     1      -3.110 -11.181 -17.538  1.00  0.00     0.059 A 
ATOM     73  C   UNL     1      -4.866 -11.737 -15.957  1.00  0.00     0.059 A 
ATOM     74  F   UNL     1      -4.330 -12.857 -13.968  1.00  0.00    -0.206 F 
ATOM     75  C   UNL     1      -4.452 -11.159 -17.155  1.00  0.00     0.060 A 
BRANCH  75  76
ATOM     76  S   UNL     1      -5.646 -10.372 -18.256  1.00  0.00     0.124 S 
ATOM     77  O   UNL     1      -5.265  -8.967 -18.143  1.00  0.00    -0.237 OA
ATOM     78  O   UNL     1      -5.351 -11.008 -19.537  1.00  0.00    -0.237 OA
ATOM     79  O   UNL     1      -6.935 -10.720 -17.668  1.00  0.00    -0.744 OA
ENDBRANCH  75  76
ENDBRANCH  54  68
BRANCH  55  80
ATOM     80  C   UNL     1       4.206 -16.756  -9.544  1.00  0.00     0.058 A 
ATOM     81  C   UNL     1       5.093 -17.728 -10.031  1.00  0.00     0.135 A 
ATOM     82  C   UNL     1       4.265 -16.451  -8.174  1.00  0.00     0.135 A 
ATOM     83  F   UNL     1       5.075 -18.061 -11.331  1.00  0.00    -0.206 F 
ATOM     84  C   UNL     1       5.976 -18.399  -9.191  1.00  0.00     0.059 A 
ATOM     85  C   UNL     1       5.165 -17.083  -7.321  1.00  0.00     0.059 A 
ATOM     86  F   UNL     1       3.452 -15.518  -7.656  1.00  0.00    -0.206 F 
ATOM     87  C   UNL     1       6.004 -18.069  -7.836  1.00  0.00     0.060 A 
BRANCH  87  88
ATOM     88  S   UNL     1       7.167 -18.933  -6.758  1.00  0.00     0.124 S 
ATOM     89  O   UNL     1       6.590 -20.271  -6.716  1.00  0.00    -0.237 OA
ATOM     90  O   UNL     1       8.420 -18.799  -7.495  1.00  0.00    -0.237 OA
ATOM     91  O   UNL     1       7.097 -18.175  -5.512  1.00  0.00    -0.744 OA
ENDBRANCH  87  88
ENDBRANCH  55  80
BRANCH  67  92
ATOM     92  C   UNL     1      -1.207 -19.109 -13.270  1.00  0.00     0.058 A 
ATOM     93  C   UNL     1      -1.876 -19.821 -12.262  1.00  0.00     0.135 A 
ATOM     94  C   UNL     1      -1.123 -19.702 -14.542  1.00  0.00     0.135 A 
ATOM     95  F   UNL     1      -1.981 -19.305 -11.026  1.00  0.00    -0.206 F 
ATOM     96  C   UNL     1      -2.416 -21.081 -12.498  1.00  0.00     0.059 A 
ATOM     97  C   UNL     1      -1.688 -20.944 -14.810  1.00  0.00     0.059 A 
ATOM     98  F   UNL     1      -0.503 -19.063 -15.547  1.00  0.00    -0.206 F 
ATOM     99  C   UNL     1      -2.323 -21.632 -13.777  1.00  0.00     0.060 A 
BRANCH  99 100
ATOM    100  S   UNL     1      -3.066 -23.249 -14.077  1.00  0.00     0.124 S 
ATOM    101  O   UNL     1      -2.173 -24.127 -13.327  1.00  0.00    -0.237 OA
ATOM    102  O   UNL     1      -4.405 -23.082 -13.522  1.00  0.00    -0.237 OA
ATOM    103  O   UNL     1      -3.007 -23.388 -15.529  1.00  0.00    -0.744 OA
ENDBRANCH  99 100
ENDBRANCH  67  92
ENDBRANCH  41  42
ENDBRANCH  33  36
ENDBRANCH  31  32
ENDBRANCH  30  31
ENDBRANCH  29  30
ENDBRANCH  28  29
ENDBRANCH   1  28
TORSDOF 23
