REMARK SMILES Cc1[nH]ncc1S(=O)(=O)NC[C@@H]1CC[C@@H](C(=O)NCCCCCCNC(=O)c2ccc(-c3c4nc(c(-c5c(F)cc(S(=O)(=O)[O-])cc5F)c5ccc([nH]5)c(-c5c(F)cc(S(=O)(=O)[O-])cc5F)c5nc(c(-c6c(F)cc(S(=O)(=O)[O-])cc6F)c6ccc3[nH]6)C=C5)C=C4)cc2)O1
REMARK SMILES IDX 21 1 20 2 19 3 18 4 16 5 17 6 15 8 12 9 13 10 94 11 14 12
REMARK SMILES IDX 11 13 10 14 7 16 8 17 9 18 6 19 1 20 2 21 3 22 4 23 5 25
REMARK SMILES IDX 22 26 23 27 24 28 25 29 26 30 27 32 28 33 29 34 93 35 30 36
REMARK SMILES IDX 92 37 31 38 32 39 33 40 86 41 34 42 91 43 85 44 87 45 35 46
REMARK SMILES IDX 90 47 84 48 83 49 36 51 70 52 49 53 69 54 50 55 53 56 68 57
REMARK SMILES IDX 88 58 51 59 52 60 67 62 89 63 54 64 37 65 38 66 47 67 39 68
REMARK SMILES IDX 40 69 46 70 48 71 41 72 42 73 43 74 44 75 45 76 71 77 72 78
REMARK SMILES IDX 81 79 73 80 74 81 80 82 82 83 75 84 76 85 77 86 78 87 79 88
REMARK SMILES IDX 55 89 56 90 65 91 57 92 58 93 64 94 66 95 59 96 60 97 61 98
REMARK SMILES IDX 62 99 63 100
REMARK H PARENT 18 7 10 15 3 24 25 31 87 50 53 61
REMARK Flexibility Score: inf
ROOT
ATOM      1  C   UNL     1       4.202   6.566   3.943  1.00  0.00     0.002 C 
ENDROOT
BRANCH   1   2
ATOM      2  C   UNL     1       3.067   6.435   2.917  1.00  0.00     0.021 C 
BRANCH   2   3
ATOM      3  C   UNL     1       2.583   4.998   2.714  1.00  0.00     0.116 C 
BRANCH   3   4
ATOM      4  N   UNL     1       1.931   4.508   3.917  1.00  0.00    -0.354 N 
ATOM      5  C   UNL     1       0.597   4.403   4.195  1.00  0.00     0.249 C 
ATOM      6  O   UNL     1       0.257   4.116   5.345  1.00  0.00    -0.272 OA
ATOM      7  H   UNL     1       2.536   4.209   4.633  1.00  0.00     0.163 HD
BRANCH   5   8
ATOM      8  C   UNL     1      -0.418   4.580   3.065  1.00  0.00     0.207 C 
ATOM      9  C   UNL     1      -2.281   3.305   2.504  1.00  0.00     0.134 C 
ATOM     10  C   UNL     1      -2.681   4.769   2.491  1.00  0.00     0.037 C 
ATOM     11  O   UNL     1      -0.858   3.273   2.639  1.00  0.00    -0.364 OA
ATOM     12  C   UNL     1      -1.673   5.340   3.464  1.00  0.00     0.045 C 
BRANCH   9  13
ATOM     13  C   UNL     1      -2.742   2.450   1.329  1.00  0.00     0.131 C 
BRANCH  13  14
ATOM     14  N   UNL     1      -2.335   2.898  -0.015  1.00  0.00    -0.208 NA
ATOM     15  H   UNL     1      -2.967   2.442  -0.673  1.00  0.00     0.141 HD
BRANCH  14  16
ATOM     16  S   UNL     1      -0.776   2.645  -0.603  1.00  0.00     0.244 S 
ATOM     17  O   UNL     1       0.129   3.539   0.081  1.00  0.00    -0.207 OA
ATOM     18  O   UNL     1      -0.893   2.685  -2.044  1.00  0.00    -0.207 OA
BRANCH  16  19
ATOM     19  C   UNL     1      -0.213   1.062  -0.277  1.00  0.00     0.122 A 
ATOM     20  C   UNL     1      -2.288  -0.511  -0.631  1.00  0.00     0.067 C 
ATOM     21  C   UNL     1      -0.888  -0.144  -0.328  1.00  0.00     0.052 A 
ATOM     22  N   UNL     1       0.058  -1.090  -0.031  1.00  0.00    -0.281 N 
ATOM     23  N   UNL     1       1.276  -0.582   0.217  1.00  0.00    -0.183 NA
ATOM     24  H   UNL     1      -0.137  -2.054  -0.003  1.00  0.00     0.190 HD
ATOM     25  C   UNL     1       1.113   0.734   0.044  1.00  0.00     0.157 A 
ENDBRANCH  16  19
ENDBRANCH  14  16
ENDBRANCH  13  14
ENDBRANCH   9  13
ENDBRANCH   5   8
ENDBRANCH   3   4
ENDBRANCH   2   3
ENDBRANCH   1   2
BRANCH   1  26
ATOM     26  C   UNL     1       5.463   5.757   3.620  1.00  0.00     0.002 C 
BRANCH  26  27
ATOM     27  C   UNL     1       6.091   6.049   2.254  1.00  0.00     0.021 C 
BRANCH  27  28
ATOM     28  C   UNL     1       6.505   7.501   2.034  1.00  0.00     0.116 C 
BRANCH  28  29
ATOM     29  N   UNL     1       7.526   7.931   2.976  1.00  0.00    -0.352 N 
ATOM     30  C   UNL     1       8.707   8.589   2.739  1.00  0.00     0.251 C 
ATOM     31  H   UNL     1       7.344   7.720   3.920  1.00  0.00     0.163 HD
ATOM     32  O   UNL     1       9.527   8.719   3.643  1.00  0.00    -0.269 OA
BRANCH  30  33
ATOM     33  C   UNL     1       8.999   9.121   1.390  1.00  0.00     0.039 A 
ATOM     34  C   UNL     1      10.265   8.903   0.839  1.00  0.00     0.014 A 
ATOM     35  C   UNL     1       8.038   9.844   0.677  1.00  0.00     0.014 A 
ATOM     36  C   UNL     1      10.548   9.360  -0.451  1.00  0.00     0.010 A 
ATOM     37  C   UNL     1       8.303  10.250  -0.629  1.00  0.00     0.010 A 
ATOM     38  C   UNL     1       9.560  10.012  -1.206  1.00  0.00    -0.014 A 
BRANCH  38  39
ATOM     39  C   UNL     1       9.821  10.447  -2.601  1.00  0.00     0.031 A 
ATOM     40  C   UNL     1       9.837  11.910  -2.948  1.00  0.00     0.074 A 
ATOM     41  C   UNL     1       9.973   9.521  -3.568  1.00  0.00     0.049 A 
ATOM     42  N   UNL     1       9.967  12.479  -4.119  1.00  0.00    -0.248 NA
ATOM     43  C   UNL     1       9.658  12.857  -1.836  1.00  0.00     0.031 C 
ATOM     44  C   UNL     1       9.927   8.071  -3.366  1.00  0.00     0.029 A 
ATOM     45  N   UNL     1      10.182   9.661  -4.917  1.00  0.00    -0.354 N 
ATOM     46  C   UNL     1       9.864  13.846  -3.889  1.00  0.00     0.074 A 
ATOM     47  C   UNL     1       9.624  14.019  -2.473  1.00  0.00     0.031 C 
ATOM     48  C   UNL     1      10.112   7.456  -4.546  1.00  0.00     0.029 A 
ATOM     49  C   UNL     1      10.261   8.465  -5.591  1.00  0.00     0.049 A 
ATOM     50  H   UNL     1      10.266  10.535  -5.361  1.00  0.00     0.167 HD
ATOM     51  C   UNL     1       9.976  14.864  -4.776  1.00  0.00     0.037 A 
ATOM     52  C   UNL     1      10.427   8.209  -6.903  1.00  0.00     0.037 A 
ATOM     53  C   UNL     1      10.251  14.689  -6.178  1.00  0.00     0.049 A 
ATOM     54  C   UNL     1      10.580   9.355  -7.863  1.00  0.00     0.074 A 
ATOM     55  C   UNL     1      10.453  15.660  -7.144  1.00  0.00     0.029 A 
ATOM     56  N   UNL     1      10.366  13.462  -6.816  1.00  0.00    -0.354 N 
ATOM     57  N   UNL     1      10.541  10.644  -7.619  1.00  0.00    -0.248 NA
ATOM     58  C   UNL     1      10.806   9.016  -9.275  1.00  0.00     0.031 C 
ATOM     59  C   UNL     1      10.659  15.020  -8.372  1.00  0.00     0.029 A 
ATOM     60  C   UNL     1      10.622  13.651  -8.164  1.00  0.00     0.049 A 
ATOM     61  H   UNL     1      10.279  12.586  -6.374  1.00  0.00     0.167 HD
ATOM     62  C   UNL     1      10.758  11.268  -8.842  1.00  0.00     0.074 A 
ATOM     63  C   UNL     1      10.939  10.217  -9.822  1.00  0.00     0.031 C 
ATOM     64  C   UNL     1      10.805  12.593  -9.126  1.00  0.00     0.037 A 
BRANCH  51  65
ATOM     65  C   UNL     1       9.808  16.263  -4.253  1.00  0.00     0.058 A 
ATOM     66  C   UNL     1      10.790  16.874  -3.457  1.00  0.00     0.135 A 
ATOM     67  C   UNL     1       8.667  17.014  -4.578  1.00  0.00     0.135 A 
ATOM     68  F   UNL     1      11.893  16.195  -3.105  1.00  0.00    -0.206 F 
ATOM     69  C   UNL     1      10.634  18.170  -2.977  1.00  0.00     0.059 A 
ATOM     70  C   UNL     1       8.501  18.321  -4.129  1.00  0.00     0.059 A 
ATOM     71  F   UNL     1       7.698  16.478  -5.336  1.00  0.00    -0.206 F 
ATOM     72  C   UNL     1       9.484  18.885  -3.316  1.00  0.00     0.060 A 
BRANCH  72  73
ATOM     73  S   UNL     1       9.295  20.567  -2.688  1.00  0.00     0.124 S 
ATOM     74  O   UNL     1       8.930  20.318  -1.297  1.00  0.00    -0.237 OA
ATOM     75  O   UNL     1      10.623  21.134  -2.902  1.00  0.00    -0.237 OA
ATOM     76  O   UNL     1       8.237  21.125  -3.524  1.00  0.00    -0.744 OA
ENDBRANCH  72  73
ENDBRANCH  51  65
BRANCH  52  77
ATOM     77  C   UNL     1      10.482   6.802  -7.378  1.00  0.00     0.058 A 
ATOM     78  C   UNL     1      11.696   6.227  -7.781  1.00  0.00     0.135 A 
ATOM     79  C   UNL     1       9.331   6.000  -7.416  1.00  0.00     0.135 A 
ATOM     80  F   UNL     1      12.821   6.957  -7.768  1.00  0.00    -0.206 F 
ATOM     81  C   UNL     1      11.767   4.908  -8.216  1.00  0.00     0.059 A 
ATOM     82  C   UNL     1       9.381   4.672  -7.827  1.00  0.00     0.059 A 
ATOM     83  F   UNL     1       8.150   6.502  -7.024  1.00  0.00    -0.206 F 
ATOM     84  C   UNL     1      10.603   4.137  -8.233  1.00  0.00     0.060 A 
BRANCH  84  85
ATOM     85  S   UNL     1      10.715   2.408  -8.744  1.00  0.00     0.124 S 
ATOM     86  O   UNL     1      10.831   2.538 -10.192  1.00  0.00    -0.237 OA
ATOM     87  O   UNL     1      11.915   1.957  -8.046  1.00  0.00    -0.237 OA
ATOM     88  O   UNL     1       9.464   1.835  -8.258  1.00  0.00    -0.744 OA
ENDBRANCH  84  85
ENDBRANCH  52  77
BRANCH  64  89
ATOM     89  C   UNL     1      11.087  12.984 -10.548  1.00  0.00     0.058 A 
ATOM     90  C   UNL     1      10.107  12.877 -11.547  1.00  0.00     0.135 A 
ATOM     91  C   UNL     1      12.334  13.521 -10.904  1.00  0.00     0.135 A 
ATOM     92  F   UNL     1       8.901  12.363 -11.258  1.00  0.00    -0.206 F 
ATOM     93  C   UNL     1      10.361  13.272 -12.857  1.00  0.00     0.059 A 
ATOM     94  C   UNL     1      12.602  13.943 -12.203  1.00  0.00     0.059 A 
ATOM     95  F   UNL     1      13.301  13.652  -9.983  1.00  0.00    -0.206 F 
ATOM     96  C   UNL     1      11.612  13.805 -13.175  1.00  0.00     0.060 A 
BRANCH  96  97
ATOM     97  S   UNL     1      11.918  14.350 -14.868  1.00  0.00     0.124 S 
ATOM     98  O   UNL     1      12.136  13.079 -15.551  1.00  0.00    -0.237 OA
ATOM     99  O   UNL     1      10.680  15.046 -15.205  1.00  0.00    -0.237 OA
ATOM    100  O   UNL     1      13.095  15.205 -14.740  1.00  0.00    -0.744 OA
ENDBRANCH  96  97
ENDBRANCH  64  89
ENDBRANCH  38  39
ENDBRANCH  30  33
ENDBRANCH  28  29
ENDBRANCH  27  28
ENDBRANCH  26  27
ENDBRANCH   1  26
TORSDOF 20
