REMARK SMILES COc1cc2c(CC(=O)NCCCCCCNC(=O)c3ccc(-c4c5nc(c(-c6c(F)cc(S(=O)(=O)[O-])cc6F)c6ccc([nH]6)c(-c6c(F)cc(S(=O)(=O)[O-])cc6F)c6nc(c(-c7c(F)cc(S(=O)(=O)[O-])cc7F)c7ccc4[nH]7)C=C6)C=C5)cc3)c(C)n(C(=O)c3ccc(Cl)cc3)c2cc1Cl
REMARK SMILES IDX 13 1 12 2 11 3 10 4 8 5 9 6 7 8 6 9 3 10 4 11 100 12 5 13
REMARK SMILES IDX 99 14 101 15 98 16 86 17 88 18 87 19 2 20 1 21 89 22 90 23
REMARK SMILES IDX 91 24 92 25 97 26 93 27 96 28 94 29 95 30 14 31 15 32 16 33
REMARK SMILES IDX 17 34 18 35 19 37 20 38 21 39 85 40 22 41 84 42 23 43 24 44
REMARK SMILES IDX 25 45 78 46 26 47 83 48 77 49 79 50 27 51 82 52 76 53 75 54
REMARK SMILES IDX 28 56 62 57 41 58 61 59 42 60 45 61 60 62 80 63 43 64 44 65
REMARK SMILES IDX 59 67 81 68 46 69 29 70 30 71 39 72 31 73 32 74 38 75 40 76
REMARK SMILES IDX 33 77 34 78 35 79 36 80 37 81 63 82 64 83 73 84 65 85 66 86
REMARK SMILES IDX 72 87 74 88 67 89 68 90 69 91 70 92 71 93 47 94 48 95 57 96
REMARK SMILES IDX 49 97 50 98 56 99 58 100 51 101 52 102 53 103 54 104 55 105
REMARK H PARENT 10 7 17 36 79 55 45 66
REMARK Flexibility Score: inf
ROOT
ATOM      1  C   UNL     1       0.569   3.626  -7.722  1.00  0.00     0.002 C 
ENDROOT
BRANCH   1   2
ATOM      2  C   UNL     1       0.577   4.500  -6.462  1.00  0.00     0.021 C 
BRANCH   2   3
ATOM      3  C   UNL     1      -0.765   5.176  -6.176  1.00  0.00     0.116 C 
BRANCH   3   4
ATOM      4  N   UNL     1      -1.722   4.231  -5.631  1.00  0.00    -0.356 N 
ATOM      5  C   UNL     1      -2.158   4.103  -4.343  1.00  0.00     0.224 C 
ATOM      6  O   UNL     1      -2.922   3.175  -4.067  1.00  0.00    -0.275 OA
ATOM      7  H   UNL     1      -2.110   3.597  -6.277  1.00  0.00     0.163 HD
BRANCH   5   8
ATOM      8  C   UNL     1      -1.745   5.121  -3.292  1.00  0.00     0.138 C 
BRANCH   8   9
ATOM      9  C   UNL     1      -0.294   5.042  -2.899  1.00  0.00    -0.009 A 
ATOM     10  C   UNL     1       0.896   1.634  -1.610  1.00  0.00     0.138 A 
ATOM     11  C   UNL     1      -0.010   2.561  -2.144  1.00  0.00     0.058 A 
ATOM     12  C   UNL     1       2.198   2.029  -1.329  1.00  0.00     0.085 A 
ATOM     13  C   UNL     1       0.389   3.894  -2.404  1.00  0.00     0.008 A 
ATOM     14  C   UNL     1       2.594   3.355  -1.532  1.00  0.00     0.051 A 
ATOM     15  Cl  UNL     1       3.426   0.930  -0.804  1.00  0.00    -0.080 Cl
ATOM     16  C   UNL     1       1.707   4.274  -2.129  1.00  0.00     0.058 A 
ATOM     17  C   UNL     1       0.613   6.097  -2.884  1.00  0.00     0.028 A 
ATOM     18  N   UNL     1       1.884   5.589  -2.595  1.00  0.00    -0.280 N 
ATOM     19  C   UNL     1       0.337   7.540  -3.178  1.00  0.00     0.065 C 
BRANCH  10  20
ATOM     20  O   UNL     1       0.431   0.352  -1.469  1.00  0.00    -0.495 OA
ATOM     21  C   UNL     1       0.427  -0.088  -0.111  1.00  0.00     0.278 C 
ENDBRANCH  10  20
BRANCH  18  22
ATOM     22  C   UNL     1       3.125   6.272  -2.763  1.00  0.00     0.262 C 
ATOM     23  O   UNL     1       3.124   7.414  -3.224  1.00  0.00    -0.268 OA
BRANCH  22  24
ATOM     24  C   UNL     1       4.446   5.718  -2.427  1.00  0.00     0.040 A 
ATOM     25  C   UNL     1       5.001   4.679  -3.184  1.00  0.00     0.015 A 
ATOM     26  C   UNL     1       5.100   6.209  -1.291  1.00  0.00     0.015 A 
ATOM     27  C   UNL     1       6.178   4.068  -2.743  1.00  0.00     0.021 A 
ATOM     28  C   UNL     1       6.281   5.601  -0.863  1.00  0.00     0.021 A 
ATOM     29  C   UNL     1       6.803   4.521  -1.578  1.00  0.00     0.041 A 
ATOM     30  Cl  UNL     1       8.214   3.724  -1.001  1.00  0.00    -0.084 Cl
ENDBRANCH  22  24
ENDBRANCH  18  22
ENDBRANCH   8   9
ENDBRANCH   5   8
ENDBRANCH   3   4
ENDBRANCH   2   3
ENDBRANCH   1   2
BRANCH   1  31
ATOM     31  C   UNL     1       0.341   4.383  -9.035  1.00  0.00     0.002 C 
BRANCH  31  32
ATOM     32  C   UNL     1       1.339   5.510  -9.329  1.00  0.00     0.021 C 
BRANCH  32  33
ATOM     33  C   UNL     1       2.805   5.072  -9.343  1.00  0.00     0.116 C 
BRANCH  33  34
ATOM     34  N   UNL     1       3.079   4.003 -10.281  1.00  0.00    -0.352 N 
ATOM     35  C   UNL     1       3.345   3.938 -11.621  1.00  0.00     0.251 C 
ATOM     36  H   UNL     1       3.073   3.116  -9.854  1.00  0.00     0.163 HD
ATOM     37  O   UNL     1       3.601   2.813 -12.061  1.00  0.00    -0.269 OA
BRANCH  35  38
ATOM     38  C   UNL     1       3.315   5.091 -12.567  1.00  0.00     0.039 A 
ATOM     39  C   UNL     1       3.083   6.422 -12.221  1.00  0.00     0.014 A 
ATOM     40  C   UNL     1       3.500   4.781 -13.929  1.00  0.00     0.014 A 
ATOM     41  C   UNL     1       2.964   7.401 -13.205  1.00  0.00     0.010 A 
ATOM     42  C   UNL     1       3.403   5.760 -14.916  1.00  0.00     0.010 A 
ATOM     43  C   UNL     1       3.094   7.067 -14.555  1.00  0.00    -0.014 A 
BRANCH  43  44
ATOM     44  C   UNL     1       2.916   8.139 -15.532  1.00  0.00     0.031 A 
ATOM     45  C   UNL     1       3.855   9.295 -15.438  1.00  0.00     0.074 A 
ATOM     46  C   UNL     1       2.007   8.102 -16.526  1.00  0.00     0.049 A 
ATOM     47  N   UNL     1       3.583  10.528 -15.153  1.00  0.00    -0.248 NA
ATOM     48  C   UNL     1       5.288   9.027 -15.616  1.00  0.00     0.031 C 
ATOM     49  C   UNL     1       1.186   6.972 -16.966  1.00  0.00     0.029 A 
ATOM     50  N   UNL     1       1.698   9.081 -17.424  1.00  0.00    -0.354 N 
ATOM     51  C   UNL     1       4.778  11.236 -15.285  1.00  0.00     0.074 A 
ATOM     52  C   UNL     1       5.810  10.245 -15.457  1.00  0.00     0.031 C 
ATOM     53  C   UNL     1       0.644   7.263 -18.169  1.00  0.00     0.029 A 
ATOM     54  C   UNL     1       0.967   8.637 -18.514  1.00  0.00     0.049 A 
ATOM     55  H   UNL     1       1.970  10.020 -17.307  1.00  0.00     0.167 HD
ATOM     56  C   UNL     1       4.811  12.595 -15.403  1.00  0.00     0.037 A 
ATOM     57  C   UNL     1       0.709   9.328 -19.651  1.00  0.00     0.037 A 
ATOM     58  C   UNL     1       3.564  13.194 -15.007  1.00  0.00     0.049 A 
ATOM     59  C   UNL     1       0.829  10.775 -19.334  1.00  0.00     0.074 A 
ATOM     60  C   UNL     1       2.824  13.229 -13.841  1.00  0.00     0.029 A 
ATOM     61  N   UNL     1       2.724  13.662 -15.989  1.00  0.00    -0.354 N 
ATOM     62  N   UNL     1       0.010  11.424 -18.550  1.00  0.00    -0.248 NA
ATOM     63  C   UNL     1       2.107  11.429 -19.572  1.00  0.00     0.031 C 
ATOM     64  C   UNL     1       1.464  13.239 -14.265  1.00  0.00     0.029 A 
ATOM     65  C   UNL     1       1.463  13.238 -15.661  1.00  0.00     0.049 A 
ATOM     66  H   UNL     1       2.979  14.197 -16.775  1.00  0.00     0.167 HD
ATOM     67  C   UNL     1       0.808  12.337 -17.876  1.00  0.00     0.074 A 
ATOM     68  C   UNL     1       2.062  12.367 -18.622  1.00  0.00     0.031 C 
ATOM     69  C   UNL     1       0.486  12.781 -16.625  1.00  0.00     0.037 A 
BRANCH  56  70
ATOM     70  C   UNL     1       5.854  13.383 -16.165  1.00  0.00     0.058 A 
ATOM     71  C   UNL     1       5.859  14.794 -16.073  1.00  0.00     0.135 A 
ATOM     72  C   UNL     1       6.633  12.841 -17.209  1.00  0.00     0.135 A 
ATOM     73  F   UNL     1       5.170  15.420 -15.106  1.00  0.00    -0.206 F 
ATOM     74  C   UNL     1       6.490  15.604 -17.018  1.00  0.00     0.059 A 
ATOM     75  C   UNL     1       7.315  13.630 -18.130  1.00  0.00     0.059 A 
ATOM     76  F   UNL     1       6.685  11.525 -17.448  1.00  0.00    -0.206 F 
ATOM     77  C   UNL     1       7.188  15.009 -18.063  1.00  0.00     0.060 A 
BRANCH  77  78
ATOM     78  S   UNL     1       7.841  16.041 -19.388  1.00  0.00     0.124 S 
ATOM     79  O   UNL     1       6.614  16.473 -20.046  1.00  0.00    -0.237 OA
ATOM     80  O   UNL     1       8.566  17.069 -18.646  1.00  0.00    -0.237 OA
ATOM     81  O   UNL     1       8.677  15.119 -20.150  1.00  0.00    -0.744 OA
ENDBRANCH  77  78
ENDBRANCH  56  70
BRANCH  57  82
ATOM     82  C   UNL     1       0.691   8.788 -21.035  1.00  0.00     0.058 A 
ATOM     83  C   UNL     1       0.182   9.535 -22.110  1.00  0.00     0.135 A 
ATOM     84  C   UNL     1       1.408   7.621 -21.375  1.00  0.00     0.135 A 
ATOM     85  F   UNL     1      -0.483  10.678 -21.883  1.00  0.00    -0.206 F 
ATOM     86  C   UNL     1       0.398   9.165 -23.443  1.00  0.00     0.059 A 
ATOM     87  C   UNL     1       1.620   7.222 -22.692  1.00  0.00     0.059 A 
ATOM     88  F   UNL     1       2.007   6.873 -20.437  1.00  0.00    -0.206 F 
ATOM     89  C   UNL     1       1.132   8.012 -23.724  1.00  0.00     0.060 A 
BRANCH  89  90
ATOM     90  S   UNL     1       1.543   7.609 -25.437  1.00  0.00     0.124 S 
ATOM     91  O   UNL     1       0.232   7.306 -25.999  1.00  0.00    -0.237 OA
ATOM     92  O   UNL     1       2.167   8.843 -25.901  1.00  0.00    -0.237 OA
ATOM     93  O   UNL     1       2.446   6.467 -25.311  1.00  0.00    -0.744 OA
ENDBRANCH  89  90
ENDBRANCH  57  82
BRANCH  69  94
ATOM     94  C   UNL     1      -0.898  12.518 -16.095  1.00  0.00     0.058 A 
ATOM     95  C   UNL     1      -1.405  11.232 -15.838  1.00  0.00     0.135 A 
ATOM     96  C   UNL     1      -1.663  13.609 -15.652  1.00  0.00     0.135 A 
ATOM     97  F   UNL     1      -0.689  10.138 -16.131  1.00  0.00    -0.206 F 
ATOM     98  C   UNL     1      -2.628  11.040 -15.195  1.00  0.00     0.059 A 
ATOM     99  C   UNL     1      -2.872  13.440 -14.981  1.00  0.00     0.059 A 
ATOM    100  F   UNL     1      -1.203  14.862 -15.810  1.00  0.00    -0.206 F 
ATOM    101  C   UNL     1      -3.352  12.151 -14.761  1.00  0.00     0.060 A 
BRANCH 101 102
ATOM    102  S   UNL     1      -4.872  11.890 -13.822  1.00  0.00     0.124 S 
ATOM    103  O   UNL     1      -5.788  11.402 -14.847  1.00  0.00    -0.237 OA
ATOM    104  O   UNL     1      -4.461  10.910 -12.820  1.00  0.00    -0.237 OA
ATOM    105  O   UNL     1      -5.178  13.216 -13.290  1.00  0.00    -0.744 OA
ENDBRANCH 101 102
ENDBRANCH  69  94
ENDBRANCH  43  44
ENDBRANCH  35  38
ENDBRANCH  33  34
ENDBRANCH  32  33
ENDBRANCH  31  32
ENDBRANCH   1  31
TORSDOF 20
