REMARK SMILES NC(=O)[C@@H]1CCCCN1c1cncc(C(=O)NCCCCCCNC(=O)c2ccc(-c3c4nc(c(-c5c(F)cc(S(=O)(=O)[O-])cc5F)c5ccc([nH]5)c(-c5c(F)cc(S(=O)(=O)[O-])cc5F)c5nc(c(-c6c(F)cc(S(=O)(=O)[O-])cc6F)c6ccc3[nH]6)C=C5)C=C4)cc2)n1
REMARK SMILES IDX 21 1 20 2 19 3 18 4 17 5 15 6 16 7 14 9 10 10 11 11 93 12
REMARK SMILES IDX 12 13 13 14 9 15 4 16 5 17 6 18 8 19 7 20 2 21 1 22 3 25
REMARK SMILES IDX 22 26 23 27 24 28 25 29 26 31 27 32 28 33 92 34 29 35 91 36
REMARK SMILES IDX 30 37 31 38 32 39 85 40 33 41 90 42 84 43 86 44 34 45 89 46
REMARK SMILES IDX 83 47 82 48 35 50 69 51 48 52 68 53 49 54 52 55 67 56 87 57
REMARK SMILES IDX 50 58 51 59 66 61 88 62 53 63 36 64 37 65 46 66 38 67 39 68
REMARK SMILES IDX 45 69 47 70 40 71 41 72 42 73 43 74 44 75 70 76 71 77 80 78
REMARK SMILES IDX 72 79 73 80 79 81 81 82 74 83 75 84 76 85 77 86 78 87 54 88
REMARK SMILES IDX 55 89 64 90 56 91 57 92 63 93 65 94 58 95 59 96 60 97 61 98
REMARK SMILES IDX 62 99
REMARK H PARENT 17 8 1 23 1 24 24 30 86 49 52 60
REMARK Flexibility Score: inf
ROOT
ATOM      1  C   UNL     1      -3.056   0.483   5.609  1.00  0.00     0.002 C 
ENDROOT
BRANCH   1   2
ATOM      2  C   UNL     1      -3.469   1.922   5.275  1.00  0.00     0.002 C 
BRANCH   2   3
ATOM      3  C   UNL     1      -2.639   2.586   4.171  1.00  0.00     0.021 C 
BRANCH   3   4
ATOM      4  C   UNL     1      -2.656   1.811   2.856  1.00  0.00     0.116 C 
BRANCH   4   5
ATOM      5  N   UNL     1      -3.929   1.977   2.180  1.00  0.00    -0.351 N 
ATOM      6  C   UNL     1      -4.257   2.647   1.024  1.00  0.00     0.271 C 
ATOM      7  O   UNL     1      -5.449   2.670   0.703  1.00  0.00    -0.267 OA
ATOM      8  H   UNL     1      -4.688   1.536   2.626  1.00  0.00     0.163 HD
BRANCH   6   9
ATOM      9  C   UNL     1      -3.251   3.318   0.149  1.00  0.00     0.148 A 
ATOM     10  C   UNL     1      -1.066   3.811  -0.396  1.00  0.00     0.148 A 
ATOM     11  C   UNL     1      -1.539   4.368  -1.593  1.00  0.00     0.157 A 
ATOM     12  N   UNL     1      -1.942   3.344   0.509  1.00  0.00    -0.222 NA
ATOM     13  N   UNL     1      -2.847   4.428  -1.948  1.00  0.00    -0.258 NA
ATOM     14  C   UNL     1      -3.688   3.858  -1.054  1.00  0.00     0.145 A 
BRANCH  10  15
ATOM     15  N   UNL     1       0.288   3.714  -0.154  1.00  0.00    -0.343 N 
ATOM     16  C   UNL     1       0.943   2.455   0.267  1.00  0.00     0.172 C 
ATOM     17  C   UNL     1       1.338   2.512   1.748  1.00  0.00     0.035 C 
ATOM     18  C   UNL     1       2.157   3.768   2.042  1.00  0.00     0.004 C 
ATOM     19  C   UNL     1       0.993   4.959   0.142  1.00  0.00     0.119 C 
ATOM     20  C   UNL     1       1.389   5.018   1.619  1.00  0.00     0.022 C 
BRANCH  16  21
ATOM     21  C   UNL     1       0.246   1.109  -0.072  1.00  0.00     0.240 C 
ATOM     22  N   UNL     1       1.085   0.021  -0.085  1.00  0.00    -0.368 N 
ATOM     23  H   UNL     1       0.728  -0.873  -0.290  1.00  0.00     0.159 HD
ATOM     24  H   UNL     1       2.043   0.136   0.110  1.00  0.00     0.159 HD
ATOM     25  O   UNL     1      -0.938   0.916  -0.327  1.00  0.00    -0.273 OA
ENDBRANCH  16  21
ENDBRANCH  10  15
ENDBRANCH   6   9
ENDBRANCH   4   5
ENDBRANCH   3   4
ENDBRANCH   2   3
ENDBRANCH   1   2
BRANCH   1  26
ATOM     26  C   UNL     1      -1.572   0.297   5.934  1.00  0.00     0.021 C 
BRANCH  26  27
ATOM     27  C   UNL     1      -1.084   1.119   7.121  1.00  0.00     0.116 C 
BRANCH  27  28
ATOM     28  N   UNL     1      -1.758   0.739   8.353  1.00  0.00    -0.352 N 
ATOM     29  C   UNL     1      -1.219   0.328   9.544  1.00  0.00     0.251 C 
ATOM     30  H   UNL     1      -2.741   0.782   8.326  1.00  0.00     0.163 HD
ATOM     31  O   UNL     1      -1.942  -0.169  10.407  1.00  0.00    -0.269 OA
BRANCH  29  32
ATOM     32  C   UNL     1       0.231   0.472   9.782  1.00  0.00     0.039 A 
ATOM     33  C   UNL     1       0.931  -0.586  10.367  1.00  0.00     0.014 A 
ATOM     34  C   UNL     1       0.898   1.649   9.431  1.00  0.00     0.014 A 
ATOM     35  C   UNL     1       2.312  -0.482  10.550  1.00  0.00     0.010 A 
ATOM     36  C   UNL     1       2.284   1.719   9.541  1.00  0.00     0.010 A 
ATOM     37  C   UNL     1       3.004   0.658  10.109  1.00  0.00    -0.014 A 
BRANCH  37  38
ATOM     38  C   UNL     1       4.481   0.757  10.230  1.00  0.00     0.031 A 
ATOM     39  C   UNL     1       5.101   1.822  11.093  1.00  0.00     0.074 A 
ATOM     40  C   UNL     1       5.263  -0.073   9.512  1.00  0.00     0.049 A 
ATOM     41  N   UNL     1       6.366   2.094  11.288  1.00  0.00    -0.248 NA
ATOM     42  C   UNL     1       4.178   2.716  11.810  1.00  0.00     0.031 C 
ATOM     43  C   UNL     1       4.780  -1.120   8.608  1.00  0.00     0.029 A 
ATOM     44  N   UNL     1       6.630  -0.167   9.425  1.00  0.00    -0.354 N 
ATOM     45  C   UNL     1       6.390   3.200  12.131  1.00  0.00     0.074 A 
ATOM     46  C   UNL     1       5.015   3.579  12.367  1.00  0.00     0.031 C 
ATOM     47  C   UNL     1       5.832  -1.773   8.089  1.00  0.00     0.029 A 
ATOM     48  C   UNL     1       7.063  -1.166   8.585  1.00  0.00     0.049 A 
ATOM     49  H   UNL     1       7.242   0.425   9.918  1.00  0.00     0.167 HD
ATOM     50  C   UNL     1       7.461   3.829  12.672  1.00  0.00     0.037 A 
ATOM     51  C   UNL     1       8.311  -1.548   8.250  1.00  0.00     0.037 A 
ATOM     52  C   UNL     1       8.826   3.428  12.448  1.00  0.00     0.049 A 
ATOM     53  C   UNL     1       9.485  -0.824   8.853  1.00  0.00     0.074 A 
ATOM     54  C   UNL     1       9.979   3.950  13.008  1.00  0.00     0.029 A 
ATOM     55  N   UNL     1       9.225   2.416  11.586  1.00  0.00    -0.354 N 
ATOM     56  N   UNL     1       9.490   0.171   9.707  1.00  0.00    -0.248 NA
ATOM     57  C   UNL     1      10.822  -1.277   8.447  1.00  0.00     0.031 C 
ATOM     58  C   UNL     1      11.076   3.297  12.438  1.00  0.00     0.029 A 
ATOM     59  C   UNL     1      10.608   2.323  11.570  1.00  0.00     0.049 A 
ATOM     60  H   UNL     1       8.616   1.847  11.062  1.00  0.00     0.167 HD
ATOM     61  C   UNL     1      10.829   0.441   9.968  1.00  0.00     0.074 A 
ATOM     62  C   UNL     1      11.603  -0.500   9.185  1.00  0.00     0.031 C 
ATOM     63  C   UNL     1      11.367   1.380  10.786  1.00  0.00     0.037 A 
BRANCH  50  64
ATOM     64  C   UNL     1       7.199   5.028  13.545  1.00  0.00     0.058 A 
ATOM     65  C   UNL     1       6.573   4.916  14.798  1.00  0.00     0.135 A 
ATOM     66  C   UNL     1       7.596   6.309  13.127  1.00  0.00     0.135 A 
ATOM     67  F   UNL     1       6.161   3.719  15.244  1.00  0.00    -0.206 F 
ATOM     68  C   UNL     1       6.311   6.035  15.583  1.00  0.00     0.059 A 
ATOM     69  C   UNL     1       7.375   7.437  13.912  1.00  0.00     0.059 A 
ATOM     70  F   UNL     1       8.201   6.477  11.941  1.00  0.00    -0.206 F 
ATOM     71  C   UNL     1       6.712   7.292  15.130  1.00  0.00     0.060 A 
BRANCH  71  72
ATOM     72  S   UNL     1       6.348   8.735  16.151  1.00  0.00     0.124 S 
ATOM     73  O   UNL     1       4.904   8.856  15.977  1.00  0.00    -0.237 OA
ATOM     74  O   UNL     1       6.792   8.302  17.472  1.00  0.00    -0.237 OA
ATOM     75  O   UNL     1       7.144   9.794  15.541  1.00  0.00    -0.744 OA
ENDBRANCH  71  72
ENDBRANCH  50  64
BRANCH  51  76
ATOM     76  C   UNL     1       8.512  -2.697   7.328  1.00  0.00     0.058 A 
ATOM     77  C   UNL     1       9.030  -3.912   7.800  1.00  0.00     0.135 A 
ATOM     78  C   UNL     1       8.170  -2.616   5.969  1.00  0.00     0.135 A 
ATOM     79  F   UNL     1       9.380  -4.036   9.089  1.00  0.00    -0.206 F 
ATOM     80  C   UNL     1       9.212  -5.004   6.958  1.00  0.00     0.059 A 
ATOM     81  C   UNL     1       8.318  -3.703   5.112  1.00  0.00     0.059 A 
ATOM     82  F   UNL     1       7.655  -1.482   5.470  1.00  0.00    -0.206 F 
ATOM     83  C   UNL     1       8.846  -4.891   5.615  1.00  0.00     0.060 A 
BRANCH  83  84
ATOM     84  S   UNL     1       9.030  -6.334   4.545  1.00  0.00     0.124 S 
ATOM     85  O   UNL     1      10.479  -6.420   4.414  1.00  0.00    -0.237 OA
ATOM     86  O   UNL     1       8.394  -7.383   5.336  1.00  0.00    -0.237 OA
ATOM     87  O   UNL     1       8.308  -5.947   3.336  1.00  0.00    -0.744 OA
ENDBRANCH  83  84
ENDBRANCH  51  76
BRANCH  63  88
ATOM     88  C   UNL     1      12.867   1.417  10.908  1.00  0.00     0.058 A 
ATOM     89  C   UNL     1      13.686   1.870   9.862  1.00  0.00     0.135 A 
ATOM     90  C   UNL     1      13.490   1.042  12.110  1.00  0.00     0.135 A 
ATOM     91  F   UNL     1      13.144   2.233   8.688  1.00  0.00    -0.206 F 
ATOM     92  C   UNL     1      15.070   1.927   9.994  1.00  0.00     0.059 A 
ATOM     93  C   UNL     1      14.868   1.121  12.276  1.00  0.00     0.059 A 
ATOM     94  F   UNL     1      12.754   0.610  13.147  1.00  0.00    -0.206 F 
ATOM     95  C   UNL     1      15.652   1.553  11.207  1.00  0.00     0.060 A 
BRANCH  95  96
ATOM     96  S   UNL     1      17.445   1.667  11.377  1.00  0.00     0.124 S 
ATOM     97  O   UNL     1      17.890   0.550  10.549  1.00  0.00    -0.237 OA
ATOM     98  O   UNL     1      17.724   2.998  10.848  1.00  0.00    -0.237 OA
ATOM     99  O   UNL     1      17.662   1.510  12.812  1.00  0.00    -0.744 OA
ENDBRANCH  95  96
ENDBRANCH  63  88
ENDBRANCH  37  38
ENDBRANCH  29  32
ENDBRANCH  27  28
ENDBRANCH  26  27
ENDBRANCH   1  26
TORSDOF 18
