REMARK SMILES Cc1c[nH]c(C[N@H+]2C[C@@H]3CN(S(C)(=O)=O)C[C@]3(C(=O)NCCCCCCNC(=O)c3ccc(-c4c5nc(c(-c6c(F)cc(S(=O)(=O)[O-])cc6F)c6ccc([nH]6)c(-c6c(F)cc(S(=O)(=O)[O-])cc6F)c6nc(c(-c7c(F)cc(S(=O)(=O)[O-])cc7F)c7ccc4[nH]7)C=C6)C=C5)cc3)C2)n1
REMARK SMILES IDX 24 1 23 2 22 3 21 4 20 5 18 6 19 7 17 9 7 10 8 11 96 12 9 14
REMARK SMILES IDX 10 15 16 16 11 17 6 18 5 19 1 20 2 21 3 22 97 23 4 24 12 26
REMARK SMILES IDX 13 27 14 28 15 29 25 30 26 31 27 32 28 33 29 35 30 36 31 37
REMARK SMILES IDX 95 38 32 39 94 40 33 41 34 42 35 43 88 44 36 45 93 46 87 47
REMARK SMILES IDX 89 48 37 49 92 50 86 51 85 52 38 54 72 55 51 56 71 57 52 58
REMARK SMILES IDX 55 59 70 60 90 61 53 62 54 63 69 65 91 66 56 67 39 68 40 69
REMARK SMILES IDX 49 70 41 71 42 72 48 73 50 74 43 75 44 76 45 77 46 78 47 79
REMARK SMILES IDX 73 80 74 81 83 82 75 83 76 84 82 85 84 86 77 87 78 88 79 89
REMARK SMILES IDX 80 90 81 91 57 92 58 93 67 94 59 95 60 96 66 97 68 98 61 99
REMARK SMILES IDX 62 100 63 101 64 102 65 103
REMARK H PARENT 20 8 7 13 4 25 27 34 89 53 55 64
REMARK Flexibility Score: inf
ROOT
ATOM      1  C   UNL     1      -1.472   9.439   4.801  1.00  0.00     0.002 C 
ENDROOT
BRANCH   1   2
ATOM      2  C   UNL     1      -0.132   8.743   4.543  1.00  0.00     0.002 C 
BRANCH   2   3
ATOM      3  C   UNL     1      -0.174   7.229   4.729  1.00  0.00     0.021 C 
BRANCH   3   4
ATOM      4  C   UNL     1      -1.151   6.529   3.777  1.00  0.00     0.116 C 
BRANCH   4   5
ATOM      5  N   UNL     1      -0.436   6.063   2.604  1.00  0.00    -0.355 N 
ATOM      6  C   UNL     1      -0.002   4.774   2.372  1.00  0.00     0.233 C 
ATOM      7  O   UNL     1       1.026   4.625   1.712  1.00  0.00    -0.274 OA
ATOM      8  H   UNL     1      -0.243   6.730   1.906  1.00  0.00     0.163 HD
BRANCH   6   9
ATOM      9  C   UNL     1      -0.899   3.606   2.946  1.00  0.00     0.121 C 
ATOM     10  N   UNL     1      -2.362   2.359   1.295  1.00  0.00    -0.327 N 
ATOM     11  C   UNL     1      -2.206   1.526   2.462  1.00  0.00     0.268 C 
ATOM     12  C   UNL     1      -1.300   3.384   1.408  1.00  0.00     0.281 C 
ATOM     13  H   UNL     1      -3.292   2.776   1.273  1.00  0.00     0.348 HD
ATOM     14  C   UNL     1      -0.894   2.002   3.054  1.00  0.00     0.082 C 
ATOM     15  C   UNL     1      -0.828   1.532   4.506  1.00  0.00     0.113 C 
ATOM     16  C   UNL     1       0.142   3.599   4.131  1.00  0.00     0.125 C 
ATOM     17  N   UNL     1      -0.434   2.742   5.194  1.00  0.00    -0.200 NA
BRANCH  10  18
ATOM     18  C   UNL     1      -2.314   1.619   0.014  1.00  0.00     0.338 C 
BRANCH  18  19
ATOM     19  C   UNL     1      -1.160   0.663  -0.136  1.00  0.00     0.161 A 
ATOM     20  C   UNL     1       2.284  -0.216  -0.111  1.00  0.00     0.068 C 
ATOM     21  C   UNL     1       0.806  -0.218  -0.152  1.00  0.00     0.056 A 
ATOM     22  C   UNL     1      -0.078  -1.272  -0.096  1.00  0.00     0.107 A 
ATOM     23  N   UNL     1       0.120   0.968  -0.216  1.00  0.00    -0.233 NA
ATOM     24  N   UNL     1      -1.321  -0.702  -0.118  1.00  0.00    -0.344 N 
ATOM     25  H   UNL     1      -2.180  -1.184  -0.120  1.00  0.00     0.167 HD
ENDBRANCH  18  19
ENDBRANCH  10  18
BRANCH  17  26
ATOM     26  S   UNL     1      -1.460   3.368   6.376  1.00  0.00     0.211 S 
ATOM     27  C   UNL     1      -3.033   3.590   5.546  1.00  0.00     0.176 C 
ATOM     28  O   UNL     1      -1.653   2.334   7.366  1.00  0.00    -0.213 OA
ATOM     29  O   UNL     1      -0.966   4.680   6.743  1.00  0.00    -0.213 OA
ENDBRANCH  17  26
ENDBRANCH   6   9
ENDBRANCH   4   5
ENDBRANCH   3   4
ENDBRANCH   2   3
ENDBRANCH   1   2
BRANCH   1  30
ATOM     30  C   UNL     1      -2.136   9.083   6.136  1.00  0.00     0.021 C 
BRANCH  30  31
ATOM     31  C   UNL     1      -1.264   9.352   7.359  1.00  0.00     0.116 C 
BRANCH  31  32
ATOM     32  N   UNL     1      -0.838  10.742   7.399  1.00  0.00    -0.352 N 
ATOM     33  C   UNL     1      -1.144  11.719   8.307  1.00  0.00     0.251 C 
ATOM     34  H   UNL     1      -0.243  11.020   6.665  1.00  0.00     0.163 HD
ATOM     35  O   UNL     1      -0.970  12.898   8.014  1.00  0.00    -0.269 OA
BRANCH  33  36
ATOM     36  C   UNL     1      -1.671  11.349   9.636  1.00  0.00     0.039 A 
ATOM     37  C   UNL     1      -2.663  12.143  10.215  1.00  0.00     0.014 A 
ATOM     38  C   UNL     1      -1.152  10.252  10.332  1.00  0.00     0.014 A 
ATOM     39  C   UNL     1      -3.150  11.821  11.482  1.00  0.00     0.010 A 
ATOM     40  C   UNL     1      -1.698   9.884  11.556  1.00  0.00     0.010 A 
ATOM     41  C   UNL     1      -2.684  10.679  12.156  1.00  0.00    -0.014 A 
BRANCH  41  42
ATOM     42  C   UNL     1      -3.202  10.326  13.501  1.00  0.00     0.031 A 
ATOM     43  C   UNL     1      -2.279  10.323  14.690  1.00  0.00     0.074 A 
ATOM     44  C   UNL     1      -4.496   9.979  13.641  1.00  0.00     0.049 A 
ATOM     45  N   UNL     1      -2.543  10.037  15.939  1.00  0.00    -0.248 NA
ATOM     46  C   UNL     1      -0.868  10.663  14.441  1.00  0.00     0.031 C 
ATOM     47  C   UNL     1      -5.471   9.897  12.551  1.00  0.00     0.029 A 
ATOM     48  N   UNL     1      -5.215   9.632  14.756  1.00  0.00    -0.354 N 
ATOM     49  C   UNL     1      -1.336  10.153  16.619  1.00  0.00     0.074 A 
ATOM     50  C   UNL     1      -0.327  10.475  15.636  1.00  0.00     0.031 C 
ATOM     51  C   UNL     1      -6.667   9.555  13.056  1.00  0.00     0.029 A 
ATOM     52  C   UNL     1      -6.536   9.354  14.495  1.00  0.00     0.049 A 
ATOM     53  H   UNL     1      -4.822   9.585  15.657  1.00  0.00     0.167 HD
ATOM     54  C   UNL     1      -1.097  10.030  17.947  1.00  0.00     0.037 A 
ATOM     55  C   UNL     1      -7.529   8.976  15.324  1.00  0.00     0.037 A 
ATOM     56  C   UNL     1      -2.115   9.723  18.918  1.00  0.00     0.049 A 
ATOM     57  C   UNL     1      -7.237   8.839  16.794  1.00  0.00     0.074 A 
ATOM     58  C   UNL     1      -1.991   9.627  20.293  1.00  0.00     0.029 A 
ATOM     59  N   UNL     1      -3.444   9.457  18.618  1.00  0.00    -0.354 N 
ATOM     60  N   UNL     1      -6.105   9.024  17.431  1.00  0.00    -0.248 NA
ATOM     61  C   UNL     1      -8.360   8.454  17.659  1.00  0.00     0.031 C 
ATOM     62  C   UNL     1      -3.230   9.247  20.818  1.00  0.00     0.029 A 
ATOM     63  C   UNL     1      -4.144   9.171  19.779  1.00  0.00     0.049 A 
ATOM     64  H   UNL     1      -3.832   9.469  17.713  1.00  0.00     0.167 HD
ATOM     65  C   UNL     1      -6.386   8.807  18.776  1.00  0.00     0.074 A 
ATOM     66  C   UNL     1      -7.798   8.493  18.859  1.00  0.00     0.031 C 
ATOM     67  C   UNL     1      -5.553   8.864  19.845  1.00  0.00     0.037 A 
BRANCH  54  68
ATOM     68  C   UNL     1       0.318  10.225  18.425  1.00  0.00     0.058 A 
ATOM     69  C   UNL     1       0.947  11.480  18.383  1.00  0.00     0.135 A 
ATOM     70  C   UNL     1       1.043   9.152  18.968  1.00  0.00     0.135 A 
ATOM     71  F   UNL     1       0.310  12.540  17.861  1.00  0.00    -0.206 F 
ATOM     72  C   UNL     1       2.253  11.657  18.831  1.00  0.00     0.059 A 
ATOM     73  C   UNL     1       2.338   9.313  19.453  1.00  0.00     0.059 A 
ATOM     74  F   UNL     1       0.493   7.929  19.035  1.00  0.00    -0.206 F 
ATOM     75  C   UNL     1       2.939  10.567  19.367  1.00  0.00     0.060 A 
BRANCH  75  76
ATOM     76  S   UNL     1       4.628  10.819  19.955  1.00  0.00     0.124 S 
ATOM     77  O   UNL     1       5.349  11.005  18.700  1.00  0.00    -0.237 OA
ATOM     78  O   UNL     1       4.492  12.008  20.790  1.00  0.00    -0.237 OA
ATOM     79  O   UNL     1       4.927   9.583  20.672  1.00  0.00    -0.744 OA
ENDBRANCH  75  76
ENDBRANCH  54  68
BRANCH  55  80
ATOM     80  C   UNL     1      -8.893   8.726  14.783  1.00  0.00     0.058 A 
ATOM     81  C   UNL     1      -9.963   9.579  15.090  1.00  0.00     0.135 A 
ATOM     82  C   UNL     1      -9.151   7.635  13.938  1.00  0.00     0.135 A 
ATOM     83  F   UNL     1      -9.769  10.634  15.898  1.00  0.00    -0.206 F 
ATOM     84  C   UNL     1     -11.243   9.351  14.597  1.00  0.00     0.059 A 
ATOM     85  C   UNL     1     -10.416   7.403  13.407  1.00  0.00     0.059 A 
ATOM     86  F   UNL     1      -8.159   6.798  13.596  1.00  0.00    -0.206 F 
ATOM     87  C   UNL     1     -11.459   8.261  13.752  1.00  0.00     0.060 A 
BRANCH  87  88
ATOM     88  S   UNL     1     -13.115   7.999  13.081  1.00  0.00     0.124 S 
ATOM     89  O   UNL     1     -13.845   7.558  14.264  1.00  0.00    -0.237 OA
ATOM     90  O   UNL     1     -13.454   9.327  12.579  1.00  0.00    -0.237 OA
ATOM     91  O   UNL     1     -12.905   6.984  12.053  1.00  0.00    -0.744 OA
ENDBRANCH  87  88
ENDBRANCH  55  80
BRANCH  67  92
ATOM     92  C   UNL     1      -6.153   8.624  21.204  1.00  0.00     0.058 A 
ATOM     93  C   UNL     1      -6.601   7.355  21.605  1.00  0.00     0.135 A 
ATOM     94  C   UNL     1      -6.245   9.674  22.133  1.00  0.00     0.135 A 
ATOM     95  F   UNL     1      -6.541   6.317  20.756  1.00  0.00    -0.206 F 
ATOM     96  C   UNL     1      -7.151   7.144  22.866  1.00  0.00     0.059 A 
ATOM     97  C   UNL     1      -6.759   9.478  23.411  1.00  0.00     0.059 A 
ATOM     98  F   UNL     1      -5.820  10.905  21.807  1.00  0.00    -0.206 F 
ATOM     99  C   UNL     1      -7.224   8.212  23.762  1.00  0.00     0.060 A 
BRANCH  99 100
ATOM    100  S   UNL     1      -7.922   7.919  25.401  1.00  0.00     0.124 S 
ATOM    101  O   UNL     1      -9.340   7.765  25.093  1.00  0.00    -0.237 OA
ATOM    102  O   UNL     1      -7.229   6.706  25.823  1.00  0.00    -0.237 OA
ATOM    103  O   UNL     1      -7.569   9.126  26.142  1.00  0.00    -0.744 OA
ENDBRANCH  99 100
ENDBRANCH  67  92
ENDBRANCH  41  42
ENDBRANCH  33  36
ENDBRANCH  31  32
ENDBRANCH  30  31
ENDBRANCH   1  30
TORSDOF 19
