REMARK SMILES CC(C)(C)c1cc2c(cc1Cl)C=C(C(=O)NCCCCCCNC(=O)c1ccc(-c3c4nc(c(-c5c(F)cc(S(=O)(=O)[O-])cc5F)c5ccc([nH]5)c(-c5c(F)cc(S(=O)(=O)[O-])cc5F)c5nc(c(-c6c(F)cc(S(=O)(=O)[O-])cc6F)c6ccc3[nH]6)C=C5)C=C4)cc1)[C@@H](C(F)(F)F)O2
REMARK SMILES IDX 20 1 19 2 18 3 17 4 16 5 14 6 15 7 13 9 5 10 6 11 10 12 7 13
REMARK SMILES IDX 9 14 11 15 8 16 97 17 12 18 92 19 2 20 1 21 3 22 4 23 93 24
REMARK SMILES IDX 94 25 95 26 96 27 21 28 22 29 23 30 24 31 25 33 26 34 27 35
REMARK SMILES IDX 91 36 28 37 90 38 29 39 30 40 31 41 84 42 32 43 89 44 83 45
REMARK SMILES IDX 85 46 33 47 88 48 82 49 81 50 34 52 68 53 47 54 67 55 48 56
REMARK SMILES IDX 51 57 66 58 86 59 49 60 50 61 65 63 87 64 52 65 35 66 36 67
REMARK SMILES IDX 45 68 37 69 38 70 44 71 46 72 39 73 40 74 41 75 42 76 43 77
REMARK SMILES IDX 69 78 70 79 79 80 71 81 72 82 78 83 80 84 73 85 74 86 75 87
REMARK SMILES IDX 76 88 77 89 53 90 54 91 63 92 55 93 56 94 62 95 64 96 57 97
REMARK SMILES IDX 58 98 59 99 60 100 61 101
REMARK H PARENT 16 8 23 32 85 51 51 62
REMARK Flexibility Score: inf
ROOT
ATOM      1  C   UNL     1       4.825  -1.186  12.519  1.00  0.00     0.002 C 
ENDROOT
BRANCH   1   2
ATOM      2  C   UNL     1       3.350  -1.363  12.136  1.00  0.00     0.002 C 
BRANCH   2   3
ATOM      3  C   UNL     1       2.922  -0.709  10.819  1.00  0.00     0.021 C 
BRANCH   3   4
ATOM      4  C   UNL     1       3.737  -1.146   9.605  1.00  0.00     0.116 C 
BRANCH   4   5
ATOM      5  N   UNL     1       3.268  -2.409   9.060  1.00  0.00    -0.352 N 
ATOM      6  C   UNL     1       2.780  -2.863   7.882  1.00  0.00     0.251 C 
ATOM      7  O   UNL     1       2.526  -4.072   7.852  1.00  0.00    -0.270 OA
ATOM      8  H   UNL     1       3.320  -3.130   9.728  1.00  0.00     0.163 HD
BRANCH   6   9
ATOM      9  C   UNL     1       2.527  -2.030   6.666  1.00  0.00     0.067 C 
ATOM     10  C   UNL     1       0.839  -0.358   2.153  1.00  0.00    -0.020 A 
ATOM     11  C   UNL     1       1.466   0.209   3.283  1.00  0.00     0.053 A 
ATOM     12  C   UNL     1       0.587  -1.749   2.225  1.00  0.00     0.045 A 
ATOM     13  C   UNL     1       1.812  -0.544   4.406  1.00  0.00     0.128 A 
ATOM     14  C   UNL     1       0.940  -2.503   3.362  1.00  0.00     0.032 A 
ATOM     15  Cl  UNL     1      -0.196  -2.662   0.980  1.00  0.00    -0.084 Cl
ATOM     16  C   UNL     1       1.544  -1.901   4.462  1.00  0.00     0.019 A 
ATOM     17  O   UNL     1       2.362   0.150   5.440  1.00  0.00    -0.475 OA
ATOM     18  C   UNL     1       1.842  -2.641   5.681  1.00  0.00     0.025 C 
ATOM     19  C   UNL     1       3.014  -0.618   6.487  1.00  0.00     0.314 C 
BRANCH  10  20
ATOM     20  C   UNL     1       0.439   0.560   0.971  1.00  0.00    -0.012 C 
ATOM     21  C   UNL     1       1.052   0.082  -0.364  1.00  0.00     0.016 C 
ATOM     22  C   UNL     1       0.923   2.030   1.134  1.00  0.00     0.016 C 
ATOM     23  C   UNL     1      -1.099   0.637   0.865  1.00  0.00     0.016 C 
ENDBRANCH  10  20
BRANCH  19  24
ATOM     24  C   UNL     1       4.536  -0.537   6.280  1.00  0.00     0.429 C 
ATOM     25  F   UNL     1       4.968   0.739   6.418  1.00  0.00    -0.167 F 
ATOM     26  F   UNL     1       5.222  -1.275   7.184  1.00  0.00    -0.167 F 
ATOM     27  F   UNL     1       4.910  -0.966   5.053  1.00  0.00    -0.167 F 
ENDBRANCH  19  24
ENDBRANCH   6   9
ENDBRANCH   4   5
ENDBRANCH   3   4
ENDBRANCH   2   3
ENDBRANCH   1   2
BRANCH   1  28
ATOM     28  C   UNL     1       5.372   0.241  12.433  1.00  0.00     0.021 C 
BRANCH  28  29
ATOM     29  C   UNL     1       4.626   1.274  13.271  1.00  0.00     0.116 C 
BRANCH  29  30
ATOM     30  N   UNL     1       4.703   1.001  14.696  1.00  0.00    -0.352 N 
ATOM     31  C   UNL     1       5.058   1.846  15.720  1.00  0.00     0.251 C 
ATOM     32  H   UNL     1       4.468   0.083  14.965  1.00  0.00     0.163 HD
ATOM     33  O   UNL     1       5.202   1.411  16.859  1.00  0.00    -0.269 OA
BRANCH  31  34
ATOM     34  C   UNL     1       5.300   3.276  15.431  1.00  0.00     0.039 A 
ATOM     35  C   UNL     1       4.383   4.016  14.680  1.00  0.00     0.014 A 
ATOM     36  C   UNL     1       6.481   3.867  15.887  1.00  0.00     0.014 A 
ATOM     37  C   UNL     1       4.717   5.299  14.258  1.00  0.00     0.010 A 
ATOM     38  C   UNL     1       6.783   5.180  15.516  1.00  0.00     0.010 A 
ATOM     39  C   UNL     1       5.926   5.889  14.659  1.00  0.00    -0.014 A 
BRANCH  39  40
ATOM     40  C   UNL     1       6.300   7.235  14.152  1.00  0.00     0.031 A 
ATOM     41  C   UNL     1       7.482   7.399  13.235  1.00  0.00     0.074 A 
ATOM     42  C   UNL     1       5.554   8.304  14.489  1.00  0.00     0.049 A 
ATOM     43  N   UNL     1       7.993   8.496  12.734  1.00  0.00    -0.248 NA
ATOM     44  C   UNL     1       8.185   6.172  12.827  1.00  0.00     0.031 C 
ATOM     45  C   UNL     1       4.370   8.269  15.350  1.00  0.00     0.029 A 
ATOM     46  N   UNL     1       5.673   9.624  14.139  1.00  0.00    -0.354 N 
ATOM     47  C   UNL     1       9.087   8.096  11.976  1.00  0.00     0.074 A 
ATOM     48  C   UNL     1       9.180   6.657  12.097  1.00  0.00     0.031 C 
ATOM     49  C   UNL     1       3.852   9.504  15.433  1.00  0.00     0.029 A 
ATOM     50  C   UNL     1       4.698  10.426  14.683  1.00  0.00     0.049 A 
ATOM     51  H   UNL     1       6.387   9.966  13.555  1.00  0.00     0.167 HD
ATOM     52  C   UNL     1       9.932   8.858  11.241  1.00  0.00     0.037 A 
ATOM     53  C   UNL     1       4.518  11.758  14.606  1.00  0.00     0.037 A 
ATOM     54  C   UNL     1       9.822  10.288  11.104  1.00  0.00     0.049 A 
ATOM     55  C   UNL     1       5.492  12.587  13.821  1.00  0.00     0.074 A 
ATOM     56  C   UNL     1      10.617  11.147  10.364  1.00  0.00     0.029 A 
ATOM     57  N   UNL     1       8.854  11.070  11.717  1.00  0.00    -0.354 N 
ATOM     58  N   UNL     1       6.535  12.195  13.129  1.00  0.00    -0.248 NA
ATOM     59  C   UNL     1       5.277  14.040  13.820  1.00  0.00     0.031 C 
ATOM     60  C   UNL     1      10.150  12.452  10.558  1.00  0.00     0.029 A 
ATOM     61  C   UNL     1       9.042  12.403  11.389  1.00  0.00     0.049 A 
ATOM     62  H   UNL     1       8.138  10.728  12.300  1.00  0.00     0.167 HD
ATOM     63  C   UNL     1       7.105  13.353  12.614  1.00  0.00     0.074 A 
ATOM     64  C   UNL     1       6.273  14.457  13.051  1.00  0.00     0.031 C 
ATOM     65  C   UNL     1       8.219  13.491  11.853  1.00  0.00     0.037 A 
BRANCH  52  66
ATOM     66  C   UNL     1      11.064   8.162  10.538  1.00  0.00     0.058 A 
ATOM     67  C   UNL     1      10.851   7.383   9.389  1.00  0.00     0.135 A 
ATOM     68  C   UNL     1      12.383   8.300  11.001  1.00  0.00     0.135 A 
ATOM     69  F   UNL     1       9.608   7.203   8.915  1.00  0.00    -0.206 F 
ATOM     70  C   UNL     1      11.903   6.747   8.738  1.00  0.00     0.059 A 
ATOM     71  C   UNL     1      13.453   7.689  10.353  1.00  0.00     0.059 A 
ATOM     72  F   UNL     1      12.641   9.031  12.096  1.00  0.00    -0.206 F 
ATOM     73  C   UNL     1      13.201   6.904   9.229  1.00  0.00     0.060 A 
BRANCH  73  74
ATOM     74  S   UNL     1      14.554   6.067   8.374  1.00  0.00     0.124 S 
ATOM     75  O   UNL     1      14.327   4.678   8.763  1.00  0.00    -0.237 OA
ATOM     76  O   UNL     1      14.284   6.385   6.976  1.00  0.00    -0.237 OA
ATOM     77  O   UNL     1      15.748   6.689   8.937  1.00  0.00    -0.744 OA
ENDBRANCH  73  74
ENDBRANCH  52  66
BRANCH  53  78
ATOM     78  C   UNL     1       3.370  12.382  15.312  1.00  0.00     0.058 A 
ATOM     79  C   UNL     1       2.264  12.866  14.599  1.00  0.00     0.135 A 
ATOM     80  C   UNL     1       3.334  12.459  16.713  1.00  0.00     0.135 A 
ATOM     81  F   UNL     1       2.259  12.823  13.258  1.00  0.00    -0.206 F 
ATOM     82  C   UNL     1       1.157  13.399  15.251  1.00  0.00     0.059 A 
ATOM     83  C   UNL     1       2.229  12.966  17.388  1.00  0.00     0.059 A 
ATOM     84  F   UNL     1       4.365  11.997  17.438  1.00  0.00    -0.206 F 
ATOM     85  C   UNL     1       1.146  13.436  16.647  1.00  0.00     0.060 A 
BRANCH  85  86
ATOM     86  S   UNL     1      -0.333  14.047  17.484  1.00  0.00     0.124 S 
ATOM     87  O   UNL     1      -0.230  15.483  17.253  1.00  0.00    -0.237 OA
ATOM     88  O   UNL     1      -1.400  13.359  16.763  1.00  0.00    -0.237 OA
ATOM     89  O   UNL     1      -0.140  13.612  18.865  1.00  0.00    -0.744 OA
ENDBRANCH  85  86
ENDBRANCH  53  78
BRANCH  65  90
ATOM     90  C   UNL     1       8.607  14.887  11.460  1.00  0.00     0.058 A 
ATOM     91  C   UNL     1       9.191  15.768  12.384  1.00  0.00     0.135 A 
ATOM     92  C   UNL     1       8.421  15.341  10.145  1.00  0.00     0.135 A 
ATOM     93  F   UNL     1       9.382  15.383  13.656  1.00  0.00    -0.206 F 
ATOM     94  C   UNL     1       9.555  17.060  12.023  1.00  0.00     0.059 A 
ATOM     95  C   UNL     1       8.798  16.622   9.757  1.00  0.00     0.059 A 
ATOM     96  F   UNL     1       7.875  14.533   9.222  1.00  0.00    -0.206 F 
ATOM     97  C   UNL     1       9.352  17.480  10.707  1.00  0.00     0.060 A 
BRANCH  97  98
ATOM     98  S   UNL     1       9.843  19.155  10.247  1.00  0.00     0.124 S 
ATOM     99  O   UNL     1       8.778  19.948  10.852  1.00  0.00    -0.237 OA
ATOM    100  O   UNL     1      11.158  19.279  10.869  1.00  0.00    -0.237 OA
ATOM    101  O   UNL     1       9.848  19.118   8.788  1.00  0.00    -0.744 OA
ENDBRANCH  97  98
ENDBRANCH  65  90
ENDBRANCH  39  40
ENDBRANCH  31  34
ENDBRANCH  29  30
ENDBRANCH  28  29
ENDBRANCH   1  28
TORSDOF 18
