REMARK SMILES O=C(NCCCCCCNC(=O)c1ccccc1NC(=O)c1ccncc1)c1ccc(-c2c3nc(c(-c4c(F)cc(S(=O)(=O)[O-])cc4F)c4ccc([nH]4)c(-c4c(F)cc(S(=O)(=O)[O-])cc4F)c4nc(c(-c5c(F)cc(S(=O)(=O)[O-])cc5F)c5ccc2[nH]5)C=C4)C=C3)cc1
REMARK SMILES IDX 6 1 5 2 4 3 3 4 1 5 2 6 28 8 29 9 93 10 30 11 92 12 31 13
REMARK SMILES IDX 32 14 33 15 86 16 34 17 91 18 85 19 87 20 35 21 90 22 84 23
REMARK SMILES IDX 83 24 36 26 70 27 49 28 69 29 50 30 53 31 68 32 88 33 51 34
REMARK SMILES IDX 52 35 67 37 89 38 54 39 37 40 38 41 47 42 39 43 40 44 46 45
REMARK SMILES IDX 48 46 41 47 42 48 43 49 44 50 45 51 71 52 72 53 81 54 73 55
REMARK SMILES IDX 74 56 80 57 82 58 75 59 76 60 77 61 78 62 79 63 55 64 56 65
REMARK SMILES IDX 65 66 57 67 58 68 64 69 66 70 59 71 60 72 61 73 62 74 63 75
REMARK SMILES IDX 7 76 8 77 9 78 10 79 11 80 12 82 13 83 14 84 18 85 15 86
REMARK SMILES IDX 17 87 16 88 19 89 20 90 21 92 22 93 23 94 27 95 24 96 26 97
REMARK SMILES IDX 25 98
REMARK H PARENT 3 7 87 25 53 36 10 81 19 91
REMARK Flexibility Score: inf
ROOT
ATOM      1  C   UNL     1       4.234   0.715  -3.983  1.00  0.00     0.002 C 
ENDROOT
BRANCH   1   2
ATOM      2  C   UNL     1       4.673  -0.251  -2.885  1.00  0.00     0.021 C 
BRANCH   2   3
ATOM      3  C   UNL     1       4.418   0.219  -1.460  1.00  0.00     0.116 C 
BRANCH   3   4
ATOM      4  N   UNL     1       3.007   0.351  -1.139  1.00  0.00    -0.352 N 
ATOM      5  O   UNL     1       1.115   0.007   0.046  1.00  0.00    -0.269 OA
ATOM      6  C   UNL     1       2.338  -0.087  -0.018  1.00  0.00     0.251 C 
ATOM      7  H   UNL     1       2.457   0.815  -1.811  1.00  0.00     0.163 HD
BRANCH   6   8
ATOM      8  C   UNL     1       3.099  -0.701   1.094  1.00  0.00     0.039 A 
ATOM      9  C   UNL     1       4.282  -0.118   1.550  1.00  0.00     0.014 A 
ATOM     10  C   UNL     1       2.635  -1.887   1.672  1.00  0.00     0.014 A 
ATOM     11  C   UNL     1       5.075  -0.795   2.468  1.00  0.00     0.010 A 
ATOM     12  C   UNL     1       3.391  -2.520   2.666  1.00  0.00     0.010 A 
ATOM     13  C   UNL     1       4.634  -1.996   3.050  1.00  0.00    -0.014 A 
BRANCH  13  14
ATOM     14  C   UNL     1       5.472  -2.629   4.102  1.00  0.00     0.031 A 
ATOM     15  C   UNL     1       6.107  -3.978   3.901  1.00  0.00     0.074 A 
ATOM     16  C   UNL     1       5.707  -1.932   5.232  1.00  0.00     0.049 A 
ATOM     17  N   UNL     1       6.919  -4.628   4.696  1.00  0.00    -0.248 NA
ATOM     18  C   UNL     1       5.790  -4.694   2.656  1.00  0.00     0.031 C 
ATOM     19  C   UNL     1       5.119  -0.626   5.550  1.00  0.00     0.029 A 
ATOM     20  N   UNL     1       6.516  -2.199   6.305  1.00  0.00    -0.354 N 
ATOM     21  C   UNL     1       7.205  -5.829   4.057  1.00  0.00     0.074 A 
ATOM     22  C   UNL     1       6.453  -5.832   2.819  1.00  0.00     0.031 C 
ATOM     23  C   UNL     1       5.630  -0.183   6.707  1.00  0.00     0.029 A 
ATOM     24  C   UNL     1       6.535  -1.193   7.242  1.00  0.00     0.049 A 
ATOM     25  H   UNL     1       7.035  -3.031   6.396  1.00  0.00     0.167 HD
ATOM     26  C   UNL     1       8.026  -6.830   4.460  1.00  0.00     0.037 A 
ATOM     27  C   UNL     1       7.198  -1.093   8.409  1.00  0.00     0.037 A 
ATOM     28  C   UNL     1       8.776  -6.816   5.692  1.00  0.00     0.049 A 
ATOM     29  C   UNL     1       8.110  -2.209   8.823  1.00  0.00     0.074 A 
ATOM     30  C   UNL     1       9.636  -7.781   6.189  1.00  0.00     0.029 A 
ATOM     31  N   UNL     1       8.761  -5.784   6.620  1.00  0.00    -0.354 N 
ATOM     32  N   UNL     1       8.375  -3.330   8.196  1.00  0.00    -0.248 NA
ATOM     33  C   UNL     1       8.815  -2.050  10.101  1.00  0.00     0.031 C 
ATOM     34  C   UNL     1      10.119  -7.345   7.429  1.00  0.00     0.029 A 
ATOM     35  C   UNL     1       9.591  -6.091   7.687  1.00  0.00     0.049 A 
ATOM     36  H   UNL     1       8.238  -4.954   6.532  1.00  0.00     0.167 HD
ATOM     37  C   UNL     1       9.277  -4.011   9.003  1.00  0.00     0.074 A 
ATOM     38  C   UNL     1       9.539  -3.159  10.147  1.00  0.00     0.031 C 
ATOM     39  C   UNL     1       9.831  -5.235   8.821  1.00  0.00     0.037 A 
BRANCH  26  40
ATOM     40  C   UNL     1       8.162  -8.031   3.563  1.00  0.00     0.058 A 
ATOM     41  C   UNL     1       8.891  -7.972   2.365  1.00  0.00     0.135 A 
ATOM     42  C   UNL     1       7.612  -9.269   3.933  1.00  0.00     0.135 A 
ATOM     43  F   UNL     1       9.428  -6.811   1.957  1.00  0.00    -0.206 F 
ATOM     44  C   UNL     1       9.056  -9.094   1.557  1.00  0.00     0.059 A 
ATOM     45  C   UNL     1       7.782 -10.409   3.151  1.00  0.00     0.059 A 
ATOM     46  F   UNL     1       6.906  -9.382   5.069  1.00  0.00    -0.206 F 
ATOM     47  C   UNL     1       8.498 -10.309   1.959  1.00  0.00     0.060 A 
BRANCH  47  48
ATOM     48  S   UNL     1       8.737 -11.759   0.909  1.00  0.00     0.124 S 
ATOM     49  O   UNL     1       7.830 -11.469  -0.197  1.00  0.00    -0.237 OA
ATOM     50  O   UNL     1      10.161 -11.688   0.595  1.00  0.00    -0.237 OA
ATOM     51  O   UNL     1       8.343 -12.870   1.769  1.00  0.00    -0.744 OA
ENDBRANCH  47  48
ENDBRANCH  26  40
BRANCH  27  52
ATOM     52  C   UNL     1       7.006   0.106   9.264  1.00  0.00     0.058 A 
ATOM     53  C   UNL     1       8.027   1.050   9.435  1.00  0.00     0.135 A 
ATOM     54  C   UNL     1       5.781   0.341   9.908  1.00  0.00     0.135 A 
ATOM     55  F   UNL     1       9.216   0.869   8.840  1.00  0.00    -0.206 F 
ATOM     56  C   UNL     1       7.848   2.179  10.229  1.00  0.00     0.059 A 
ATOM     57  C   UNL     1       5.568   1.475  10.683  1.00  0.00     0.059 A 
ATOM     58  F   UNL     1       4.765  -0.523   9.757  1.00  0.00    -0.206 F 
ATOM     59  C   UNL     1       6.613   2.382  10.848  1.00  0.00     0.060 A 
BRANCH  59  60
ATOM     60  S   UNL     1       6.367   3.872  11.838  1.00  0.00     0.124 S 
ATOM     61  O   UNL     1       7.049   3.515  13.076  1.00  0.00    -0.237 OA
ATOM     62  O   UNL     1       7.016   4.896  11.024  1.00  0.00    -0.237 OA
ATOM     63  O   UNL     1       4.914   3.979  11.922  1.00  0.00    -0.744 OA
ENDBRANCH  59  60
ENDBRANCH  27  52
BRANCH  39  64
ATOM     64  C   UNL     1      10.779  -5.712   9.884  1.00  0.00     0.058 A 
ATOM     65  C   UNL     1      10.318  -6.132  11.142  1.00  0.00     0.135 A 
ATOM     66  C   UNL     1      12.161  -5.755   9.642  1.00  0.00     0.135 A 
ATOM     67  F   UNL     1       9.006  -6.103  11.424  1.00  0.00    -0.206 F 
ATOM     68  C   UNL     1      11.198  -6.542  12.137  1.00  0.00     0.059 A 
ATOM     69  C   UNL     1      13.057  -6.185  10.615  1.00  0.00     0.059 A 
ATOM     70  F   UNL     1      12.651  -5.372   8.452  1.00  0.00    -0.206 F 
ATOM     71  C   UNL     1      12.567  -6.559  11.866  1.00  0.00     0.060 A 
BRANCH  71  72
ATOM     72  S   UNL     1      13.702  -7.092  13.164  1.00  0.00     0.124 S 
ATOM     73  O   UNL     1      13.748  -5.909  14.017  1.00  0.00    -0.237 OA
ATOM     74  O   UNL     1      13.018  -8.253  13.725  1.00  0.00    -0.237 OA
ATOM     75  O   UNL     1      14.932  -7.390  12.436  1.00  0.00    -0.744 OA
ENDBRANCH  71  72
ENDBRANCH  39  64
ENDBRANCH  13  14
ENDBRANCH   6   8
ENDBRANCH   3   4
ENDBRANCH   2   3
ENDBRANCH   1   2
BRANCH   1  76
ATOM     76  C   UNL     1       4.776   2.143  -3.876  1.00  0.00     0.002 C 
BRANCH  76  77
ATOM     77  C   UNL     1       6.298   2.290  -3.740  1.00  0.00     0.021 C 
BRANCH  77  78
ATOM     78  C   UNL     1       7.134   1.553  -4.785  1.00  0.00     0.116 C 
BRANCH  78  79
ATOM     79  N   UNL     1       6.782   1.942  -6.139  1.00  0.00    -0.352 N 
ATOM     80  C   UNL     1       7.579   2.345  -7.174  1.00  0.00     0.253 C 
ATOM     81  H   UNL     1       5.819   1.909  -6.344  1.00  0.00     0.163 HD
ATOM     82  O   UNL     1       7.066   2.796  -8.196  1.00  0.00    -0.269 OA
BRANCH  80  83
ATOM     83  C   UNL     1       9.053   2.246  -7.097  1.00  0.00     0.063 A 
ATOM     84  C   UNL     1       9.756   3.435  -7.352  1.00  0.00     0.016 A 
ATOM     85  C   UNL     1       9.739   1.028  -6.901  1.00  0.00     0.054 A 
ATOM     86  C   UNL     1      11.145   3.429  -7.422  1.00  0.00     0.001 A 
ATOM     87  C   UNL     1      11.130   1.037  -7.055  1.00  0.00     0.027 A 
ATOM     88  C   UNL     1      11.829   2.226  -7.292  1.00  0.00     0.002 A 
BRANCH  85  89
ATOM     89  N   UNL     1       9.008  -0.144  -6.605  1.00  0.00    -0.321 N 
ATOM     90  C   UNL     1       9.351  -1.377  -6.100  1.00  0.00     0.255 C 
ATOM     91  H   UNL     1       8.047  -0.061  -6.802  1.00  0.00     0.170 HD
ATOM     92  O   UNL     1       8.496  -2.260  -6.040  1.00  0.00    -0.269 OA
BRANCH  90  93
ATOM     93  C   UNL     1      10.698  -1.680  -5.588  1.00  0.00     0.043 A 
ATOM     94  C   UNL     1      11.302  -0.900  -4.603  1.00  0.00     0.034 A 
ATOM     95  C   UNL     1      11.358  -2.789  -6.112  1.00  0.00     0.034 A 
ATOM     96  C   UNL     1      12.603  -1.213  -4.254  1.00  0.00     0.112 A 
ATOM     97  C   UNL     1      12.651  -3.022  -5.687  1.00  0.00     0.112 A 
ATOM     98  N   UNL     1      13.296  -2.239  -4.795  1.00  0.00    -0.265 NA
ENDBRANCH  90  93
ENDBRANCH  85  89
ENDBRANCH  80  83
ENDBRANCH  78  79
ENDBRANCH  77  78
ENDBRANCH  76  77
ENDBRANCH   1  76
TORSDOF 18
