REMARK SMILES O=C(CCC(=O)N1Cc2[nH]cnc2C[C@H]1C(=O)NCc1ccccc1)NCCCCCCNC(=O)c1ccc(-c2c3nc(c(-c4c(F)cc(S(=O)(=O)[O-])cc4F)c4ccc([nH]4)c(-c4c(F)cc(S(=O)(=O)[O-])cc4F)c4nc(c(-c5c(F)cc(S(=O)(=O)[O-])cc5F)c5ccc2[nH]5)C=C4)C=C3)cc1
REMARK SMILES IDX 28 1 27 2 26 3 1 4 2 5 3 7 4 8 5 9 6 10 7 11 8 12 15 13 9 14
REMARK SMILES IDX 14 15 10 16 13 17 11 18 12 20 16 21 17 22 18 23 19 25 20 26
REMARK SMILES IDX 21 27 25 28 22 29 24 30 23 31 29 32 30 33 31 34 32 35 33 36
REMARK SMILES IDX 34 37 35 39 36 40 37 41 101 42 38 43 100 44 39 45 40 46
REMARK SMILES IDX 41 47 94 48 42 49 99 50 93 51 95 52 43 53 98 54 92 55 91 56
REMARK SMILES IDX 44 58 78 59 57 60 77 61 58 62 61 63 76 64 96 65 59 66 60 67
REMARK SMILES IDX 75 69 97 70 62 71 45 72 46 73 55 74 47 75 48 76 54 77 56 78
REMARK SMILES IDX 49 79 50 80 51 81 52 82 53 83 79 84 80 85 89 86 81 87 82 88
REMARK SMILES IDX 88 89 90 90 83 91 84 92 85 93 86 94 87 95 63 96 64 97 73 98
REMARK SMILES IDX 65 99 66 100 72 101 74 102 67 103 68 104 69 105 70 106
REMARK SMILES IDX 71 107
REMARK H PARENT 26 6 10 19 18 24 33 38 95 57 61 68
REMARK Flexibility Score: inf
ROOT
ATOM      1  C   UNL     1       1.639  -4.058  -0.487  1.00  0.00     0.021 C 
ENDROOT
BRANCH   1   2
ATOM      2  C   UNL     1       1.416  -2.547  -0.229  1.00  0.00     0.116 C 
BRANCH   2   3
ATOM      3  N   UNL     1       2.372  -1.586  -0.788  1.00  0.00    -0.356 N 
ATOM      4  O   UNL     1       1.068   0.251  -0.292  1.00  0.00    -0.275 OA
ATOM      5  C   UNL     1       2.145  -0.209  -0.662  1.00  0.00     0.220 C 
ATOM      6  H   UNL     1       3.177  -1.909  -1.254  1.00  0.00     0.163 HD
BRANCH   5   7
ATOM      7  C   UNL     1       3.378   0.707  -0.869  1.00  0.00     0.110 C 
BRANCH   7   8
ATOM      8  C   UNL     1       3.661   1.645   0.346  1.00  0.00     0.110 C 
BRANCH   8   9
ATOM      9  C   UNL     1       4.925   1.408   1.233  1.00  0.00     0.224 C 
ATOM     10  O   UNL     1       5.835   2.242   1.231  1.00  0.00    -0.275 OA
BRANCH   9  11
ATOM     11  N   UNL     1       4.986   0.297   2.066  1.00  0.00    -0.324 N 
ATOM     12  C   UNL     1       6.106   0.068   3.019  1.00  0.00     0.176 C 
ATOM     13  C   UNL     1       4.068  -0.824   1.879  1.00  0.00     0.180 C 
ATOM     14  C   UNL     1       6.513  -1.372   2.939  1.00  0.00     0.058 A 
ATOM     15  C   UNL     1       4.834  -1.979   1.243  1.00  0.00     0.093 C 
ATOM     16  N   UNL     1       7.403  -2.082   3.699  1.00  0.00    -0.347 N 
ATOM     17  C   UNL     1       5.954  -2.317   2.115  1.00  0.00     0.066 A 
ATOM     18  C   UNL     1       7.362  -3.386   3.261  1.00  0.00     0.197 A 
ATOM     19  H   UNL     1       7.967  -1.726   4.423  1.00  0.00     0.167 HD
ATOM     20  N   UNL     1       6.476  -3.555   2.305  1.00  0.00    -0.242 NA
BRANCH  13  21
ATOM     21  C   UNL     1       2.863  -0.858   2.840  1.00  0.00     0.243 C 
ATOM     22  O   UNL     1       2.062   0.089   2.832  1.00  0.00    -0.273 OA
ATOM     23  N   UNL     1       2.583  -1.801   3.757  1.00  0.00    -0.350 N 
ATOM     24  H   UNL     1       1.625  -1.917   3.951  1.00  0.00     0.163 HD
BRANCH  23  25
ATOM     25  C   UNL     1       3.456  -2.666   4.499  1.00  0.00     0.151 C 
BRANCH  25  26
ATOM     26  C   UNL     1       3.989  -2.020   5.755  1.00  0.00    -0.029 A 
ATOM     27  C   UNL     1       4.626  -2.833   6.703  1.00  0.00     0.005 A 
ATOM     28  C   UNL     1       3.871  -0.646   6.023  1.00  0.00     0.005 A 
ATOM     29  C   UNL     1       5.133  -2.286   7.882  1.00  0.00     0.000 A 
ATOM     30  C   UNL     1       4.387  -0.098   7.196  1.00  0.00     0.000 A 
ATOM     31  C   UNL     1       5.018  -0.918   8.125  1.00  0.00     0.000 A 
ENDBRANCH  25  26
ENDBRANCH  23  25
ENDBRANCH  13  21
ENDBRANCH   9  11
ENDBRANCH   8   9
ENDBRANCH   7   8
ENDBRANCH   5   7
ENDBRANCH   2   3
ENDBRANCH   1   2
BRANCH   1  32
ATOM     32  C   UNL     1       2.821  -4.845   0.140  1.00  0.00     0.002 C 
BRANCH  32  33
ATOM     33  C   UNL     1       3.082  -4.708   1.652  1.00  0.00     0.002 C 
BRANCH  33  34
ATOM     34  C   UNL     1       2.617  -5.771   2.644  1.00  0.00     0.021 C 
BRANCH  34  35
ATOM     35  C   UNL     1       3.423  -7.067   2.677  1.00  0.00     0.116 C 
BRANCH  35  36
ATOM     36  N   UNL     1       4.833  -6.934   3.072  1.00  0.00    -0.352 N 
ATOM     37  C   UNL     1       5.856  -7.840   2.796  1.00  0.00     0.251 C 
ATOM     38  H   UNL     1       5.078  -6.128   3.581  1.00  0.00     0.163 HD
ATOM     39  O   UNL     1       6.896  -7.877   3.414  1.00  0.00    -0.269 OA
BRANCH  37  40
ATOM     40  C   UNL     1       5.598  -8.740   1.653  1.00  0.00     0.039 A 
ATOM     41  C   UNL     1       5.290 -10.087   1.852  1.00  0.00     0.014 A 
ATOM     42  C   UNL     1       5.306  -8.087   0.462  1.00  0.00     0.014 A 
ATOM     43  C   UNL     1       4.535 -10.750   0.881  1.00  0.00     0.010 A 
ATOM     44  C   UNL     1       4.446  -8.709  -0.416  1.00  0.00     0.010 A 
ATOM     45  C   UNL     1       4.047 -10.041  -0.229  1.00  0.00    -0.014 A 
BRANCH  45  46
ATOM     46  C   UNL     1       3.010 -10.625  -1.100  1.00  0.00     0.031 A 
ATOM     47  C   UNL     1       1.855 -11.349  -0.462  1.00  0.00     0.074 A 
ATOM     48  C   UNL     1       2.886 -10.323  -2.412  1.00  0.00     0.049 A 
ATOM     49  N   UNL     1       1.495 -12.584  -0.630  1.00  0.00    -0.248 NA
ATOM     50  C   UNL     1       0.997 -10.618   0.483  1.00  0.00     0.031 C 
ATOM     51  C   UNL     1       3.684  -9.401  -3.230  1.00  0.00     0.029 A 
ATOM     52  N   UNL     1       1.893 -10.694  -3.267  1.00  0.00    -0.354 N 
ATOM     53  C   UNL     1       0.278 -12.751   0.038  1.00  0.00     0.074 A 
ATOM     54  C   UNL     1       0.078 -11.539   0.793  1.00  0.00     0.031 C 
ATOM     55  C   UNL     1       2.996  -9.074  -4.342  1.00  0.00     0.029 A 
ATOM     56  C   UNL     1       1.827  -9.927  -4.416  1.00  0.00     0.049 A 
ATOM     57  H   UNL     1       1.277 -11.440  -3.083  1.00  0.00     0.167 HD
ATOM     58  C   UNL     1      -0.554 -13.810  -0.199  1.00  0.00     0.037 A 
ATOM     59  C   UNL     1       0.879  -9.971  -5.377  1.00  0.00     0.037 A 
ATOM     60  C   UNL     1       0.103 -14.848  -0.952  1.00  0.00     0.049 A 
ATOM     61  C   UNL     1       0.277 -11.325  -5.329  1.00  0.00     0.074 A 
ATOM     62  C   UNL     1       1.238 -15.615  -0.772  1.00  0.00     0.029 A 
ATOM     63  N   UNL     1      -0.226 -15.005  -2.277  1.00  0.00    -0.354 N 
ATOM     64  N   UNL     1       0.939 -12.424  -5.583  1.00  0.00    -0.248 NA
ATOM     65  C   UNL     1      -0.962 -11.507  -4.589  1.00  0.00     0.031 C 
ATOM     66  C   UNL     1       1.815 -15.720  -2.073  1.00  0.00     0.029 A 
ATOM     67  C   UNL     1       0.964 -15.054  -2.958  1.00  0.00     0.049 A 
ATOM     68  H   UNL     1      -1.131 -15.070  -2.660  1.00  0.00     0.167 HD
ATOM     69  C   UNL     1       0.440 -13.360  -4.689  1.00  0.00     0.074 A 
ATOM     70  C   UNL     1      -0.802 -12.771  -4.191  1.00  0.00     0.031 C 
ATOM     71  C   UNL     1       1.202 -14.397  -4.227  1.00  0.00     0.037 A 
BRANCH  58  72
ATOM     72  C   UNL     1      -2.057 -13.825  -0.005  1.00  0.00     0.058 A 
ATOM     73  C   UNL     1      -2.761 -15.051  -0.043  1.00  0.00     0.135 A 
ATOM     74  C   UNL     1      -2.859 -12.667  -0.066  1.00  0.00     0.135 A 
ATOM     75  F   UNL     1      -2.101 -16.220   0.004  1.00  0.00    -0.206 F 
ATOM     76  C   UNL     1      -4.146 -15.121  -0.210  1.00  0.00     0.059 A 
ATOM     77  C   UNL     1      -4.248 -12.712  -0.180  1.00  0.00     0.059 A 
ATOM     78  F   UNL     1      -2.322 -11.441  -0.118  1.00  0.00    -0.206 F 
ATOM     79  C   UNL     1      -4.879 -13.942  -0.301  1.00  0.00     0.060 A 
BRANCH  79  80
ATOM     80  S   UNL     1      -6.646 -14.022  -0.656  1.00  0.00     0.124 S 
ATOM     81  O   UNL     1      -6.639 -14.392  -2.067  1.00  0.00    -0.237 OA
ATOM     82  O   UNL     1      -7.102 -15.052   0.272  1.00  0.00    -0.237 OA
ATOM     83  O   UNL     1      -7.107 -12.670  -0.358  1.00  0.00    -0.744 OA
ENDBRANCH  79  80
ENDBRANCH  58  72
BRANCH  59  84
ATOM     84  C   UNL     1       0.302  -8.800  -6.078  1.00  0.00     0.058 A 
ATOM     85  C   UNL     1      -0.456  -8.945  -7.249  1.00  0.00     0.135 A 
ATOM     86  C   UNL     1       0.288  -7.520  -5.478  1.00  0.00     0.135 A 
ATOM     87  F   UNL     1      -0.521 -10.135  -7.865  1.00  0.00    -0.206 F 
ATOM     88  C   UNL     1      -1.206  -7.891  -7.782  1.00  0.00     0.059 A 
ATOM     89  C   UNL     1      -0.438  -6.453  -5.998  1.00  0.00     0.059 A 
ATOM     90  F   UNL     1       0.919  -7.290  -4.316  1.00  0.00    -0.206 F 
ATOM     91  C   UNL     1      -1.202  -6.652  -7.139  1.00  0.00     0.060 A 
BRANCH  91  92
ATOM     92  S   UNL     1      -2.289  -5.337  -7.734  1.00  0.00     0.124 S 
ATOM     93  O   UNL     1      -1.669  -4.988  -9.008  1.00  0.00    -0.237 OA
ATOM     94  O   UNL     1      -3.577  -6.018  -7.815  1.00  0.00    -0.237 OA
ATOM     95  O   UNL     1      -2.190  -4.319  -6.691  1.00  0.00    -0.744 OA
ENDBRANCH  91  92
ENDBRANCH  59  84
BRANCH  71  96
ATOM     96  C   UNL     1       2.525 -14.698  -4.892  1.00  0.00     0.058 A 
ATOM     97  C   UNL     1       3.615 -13.810  -4.909  1.00  0.00     0.135 A 
ATOM     98  C   UNL     1       2.769 -16.004  -5.346  1.00  0.00     0.135 A 
ATOM     99  F   UNL     1       3.511 -12.580  -4.397  1.00  0.00    -0.206 F 
ATOM    100  C   UNL     1       4.874 -14.187  -5.380  1.00  0.00     0.059 A 
ATOM    101  C   UNL     1       4.026 -16.413  -5.793  1.00  0.00     0.059 A 
ATOM    102  F   UNL     1       1.793 -16.926  -5.297  1.00  0.00    -0.206 F 
ATOM    103  C   UNL     1       5.073 -15.495  -5.815  1.00  0.00     0.060 A 
BRANCH 103 104
ATOM    104  S   UNL     1       6.731 -16.004  -6.319  1.00  0.00     0.124 S 
ATOM    105  O   UNL     1       6.875 -15.341  -7.611  1.00  0.00    -0.237 OA
ATOM    106  O   UNL     1       7.567 -15.480  -5.242  1.00  0.00    -0.237 OA
ATOM    107  O   UNL     1       6.639 -17.461  -6.370  1.00  0.00    -0.744 OA
ENDBRANCH 103 104
ENDBRANCH  71  96
ENDBRANCH  45  46
ENDBRANCH  37  40
ENDBRANCH  35  36
ENDBRANCH  34  35
ENDBRANCH  33  34
ENDBRANCH  32  33
ENDBRANCH   1  32
TORSDOF 22
