REMARK SMILES O=C(NCCCCCCNC(=O)c1ccc(-c2c3nc(c(-c4c(F)cc(S(=O)(=O)[O-])cc4F)c4ccc([nH]4)c(-c4c(F)cc(S(=O)(=O)[O-])cc4F)c4nc(c(-c5c(F)cc(S(=O)(=O)[O-])cc5F)c5ccc2[nH]5)C=C4)C=C3)cc1)C1=Cc2c(cc(Cl)c(Cl)c2Cl)O[C@H]1C(F)(F)F
REMARK SMILES IDX 7 1 6 2 5 3 4 4 3 5 1 6 2 7 79 9 80 10 91 11 81 12 90 13
REMARK SMILES IDX 82 14 88 15 83 16 86 17 89 18 84 19 87 20 85 21 92 22 93 23
REMARK SMILES IDX 94 24 95 25 8 26 9 27 10 28 11 29 12 31 13 32 14 33 78 34
REMARK SMILES IDX 15 35 77 36 16 37 17 38 18 39 71 40 19 41 76 42 70 43 72 44
REMARK SMILES IDX 20 45 75 46 69 47 68 48 21 50 55 51 34 52 54 53 35 54 38 55
REMARK SMILES IDX 53 56 73 57 36 58 37 59 52 61 74 62 39 63 22 64 23 65 32 66
REMARK SMILES IDX 24 67 25 68 31 69 33 70 26 71 27 72 28 73 29 74 30 75 56 76
REMARK SMILES IDX 57 77 66 78 58 79 59 80 65 81 67 82 60 83 61 84 62 85 63 86
REMARK SMILES IDX 64 87 40 88 41 89 50 90 42 91 43 92 49 93 51 94 44 95 45 96
REMARK SMILES IDX 46 97 47 98 48 99
REMARK H PARENT 3 8 10 30 72 49 38 60
REMARK Flexibility Score: inf
ROOT
ATOM      1  C   UNL     1       4.236  -2.239   4.005  1.00  0.00     0.002 C 
ENDROOT
BRANCH   1   2
ATOM      2  C   UNL     1       3.576  -0.870   4.221  1.00  0.00     0.002 C 
BRANCH   2   3
ATOM      3  C   UNL     1       3.921   0.241   3.228  1.00  0.00     0.021 C 
BRANCH   3   4
ATOM      4  C   UNL     1       3.748  -0.108   1.757  1.00  0.00     0.116 C 
BRANCH   4   5
ATOM      5  N   UNL     1       2.399   0.025   1.219  1.00  0.00    -0.352 N 
ATOM      6  O   UNL     1       0.916   0.214  -0.513  1.00  0.00    -0.270 OA
ATOM      7  C   UNL     1       2.057   0.037  -0.121  1.00  0.00     0.251 C 
ATOM      8  H   UNL     1       1.665   0.115   1.868  1.00  0.00     0.163 HD
BRANCH   7   9
ATOM      9  C   UNL     1       3.192  -0.138  -1.061  1.00  0.00     0.067 C 
ATOM     10  C   UNL     1       3.724  -1.365  -1.091  1.00  0.00     0.027 C 
ATOM     11  C   UNL     1       3.894   1.112  -1.488  1.00  0.00     0.314 C 
ATOM     12  C   UNL     1       5.191  -1.433  -1.158  1.00  0.00     0.037 A 
ATOM     13  O   UNL     1       5.339   1.008  -1.426  1.00  0.00    -0.475 OA
ATOM     14  C   UNL     1       5.903  -0.224  -1.215  1.00  0.00     0.131 A 
ATOM     15  C   UNL     1       5.889  -2.628  -0.861  1.00  0.00     0.072 A 
ATOM     16  C   UNL     1       7.268  -0.196  -0.932  1.00  0.00     0.069 A 
ATOM     17  C   UNL     1       7.258  -2.590  -0.531  1.00  0.00     0.079 A 
ATOM     18  Cl  UNL     1       5.025  -4.144  -0.813  1.00  0.00    -0.082 Cl
ATOM     19  C   UNL     1       7.934  -1.363  -0.555  1.00  0.00     0.064 A 
ATOM     20  Cl  UNL     1       8.080  -4.027  -0.007  1.00  0.00    -0.081 Cl
ATOM     21  Cl  UNL     1       9.581  -1.197  -0.057  1.00  0.00    -0.083 Cl
BRANCH  11  22
ATOM     22  C   UNL     1       3.445   1.616  -2.870  1.00  0.00     0.429 C 
ATOM     23  F   UNL     1       2.166   1.288  -3.160  1.00  0.00    -0.167 F 
ATOM     24  F   UNL     1       3.523   2.970  -2.929  1.00  0.00    -0.167 F 
ATOM     25  F   UNL     1       4.218   1.127  -3.868  1.00  0.00    -0.167 F 
ENDBRANCH  11  22
ENDBRANCH   7   9
ENDBRANCH   4   5
ENDBRANCH   3   4
ENDBRANCH   2   3
ENDBRANCH   1   2
BRANCH   1  26
ATOM     26  C   UNL     1       5.750  -2.277   3.759  1.00  0.00     0.021 C 
BRANCH  26  27
ATOM     27  C   UNL     1       6.646  -1.630   4.815  1.00  0.00     0.116 C 
BRANCH  27  28
ATOM     28  N   UNL     1       6.497  -2.215   6.133  1.00  0.00    -0.352 N 
ATOM     29  C   UNL     1       7.434  -2.647   7.040  1.00  0.00     0.251 C 
ATOM     30  H   UNL     1       5.564  -2.320   6.429  1.00  0.00     0.163 HD
ATOM     31  O   UNL     1       7.041  -3.196   8.068  1.00  0.00    -0.269 OA
BRANCH  29  32
ATOM     32  C   UNL     1       8.895  -2.498   6.808  1.00  0.00     0.039 A 
ATOM     33  C   UNL     1       9.736  -3.536   7.234  1.00  0.00     0.014 A 
ATOM     34  C   UNL     1       9.463  -1.347   6.256  1.00  0.00     0.014 A 
ATOM     35  C   UNL     1      11.121  -3.446   7.059  1.00  0.00     0.010 A 
ATOM     36  C   UNL     1      10.844  -1.275   6.039  1.00  0.00     0.010 A 
ATOM     37  C   UNL     1      11.688  -2.324   6.438  1.00  0.00    -0.014 A 
BRANCH  37  38
ATOM     38  C   UNL     1      13.153  -2.239   6.202  1.00  0.00     0.031 A 
ATOM     39  C   UNL     1      13.998  -1.256   6.964  1.00  0.00     0.074 A 
ATOM     40  C   UNL     1      13.726  -3.019   5.264  1.00  0.00     0.049 A 
ATOM     41  N   UNL     1      15.274  -0.988   6.835  1.00  0.00    -0.248 NA
ATOM     42  C   UNL     1      13.317  -0.458   7.994  1.00  0.00     0.031 C 
ATOM     43  C   UNL     1      13.022  -3.993   4.429  1.00  0.00     0.029 A 
ATOM     44  N   UNL     1      15.032  -3.105   4.847  1.00  0.00    -0.354 N 
ATOM     45  C   UNL     1      15.545   0.023   7.749  1.00  0.00     0.074 A 
ATOM     46  C   UNL     1      14.295   0.333   8.414  1.00  0.00     0.031 C 
ATOM     47  C   UNL     1      13.903  -4.582   3.604  1.00  0.00     0.029 A 
ATOM     48  C   UNL     1      15.229  -4.013   3.835  1.00  0.00     0.049 A 
ATOM     49  H   UNL     1      15.758  -2.567   5.237  1.00  0.00     0.167 HD
ATOM     50  C   UNL     1      16.725   0.634   8.017  1.00  0.00     0.037 A 
ATOM     51  C   UNL     1      16.346  -4.346   3.161  1.00  0.00     0.037 A 
ATOM     52  C   UNL     1      17.977   0.314   7.383  1.00  0.00     0.049 A 
ATOM     53  C   UNL     1      17.651  -3.687   3.503  1.00  0.00     0.074 A 
ATOM     54  C   UNL     1      19.227   0.864   7.614  1.00  0.00     0.029 A 
ATOM     55  N   UNL     1      18.141  -0.646   6.397  1.00  0.00    -0.354 N 
ATOM     56  N   UNL     1      17.891  -2.747   4.385  1.00  0.00    -0.248 NA
ATOM     57  C   UNL     1      18.839  -4.137   2.763  1.00  0.00     0.031 C 
ATOM     58  C   UNL     1      20.146   0.243   6.759  1.00  0.00     0.029 A 
ATOM     59  C   UNL     1      19.470  -0.705   6.008  1.00  0.00     0.049 A 
ATOM     60  H   UNL     1      17.420  -1.204   6.026  1.00  0.00     0.167 HD
ATOM     61  C   UNL     1      19.256  -2.497   4.311  1.00  0.00     0.074 A 
ATOM     62  C   UNL     1      19.794  -3.393   3.307  1.00  0.00     0.031 C 
ATOM     63  C   UNL     1      19.994  -1.602   5.011  1.00  0.00     0.037 A 
BRANCH  50  64
ATOM     64  C   UNL     1      16.706   1.724   9.047  1.00  0.00     0.058 A 
ATOM     65  C   UNL     1      16.654   1.432  10.419  1.00  0.00     0.135 A 
ATOM     66  C   UNL     1      16.736   3.073   8.661  1.00  0.00     0.135 A 
ATOM     67  F   UNL     1      16.610   0.157  10.837  1.00  0.00    -0.206 F 
ATOM     68  C   UNL     1      16.597   2.442  11.374  1.00  0.00     0.059 A 
ATOM     69  C   UNL     1      16.696   4.099   9.599  1.00  0.00     0.059 A 
ATOM     70  F   UNL     1      16.785   3.402   7.361  1.00  0.00    -0.206 F 
ATOM     71  C   UNL     1      16.605   3.773  10.953  1.00  0.00     0.060 A 
BRANCH  71  72
ATOM     72  S   UNL     1      16.495   5.084  12.189  1.00  0.00     0.124 S 
ATOM     73  O   UNL     1      15.053   5.159  12.401  1.00  0.00    -0.237 OA
ATOM     74  O   UNL     1      17.270   4.544  13.302  1.00  0.00    -0.237 OA
ATOM     75  O   UNL     1      17.093   6.231  11.514  1.00  0.00    -0.744 OA
ENDBRANCH  71  72
ENDBRANCH  50  64
BRANCH  51  76
ATOM     76  C   UNL     1      16.274  -5.375   2.095  1.00  0.00     0.058 A 
ATOM     77  C   UNL     1      16.694  -6.690   2.338  1.00  0.00     0.135 A 
ATOM     78  C   UNL     1      15.746  -5.072   0.832  1.00  0.00     0.135 A 
ATOM     79  F   UNL     1      17.211  -7.019   3.531  1.00  0.00    -0.206 F 
ATOM     80  C   UNL     1      16.594  -7.675   1.362  1.00  0.00     0.059 A 
ATOM     81  C   UNL     1      15.623  -6.043  -0.156  1.00  0.00     0.059 A 
ATOM     82  F   UNL     1      15.322  -3.828   0.562  1.00  0.00    -0.206 F 
ATOM     83  C   UNL     1      16.054  -7.342   0.118  1.00  0.00     0.060 A 
BRANCH  83  84
ATOM     84  S   UNL     1      15.850  -8.638  -1.124  1.00  0.00     0.124 S 
ATOM     85  O   UNL     1      17.181  -8.689  -1.715  1.00  0.00    -0.237 OA
ATOM     86  O   UNL     1      15.467  -9.792  -0.315  1.00  0.00    -0.237 OA
ATOM     87  O   UNL     1      14.793  -8.109  -1.981  1.00  0.00    -0.744 OA
ENDBRANCH  83  84
ENDBRANCH  51  76
BRANCH  63  88
ATOM     88  C   UNL     1      21.466  -1.555   4.725  1.00  0.00     0.058 A 
ATOM     89  C   UNL     1      21.970  -0.869   3.610  1.00  0.00     0.135 A 
ATOM     90  C   UNL     1      22.383  -2.167   5.593  1.00  0.00     0.135 A 
ATOM     91  F   UNL     1      21.131  -0.274   2.748  1.00  0.00    -0.206 F 
ATOM     92  C   UNL     1      23.337  -0.802   3.357  1.00  0.00     0.059 A 
ATOM     93  C   UNL     1      23.755  -2.102   5.366  1.00  0.00     0.059 A 
ATOM     94  F   UNL     1      21.949  -2.832   6.676  1.00  0.00    -0.206 F 
ATOM     95  C   UNL     1      24.221  -1.425   4.239  1.00  0.00     0.060 A 
BRANCH  95  96
ATOM     96  S   UNL     1      25.997  -1.308   3.928  1.00  0.00     0.124 S 
ATOM     97  O   UNL     1      26.196  -2.381   2.959  1.00  0.00    -0.237 OA
ATOM     98  O   UNL     1      26.143   0.049   3.410  1.00  0.00    -0.237 OA
ATOM     99  O   UNL     1      26.583  -1.533   5.247  1.00  0.00    -0.744 OA
ENDBRANCH  95  96
ENDBRANCH  63  88
ENDBRANCH  37  38
ENDBRANCH  29  32
ENDBRANCH  27  28
ENDBRANCH  26  27
ENDBRANCH   1  26
TORSDOF 17
