REMARK SMILES CCCCCCNC(=O)Nc1cccc(-c2ccc([C@@H](C)C(=O)NCCCCCCNC(=O)c3ccc(-c4c5nc(c(-c6c(F)cc(S(=O)(=O)[O-])cc6F)c6ccc([nH]6)c(-c6c(F)cc(S(=O)(=O)[O-])cc6F)c6nc(c(-c7c(F)cc(S(=O)(=O)[O-])cc7F)c7ccc4[nH]7)C=C6)C=C5)cc3)cc2F)c1
REMARK SMILES IDX 25 1 24 2 22 3 23 4 20 6 21 7 19 8 16 9 17 10 101 11 18 12
REMARK SMILES IDX 100 13 102 14 15 15 11 16 12 17 103 18 13 19 14 20 10 21
REMARK SMILES IDX 7 22 8 23 9 25 6 27 5 28 4 29 3 30 2 31 1 32 26 33 27 34
REMARK SMILES IDX 28 35 29 36 30 37 31 38 32 39 33 41 34 42 35 43 99 44 36 45
REMARK SMILES IDX 98 46 37 47 38 48 39 49 92 50 40 51 97 52 91 53 93 54 41 55
REMARK SMILES IDX 96 56 90 57 89 58 42 60 76 61 55 62 75 63 56 64 59 65 74 66
REMARK SMILES IDX 94 67 57 68 58 69 73 71 95 72 60 73 43 74 44 75 53 76 45 77
REMARK SMILES IDX 46 78 52 79 54 80 47 81 48 82 49 83 50 84 51 85 77 86 78 87
REMARK SMILES IDX 87 88 79 89 80 90 86 91 88 92 81 93 82 94 83 95 84 96 85 97
REMARK SMILES IDX 61 98 62 99 71 100 63 101 64 102 70 103 72 104 65 105 66 106
REMARK SMILES IDX 67 107 68 108 69 109
REMARK H PARENT 24 5 7 24 10 26 31 40 93 59 59 70
REMARK Flexibility Score: inf
ROOT
ATOM      1  C   UNL     1      -0.847   0.601  -4.721  1.00  0.00     0.116 C 
ENDROOT
BRANCH   1   2
ATOM      2  N   UNL     1      -0.329  -0.623  -5.299  1.00  0.00    -0.356 N 
ATOM      3  C   UNL     1      -0.923  -1.808  -5.600  1.00  0.00     0.227 C 
ATOM      4  O   UNL     1      -0.167  -2.727  -5.937  1.00  0.00    -0.274 OA
ATOM      5  H   UNL     1       0.631  -0.590  -5.513  1.00  0.00     0.163 HD
BRANCH   3   6
ATOM      6  C   UNL     1      -2.440  -2.043  -5.565  1.00  0.00     0.105 C 
ATOM      7  C   UNL     1      -3.257  -1.057  -6.400  1.00  0.00     0.023 C 
BRANCH   6   8
ATOM      8  C   UNL     1      -3.005  -2.339  -4.183  1.00  0.00    -0.033 A 
ATOM      9  C   UNL     1      -4.060  -2.979  -1.597  1.00  0.00     0.018 A 
ATOM     10  C   UNL     1      -3.826  -1.652  -1.992  1.00  0.00     0.012 A 
ATOM     11  C   UNL     1      -3.755  -3.975  -2.533  1.00  0.00     0.131 A 
ATOM     12  C   UNL     1      -3.335  -1.339  -3.265  1.00  0.00     0.005 A 
ATOM     13  C   UNL     1      -3.227  -3.669  -3.793  1.00  0.00     0.044 A 
ATOM     14  F   UNL     1      -3.969  -5.268  -2.243  1.00  0.00    -0.206 F 
BRANCH   9  15
ATOM     15  C   UNL     1      -4.559  -3.271  -0.237  1.00  0.00    -0.013 A 
ATOM     16  C   UNL     1      -4.293  -4.413   1.906  1.00  0.00     0.043 A 
ATOM     17  C   UNL     1      -5.328  -3.662   2.459  1.00  0.00     0.026 A 
ATOM     18  C   UNL     1      -3.970  -4.274   0.549  1.00  0.00     0.035 A 
ATOM     19  C   UNL     1      -5.947  -2.681   1.690  1.00  0.00     0.003 A 
ATOM     20  C   UNL     1      -5.555  -2.478   0.363  1.00  0.00     0.009 A 
BRANCH  16  21
ATOM     21  N   UNL     1      -3.539  -5.220   2.769  1.00  0.00    -0.308 N 
ATOM     22  N   UNL     1      -1.299  -4.675   2.223  1.00  0.00    -0.338 N 
ATOM     23  C   UNL     1      -2.216  -5.516   2.760  1.00  0.00     0.319 C 
ATOM     24  H   UNL     1      -0.402  -5.066   2.113  1.00  0.00     0.165 HD
ATOM     25  O   UNL     1      -1.814  -6.526   3.341  1.00  0.00    -0.249 OA
ATOM     26  H   UNL     1      -4.052  -5.639   3.497  1.00  0.00     0.171 HD
BRANCH  22  27
ATOM     27  C   UNL     1      -1.413  -3.294   1.782  1.00  0.00     0.117 C 
BRANCH  27  28
ATOM     28  C   UNL     1      -0.452  -2.343   2.482  1.00  0.00     0.021 C 
BRANCH  28  29
ATOM     29  C   UNL     1       1.025  -2.535   2.145  1.00  0.00     0.002 C 
BRANCH  29  30
ATOM     30  C   UNL     1       1.391  -2.437   0.659  1.00  0.00    -0.000 C 
BRANCH  30  31
ATOM     31  C   UNL     1       0.820  -1.233  -0.091  1.00  0.00    -0.003 C 
ATOM     32  C   UNL     1       1.176   0.107   0.531  1.00  0.00     0.004 C 
ENDBRANCH  30  31
ENDBRANCH  29  30
ENDBRANCH  28  29
ENDBRANCH  27  28
ENDBRANCH  22  27
ENDBRANCH  16  21
ENDBRANCH   9  15
ENDBRANCH   6   8
ENDBRANCH   3   6
ENDBRANCH   1   2
BRANCH   1  33
ATOM     33  C   UNL     1      -0.454   0.715  -3.248  1.00  0.00     0.021 C 
BRANCH  33  34
ATOM     34  C   UNL     1       0.896   1.407  -3.041  1.00  0.00     0.002 C 
BRANCH  34  35
ATOM     35  C   UNL     1       0.923   2.899  -3.388  1.00  0.00     0.002 C 
BRANCH  35  36
ATOM     36  C   UNL     1      -0.149   3.763  -2.716  1.00  0.00     0.021 C 
BRANCH  36  37
ATOM     37  C   UNL     1      -0.188   3.699  -1.190  1.00  0.00     0.116 C 
BRANCH  37  38
ATOM     38  N   UNL     1       1.079   4.079  -0.589  1.00  0.00    -0.352 N 
ATOM     39  C   UNL     1       1.366   5.106   0.276  1.00  0.00     0.251 C 
ATOM     40  H   UNL     1       1.847   3.516  -0.840  1.00  0.00     0.163 HD
ATOM     41  O   UNL     1       2.533   5.407   0.501  1.00  0.00    -0.269 OA
BRANCH  39  42
ATOM     42  C   UNL     1       0.268   5.855   0.925  1.00  0.00     0.039 A 
ATOM     43  C   UNL     1       0.331   7.250   0.964  1.00  0.00     0.014 A 
ATOM     44  C   UNL     1      -0.809   5.184   1.512  1.00  0.00     0.014 A 
ATOM     45  C   UNL     1      -0.717   7.974   1.538  1.00  0.00     0.010 A 
ATOM     46  C   UNL     1      -1.884   5.909   2.024  1.00  0.00     0.010 A 
ATOM     47  C   UNL     1      -1.849   7.311   2.043  1.00  0.00    -0.014 A 
BRANCH  47  48
ATOM     48  C   UNL     1      -3.011   8.077   2.567  1.00  0.00     0.031 A 
ATOM     49  C   UNL     1      -3.405   7.978   4.016  1.00  0.00     0.074 A 
ATOM     50  C   UNL     1      -3.746   8.823   1.720  1.00  0.00     0.049 A 
ATOM     51  N   UNL     1      -4.395   8.561   4.643  1.00  0.00    -0.248 NA
ATOM     52  C   UNL     1      -2.597   7.090   4.864  1.00  0.00     0.031 C 
ATOM     53  C   UNL     1      -3.496   8.961   0.283  1.00  0.00     0.029 A 
ATOM     54  N   UNL     1      -4.852   9.605   1.940  1.00  0.00    -0.354 N 
ATOM     55  C   UNL     1      -4.336   8.104   5.955  1.00  0.00     0.074 A 
ATOM     56  C   UNL     1      -3.247   7.153   6.017  1.00  0.00     0.031 C 
ATOM     57  C   UNL     1      -4.399   9.805  -0.241  1.00  0.00     0.029 A 
ATOM     58  C   UNL     1      -5.314  10.238   0.810  1.00  0.00     0.049 A 
ATOM     59  H   UNL     1      -5.275   9.704   2.823  1.00  0.00     0.167 HD
ATOM     60  C   UNL     1      -5.103   8.461   7.014  1.00  0.00     0.037 A 
ATOM     61  C   UNL     1      -6.357  11.074   0.637  1.00  0.00     0.037 A 
ATOM     62  C   UNL     1      -6.180   9.416   6.945  1.00  0.00     0.049 A 
ATOM     63  C   UNL     1      -7.203  11.447   1.823  1.00  0.00     0.074 A 
ATOM     64  C   UNL     1      -6.975   9.894   7.972  1.00  0.00     0.029 A 
ATOM     65  N   UNL     1      -6.623  10.031   5.781  1.00  0.00    -0.354 N 
ATOM     66  N   UNL     1      -7.085  11.065   3.072  1.00  0.00    -0.248 NA
ATOM     67  C   UNL     1      -8.320  12.368   1.576  1.00  0.00     0.031 C 
ATOM     68  C   UNL     1      -7.934  10.753   7.422  1.00  0.00     0.029 A 
ATOM     69  C   UNL     1      -7.701  10.857   6.060  1.00  0.00     0.049 A 
ATOM     70  H   UNL     1      -6.229   9.899   4.889  1.00  0.00     0.167 HD
ATOM     71  C   UNL     1      -8.099  11.717   3.766  1.00  0.00     0.074 A 
ATOM     72  C   UNL     1      -8.809  12.529   2.798  1.00  0.00     0.031 C 
ATOM     73  C   UNL     1      -8.409  11.652   5.085  1.00  0.00     0.037 A 
BRANCH  60  74
ATOM     74  C   UNL     1      -4.811   7.799   8.335  1.00  0.00     0.058 A 
ATOM     75  C   UNL     1      -3.623   8.049   9.043  1.00  0.00     0.135 A 
ATOM     76  C   UNL     1      -5.731   6.904   8.905  1.00  0.00     0.135 A 
ATOM     77  F   UNL     1      -2.701   8.887   8.543  1.00  0.00    -0.206 F 
ATOM     78  C   UNL     1      -3.336   7.399  10.239  1.00  0.00     0.059 A 
ATOM     79  C   UNL     1      -5.480   6.268  10.117  1.00  0.00     0.059 A 
ATOM     80  F   UNL     1      -6.886   6.631   8.278  1.00  0.00    -0.206 F 
ATOM     81  C   UNL     1      -4.268   6.503  10.764  1.00  0.00     0.060 A 
BRANCH  81  82
ATOM     82  S   UNL     1      -3.866   5.641  12.299  1.00  0.00     0.124 S 
ATOM     83  O   UNL     1      -2.863   4.685  11.838  1.00  0.00    -0.237 OA
ATOM     84  O   UNL     1      -3.371   6.721  13.145  1.00  0.00    -0.237 OA
ATOM     85  O   UNL     1      -5.142   5.061  12.707  1.00  0.00    -0.744 OA
ENDBRANCH  81  82
ENDBRANCH  60  74
BRANCH  61  86
ATOM     86  C   UNL     1      -6.625  11.645  -0.709  1.00  0.00     0.058 A 
ATOM     87  C   UNL     1      -6.370  12.997  -0.979  1.00  0.00     0.135 A 
ATOM     88  C   UNL     1      -7.096  10.845  -1.762  1.00  0.00     0.135 A 
ATOM     89  F   UNL     1      -5.928  13.803  -0.002  1.00  0.00    -0.206 F 
ATOM     90  C   UNL     1      -6.572  13.539  -2.244  1.00  0.00     0.059 A 
ATOM     91  C   UNL     1      -7.282  11.357  -3.042  1.00  0.00     0.059 A 
ATOM     92  F   UNL     1      -7.340   9.541  -1.559  1.00  0.00    -0.206 F 
ATOM     93  C   UNL     1      -7.019  12.707  -3.272  1.00  0.00     0.060 A 
BRANCH  93  94
ATOM     94  S   UNL     1      -7.196  13.402  -4.930  1.00  0.00     0.124 S 
ATOM     95  O   UNL     1      -8.373  14.248  -4.770  1.00  0.00    -0.237 OA
ATOM     96  O   UNL     1      -5.926  14.099  -5.105  1.00  0.00    -0.237 OA
ATOM     97  O   UNL     1      -7.376  12.222  -5.770  1.00  0.00    -0.744 OA
ENDBRANCH  93  94
ENDBRANCH  61  86
BRANCH  73  98
ATOM     98  C   UNL     1      -9.559  12.496   5.565  1.00  0.00     0.058 A 
ATOM     99  C   UNL     1     -10.889  12.191   5.235  1.00  0.00     0.135 A 
ATOM    100  C   UNL     1      -9.331  13.607   6.395  1.00  0.00     0.135 A 
ATOM    101  F   UNL     1     -11.165  11.145   4.439  1.00  0.00    -0.206 F 
ATOM    102  C   UNL     1     -11.949  12.973   5.684  1.00  0.00     0.059 A 
ATOM    103  C   UNL     1     -10.377  14.385   6.881  1.00  0.00     0.059 A 
ATOM    104  F   UNL     1      -8.079  13.938   6.751  1.00  0.00    -0.206 F 
ATOM    105  C   UNL     1     -11.682  14.069   6.507  1.00  0.00     0.060 A 
BRANCH 105 106
ATOM    106  S   UNL     1     -13.067  15.064   7.099  1.00  0.00     0.124 S 
ATOM    107  O   UNL     1     -13.447  15.788   5.891  1.00  0.00    -0.237 OA
ATOM    108  O   UNL     1     -14.011  14.046   7.552  1.00  0.00    -0.237 OA
ATOM    109  O   UNL     1     -12.475  15.876   8.158  1.00  0.00    -0.744 OA
ENDBRANCH 105 106
ENDBRANCH  73  98
ENDBRANCH  47  48
ENDBRANCH  39  42
ENDBRANCH  37  38
ENDBRANCH  36  37
ENDBRANCH  35  36
ENDBRANCH  34  35
ENDBRANCH  33  34
ENDBRANCH   1  33
TORSDOF 24
