REMARK SMILES COc1ccc(C(=O)N[C@H](C(=O)NCCCCCCNC(=O)c2ccc(-c3c4nc(c(-c5c(F)cc(S(=O)(=O)[O-])cc5F)c5ccc([nH]5)c(-c5c(F)cc(S(=O)(=O)[O-])cc5F)c5nc(c(-c6c(F)cc(S(=O)(=O)[O-])cc6F)c6ccc3[nH]6)C=C5)C=C4)cc2)C2=C(C)N=N[C@H]2C)c(F)c1F
REMARK SMILES IDX 16 1 15 2 14 3 13 4 11 5 12 6 10 8 9 9 7 10 8 11 6 13 3 14
REMARK SMILES IDX 4 15 98 16 5 17 96 18 99 19 97 20 2 21 1 22 89 23 90 24
REMARK SMILES IDX 94 25 91 26 92 27 93 28 95 29 17 30 18 31 19 32 20 33 21 34
REMARK SMILES IDX 22 36 23 37 24 38 88 39 25 40 87 41 26 42 27 43 28 44 81 45
REMARK SMILES IDX 29 46 86 47 80 48 82 49 30 50 85 51 79 52 78 53 31 55 65 56
REMARK SMILES IDX 44 57 64 58 45 59 48 60 63 61 83 62 46 63 47 64 62 66 84 67
REMARK SMILES IDX 49 68 32 69 33 70 42 71 34 72 35 73 41 74 43 75 36 76 37 77
REMARK SMILES IDX 38 78 39 79 40 80 66 81 67 82 76 83 68 84 69 85 75 86 77 87
REMARK SMILES IDX 70 88 71 89 72 90 73 91 74 92 50 93 51 94 60 95 52 96 53 97
REMARK SMILES IDX 59 98 61 99 54 100 55 101 56 102 57 103 58 104
REMARK H PARENT 13 7 9 12 20 35 82 54 48 65
REMARK Flexibility Score: inf
ROOT
ATOM      1  C   UNL     1       4.524   0.583   5.962  1.00  0.00     0.002 C 
ENDROOT
BRANCH   1   2
ATOM      2  C   UNL     1       3.064   1.016   6.111  1.00  0.00     0.021 C 
BRANCH   2   3
ATOM      3  C   UNL     1       2.047  -0.070   5.777  1.00  0.00     0.116 C 
BRANCH   3   4
ATOM      4  N   UNL     1       2.017  -1.121   6.778  1.00  0.00    -0.354 N 
ATOM      5  C   UNL     1       0.953  -1.765   7.347  1.00  0.00     0.247 C 
ATOM      6  O   UNL     1       1.200  -2.692   8.124  1.00  0.00    -0.272 OA
ATOM      7  H   UNL     1       2.901  -1.417   7.096  1.00  0.00     0.163 HD
BRANCH   5   8
ATOM      8  C   UNL     1      -0.497  -1.322   7.025  1.00  0.00     0.202 C 
BRANCH   8   9
ATOM      9  N   UNL     1      -1.355  -2.471   6.718  1.00  0.00    -0.336 N 
ATOM     10  C   UNL     1      -1.385  -3.389   5.699  1.00  0.00     0.255 C 
ATOM     11  O   UNL     1      -2.280  -4.236   5.738  1.00  0.00    -0.269 OA
ATOM     12  H   UNL     1      -2.063  -2.615   7.388  1.00  0.00     0.165 HD
BRANCH  10  13
ATOM     13  C   UNL     1      -0.391  -3.497   4.601  1.00  0.00     0.078 A 
ATOM     14  C   UNL     1       1.431  -3.898   2.483  1.00  0.00     0.157 A 
ATOM     15  C   UNL     1       0.797  -4.991   3.062  1.00  0.00     0.050 A 
ATOM     16  C   UNL     1       1.148  -2.618   2.951  1.00  0.00     0.201 A 
ATOM     17  C   UNL     1      -0.107  -4.791   4.114  1.00  0.00     0.021 A 
ATOM     18  C   UNL     1       0.206  -2.420   3.961  1.00  0.00     0.175 A 
ATOM     19  F   UNL     1       1.781  -1.554   2.432  1.00  0.00    -0.200 F 
ATOM     20  F   UNL     1      -0.145  -1.160   4.238  1.00  0.00    -0.203 F 
BRANCH  14  21
ATOM     21  O   UNL     1       2.364  -4.131   1.513  1.00  0.00    -0.494 OA
ATOM     22  C   UNL     1       1.951  -3.628   0.239  1.00  0.00     0.278 C 
ENDBRANCH  14  21
ENDBRANCH  10  13
ENDBRANCH   8   9
BRANCH   8  23
ATOM     23  C   UNL     1      -1.048  -0.568   8.206  1.00  0.00     0.011 C 
ATOM     24  C   UNL     1      -1.576  -0.937   9.382  1.00  0.00     0.064 C 
ATOM     25  C   UNL     1      -1.129   0.931   8.215  1.00  0.00     0.156 C 
ATOM     26  C   UNL     1      -1.759  -2.288   9.981  1.00  0.00     0.069 C 
ATOM     27  N   UNL     1      -2.011   0.134  10.124  1.00  0.00    -0.160 NA
ATOM     28  N   UNL     1      -1.810   1.210   9.506  1.00  0.00    -0.181 NA
ATOM     29  C   UNL     1       0.204   1.664   8.238  1.00  0.00     0.040 C 
ENDBRANCH   8  23
ENDBRANCH   5   8
ENDBRANCH   3   4
ENDBRANCH   2   3
ENDBRANCH   1   2
BRANCH   1  30
ATOM     30  C   UNL     1       4.916   0.071   4.572  1.00  0.00     0.002 C 
BRANCH  30  31
ATOM     31  C   UNL     1       4.577   1.005   3.409  1.00  0.00     0.021 C 
BRANCH  31  32
ATOM     32  C   UNL     1       5.087   2.434   3.558  1.00  0.00     0.116 C 
BRANCH  32  33
ATOM     33  N   UNL     1       6.529   2.494   3.728  1.00  0.00    -0.352 N 
ATOM     34  C   UNL     1       7.450   3.253   3.047  1.00  0.00     0.251 C 
ATOM     35  H   UNL     1       6.897   1.909   4.428  1.00  0.00     0.163 HD
ATOM     36  O   UNL     1       8.648   3.056   3.205  1.00  0.00    -0.269 OA
BRANCH  34  37
ATOM     37  C   UNL     1       6.979   4.291   2.107  1.00  0.00     0.039 A 
ATOM     38  C   UNL     1       7.550   4.359   0.835  1.00  0.00     0.014 A 
ATOM     39  C   UNL     1       5.965   5.181   2.476  1.00  0.00     0.014 A 
ATOM     40  C   UNL     1       7.063   5.285  -0.090  1.00  0.00     0.010 A 
ATOM     41  C   UNL     1       5.430   6.048   1.529  1.00  0.00     0.010 A 
ATOM     42  C   UNL     1       5.976   6.113   0.238  1.00  0.00    -0.014 A 
BRANCH  42  43
ATOM     43  C   UNL     1       5.402   7.058  -0.752  1.00  0.00     0.031 A 
ATOM     44  C   UNL     1       5.457   8.540  -0.500  1.00  0.00     0.074 A 
ATOM     45  C   UNL     1       4.782   6.580  -1.849  1.00  0.00     0.049 A 
ATOM     46  N   UNL     1       4.963   9.519  -1.213  1.00  0.00    -0.248 NA
ATOM     47  C   UNL     1       6.134   8.976   0.732  1.00  0.00     0.031 C 
ATOM     48  C   UNL     1       4.634   5.163  -2.186  1.00  0.00     0.029 A 
ATOM     49  N   UNL     1       4.156   7.233  -2.881  1.00  0.00    -0.354 N 
ATOM     50  C   UNL     1       5.265  10.684  -0.516  1.00  0.00     0.074 A 
ATOM     51  C   UNL     1       5.922  10.283   0.709  1.00  0.00     0.031 C 
ATOM     52  C   UNL     1       3.993   5.055  -3.361  1.00  0.00     0.029 A 
ATOM     53  C   UNL     1       3.644   6.390  -3.838  1.00  0.00     0.049 A 
ATOM     54  H   UNL     1       4.082   8.213  -2.932  1.00  0.00     0.167 HD
ATOM     55  C   UNL     1       5.040  11.970  -0.877  1.00  0.00     0.037 A 
ATOM     56  C   UNL     1       2.966   6.661  -4.971  1.00  0.00     0.037 A 
ATOM     57  C   UNL     1       4.389  12.359  -2.101  1.00  0.00     0.049 A 
ATOM     58  C   UNL     1       2.689   8.095  -5.331  1.00  0.00     0.074 A 
ATOM     59  C   UNL     1       4.142  13.634  -2.579  1.00  0.00     0.029 A 
ATOM     60  N   UNL     1       3.873  11.475  -3.039  1.00  0.00    -0.354 N 
ATOM     61  N   UNL     1       3.027   9.188  -4.688  1.00  0.00    -0.248 NA
ATOM     62  C   UNL     1       1.941   8.335  -6.573  1.00  0.00     0.031 C 
ATOM     63  C   UNL     1       3.430  13.521  -3.778  1.00  0.00     0.029 A 
ATOM     64  C   UNL     1       3.286  12.176  -4.080  1.00  0.00     0.049 A 
ATOM     65  H   UNL     1       3.917  10.494  -2.974  1.00  0.00     0.167 HD
ATOM     66  C   UNL     1       2.562  10.245  -5.463  1.00  0.00     0.074 A 
ATOM     67  C   UNL     1       1.925   9.660  -6.626  1.00  0.00     0.031 C 
ATOM     68  C   UNL     1       2.659  11.579  -5.235  1.00  0.00     0.037 A 
BRANCH  55  69
ATOM     69  C   UNL     1       5.501  13.044   0.074  1.00  0.00     0.058 A 
ATOM     70  C   UNL     1       6.865  13.276   0.320  1.00  0.00     0.135 A 
ATOM     71  C   UNL     1       4.572  13.850   0.751  1.00  0.00     0.135 A 
ATOM     72  F   UNL     1       7.800  12.529  -0.289  1.00  0.00    -0.206 F 
ATOM     73  C   UNL     1       7.289  14.229   1.241  1.00  0.00     0.059 A 
ATOM     74  C   UNL     1       4.974  14.834   1.650  1.00  0.00     0.059 A 
ATOM     75  F   UNL     1       3.255  13.678   0.552  1.00  0.00    -0.206 F 
ATOM     76  C   UNL     1       6.334  14.999   1.906  1.00  0.00     0.060 A 
BRANCH  76  77
ATOM     77  S   UNL     1       6.898  16.207   3.122  1.00  0.00     0.124 S 
ATOM     78  O   UNL     1       7.322  15.340   4.218  1.00  0.00    -0.237 OA
ATOM     79  O   UNL     1       7.970  16.893   2.407  1.00  0.00    -0.237 OA
ATOM     80  O   UNL     1       5.707  17.010   3.383  1.00  0.00    -0.744 OA
ENDBRANCH  76  77
ENDBRANCH  55  69
BRANCH  56  81
ATOM     81  C   UNL     1       2.540   5.550  -5.863  1.00  0.00     0.058 A 
ATOM     82  C   UNL     1       3.151   5.358  -7.111  1.00  0.00     0.135 A 
ATOM     83  C   UNL     1       1.540   4.642  -5.479  1.00  0.00     0.135 A 
ATOM     84  F   UNL     1       4.106   6.204  -7.527  1.00  0.00    -0.206 F 
ATOM     85  C   UNL     1       2.783   4.312  -7.951  1.00  0.00     0.059 A 
ATOM     86  C   UNL     1       1.173   3.573  -6.290  1.00  0.00     0.059 A 
ATOM     87  F   UNL     1       0.935   4.772  -4.288  1.00  0.00    -0.206 F 
ATOM     88  C   UNL     1       1.797   3.420  -7.527  1.00  0.00     0.060 A 
BRANCH  88  89
ATOM     89  S   UNL     1       1.375   2.027  -8.598  1.00  0.00     0.124 S 
ATOM     90  O   UNL     1       0.672   2.695  -9.687  1.00  0.00    -0.237 OA
ATOM     91  O   UNL     1       2.690   1.484  -8.922  1.00  0.00    -0.237 OA
ATOM     92  O   UNL     1       0.551   1.181  -7.738  1.00  0.00    -0.744 OA
ENDBRANCH  88  89
ENDBRANCH  56  81
BRANCH  68  93
ATOM     93  C   UNL     1       2.099  12.505  -6.281  1.00  0.00     0.058 A 
ATOM     94  C   UNL     1       0.717  12.655  -6.474  1.00  0.00     0.135 A 
ATOM     95  C   UNL     1       2.959  13.296  -7.061  1.00  0.00     0.135 A 
ATOM     96  F   UNL     1      -0.150  11.918  -5.762  1.00  0.00    -0.206 F 
ATOM     97  C   UNL     1       0.208  13.542  -7.418  1.00  0.00     0.059 A 
ATOM     98  C   UNL     1       2.471  14.211  -7.988  1.00  0.00     0.059 A 
ATOM     99  F   UNL     1       4.290  13.198  -6.910  1.00  0.00    -0.206 F 
ATOM    100  C   UNL     1       1.093  14.320  -8.166  1.00  0.00     0.060 A 
BRANCH 100 101
ATOM    101  S   UNL     1       0.417  15.497  -9.356  1.00  0.00     0.124 S 
ATOM    102  O   UNL     1      -0.067  14.609 -10.407  1.00  0.00    -0.237 OA
ATOM    103  O   UNL     1      -0.613  16.174  -8.573  1.00  0.00    -0.237 OA
ATOM    104  O   UNL     1       1.568  16.322  -9.711  1.00  0.00    -0.744 OA
ENDBRANCH 100 101
ENDBRANCH  68  93
ENDBRANCH  42  43
ENDBRANCH  34  37
ENDBRANCH  32  33
ENDBRANCH  31  32
ENDBRANCH  30  31
ENDBRANCH   1  30
TORSDOF 20
