REMARK SMILES O=C(Cc1ccccc1Nc1c(F)cccc1C(F)(F)F)NCCCCCCNC(=O)c1ccc(-c2c3nc(c(-c4c(F)cc(S(=O)(=O)[O-])cc4F)c4ccc([nH]4)c(-c4c(F)cc(S(=O)(=O)[O-])cc4F)c4nc(c(-c5c(F)cc(S(=O)(=O)[O-])cc5F)c5ccc2[nH]5)C=C4)C=C3)cc1
REMARK SMILES IDX 25 1 24 2 23 3 22 4 1 5 2 6 3 8 4 9 5 10 9 11 6 12 8 13 7 14
REMARK SMILES IDX 10 15 11 17 12 18 17 19 13 20 14 21 16 22 15 23 18 24 19 25
REMARK SMILES IDX 20 26 21 27 26 28 27 29 28 30 29 31 30 32 31 34 32 35 33 36
REMARK SMILES IDX 97 37 34 38 96 39 35 40 36 41 37 42 90 43 38 44 95 45 89 46
REMARK SMILES IDX 91 47 39 48 94 49 88 50 87 51 40 53 74 54 53 55 73 56 54 57
REMARK SMILES IDX 57 58 72 59 92 60 55 61 56 62 71 64 93 65 58 66 41 67 42 68
REMARK SMILES IDX 51 69 43 70 44 71 50 72 52 73 45 74 46 75 47 76 48 77 49 78
REMARK SMILES IDX 75 79 76 80 85 81 77 82 78 83 84 84 86 85 79 86 80 87 81 88
REMARK SMILES IDX 82 89 83 90 59 91 60 92 69 93 61 94 62 95 68 96 70 97 63 98
REMARK SMILES IDX 64 99 65 100 66 101 67 102
REMARK H PARENT 22 7 10 16 29 33 91 52 57 63
REMARK Flexibility Score: inf
ROOT
ATOM      1  C   UNL     1       4.184   0.200   3.699  1.00  0.00     0.002 C 
ENDROOT
BRANCH   1   2
ATOM      2  C   UNL     1       2.692  -0.062   3.458  1.00  0.00     0.021 C 
BRANCH   2   3
ATOM      3  C   UNL     1       2.130   0.617   2.214  1.00  0.00     0.116 C 
BRANCH   3   4
ATOM      4  N   UNL     1       2.800   0.187   1.003  1.00  0.00    -0.356 N 
ATOM      5  O   UNL     1       0.979  -0.810   0.031  1.00  0.00    -0.275 OA
ATOM      6  C   UNL     1       2.149  -0.444  -0.033  1.00  0.00     0.224 C 
ATOM      7  H   UNL     1       3.766   0.354   0.916  1.00  0.00     0.163 HD
BRANCH   6   8
ATOM      8  C   UNL     1       2.973  -0.627  -1.293  1.00  0.00     0.137 C 
BRANCH   8   9
ATOM      9  C   UNL     1       3.821   0.560  -1.729  1.00  0.00    -0.015 A 
ATOM     10  C   UNL     1       5.095   0.256  -2.258  1.00  0.00     0.006 A 
ATOM     11  C   UNL     1       3.395   1.911  -1.684  1.00  0.00     0.042 A 
ATOM     12  C   UNL     1       5.958   1.258  -2.692  1.00  0.00     0.000 A 
ATOM     13  C   UNL     1       4.300   2.903  -2.103  1.00  0.00     0.026 A 
ATOM     14  C   UNL     1       5.566   2.585  -2.599  1.00  0.00     0.002 A 
BRANCH  11  15
ATOM     15  N   UNL     1       2.084   2.261  -1.290  1.00  0.00    -0.352 N 
ATOM     16  H   UNL     1       1.560   1.517  -0.915  1.00  0.00     0.167 HD
BRANCH  15  17
ATOM     17  C   UNL     1       1.396   3.493  -1.343  1.00  0.00     0.087 A 
ATOM     18  C   UNL     1       0.912   4.015  -0.124  1.00  0.00     0.147 A 
ATOM     19  C   UNL     1       1.209   4.251  -2.509  1.00  0.00     0.082 A 
ATOM     20  F   UNL     1       1.060   3.297   1.000  1.00  0.00    -0.205 F 
ATOM     21  C   UNL     1       0.293   5.255  -0.033  1.00  0.00     0.041 A 
ATOM     22  C   UNL     1       0.593   5.521  -2.404  1.00  0.00     0.015 A 
ATOM     23  C   UNL     1       0.141   6.020  -1.180  1.00  0.00     0.004 A 
BRANCH  19  24
ATOM     24  C   UNL     1       1.592   3.773  -3.889  1.00  0.00     0.418 C 
ATOM     25  F   UNL     1       0.681   4.169  -4.832  1.00  0.00    -0.166 F 
ATOM     26  F   UNL     1       2.778   4.300  -4.310  1.00  0.00    -0.166 F 
ATOM     27  F   UNL     1       1.687   2.427  -4.050  1.00  0.00    -0.166 F 
ENDBRANCH  19  24
ENDBRANCH  15  17
ENDBRANCH  11  15
ENDBRANCH   8   9
ENDBRANCH   6   8
ENDBRANCH   3   4
ENDBRANCH   2   3
ENDBRANCH   1   2
BRANCH   1  28
ATOM     28  C   UNL     1       4.577   1.673   3.858  1.00  0.00     0.002 C 
BRANCH  28  29
ATOM     29  C   UNL     1       3.872   2.422   4.990  1.00  0.00     0.021 C 
BRANCH  29  30
ATOM     30  C   UNL     1       4.016   1.790   6.371  1.00  0.00     0.116 C 
BRANCH  30  31
ATOM     31  N   UNL     1       5.402   1.710   6.806  1.00  0.00    -0.352 N 
ATOM     32  C   UNL     1       5.964   2.086   8.000  1.00  0.00     0.251 C 
ATOM     33  H   UNL     1       6.028   1.332   6.147  1.00  0.00     0.163 HD
ATOM     34  O   UNL     1       7.188   2.098   8.120  1.00  0.00    -0.269 OA
BRANCH  32  35
ATOM     35  C   UNL     1       5.104   2.500   9.131  1.00  0.00     0.039 A 
ATOM     36  C   UNL     1       5.471   3.619   9.882  1.00  0.00     0.014 A 
ATOM     37  C   UNL     1       3.947   1.787   9.457  1.00  0.00     0.014 A 
ATOM     38  C   UNL     1       4.646   4.057  10.921  1.00  0.00     0.010 A 
ATOM     39  C   UNL     1       3.087   2.270  10.441  1.00  0.00     0.010 A 
ATOM     40  C   UNL     1       3.429   3.407  11.188  1.00  0.00    -0.014 A 
BRANCH  40  41
ATOM     41  C   UNL     1       2.505   3.914  12.236  1.00  0.00     0.031 A 
ATOM     42  C   UNL     1       2.180   3.074  13.443  1.00  0.00     0.074 A 
ATOM     43  C   UNL     1       1.918   5.117  12.076  1.00  0.00     0.049 A 
ATOM     44  N   UNL     1       1.396   3.349  14.454  1.00  0.00    -0.248 NA
ATOM     45  C   UNL     1       2.799   1.741  13.510  1.00  0.00     0.031 C 
ATOM     46  C   UNL     1       2.112   6.005  10.927  1.00  0.00     0.029 A 
ATOM     47  N   UNL     1       1.042   5.804  12.879  1.00  0.00    -0.354 N 
ATOM     48  C   UNL     1       1.413   2.221  15.267  1.00  0.00     0.074 A 
ATOM     49  C   UNL     1       2.243   1.239  14.603  1.00  0.00     0.031 C 
ATOM     50  C   UNL     1       1.413   7.135  11.120  1.00  0.00     0.029 A 
ATOM     51  C   UNL     1       0.688   7.037  12.383  1.00  0.00     0.049 A 
ATOM     52  H   UNL     1       0.698   5.447  13.729  1.00  0.00     0.167 HD
ATOM     53  C   UNL     1       0.810   2.028  16.465  1.00  0.00     0.037 A 
ATOM     54  C   UNL     1      -0.125   7.984  12.890  1.00  0.00     0.037 A 
ATOM     55  C   UNL     1      -0.002   3.019  17.126  1.00  0.00     0.049 A 
ATOM     56  C   UNL     1      -0.791   7.744  14.217  1.00  0.00     0.074 A 
ATOM     57  C   UNL     1      -0.597   2.951  18.374  1.00  0.00     0.029 A 
ATOM     58  N   UNL     1      -0.346   4.251  16.588  1.00  0.00    -0.354 N 
ATOM     59  N   UNL     1      -0.697   6.705  15.012  1.00  0.00    -0.248 NA
ATOM     60  C   UNL     1      -1.671   8.808  14.717  1.00  0.00     0.031 C 
ATOM     61  C   UNL     1      -1.350   4.115  18.564  1.00  0.00     0.029 A 
ATOM     62  C   UNL     1      -1.174   4.938  17.462  1.00  0.00     0.049 A 
ATOM     63  H   UNL     1      -0.046   4.589  15.713  1.00  0.00     0.167 HD
ATOM     64  C   UNL     1      -1.481   7.003  16.122  1.00  0.00     0.074 A 
ATOM     65  C   UNL     1      -2.030   8.326  15.899  1.00  0.00     0.031 C 
ATOM     66  C   UNL     1      -1.720   6.253  17.227  1.00  0.00     0.037 A 
BRANCH  53  67
ATOM     67  C   UNL     1       0.993   0.688  17.130  1.00  0.00     0.058 A 
ATOM     68  C   UNL     1       2.237   0.267  17.628  1.00  0.00     0.135 A 
ATOM     69  C   UNL     1      -0.098  -0.184  17.282  1.00  0.00     0.135 A 
ATOM     70  F   UNL     1       3.318   1.053  17.502  1.00  0.00    -0.206 F 
ATOM     71  C   UNL     1       2.404  -0.987  18.209  1.00  0.00     0.059 A 
ATOM     72  C   UNL     1       0.038  -1.429  17.891  1.00  0.00     0.059 A 
ATOM     73  F   UNL     1      -1.312   0.165  16.830  1.00  0.00    -0.206 F 
ATOM     74  C   UNL     1       1.298  -1.830  18.331  1.00  0.00     0.060 A 
BRANCH  74  75
ATOM     75  S   UNL     1       1.536  -3.462  19.067  1.00  0.00     0.124 S 
ATOM     76  O   UNL     1       2.261  -4.155  18.006  1.00  0.00    -0.237 OA
ATOM     77  O   UNL     1       2.308  -3.155  20.266  1.00  0.00    -0.237 OA
ATOM     78  O   UNL     1       0.174  -3.930  19.304  1.00  0.00    -0.744 OA
ENDBRANCH  74  75
ENDBRANCH  53  67
BRANCH  54  79
ATOM     79  C   UNL     1      -0.315   9.267  12.161  1.00  0.00     0.058 A 
ATOM     80  C   UNL     1       0.218  10.463  12.665  1.00  0.00     0.135 A 
ATOM     81  C   UNL     1      -1.009   9.324  10.942  1.00  0.00     0.135 A 
ATOM     82  F   UNL     1       0.883  10.462  13.830  1.00  0.00    -0.206 F 
ATOM     83  C   UNL     1       0.061  11.672  11.994  1.00  0.00     0.059 A 
ATOM     84  C   UNL     1      -1.155  10.516  10.239  1.00  0.00     0.059 A 
ATOM     85  F   UNL     1      -1.525   8.206  10.409  1.00  0.00    -0.206 F 
ATOM     86  C   UNL     1      -0.622  11.687  10.778  1.00  0.00     0.060 A 
BRANCH  86  87
ATOM     87  S   UNL     1      -0.765  13.251   9.887  1.00  0.00     0.124 S 
ATOM     88  O   UNL     1      -1.711  13.981  10.723  1.00  0.00    -0.237 OA
ATOM     89  O   UNL     1       0.611  13.738   9.902  1.00  0.00    -0.237 OA
ATOM     90  O   UNL     1      -1.264  12.846   8.576  1.00  0.00    -0.744 OA
ENDBRANCH  86  87
ENDBRANCH  54  79
BRANCH  66  91
ATOM     91  C   UNL     1      -2.591   6.858  18.296  1.00  0.00     0.058 A 
ATOM     92  C   UNL     1      -3.969   7.056  18.108  1.00  0.00     0.135 A 
ATOM     93  C   UNL     1      -2.042   7.223  19.537  1.00  0.00     0.135 A 
ATOM     94  F   UNL     1      -4.545   6.731  16.940  1.00  0.00    -0.206 F 
ATOM     95  C   UNL     1      -4.763   7.629  19.097  1.00  0.00     0.059 A 
ATOM     96  C   UNL     1      -2.824   7.766  20.552  1.00  0.00     0.059 A 
ATOM     97  F   UNL     1      -0.734   7.045  19.777  1.00  0.00    -0.206 F 
ATOM     98  C   UNL     1      -4.180   7.982  20.316  1.00  0.00     0.060 A 
BRANCH  98  99
ATOM     99  S   UNL     1      -5.223   8.715  21.594  1.00  0.00     0.124 S 
ATOM    100  O   UNL     1      -5.448  10.053  21.058  1.00  0.00    -0.237 OA
ATOM    101  O   UNL     1      -6.384   7.830  21.595  1.00  0.00    -0.237 OA
ATOM    102  O   UNL     1      -4.391   8.650  22.791  1.00  0.00    -0.744 OA
ENDBRANCH  98  99
ENDBRANCH  66  91
ENDBRANCH  40  41
ENDBRANCH  32  35
ENDBRANCH  30  31
ENDBRANCH  29  30
ENDBRANCH  28  29
ENDBRANCH   1  28
TORSDOF 20
