REMARK SMILES O=C(Cc1csc(NC(=O)CS[C@@H]2CCS(=O)(=O)C2)n1)NCCCCCCNC(=O)c1ccc(-c2c3nc(c(-c4c(F)cc(S(=O)(=O)[O-])cc4F)c4ccc([nH]4)c(-c4c(F)cc(S(=O)(=O)[O-])cc4F)c4nc(c(-c5c(F)cc(S(=O)(=O)[O-])cc5F)c5ccc2[nH]5)C=C4)C=C3)cc1
REMARK SMILES IDX 23 1 22 2 21 3 1 4 2 5 3 7 4 8 5 9 20 10 6 11 7 12 8 13 9 14
REMARK SMILES IDX 10 16 11 17 12 18 13 19 14 20 19 21 15 22 16 23 17 24 18 25
REMARK SMILES IDX 24 26 25 27 26 28 27 29 28 30 29 31 30 33 31 34 32 35 96 36
REMARK SMILES IDX 33 37 95 38 34 39 35 40 36 41 89 42 37 43 94 44 88 45 90 46
REMARK SMILES IDX 38 47 93 48 87 49 86 50 39 52 73 53 52 54 72 55 53 56 56 57
REMARK SMILES IDX 71 58 91 59 54 60 55 61 70 63 92 64 57 65 40 66 41 67 50 68
REMARK SMILES IDX 42 69 43 70 49 71 51 72 44 73 45 74 46 75 47 76 48 77 74 78
REMARK SMILES IDX 75 79 84 80 76 81 77 82 83 83 85 84 78 85 79 86 80 87 81 88
REMARK SMILES IDX 82 89 58 90 59 91 68 92 60 93 61 94 67 95 69 96 62 97 63 98
REMARK SMILES IDX 64 99 65 100 66 101
REMARK H PARENT 21 6 8 15 28 32 90 51 56 62
REMARK Flexibility Score: inf
ROOT
ATOM      1  C   UNL     1       2.763  -1.470  -3.211  1.00  0.00     0.021 C 
ENDROOT
BRANCH   1   2
ATOM      2  C   UNL     1       2.179  -1.507  -1.802  1.00  0.00     0.116 C 
BRANCH   2   3
ATOM      3  N   UNL     1       2.837  -0.560  -0.925  1.00  0.00    -0.356 N 
ATOM      4  O   UNL     1       0.946   0.243   0.112  1.00  0.00    -0.275 OA
ATOM      5  C   UNL     1       2.168   0.168   0.040  1.00  0.00     0.226 C 
ATOM      6  H   UNL     1       3.808  -0.428  -1.022  1.00  0.00     0.163 HD
BRANCH   5   7
ATOM      7  C   UNL     1       3.089   0.857   1.039  1.00  0.00     0.157 C 
BRANCH   7   8
ATOM      8  C   UNL     1       3.965  -0.120   1.772  1.00  0.00     0.063 A 
ATOM      9  C   UNL     1       3.885  -1.503   1.742  1.00  0.00     0.093 A 
ATOM     10  N   UNL     1       5.001   0.363   2.571  1.00  0.00    -0.224 NA
ATOM     11  S   UNL     1       5.273  -2.173   2.464  1.00  0.00    -0.105 S 
ATOM     12  C   UNL     1       5.647  -0.643   3.116  1.00  0.00     0.189 A 
BRANCH  12  13
ATOM     13  N   UNL     1       6.645  -0.478   4.038  1.00  0.00    -0.301 N 
ATOM     14  C   UNL     1       7.191  -1.350   4.931  1.00  0.00     0.236 C 
ATOM     15  H   UNL     1       7.034   0.426   4.061  1.00  0.00     0.172 HD
ATOM     16  O   UNL     1       8.267  -1.044   5.461  1.00  0.00    -0.274 OA
BRANCH  14  17
ATOM     17  C   UNL     1       6.541  -2.665   5.343  1.00  0.00     0.170 C 
BRANCH  17  18
ATOM     18  S   UNL     1       4.771  -2.530   5.777  1.00  0.00    -0.148 SA
BRANCH  18  19
ATOM     19  C   UNL     1       4.699  -1.787   7.449  1.00  0.00     0.063 C 
ATOM     20  C   UNL     1       3.542  -0.766   7.457  1.00  0.00     0.031 C 
ATOM     21  C   UNL     1       5.915  -1.087   8.053  1.00  0.00     0.151 C 
ATOM     22  C   UNL     1       4.113   0.562   6.984  1.00  0.00     0.138 C 
ATOM     23  S   UNL     1       5.702   0.663   7.772  1.00  0.00     0.151 S 
ATOM     24  O   UNL     1       6.664   1.134   6.795  1.00  0.00    -0.229 OA
ATOM     25  O   UNL     1       5.535   1.308   9.056  1.00  0.00    -0.229 OA
ENDBRANCH  18  19
ENDBRANCH  17  18
ENDBRANCH  14  17
ENDBRANCH  12  13
ENDBRANCH   7   8
ENDBRANCH   5   7
ENDBRANCH   2   3
ENDBRANCH   1   2
BRANCH   1  26
ATOM     26  C   UNL     1       4.264  -1.784  -3.299  1.00  0.00     0.002 C 
BRANCH  26  27
ATOM     27  C   UNL     1       4.677  -3.187  -2.842  1.00  0.00     0.002 C 
BRANCH  27  28
ATOM     28  C   UNL     1       4.008  -4.341  -3.590  1.00  0.00     0.021 C 
BRANCH  28  29
ATOM     29  C   UNL     1       4.173  -4.309  -5.106  1.00  0.00     0.116 C 
BRANCH  29  30
ATOM     30  N   UNL     1       5.559  -4.465  -5.524  1.00  0.00    -0.352 N 
ATOM     31  C   UNL     1       6.081  -5.312  -6.474  1.00  0.00     0.251 C 
ATOM     32  H   UNL     1       6.210  -3.887  -5.066  1.00  0.00     0.163 HD
ATOM     33  O   UNL     1       7.296  -5.430  -6.596  1.00  0.00    -0.269 OA
BRANCH  31  34
ATOM     34  C   UNL     1       5.165  -6.102  -7.327  1.00  0.00     0.039 A 
ATOM     35  C   UNL     1       5.395  -7.470  -7.491  1.00  0.00     0.014 A 
ATOM     36  C   UNL     1       4.066  -5.495  -7.942  1.00  0.00     0.014 A 
ATOM     37  C   UNL     1       4.481  -8.244  -8.212  1.00  0.00     0.010 A 
ATOM     38  C   UNL     1       3.120  -6.280  -8.596  1.00  0.00     0.010 A 
ATOM     39  C   UNL     1       3.316  -7.663  -8.739  1.00  0.00    -0.014 A 
BRANCH  39  40
ATOM     40  C   UNL     1       2.288  -8.471  -9.447  1.00  0.00     0.031 A 
ATOM     41  C   UNL     1       1.977  -8.185 -10.893  1.00  0.00     0.074 A 
ATOM     42  C   UNL     1       1.577  -9.398  -8.772  1.00  0.00     0.049 A 
ATOM     43  N   UNL     1       1.034  -8.683 -11.649  1.00  0.00    -0.248 NA
ATOM     44  C   UNL     1       2.821  -7.185 -11.570  1.00  0.00     0.031 C 
ATOM     45  C   UNL     1       1.756  -9.743  -7.359  1.00  0.00     0.029 A 
ATOM     46  N   UNL     1       0.543 -10.208  -9.177  1.00  0.00    -0.354 N 
ATOM     47  C   UNL     1       1.152  -8.041 -12.876  1.00  0.00     0.074 A 
ATOM     48  C   UNL     1       2.234  -7.090 -12.755  1.00  0.00     0.031 C 
ATOM     49  C   UNL     1       0.873 -10.697  -7.021  1.00  0.00     0.029 A 
ATOM     50  C   UNL     1       0.033 -11.001  -8.175  1.00  0.00     0.049 A 
ATOM     51  H   UNL     1       0.200 -10.220 -10.100  1.00  0.00     0.167 HD
ATOM     52  C   UNL     1       0.434  -8.240 -14.006  1.00  0.00     0.037 A 
ATOM     53  C   UNL     1      -1.008 -11.859  -8.178  1.00  0.00     0.037 A 
ATOM     54  C   UNL     1      -0.611  -9.222 -14.134  1.00  0.00     0.049 A 
ATOM     55  C   UNL     1      -1.791 -12.056  -9.452  1.00  0.00     0.074 A 
ATOM     56  C   UNL     1      -1.342  -9.551 -15.262  1.00  0.00     0.029 A 
ATOM     57  N   UNL     1      -1.073 -10.028 -13.106  1.00  0.00    -0.354 N 
ATOM     58  N   UNL     1      -1.616 -11.491 -10.623  1.00  0.00    -0.248 NA
ATOM     59  C   UNL     1      -2.910 -13.009  -9.408  1.00  0.00     0.031 C 
ATOM     60  C   UNL     1      -2.284 -10.518 -14.903  1.00  0.00     0.029 A 
ATOM     61  C   UNL     1      -2.098 -10.837 -13.568  1.00  0.00     0.049 A 
ATOM     62  H   UNL     1      -0.725 -10.027 -12.185  1.00  0.00     0.167 HD
ATOM     63  C   UNL     1      -2.573 -12.054 -11.463  1.00  0.00     0.074 A 
ATOM     64  C   UNL     1      -3.321 -13.004 -10.669  1.00  0.00     0.031 C 
ATOM     65  C   UNL     1      -2.809 -11.806 -12.774  1.00  0.00     0.037 A 
BRANCH  52  66
ATOM     66  C   UNL     1       0.746  -7.392 -15.208  1.00  0.00     0.058 A 
ATOM     67  C   UNL     1       1.919  -7.573 -15.956  1.00  0.00     0.135 A 
ATOM     68  C   UNL     1      -0.190  -6.454 -15.674  1.00  0.00     0.135 A 
ATOM     69  F   UNL     1       2.856  -8.444 -15.546  1.00  0.00    -0.206 F 
ATOM     70  C   UNL     1       2.157  -6.851 -17.121  1.00  0.00     0.059 A 
ATOM     71  C   UNL     1       0.013  -5.741 -16.851  1.00  0.00     0.059 A 
ATOM     72  F   UNL     1      -1.327  -6.239 -14.994  1.00  0.00    -0.206 F 
ATOM     73  C   UNL     1       1.192  -5.944 -17.566  1.00  0.00     0.060 A 
BRANCH  73  74
ATOM     74  S   UNL     1       1.492  -5.060 -19.111  1.00  0.00     0.124 S 
ATOM     75  O   UNL     1       2.559  -4.144 -18.720  1.00  0.00    -0.237 OA
ATOM     76  O   UNL     1       1.881  -6.137 -20.015  1.00  0.00    -0.237 OA
ATOM     77  O   UNL     1       0.206  -4.435 -19.401  1.00  0.00    -0.744 OA
ENDBRANCH  73  74
ENDBRANCH  52  66
BRANCH  53  78
ATOM     78  C   UNL     1      -1.386 -12.600  -6.942  1.00  0.00     0.058 A 
ATOM     79  C   UNL     1      -1.256 -13.996  -6.868  1.00  0.00     0.135 A 
ATOM     80  C   UNL     1      -1.926 -11.937  -5.829  1.00  0.00     0.135 A 
ATOM     81  F   UNL     1      -0.749 -14.678  -7.906  1.00  0.00    -0.206 F 
ATOM     82  C   UNL     1      -1.688 -14.712  -5.756  1.00  0.00     0.059 A 
ATOM     83  C   UNL     1      -2.336 -12.628  -4.693  1.00  0.00     0.059 A 
ATOM     84  F   UNL     1      -2.055 -10.601  -5.838  1.00  0.00    -0.206 F 
ATOM     85  C   UNL     1      -2.233 -14.018  -4.675  1.00  0.00     0.060 A 
BRANCH  85  86
ATOM     86  S   UNL     1      -2.798 -14.956  -3.238  1.00  0.00     0.124 S 
ATOM     87  O   UNL     1      -4.019 -15.567  -3.749  1.00  0.00    -0.237 OA
ATOM     88  O   UNL     1      -1.678 -15.862  -3.004  1.00  0.00    -0.237 OA
ATOM     89  O   UNL     1      -2.985 -13.926  -2.220  1.00  0.00    -0.744 OA
ENDBRANCH  85  86
ENDBRANCH  53  78
BRANCH  65  90
ATOM     90  C   UNL     1      -3.871 -12.618 -13.464  1.00  0.00     0.058 A 
ATOM     91  C   UNL     1      -5.238 -12.413 -13.224  1.00  0.00     0.135 A 
ATOM     92  C   UNL     1      -3.510 -13.562 -14.441  1.00  0.00     0.135 A 
ATOM     93  F   UNL     1      -5.636 -11.529 -12.296  1.00  0.00    -0.206 F 
ATOM     94  C   UNL     1      -6.211 -13.125 -13.919  1.00  0.00     0.059 A 
ATOM     95  C   UNL     1      -4.466 -14.262 -15.169  1.00  0.00     0.059 A 
ATOM     96  F   UNL     1      -2.216 -13.789 -14.716  1.00  0.00    -0.206 F 
ATOM     97  C   UNL     1      -5.815 -14.042 -14.895  1.00  0.00     0.060 A 
BRANCH  97  98
ATOM     98  S   UNL     1      -7.089 -14.915 -15.829  1.00  0.00     0.124 S 
ATOM     99  O   UNL     1      -7.599 -15.848 -14.830  1.00  0.00    -0.237 OA
ATOM    100  O   UNL     1      -7.994 -13.834 -16.207  1.00  0.00    -0.237 OA
ATOM    101  O   UNL     1      -6.349 -15.520 -16.932  1.00  0.00    -0.744 OA
ENDBRANCH  97  98
ENDBRANCH  65  90
ENDBRANCH  39  40
ENDBRANCH  31  34
ENDBRANCH  29  30
ENDBRANCH  28  29
ENDBRANCH  27  28
ENDBRANCH  26  27
ENDBRANCH   1  26
TORSDOF 21
