REMARK SMILES C[N@@H+]1CCC[C@@H](C(=O)N[C@H](C(=O)NCCCCCCNC(=O)c2ccc(-c3c4nc(c(-c5c(F)cc(S(=O)(=O)[O-])cc5F)c5ccc([nH]5)c(-c5c(F)cc(S(=O)(=O)[O-])cc5F)c5nc(c(-c6c(F)cc(S(=O)(=O)[O-])cc6F)c6ccc3[nH]6)C=C5)C=C4)cc2)c2ccccc2)C1
REMARK SMILES IDX 17 1 16 2 15 3 14 4 13 5 11 6 12 7 10 9 9 10 7 11 8 12 6 14
REMARK SMILES IDX 1 15 2 16 3 17 95 18 4 20 5 21 89 22 90 23 94 24 91 25 93 26
REMARK SMILES IDX 92 27 18 28 19 29 20 30 21 31 22 33 23 34 24 35 88 36 25 37
REMARK SMILES IDX 87 38 26 39 27 40 28 41 81 42 29 43 86 44 80 45 82 46 30 47
REMARK SMILES IDX 85 48 79 49 78 50 31 52 65 53 44 54 64 55 45 56 48 57 63 58
REMARK SMILES IDX 83 59 46 60 47 61 62 63 84 64 49 65 32 66 33 67 42 68 34 69
REMARK SMILES IDX 35 70 41 71 43 72 36 73 37 74 38 75 39 76 40 77 66 78 67 79
REMARK SMILES IDX 76 80 68 81 69 82 75 83 77 84 70 85 71 86 72 87 73 88 74 89
REMARK SMILES IDX 50 90 51 91 60 92 52 93 53 94 59 95 61 96 54 97 55 98 56 99
REMARK SMILES IDX 57 100 58 101
REMARK H PARENT 13 8 9 13 2 19 20 32 82 51 48 62
REMARK Flexibility Score: inf
ROOT
ATOM      1  C   UNL     1       5.828  -0.747   2.652  1.00  0.00     0.002 C 
ENDROOT
BRANCH   1   2
ATOM      2  C   UNL     1       4.865  -0.193   3.703  1.00  0.00     0.002 C 
BRANCH   2   3
ATOM      3  C   UNL     1       3.964   0.942   3.212  1.00  0.00     0.021 C 
BRANCH   3   4
ATOM      4  C   UNL     1       2.855   0.504   2.250  1.00  0.00     0.116 C 
BRANCH   4   5
ATOM      5  N   UNL     1       1.831  -0.274   2.940  1.00  0.00    -0.354 N 
ATOM      6  C   UNL     1       0.514   0.038   3.187  1.00  0.00     0.247 C 
ATOM      7  O   UNL     1      -0.128  -0.715   3.925  1.00  0.00    -0.272 OA
ATOM      8  H   UNL     1       2.126  -1.151   3.279  1.00  0.00     0.163 HD
BRANCH   6   9
ATOM      9  C   UNL     1      -0.115   1.294   2.528  1.00  0.00     0.202 C 
BRANCH   9  10
ATOM     10  N   UNL     1      -1.563   1.156   2.415  1.00  0.00    -0.340 N 
ATOM     11  C   UNL     1      -2.402   1.072   1.356  1.00  0.00     0.229 C 
ATOM     12  O   UNL     1      -3.603   0.937   1.635  1.00  0.00    -0.275 OA
ATOM     13  H   UNL     1      -2.023   1.116   3.285  1.00  0.00     0.164 HD
BRANCH  11  14
ATOM     14  C   UNL     1      -2.003   1.085  -0.133  1.00  0.00     0.133 C 
ATOM     15  C   UNL     1       1.002   3.278  -0.928  1.00  0.00     0.332 C 
ATOM     16  N   UNL     1       0.249   2.099  -0.510  1.00  0.00    -0.337 N 
ATOM     17  C   UNL     1       0.745   0.879  -1.153  1.00  0.00     0.262 C 
ATOM     18  C   UNL     1      -1.195   2.269  -0.671  1.00  0.00     0.275 C 
ATOM     19  H   UNL     1       0.408   1.991   0.491  1.00  0.00     0.347 HD
ATOM     20  C   UNL     1       0.038  -0.373  -0.624  1.00  0.00     0.062 C 
ATOM     21  C   UNL     1      -1.480  -0.256  -0.654  1.00  0.00     0.025 C 
ENDBRANCH  11  14
ENDBRANCH   9  10
BRANCH   9  22
ATOM     22  C   UNL     1       0.290   2.639   3.128  1.00  0.00    -0.016 A 
ATOM     23  C   UNL     1       1.212   2.763   4.173  1.00  0.00     0.006 A 
ATOM     24  C   UNL     1      -0.119   3.818   2.485  1.00  0.00     0.006 A 
ATOM     25  C   UNL     1       1.849   3.984   4.423  1.00  0.00     0.000 A 
ATOM     26  C   UNL     1       0.495   5.042   2.745  1.00  0.00     0.000 A 
ATOM     27  C   UNL     1       1.514   5.115   3.685  1.00  0.00     0.000 A 
ENDBRANCH   9  22
ENDBRANCH   6   9
ENDBRANCH   4   5
ENDBRANCH   3   4
ENDBRANCH   2   3
ENDBRANCH   1   2
BRANCH   1  28
ATOM     28  C   UNL     1       6.760   0.285   2.010  1.00  0.00     0.021 C 
BRANCH  28  29
ATOM     29  C   UNL     1       7.546   1.153   2.991  1.00  0.00     0.116 C 
BRANCH  29  30
ATOM     30  N   UNL     1       8.433   0.370   3.837  1.00  0.00    -0.352 N 
ATOM     31  C   UNL     1       9.800   0.440   3.969  1.00  0.00     0.251 C 
ATOM     32  H   UNL     1       7.991  -0.309   4.396  1.00  0.00     0.163 HD
ATOM     33  O   UNL     1      10.403  -0.427   4.589  1.00  0.00    -0.269 OA
BRANCH  31  34
ATOM     34  C   UNL     1      10.540   1.552   3.334  1.00  0.00     0.039 A 
ATOM     35  C   UNL     1      11.664   1.259   2.558  1.00  0.00     0.014 A 
ATOM     36  C   UNL     1      10.113   2.874   3.485  1.00  0.00     0.014 A 
ATOM     37  C   UNL     1      12.307   2.285   1.860  1.00  0.00     0.010 A 
ATOM     38  C   UNL     1      10.714   3.884   2.737  1.00  0.00     0.010 A 
ATOM     39  C   UNL     1      11.805   3.596   1.903  1.00  0.00    -0.014 A 
BRANCH  39  40
ATOM     40  C   UNL     1      12.363   4.663   1.031  1.00  0.00     0.031 A 
ATOM     41  C   UNL     1      13.030   5.871   1.625  1.00  0.00     0.074 A 
ATOM     42  C   UNL     1      12.188   4.575  -0.304  1.00  0.00     0.049 A 
ATOM     43  N   UNL     1      13.510   6.927   1.021  1.00  0.00    -0.248 NA
ATOM     44  C   UNL     1      13.157   5.906   3.090  1.00  0.00     0.031 C 
ATOM     45  C   UNL     1      11.522   3.469  -0.997  1.00  0.00     0.029 A 
ATOM     46  N   UNL     1      12.545   5.431  -1.316  1.00  0.00    -0.354 N 
ATOM     47  C   UNL     1      13.982   7.760   2.029  1.00  0.00     0.074 A 
ATOM     48  C   UNL     1      13.694   7.103   3.286  1.00  0.00     0.031 C 
ATOM     49  C   UNL     1      11.542   3.701  -2.318  1.00  0.00     0.029 A 
ATOM     50  C   UNL     1      12.175   4.992  -2.566  1.00  0.00     0.049 A 
ATOM     51  H   UNL     1      13.020   6.279  -1.162  1.00  0.00     0.167 HD
ATOM     52  C   UNL     1      14.608   8.956   1.913  1.00  0.00     0.037 A 
ATOM     53  C   UNL     1      12.315   5.569  -3.776  1.00  0.00     0.037 A 
ATOM     54  C   UNL     1      14.902   9.595   0.655  1.00  0.00     0.049 A 
ATOM     55  C   UNL     1      12.978   6.915  -3.873  1.00  0.00     0.074 A 
ATOM     56  C   UNL     1      15.604  10.766   0.429  1.00  0.00     0.029 A 
ATOM     57  N   UNL     1      14.493   9.130  -0.588  1.00  0.00    -0.354 N 
ATOM     58  N   UNL     1      13.496   7.649  -2.917  1.00  0.00    -0.248 NA
ATOM     59  C   UNL     1      13.071   7.516  -5.211  1.00  0.00     0.031 C 
ATOM     60  C   UNL     1      15.562  11.045  -0.941  1.00  0.00     0.029 A 
ATOM     61  C   UNL     1      14.886  10.017  -1.578  1.00  0.00     0.049 A 
ATOM     62  H   UNL     1      13.998   8.294  -0.742  1.00  0.00     0.167 HD
ATOM     63  C   UNL     1      13.992   8.789  -3.539  1.00  0.00     0.074 A 
ATOM     64  C   UNL     1      13.728   8.639  -4.956  1.00  0.00     0.031 C 
ATOM     65  C   UNL     1      14.609   9.862  -2.986  1.00  0.00     0.037 A 
BRANCH  52  66
ATOM     66  C   UNL     1      15.004   9.667   3.180  1.00  0.00     0.058 A 
ATOM     67  C   UNL     1      16.027   9.186   4.014  1.00  0.00     0.135 A 
ATOM     68  C   UNL     1      14.376  10.869   3.546  1.00  0.00     0.135 A 
ATOM     69  F   UNL     1      16.656   8.037   3.720  1.00  0.00    -0.206 F 
ATOM     70  C   UNL     1      16.388   9.852   5.182  1.00  0.00     0.059 A 
ATOM     71  C   UNL     1      14.742  11.568   4.693  1.00  0.00     0.059 A 
ATOM     72  F   UNL     1      13.394  11.377   2.785  1.00  0.00    -0.206 F 
ATOM     73  C   UNL     1      15.738  11.042   5.513  1.00  0.00     0.060 A 
BRANCH  73  74
ATOM     74  S   UNL     1      16.214  11.889   7.035  1.00  0.00     0.124 S 
ATOM     75  O   UNL     1      15.662  10.995   8.049  1.00  0.00    -0.237 OA
ATOM     76  O   UNL     1      17.669  11.913   6.936  1.00  0.00    -0.237 OA
ATOM     77  O   UNL     1      15.558  13.188   6.922  1.00  0.00    -0.744 OA
ENDBRANCH  73  74
ENDBRANCH  52  66
BRANCH  53  78
ATOM     78  C   UNL     1      11.829   4.866  -4.993  1.00  0.00     0.058 A 
ATOM     79  C   UNL     1      12.733   4.352  -5.934  1.00  0.00     0.135 A 
ATOM     80  C   UNL     1      10.459   4.669  -5.229  1.00  0.00     0.135 A 
ATOM     81  F   UNL     1      14.052   4.524  -5.759  1.00  0.00    -0.206 F 
ATOM     82  C   UNL     1      12.299   3.673  -7.068  1.00  0.00     0.059 A 
ATOM     83  C   UNL     1      10.001   3.969  -6.341  1.00  0.00     0.059 A 
ATOM     84  F   UNL     1       9.552   5.129  -4.353  1.00  0.00    -0.206 F 
ATOM     85  C   UNL     1      10.930   3.480  -7.258  1.00  0.00     0.060 A 
BRANCH  85  86
ATOM     86  S   UNL     1      10.382   2.539  -8.699  1.00  0.00     0.124 S 
ATOM     87  O   UNL     1      10.666   3.470  -9.784  1.00  0.00    -0.237 OA
ATOM     88  O   UNL     1      11.234   1.356  -8.632  1.00  0.00    -0.237 OA
ATOM     89  O   UNL     1       8.968   2.300  -8.425  1.00  0.00    -0.744 OA
ENDBRANCH  85  86
ENDBRANCH  53  78
BRANCH  65  90
ATOM     90  C   UNL     1      15.049  10.964  -3.912  1.00  0.00     0.058 A 
ATOM     91  C   UNL     1      14.123  11.828  -4.518  1.00  0.00     0.135 A 
ATOM     92  C   UNL     1      16.414  11.199  -4.145  1.00  0.00     0.135 A 
ATOM     93  F   UNL     1      12.806  11.640  -4.338  1.00  0.00    -0.206 F 
ATOM     94  C   UNL     1      14.534  12.878  -5.333  1.00  0.00     0.059 A 
ATOM     95  C   UNL     1      16.848  12.262  -4.932  1.00  0.00     0.059 A 
ATOM     96  F   UNL     1      17.342  10.407  -3.586  1.00  0.00    -0.206 F 
ATOM     97  C   UNL     1      15.899  13.091  -5.528  1.00  0.00     0.060 A 
BRANCH  97  98
ATOM     98  S   UNL     1      16.416  14.491  -6.544  1.00  0.00     0.124 S 
ATOM     99  O   UNL     1      16.035  14.043  -7.879  1.00  0.00    -0.237 OA
ATOM    100  O   UNL     1      15.624  15.585  -5.992  1.00  0.00    -0.237 OA
ATOM    101  O   UNL     1      17.853  14.579  -6.298  1.00  0.00    -0.744 OA
ENDBRANCH  97  98
ENDBRANCH  65  90
ENDBRANCH  39  40
ENDBRANCH  31  34
ENDBRANCH  29  30
ENDBRANCH  28  29
ENDBRANCH   1  28
TORSDOF 19
