REMARK SMILES C[C@H]([NH2+][C@@H]1CCOC2(CCC2)C1)C(=O)NCCCCCCNC(=O)c1ccc(-c2c3nc(c(-c4c(F)cc(S(=O)(=O)[O-])cc4F)c4ccc([nH]4)c(-c4c(F)cc(S(=O)(=O)[O-])cc4F)c4nc(c(-c5c(F)cc(S(=O)(=O)[O-])cc5F)c5ccc2[nH]5)C=C4)C=C3)cc1
REMARK SMILES IDX 19 1 18 2 17 3 16 4 15 5 13 6 14 7 2 9 1 10 3 11 4 14 5 15
REMARK SMILES IDX 12 16 6 17 8 18 7 19 9 20 11 21 10 22 20 23 21 24 22 25
REMARK SMILES IDX 23 26 24 28 25 29 26 30 90 31 27 32 89 33 28 34 29 35 30 36
REMARK SMILES IDX 83 37 31 38 88 39 82 40 84 41 32 42 87 43 81 44 80 45 33 47
REMARK SMILES IDX 67 48 46 49 66 50 47 51 50 52 65 53 85 54 48 55 49 56 64 58
REMARK SMILES IDX 86 59 51 60 34 61 35 62 44 63 36 64 37 65 43 66 45 67 38 68
REMARK SMILES IDX 39 69 40 70 41 71 42 72 68 73 69 74 78 75 70 76 71 77 77 78
REMARK SMILES IDX 79 79 72 80 73 81 74 82 75 83 76 84 52 85 53 86 62 87 54 88
REMARK SMILES IDX 55 89 61 90 63 91 56 92 57 93 58 94 59 95 60 96
REMARK H PARENT 15 8 3 12 3 13 22 27 84 46 50 57
REMARK Flexibility Score: inf
ROOT
ATOM      1  C   UNL     1      -3.657   3.829   0.905  1.00  0.00     0.002 C 
ENDROOT
BRANCH   1   2
ATOM      2  C   UNL     1      -3.201   2.964  -0.276  1.00  0.00     0.002 C 
BRANCH   2   3
ATOM      3  C   UNL     1      -1.720   2.578  -0.229  1.00  0.00     0.021 C 
BRANCH   3   4
ATOM      4  C   UNL     1      -1.369   1.768   1.015  1.00  0.00     0.116 C 
BRANCH   4   5
ATOM      5  N   UNL     1      -1.924   0.428   0.902  1.00  0.00    -0.351 N 
ATOM      6  C   UNL     1      -1.293  -0.783   0.879  1.00  0.00     0.277 C 
ATOM      7  O   UNL     1      -1.976  -1.791   0.675  1.00  0.00    -0.268 OA
ATOM      8  H   UNL     1      -2.905   0.388   0.833  1.00  0.00     0.163 HD
BRANCH   6   9
ATOM      9  C   UNL     1       0.217  -0.891   1.192  1.00  0.00     0.269 C 
ATOM     10  C   UNL     1       0.333  -0.624   2.697  1.00  0.00     0.086 C 
BRANCH   9  11
ATOM     11  N   UNL     1       0.982   0.038   0.339  1.00  0.00    -0.334 N 
ATOM     12  H   UNL     1       1.004   0.932   0.829  1.00  0.00     0.347 HD
ATOM     13  H   UNL     1       0.484  -0.006  -0.550  1.00  0.00     0.347 HD
BRANCH  11  14
ATOM     14  C   UNL     1       2.365  -0.266  -0.043  1.00  0.00     0.188 C 
ATOM     15  C   UNL     1       3.121  -1.425   0.590  1.00  0.00     0.093 C 
ATOM     16  C   UNL     1       3.239   0.982   0.135  1.00  0.00     0.100 C 
ATOM     17  C   UNL     1       3.520  -1.191   2.032  1.00  0.00     0.167 C 
ATOM     18  C   UNL     1       3.423   1.309   1.615  1.00  0.00     0.074 C 
ATOM     19  O   UNL     1       3.777   0.150   2.423  1.00  0.00    -0.375 OA
ATOM     20  C   UNL     1       4.426   2.488   1.881  1.00  0.00     0.036 C 
ATOM     21  C   UNL     1       2.339   2.294   2.184  1.00  0.00     0.036 C 
ATOM     22  C   UNL     1       3.458   2.980   2.975  1.00  0.00     0.006 C 
ENDBRANCH  11  14
ENDBRANCH   9  11
ENDBRANCH   6   9
ENDBRANCH   4   5
ENDBRANCH   3   4
ENDBRANCH   2   3
ENDBRANCH   1   2
BRANCH   1  23
ATOM     23  C   UNL     1      -2.880   5.137   1.065  1.00  0.00     0.021 C 
BRANCH  23  24
ATOM     24  C   UNL     1      -2.921   6.035  -0.166  1.00  0.00     0.116 C 
BRANCH  24  25
ATOM     25  N   UNL     1      -4.287   6.398  -0.516  1.00  0.00    -0.352 N 
ATOM     26  C   UNL     1      -4.827   7.643  -0.702  1.00  0.00     0.251 C 
ATOM     27  H   UNL     1      -4.908   5.644  -0.636  1.00  0.00     0.163 HD
ATOM     28  O   UNL     1      -6.047   7.783  -0.762  1.00  0.00    -0.269 OA
BRANCH  26  29
ATOM     29  C   UNL     1      -3.933   8.810  -0.817  1.00  0.00     0.039 A 
ATOM     30  C   UNL     1      -4.243   9.975  -0.113  1.00  0.00     0.014 A 
ATOM     31  C   UNL     1      -2.785   8.748  -1.615  1.00  0.00     0.014 A 
ATOM     32  C   UNL     1      -3.371  11.063  -0.169  1.00  0.00     0.010 A 
ATOM     33  C   UNL     1      -1.881   9.803  -1.605  1.00  0.00     0.010 A 
ATOM     34  C   UNL     1      -2.167  10.974  -0.889  1.00  0.00    -0.014 A 
BRANCH  34  35
ATOM     35  C   UNL     1      -1.198  12.098  -0.904  1.00  0.00     0.031 A 
ATOM     36  C   UNL     1      -0.872  12.795  -2.197  1.00  0.00     0.074 A 
ATOM     37  C   UNL     1      -0.573  12.452   0.236  1.00  0.00     0.049 A 
ATOM     38  N   UNL     1      -0.011  13.753  -2.424  1.00  0.00    -0.248 NA
ATOM     39  C   UNL     1      -1.589  12.338  -3.400  1.00  0.00     0.031 C 
ATOM     40  C   UNL     1      -0.772  11.818   1.542  1.00  0.00     0.029 A 
ATOM     41  N   UNL     1       0.364  13.424   0.481  1.00  0.00    -0.354 N 
ATOM     42  C   UNL     1      -0.076  14.007  -3.788  1.00  0.00     0.074 A 
ATOM     43  C   UNL     1      -1.016  13.063  -4.350  1.00  0.00     0.031 C 
ATOM     44  C   UNL     1      -0.001  12.433   2.452  1.00  0.00     0.029 A 
ATOM     45  C   UNL     1       0.780  13.473   1.791  1.00  0.00     0.049 A 
ATOM     46  H   UNL     1       0.707  14.029  -0.216  1.00  0.00     0.167 HD
ATOM     47  C   UNL     1       0.572  14.957  -4.504  1.00  0.00     0.037 A 
ATOM     48  C   UNL     1       1.695  14.261   2.389  1.00  0.00     0.037 A 
ATOM     49  C   UNL     1       1.492  15.906  -3.931  1.00  0.00     0.049 A 
ATOM     50  C   UNL     1       2.412  15.299   1.569  1.00  0.00     0.074 A 
ATOM     51  C   UNL     1       2.159  16.942  -4.561  1.00  0.00     0.029 A 
ATOM     52  N   UNL     1       1.877  15.934  -2.599  1.00  0.00    -0.354 N 
ATOM     53  N   UNL     1       2.290  15.569   0.290  1.00  0.00    -0.248 NA
ATOM     54  C   UNL     1       3.386  16.145   2.271  1.00  0.00     0.031 C 
ATOM     55  C   UNL     1       2.989  17.562  -3.621  1.00  0.00     0.029 A 
ATOM     56  C   UNL     1       2.793  16.953  -2.392  1.00  0.00     0.049 A 
ATOM     57  H   UNL     1       1.549  15.320  -1.903  1.00  0.00     0.167 HD
ATOM     58  C   UNL     1       3.149  16.635   0.043  1.00  0.00     0.074 A 
ATOM     59  C   UNL     1       3.772  16.969   1.307  1.00  0.00     0.031 C 
ATOM     60  C   UNL     1       3.398  17.279  -1.124  1.00  0.00     0.037 A 
BRANCH  47  61
ATOM     61  C   UNL     1       0.306  15.025  -5.984  1.00  0.00     0.058 A 
ATOM     62  C   UNL     1      -0.933  15.449  -6.492  1.00  0.00     0.135 A 
ATOM     63  C   UNL     1       1.317  14.712  -6.906  1.00  0.00     0.135 A 
ATOM     64  F   UNL     1      -1.942  15.745  -5.658  1.00  0.00    -0.206 F 
ATOM     65  C   UNL     1      -1.167  15.536  -7.861  1.00  0.00     0.059 A 
ATOM     66  C   UNL     1       1.116  14.822  -8.279  1.00  0.00     0.059 A 
ATOM     67  F   UNL     1       2.521  14.300  -6.476  1.00  0.00    -0.206 F 
ATOM     68  C   UNL     1      -0.134  15.224  -8.747  1.00  0.00     0.060 A 
BRANCH  68  69
ATOM     69  S   UNL     1      -0.451  15.361 -10.518  1.00  0.00     0.124 S 
ATOM     70  O   UNL     1      -1.350  14.233 -10.742  1.00  0.00    -0.237 OA
ATOM     71  O   UNL     1      -1.056  16.685 -10.624  1.00  0.00    -0.237 OA
ATOM     72  O   UNL     1       0.876  15.232 -11.113  1.00  0.00    -0.744 OA
ENDBRANCH  68  69
ENDBRANCH  47  61
BRANCH  48  73
ATOM     73  C   UNL     1       1.977  14.107   3.842  1.00  0.00     0.058 A 
ATOM     74  C   UNL     1       1.619  15.106   4.759  1.00  0.00     0.135 A 
ATOM     75  C   UNL     1       2.611  12.959   4.344  1.00  0.00     0.135 A 
ATOM     76  F   UNL     1       1.016  16.226   4.330  1.00  0.00    -0.206 F 
ATOM     77  C   UNL     1       1.901  14.987   6.116  1.00  0.00     0.059 A 
ATOM     78  C   UNL     1       2.875  12.802   5.701  1.00  0.00     0.059 A 
ATOM     79  F   UNL     1       2.958  11.964   3.513  1.00  0.00    -0.206 F 
ATOM     80  C   UNL     1       2.529  13.829   6.578  1.00  0.00     0.060 A 
BRANCH  80  81
ATOM     81  S   UNL     1       2.860  13.669   8.346  1.00  0.00     0.124 S 
ATOM     82  O   UNL     1       3.944  14.627   8.529  1.00  0.00    -0.237 OA
ATOM     83  O   UNL     1       1.575  14.038   8.931  1.00  0.00    -0.237 OA
ATOM     84  O   UNL     1       3.227  12.264   8.492  1.00  0.00    -0.744 OA
ENDBRANCH  80  81
ENDBRANCH  48  73
BRANCH  60  85
ATOM     85  C   UNL     1       4.358  18.437  -1.087  1.00  0.00     0.058 A 
ATOM     86  C   UNL     1       5.737  18.252  -0.903  1.00  0.00     0.135 A 
ATOM     87  C   UNL     1       3.895  19.748  -1.291  1.00  0.00     0.135 A 
ATOM     88  F   UNL     1       6.232  17.021  -0.696  1.00  0.00    -0.206 F 
ATOM     89  C   UNL     1       6.620  19.327  -0.897  1.00  0.00     0.059 A 
ATOM     90  C   UNL     1       4.764  20.834  -1.322  1.00  0.00     0.059 A 
ATOM     91  F   UNL     1       2.587  19.981  -1.484  1.00  0.00    -0.206 F 
ATOM     92  C   UNL     1       6.124  20.614  -1.111  1.00  0.00     0.060 A 
BRANCH  92  93
ATOM     93  S   UNL     1       7.286  21.995  -1.136  1.00  0.00     0.124 S 
ATOM     94  O   UNL     1       7.639  22.108   0.276  1.00  0.00    -0.237 OA
ATOM     95  O   UNL     1       8.340  21.499  -2.015  1.00  0.00    -0.237 OA
ATOM     96  O   UNL     1       6.495  23.097  -1.674  1.00  0.00    -0.744 OA
ENDBRANCH  92  93
ENDBRANCH  60  85
ENDBRANCH  34  35
ENDBRANCH  26  29
ENDBRANCH  24  25
ENDBRANCH  23  24
ENDBRANCH   1  23
TORSDOF 18
