REMARK SMILES CCOc1ccccc1N1CCN(c2ccc(NC(=O)C(C)(C)C)c(C(=O)NCCCCCCNC(=O)c3ccc(-c4c5nc(c(-c6c(F)cc(S(=O)(=O)[O-])cc6F)c6ccc([nH]6)c(-c6c(F)cc(S(=O)(=O)[O-])cc6F)c6nc(c(-c7c(F)cc(S(=O)(=O)[O-])cc7F)c7ccc4[nH]7)C=C6)C=C5)cc3)c2)CC1
REMARK SMILES IDX 31 1 30 2 29 3 28 4 26 5 27 6 25 8 14 9 15 10 104 11 16 12
REMARK SMILES IDX 17 13 13 14 10 15 11 16 106 17 12 18 105 19 9 20 4 21 5 22
REMARK SMILES IDX 6 23 8 24 7 25 3 26 2 27 1 28 18 29 19 30 20 32 21 33 22 34
REMARK SMILES IDX 23 35 24 36 32 37 33 38 34 39 35 40 36 41 37 43 38 44 39 45
REMARK SMILES IDX 103 46 40 47 102 48 41 49 42 50 43 51 96 52 44 53 101 54
REMARK SMILES IDX 95 55 97 56 45 57 100 58 94 59 93 60 46 62 80 63 59 64 79 65
REMARK SMILES IDX 60 66 63 67 78 68 98 69 61 70 62 71 77 73 99 74 64 75 47 76
REMARK SMILES IDX 48 77 57 78 49 79 50 80 56 81 58 82 51 83 52 84 53 85 54 86
REMARK SMILES IDX 55 87 81 88 82 89 91 90 83 91 84 92 90 93 92 94 85 95 86 96
REMARK SMILES IDX 87 97 88 98 89 99 65 100 66 101 75 102 67 103 68 104 74 105
REMARK SMILES IDX 76 106 69 107 70 108 71 109 72 110 73 111
REMARK H PARENT 28 7 18 31 35 42 97 61 63 72
REMARK Flexibility Score: inf
ROOT
ATOM      1  C   UNL     1       2.785   5.353  -5.191  1.00  0.00     0.002 C 
ENDROOT
BRANCH   1   2
ATOM      2  C   UNL     1       2.848   3.879  -4.806  1.00  0.00     0.021 C 
BRANCH   2   3
ATOM      3  C   UNL     1       1.518   3.160  -4.624  1.00  0.00     0.116 C 
BRANCH   3   4
ATOM      4  N   UNL     1       0.697   2.959  -5.819  1.00  0.00    -0.352 N 
ATOM      5  C   UNL     1      -0.199   1.936  -6.133  1.00  0.00     0.253 C 
ATOM      6  O   UNL     1      -0.787   1.962  -7.213  1.00  0.00    -0.269 OA
ATOM      7  H   UNL     1       0.790   3.655  -6.509  1.00  0.00     0.163 HD
BRANCH   5   8
ATOM      8  C   UNL     1      -0.390   0.758  -5.226  1.00  0.00     0.065 A 
ATOM      9  C   UNL     1       0.315  -0.018  -3.060  1.00  0.00     0.038 A 
ATOM     10  C   UNL     1       0.193  -1.319  -3.531  1.00  0.00     0.028 A 
ATOM     11  C   UNL     1      -0.224   0.977  -3.858  1.00  0.00     0.042 A 
ATOM     12  C   UNL     1      -0.311  -1.584  -4.805  1.00  0.00     0.029 A 
ATOM     13  C   UNL     1      -0.576  -0.558  -5.707  1.00  0.00     0.054 A 
BRANCH   9  14
ATOM     14  N   UNL     1       1.104   0.312  -1.971  1.00  0.00    -0.368 N 
ATOM     15  N   UNL     1       2.663   0.734   0.355  1.00  0.00    -0.365 N 
ATOM     16  C   UNL     1       3.293   0.027  -0.745  1.00  0.00     0.138 C 
ATOM     17  C   UNL     1       1.781   1.830  -0.039  1.00  0.00     0.138 C 
ATOM     18  C   UNL     1       2.204  -0.610  -1.619  1.00  0.00     0.138 C 
ATOM     19  C   UNL     1       0.678   1.352  -1.008  1.00  0.00     0.138 C 
BRANCH  15  20
ATOM     20  C   UNL     1       3.211   0.742   1.622  1.00  0.00     0.079 A 
ATOM     21  C   UNL     1       2.403   0.597   2.768  1.00  0.00     0.142 A 
ATOM     22  C   UNL     1       2.953   0.613   4.052  1.00  0.00     0.048 A 
ATOM     23  C   UNL     1       4.330   0.754   4.212  1.00  0.00     0.004 A 
ATOM     24  C   UNL     1       4.593   0.880   1.813  1.00  0.00     0.030 A 
ATOM     25  C   UNL     1       5.149   0.892   3.094  1.00  0.00     0.002 A 
BRANCH  21  26
ATOM     26  O   UNL     1       1.037   0.505   2.630  1.00  0.00    -0.492 OA
BRANCH  26  27
ATOM     27  C   UNL     1       0.560  -0.834   2.802  1.00  0.00     0.226 C 
ATOM     28  C   UNL     1       0.194  -1.435   1.457  1.00  0.00     0.049 C 
ENDBRANCH  26  27
ENDBRANCH  21  26
ENDBRANCH  15  20
ENDBRANCH   9  14
BRANCH  13  29
ATOM     29  N   UNL     1      -1.010  -0.764  -7.040  1.00  0.00    -0.325 N 
ATOM     30  C   UNL     1      -1.466  -1.807  -7.800  1.00  0.00     0.229 C 
ATOM     31  H   UNL     1      -0.973   0.070  -7.561  1.00  0.00     0.169 HD
ATOM     32  O   UNL     1      -1.733  -1.533  -8.980  1.00  0.00    -0.274 OA
BRANCH  30  33
ATOM     33  C   UNL     1      -1.665  -3.260  -7.307  1.00  0.00     0.041 C 
ATOM     34  C   UNL     1      -0.288  -3.923  -7.082  1.00  0.00     0.021 C 
ATOM     35  C   UNL     1      -2.618  -3.315  -6.092  1.00  0.00     0.021 C 
ATOM     36  C   UNL     1      -2.360  -4.106  -8.406  1.00  0.00     0.021 C 
ENDBRANCH  30  33
ENDBRANCH  13  29
ENDBRANCH   5   8
ENDBRANCH   3   4
ENDBRANCH   2   3
ENDBRANCH   1   2
BRANCH   1  37
ATOM     37  C   UNL     1       1.940   6.266  -4.298  1.00  0.00     0.002 C 
BRANCH  37  38
ATOM     38  C   UNL     1       2.242   6.251  -2.796  1.00  0.00     0.021 C 
BRANCH  38  39
ATOM     39  C   UNL     1       3.692   6.506  -2.392  1.00  0.00     0.116 C 
BRANCH  39  40
ATOM     40  N   UNL     1       4.204   7.775  -2.881  1.00  0.00    -0.352 N 
ATOM     41  C   UNL     1       4.843   8.786  -2.209  1.00  0.00     0.251 C 
ATOM     42  H   UNL     1       4.071   7.934  -3.843  1.00  0.00     0.163 HD
ATOM     43  O   UNL     1       5.069   9.849  -2.794  1.00  0.00    -0.269 OA
BRANCH  41  44
ATOM     44  C   UNL     1       5.243   8.630  -0.792  1.00  0.00     0.039 A 
ATOM     45  C   UNL     1       5.049   9.704   0.082  1.00  0.00     0.014 A 
ATOM     46  C   UNL     1       5.836   7.454  -0.325  1.00  0.00     0.014 A 
ATOM     47  C   UNL     1       5.397   9.579   1.430  1.00  0.00     0.010 A 
ATOM     48  C   UNL     1       6.117   7.305   1.033  1.00  0.00     0.010 A 
ATOM     49  C   UNL     1       5.906   8.367   1.925  1.00  0.00    -0.014 A 
BRANCH  49  50
ATOM     50  C   UNL     1       6.219   8.201   3.370  1.00  0.00     0.031 A 
ATOM     51  C   UNL     1       7.635   7.956   3.821  1.00  0.00     0.074 A 
ATOM     52  C   UNL     1       5.219   8.224   4.274  1.00  0.00     0.049 A 
ATOM     53  N   UNL     1       8.093   7.747   5.029  1.00  0.00    -0.248 NA
ATOM     54  C   UNL     1       8.668   7.917   2.774  1.00  0.00     0.031 C 
ATOM     55  C   UNL     1       3.800   8.405   3.960  1.00  0.00     0.029 A 
ATOM     56  N   UNL     1       5.239   8.087   5.640  1.00  0.00    -0.354 N 
ATOM     57  C   UNL     1       9.461   7.542   4.887  1.00  0.00     0.074 A 
ATOM     58  C   UNL     1       9.750   7.598   3.471  1.00  0.00     0.031 C 
ATOM     59  C   UNL     1       3.090   8.391   5.099  1.00  0.00     0.029 A 
ATOM     60  C   UNL     1       3.995   8.164   6.222  1.00  0.00     0.049 A 
ATOM     61  H   UNL     1       6.066   7.947   6.155  1.00  0.00     0.167 HD
ATOM     62  C   UNL     1      10.394   7.348   5.851  1.00  0.00     0.037 A 
ATOM     63  C   UNL     1       3.623   8.059   7.513  1.00  0.00     0.037 A 
ATOM     64  C   UNL     1      10.102   7.316   7.261  1.00  0.00     0.049 A 
ATOM     65  C   UNL     1       4.677   7.843   8.565  1.00  0.00     0.074 A 
ATOM     66  C   UNL     1      10.985   7.182   8.319  1.00  0.00     0.029 A 
ATOM     67  N   UNL     1       8.833   7.416   7.812  1.00  0.00    -0.354 N 
ATOM     68  N   UNL     1       5.974   7.716   8.417  1.00  0.00    -0.248 NA
ATOM     69  C   UNL     1       4.220   7.766   9.959  1.00  0.00     0.031 C 
ATOM     70  C   UNL     1      10.245   7.153   9.506  1.00  0.00     0.029 A 
ATOM     71  C   UNL     1       8.906   7.324   9.193  1.00  0.00     0.049 A 
ATOM     72  H   UNL     1       8.002   7.535   7.297  1.00  0.00     0.167 HD
ATOM     73  C   UNL     1       6.491   7.572   9.701  1.00  0.00     0.074 A 
ATOM     74  C   UNL     1       5.367   7.641  10.612  1.00  0.00     0.031 C 
ATOM     75  C   UNL     1       7.779   7.399  10.089  1.00  0.00     0.037 A 
BRANCH  62  76
ATOM     76  C   UNL     1      11.822   7.159   5.413  1.00  0.00     0.058 A 
ATOM     77  C   UNL     1      12.572   8.213   4.865  1.00  0.00     0.135 A 
ATOM     78  C   UNL     1      12.463   5.920   5.579  1.00  0.00     0.135 A 
ATOM     79  F   UNL     1      12.008   9.415   4.671  1.00  0.00    -0.206 F 
ATOM     80  C   UNL     1      13.894   8.037   4.468  1.00  0.00     0.059 A 
ATOM     81  C   UNL     1      13.794   5.730   5.217  1.00  0.00     0.059 A 
ATOM     82  F   UNL     1      11.796   4.878   6.099  1.00  0.00    -0.206 F 
ATOM     83  C   UNL     1      14.496   6.791   4.648  1.00  0.00     0.060 A 
BRANCH  83  84
ATOM     84  S   UNL     1      16.212   6.581   4.129  1.00  0.00     0.124 S 
ATOM     85  O   UNL     1      16.078   6.577   2.675  1.00  0.00    -0.237 OA
ATOM     86  O   UNL     1      16.858   7.757   4.702  1.00  0.00    -0.237 OA
ATOM     87  O   UNL     1      16.595   5.305   4.727  1.00  0.00    -0.744 OA
ENDBRANCH  83  84
ENDBRANCH  62  76
BRANCH  63  88
ATOM     88  C   UNL     1       2.187   8.180   7.884  1.00  0.00     0.058 A 
ATOM     89  C   UNL     1       1.713   9.298   8.586  1.00  0.00     0.135 A 
ATOM     90  C   UNL     1       1.258   7.187   7.535  1.00  0.00     0.135 A 
ATOM     91  F   UNL     1       2.563  10.271   8.948  1.00  0.00    -0.206 F 
ATOM     92  C   UNL     1       0.374   9.422   8.944  1.00  0.00     0.059 A 
ATOM     93  C   UNL     1      -0.091   7.301   7.858  1.00  0.00     0.059 A 
ATOM     94  F   UNL     1       1.656   6.104   6.850  1.00  0.00    -0.206 F 
ATOM     95  C   UNL     1      -0.521   8.418   8.573  1.00  0.00     0.060 A 
BRANCH  95  96
ATOM     96  S   UNL     1      -2.265   8.610   9.002  1.00  0.00     0.124 S 
ATOM     97  O   UNL     1      -2.242   8.367  10.440  1.00  0.00    -0.237 OA
ATOM     98  O   UNL     1      -2.532   9.985   8.590  1.00  0.00    -0.237 OA
ATOM     99  O   UNL     1      -2.923   7.584   8.198  1.00  0.00    -0.744 OA
ENDBRANCH  95  96
ENDBRANCH  63  88
BRANCH  75 100
ATOM    100  C   UNL     1       8.050   7.308  11.566  1.00  0.00     0.058 A 
ATOM    101  C   UNL     1       7.690   6.177  12.316  1.00  0.00     0.135 A 
ATOM    102  C   UNL     1       8.722   8.348  12.230  1.00  0.00     0.135 A 
ATOM    103  F   UNL     1       7.041   5.157  11.732  1.00  0.00    -0.206 F 
ATOM    104  C   UNL     1       7.962   6.092  13.677  1.00  0.00     0.059 A 
ATOM    105  C   UNL     1       9.030   8.271  13.584  1.00  0.00     0.059 A 
ATOM    106  F   UNL     1       9.099   9.447  11.558  1.00  0.00    -0.206 F 
ATOM    107  C   UNL     1       8.634   7.144  14.303  1.00  0.00     0.060 A 
BRANCH 107 108
ATOM    108  S   UNL     1       9.006   7.008  16.064  1.00  0.00     0.124 S 
ATOM    109  O   UNL     1       7.691   7.217  16.659  1.00  0.00    -0.237 OA
ATOM    110  O   UNL     1       9.540   5.653  16.166  1.00  0.00    -0.237 OA
ATOM    111  O   UNL     1       9.976   8.076  16.290  1.00  0.00    -0.744 OA
ENDBRANCH 107 108
ENDBRANCH  75 100
ENDBRANCH  49  50
ENDBRANCH  41  44
ENDBRANCH  39  40
ENDBRANCH  38  39
ENDBRANCH  37  38
ENDBRANCH   1  37
TORSDOF 22
