REMARK SMILES C[C@H](C(=O)NCCCCCCNC(=O)c1ccc(-c2c3nc(c(-c4c(F)cc(S(=O)(=O)[O-])cc4F)c4ccc([nH]4)c(-c4c(F)cc(S(=O)(=O)[O-])cc4F)c4nc(c(-c5c(F)cc(S(=O)(=O)[O-])cc5F)c5ccc2[nH]5)C=C4)C=C3)cc1)c1ccc(-c2ccccc2)c(F)c1
REMARK SMILES IDX 9 1 8 2 7 3 6 4 5 5 3 6 4 7 2 9 1 10 81 11 82 12 93 13 83 14
REMARK SMILES IDX 91 15 84 16 92 17 85 18 86 19 90 20 87 21 89 22 88 23 10 24
REMARK SMILES IDX 11 25 12 26 13 27 14 29 15 30 16 31 80 32 17 33 79 34 18 35
REMARK SMILES IDX 19 36 20 37 73 38 21 39 78 40 72 41 74 42 22 43 77 44 71 45
REMARK SMILES IDX 70 46 23 48 57 49 36 50 56 51 37 52 40 53 55 54 75 55 38 56
REMARK SMILES IDX 39 57 54 59 76 60 41 61 24 62 25 63 34 64 26 65 27 66 33 67
REMARK SMILES IDX 35 68 28 69 29 70 30 71 31 72 32 73 58 74 59 75 68 76 60 77
REMARK SMILES IDX 61 78 67 79 69 80 62 81 63 82 64 83 65 84 66 85 42 86 43 87
REMARK SMILES IDX 52 88 44 89 45 90 51 91 53 92 46 93 47 94 48 95 49 96 50 97
REMARK H PARENT 5 8 12 28 74 47 40 58
REMARK Flexibility Score: inf
ROOT
ATOM      1  C   UNL     1       2.010  -3.775  -3.075  1.00  0.00     0.002 C 
ENDROOT
BRANCH   1   2
ATOM      2  C   UNL     1       2.719  -2.417  -3.047  1.00  0.00     0.002 C 
BRANCH   2   3
ATOM      3  C   UNL     1       1.796  -1.202  -3.201  1.00  0.00     0.021 C 
BRANCH   3   4
ATOM      4  C   UNL     1       0.709  -1.121  -2.134  1.00  0.00     0.116 C 
BRANCH   4   5
ATOM      5  N   UNL     1       1.287  -0.921  -0.818  1.00  0.00    -0.356 N 
ATOM      6  C   UNL     1       1.278   0.170  -0.004  1.00  0.00     0.227 C 
ATOM      7  O   UNL     1       1.852   0.069   1.085  1.00  0.00    -0.274 OA
ATOM      8  H   UNL     1       1.763  -1.702  -0.454  1.00  0.00     0.163 HD
BRANCH   6   9
ATOM      9  C   UNL     1       0.569   1.469  -0.395  1.00  0.00     0.105 C 
ATOM     10  C   UNL     1       1.104   2.061  -1.705  1.00  0.00     0.023 C 
BRANCH   9  11
ATOM     11  C   UNL     1      -0.954   1.435  -0.322  1.00  0.00    -0.033 A 
ATOM     12  C   UNL     1      -1.673   2.637  -0.410  1.00  0.00     0.005 A 
ATOM     13  C   UNL     1      -1.688   0.254  -0.149  1.00  0.00     0.044 A 
ATOM     14  C   UNL     1      -3.074   2.651  -0.357  1.00  0.00     0.012 A 
ATOM     15  C   UNL     1      -3.083   0.272  -0.114  1.00  0.00     0.131 A 
ATOM     16  C   UNL     1      -3.809   1.463  -0.217  1.00  0.00     0.017 A 
ATOM     17  F   UNL     1      -3.718  -0.903   0.015  1.00  0.00    -0.206 F 
BRANCH  16  18
ATOM     18  C   UNL     1      -5.280   1.481  -0.173  1.00  0.00    -0.015 A 
ATOM     19  C   UNL     1      -6.027   2.163  -1.149  1.00  0.00     0.009 A 
ATOM     20  C   UNL     1      -5.984   0.815   0.845  1.00  0.00     0.009 A 
ATOM     21  C   UNL     1      -7.423   2.183  -1.105  1.00  0.00     0.001 A 
ATOM     22  C   UNL     1      -7.380   0.833   0.890  1.00  0.00     0.001 A 
ATOM     23  C   UNL     1      -8.099   1.519  -0.084  1.00  0.00     0.000 A 
ENDBRANCH  16  18
ENDBRANCH   9  11
ENDBRANCH   6   9
ENDBRANCH   4   5
ENDBRANCH   3   4
ENDBRANCH   2   3
ENDBRANCH   1   2
BRANCH   1  24
ATOM     24  C   UNL     1       1.143  -4.024  -4.311  1.00  0.00     0.021 C 
BRANCH  24  25
ATOM     25  C   UNL     1       1.884  -3.905  -5.638  1.00  0.00     0.116 C 
BRANCH  25  26
ATOM     26  N   UNL     1       2.956  -4.880  -5.754  1.00  0.00    -0.352 N 
ATOM     27  C   UNL     1       3.200  -5.782  -6.757  1.00  0.00     0.251 C 
ATOM     28  H   UNL     1       3.598  -4.894  -5.008  1.00  0.00     0.163 HD
ATOM     29  O   UNL     1       4.036  -6.669  -6.594  1.00  0.00    -0.269 OA
BRANCH  27  30
ATOM     30  C   UNL     1       2.442  -5.698  -8.024  1.00  0.00     0.039 A 
ATOM     31  C   UNL     1       1.935  -6.870  -8.588  1.00  0.00     0.014 A 
ATOM     32  C   UNL     1       2.234  -4.467  -8.653  1.00  0.00     0.014 A 
ATOM     33  C   UNL     1       1.172  -6.800  -9.755  1.00  0.00     0.010 A 
ATOM     34  C   UNL     1       1.408  -4.391  -9.772  1.00  0.00     0.010 A 
ATOM     35  C   UNL     1       0.873  -5.557 -10.338  1.00  0.00    -0.014 A 
BRANCH  35  36
ATOM     36  C   UNL     1       0.007  -5.464 -11.542  1.00  0.00     0.031 A 
ATOM     37  C   UNL     1       0.560  -4.924 -12.834  1.00  0.00     0.074 A 
ATOM     38  C   UNL     1      -1.290  -5.823 -11.458  1.00  0.00     0.049 A 
ATOM     39  N   UNL     1      -0.051  -4.719 -13.972  1.00  0.00    -0.248 NA
ATOM     40  C   UNL     1       1.981  -4.540 -12.841  1.00  0.00     0.031 C 
ATOM     41  C   UNL     1      -1.955  -6.317 -10.250  1.00  0.00     0.029 A 
ATOM     42  N   UNL     1      -2.284  -5.823 -12.404  1.00  0.00    -0.354 N 
ATOM     43  C   UNL     1       0.907  -4.188 -14.828  1.00  0.00     0.074 A 
ATOM     44  C   UNL     1       2.122  -4.036 -14.058  1.00  0.00     0.031 C 
ATOM     45  C   UNL     1      -3.238  -6.593 -10.534  1.00  0.00     0.029 A 
ATOM     46  C   UNL     1      -3.500  -6.259 -11.930  1.00  0.00     0.049 A 
ATOM     47  H   UNL     1      -2.142  -5.537 -13.335  1.00  0.00     0.167 HD
ATOM     48  C   UNL     1       0.794  -3.883 -16.143  1.00  0.00     0.037 A 
ATOM     49  C   UNL     1      -4.693  -6.369 -12.547  1.00  0.00     0.037 A 
ATOM     50  C   UNL     1      -0.416  -4.046 -16.907  1.00  0.00     0.049 A 
ATOM     51  C   UNL     1      -4.799  -5.997 -14.003  1.00  0.00     0.074 A 
ATOM     52  C   UNL     1      -0.626  -3.794 -18.251  1.00  0.00     0.029 A 
ATOM     53  N   UNL     1      -1.622  -4.502 -16.394  1.00  0.00    -0.354 N 
ATOM     54  N   UNL     1      -3.866  -5.549 -14.810  1.00  0.00    -0.248 NA
ATOM     55  C   UNL     1      -6.116  -6.155 -14.634  1.00  0.00     0.031 C 
ATOM     56  C   UNL     1      -1.970  -4.054 -18.541  1.00  0.00     0.029 A 
ATOM     57  C   UNL     1      -2.584  -4.523 -17.391  1.00  0.00     0.049 A 
ATOM     58  H   UNL     1      -1.772  -4.772 -15.459  1.00  0.00     0.167 HD
ATOM     59  C   UNL     1      -4.477  -5.403 -16.051  1.00  0.00     0.074 A 
ATOM     60  C   UNL     1      -5.853  -5.825 -15.891  1.00  0.00     0.031 C 
ATOM     61  C   UNL     1      -3.948  -4.958 -17.218  1.00  0.00     0.037 A 
BRANCH  48  62
ATOM     62  C   UNL     1       2.018  -3.357 -16.845  1.00  0.00     0.058 A 
ATOM     63  C   UNL     1       3.132  -4.177 -17.090  1.00  0.00     0.135 A 
ATOM     64  C   UNL     1       2.065  -2.035 -17.316  1.00  0.00     0.135 A 
ATOM     65  F   UNL     1       3.150  -5.445 -16.649  1.00  0.00    -0.206 F 
ATOM     66  C   UNL     1       4.259  -3.697 -17.750  1.00  0.00     0.059 A 
ATOM     67  C   UNL     1       3.170  -1.543 -18.006  1.00  0.00     0.059 A 
ATOM     68  F   UNL     1       1.029  -1.206 -17.110  1.00  0.00    -0.206 F 
ATOM     69  C   UNL     1       4.267  -2.378 -18.206  1.00  0.00     0.060 A 
BRANCH  69  70
ATOM     70  S   UNL     1       5.734  -1.778 -19.070  1.00  0.00     0.124 S 
ATOM     71  O   UNL     1       6.699  -1.690 -17.978  1.00  0.00    -0.237 OA
ATOM     72  O   UNL     1       5.976  -2.836 -20.045  1.00  0.00    -0.237 OA
ATOM     73  O   UNL     1       5.302  -0.500 -19.628  1.00  0.00    -0.744 OA
ENDBRANCH  69  70
ENDBRANCH  48  62
BRANCH  49  74
ATOM     74  C   UNL     1      -5.882  -6.858 -11.798  1.00  0.00     0.058 A 
ATOM     75  C   UNL     1      -6.473  -8.094 -12.102  1.00  0.00     0.135 A 
ATOM     76  C   UNL     1      -6.463  -6.093 -10.773  1.00  0.00     0.135 A 
ATOM     77  F   UNL     1      -5.959  -8.861 -13.075  1.00  0.00    -0.206 F 
ATOM     78  C   UNL     1      -7.614  -8.540 -11.442  1.00  0.00     0.059 A 
ATOM     79  C   UNL     1      -7.585  -6.532 -10.077  1.00  0.00     0.059 A 
ATOM     80  F   UNL     1      -5.926  -4.912 -10.428  1.00  0.00    -0.206 F 
ATOM     81  C   UNL     1      -8.163  -7.750 -10.431  1.00  0.00     0.060 A 
BRANCH  81  82
ATOM     82  S   UNL     1      -9.634  -8.346  -9.569  1.00  0.00     0.124 S 
ATOM     83  O   UNL     1     -10.662  -8.172 -10.588  1.00  0.00    -0.237 OA
ATOM     84  O   UNL     1      -9.268  -9.724  -9.257  1.00  0.00    -0.237 OA
ATOM     85  O   UNL     1      -9.730  -7.454  -8.416  1.00  0.00    -0.744 OA
ENDBRANCH  81  82
ENDBRANCH  49  74
BRANCH  61  86
ATOM     86  C   UNL     1      -4.845  -4.947 -18.427  1.00  0.00     0.058 A 
ATOM     87  C   UNL     1      -5.900  -4.031 -18.559  1.00  0.00     0.135 A 
ATOM     88  C   UNL     1      -4.618  -5.841 -19.486  1.00  0.00     0.135 A 
ATOM     89  F   UNL     1      -6.165  -3.158 -17.573  1.00  0.00    -0.206 F 
ATOM     90  C   UNL     1      -6.716  -4.020 -19.686  1.00  0.00     0.059 A 
ATOM     91  C   UNL     1      -5.401  -5.826 -20.636  1.00  0.00     0.059 A 
ATOM     92  F   UNL     1      -3.615  -6.732 -19.417  1.00  0.00    -0.206 F 
ATOM     93  C   UNL     1      -6.457  -4.921 -20.720  1.00  0.00     0.060 A 
BRANCH  93  94
ATOM     94  S   UNL     1      -7.506  -4.876 -22.188  1.00  0.00     0.124 S 
ATOM     95  O   UNL     1      -8.745  -5.457 -21.682  1.00  0.00    -0.237 OA
ATOM     96  O   UNL     1      -7.553  -3.449 -22.494  1.00  0.00    -0.237 OA
ATOM     97  O   UNL     1      -6.777  -5.694 -23.153  1.00  0.00    -0.744 OA
ENDBRANCH  93  94
ENDBRANCH  61  86
ENDBRANCH  35  36
ENDBRANCH  27  30
ENDBRANCH  25  26
ENDBRANCH  24  25
ENDBRANCH   1  24
TORSDOF 18
