REMARK SMILES CCOc1ccc2[nH]c(=O)c(C(=O)NCCCCCCNC(=O)c3ccc(-c4c5nc(c(-c6c(F)cc(S(=O)(=O)[O-])cc6F)c6ccc([nH]6)c(-c6c(F)cc(S(=O)(=O)[O-])cc6F)c6nc(c(-c7c(F)cc(S(=O)(=O)[O-])cc7F)c7ccc4[nH]7)C=C6)C=C5)cc3)cc2c1
REMARK SMILES IDX 18 1 17 2 16 3 15 4 14 5 12 6 13 7 11 9 4 10 5 11 92 12 6 13
REMARK SMILES IDX 91 14 7 15 90 16 8 17 9 18 10 20 3 21 2 22 1 23 19 24 20 25
REMARK SMILES IDX 21 26 22 27 23 29 24 30 25 31 89 32 26 33 88 34 27 35 28 36
REMARK SMILES IDX 29 37 82 38 30 39 87 40 81 41 83 42 31 43 86 44 80 45 79 46
REMARK SMILES IDX 32 48 66 49 45 50 65 51 46 52 49 53 64 54 84 55 47 56 48 57
REMARK SMILES IDX 63 59 85 60 50 61 33 62 34 63 43 64 35 65 36 66 42 67 44 68
REMARK SMILES IDX 37 69 38 70 39 71 40 72 41 73 67 74 68 75 77 76 69 77 70 78
REMARK SMILES IDX 76 79 78 80 71 81 72 82 73 83 74 84 75 85 51 86 52 87 61 88
REMARK SMILES IDX 53 89 54 90 60 91 62 92 55 93 56 94 57 95 58 96 59 97
REMARK H PARENT 14 8 8 19 21 28 83 47 49 58
REMARK Flexibility Score: inf
ROOT
ATOM      1  C   UNL     1      11.592  -7.495   2.440  1.00  0.00     0.002 C 
ENDROOT
BRANCH   1   2
ATOM      2  C   UNL     1      10.532  -7.502   3.545  1.00  0.00     0.002 C 
BRANCH   2   3
ATOM      3  C   UNL     1       9.638  -6.263   3.639  1.00  0.00     0.021 C 
BRANCH   3   4
ATOM      4  C   UNL     1       8.891  -5.869   2.368  1.00  0.00     0.116 C 
BRANCH   4   5
ATOM      5  N   UNL     1       7.886  -6.832   1.948  1.00  0.00    -0.352 N 
ATOM      6  C   UNL     1       6.682  -6.641   1.328  1.00  0.00     0.256 C 
ATOM      7  O   UNL     1       6.011  -7.643   1.064  1.00  0.00    -0.269 OA
ATOM      8  H   UNL     1       8.108  -7.771   2.140  1.00  0.00     0.163 HD
BRANCH   6   9
ATOM      9  C   UNL     1       6.136  -5.276   1.062  1.00  0.00     0.105 A 
ATOM     10  C   UNL     1       2.268  -2.316   0.967  1.00  0.00     0.120 A 
ATOM     11  C   UNL     1       3.111  -1.218   1.136  1.00  0.00     0.048 A 
ATOM     12  C   UNL     1       2.785  -3.615   0.964  1.00  0.00     0.056 A 
ATOM     13  C   UNL     1       4.490  -1.394   1.152  1.00  0.00     0.030 A 
ATOM     14  C   UNL     1       4.171  -3.804   1.026  1.00  0.00     0.003 A 
ATOM     15  C   UNL     1       5.008  -2.681   1.057  1.00  0.00     0.049 A 
ATOM     16  C   UNL     1       4.794  -5.130   1.123  1.00  0.00     0.030 A 
ATOM     17  N   UNL     1       6.385  -2.857   0.914  1.00  0.00    -0.321 N 
ATOM     18  C   UNL     1       6.961  -4.084   0.720  1.00  0.00     0.261 A 
ATOM     19  H   UNL     1       6.968  -2.064   0.954  1.00  0.00     0.170 HD
ATOM     20  O   UNL     1       8.110  -4.160   0.294  1.00  0.00    -0.269 OA
BRANCH  10  21
ATOM     21  O   UNL     1       0.912  -2.141   0.901  1.00  0.00    -0.494 OA
BRANCH  21  22
ATOM     22  C   UNL     1       0.488  -1.560  -0.345  1.00  0.00     0.226 C 
ATOM     23  C   UNL     1       0.490  -0.037  -0.312  1.00  0.00     0.049 C 
ENDBRANCH  21  22
ENDBRANCH  10  21
ENDBRANCH   6   9
ENDBRANCH   4   5
ENDBRANCH   3   4
ENDBRANCH   2   3
ENDBRANCH   1   2
BRANCH   1  24
ATOM     24  C   UNL     1      12.512  -6.273   2.388  1.00  0.00     0.021 C 
BRANCH  24  25
ATOM     25  C   UNL     1      13.236  -5.930   3.686  1.00  0.00     0.116 C 
BRANCH  25  26
ATOM     26  N   UNL     1      14.099  -7.003   4.151  1.00  0.00    -0.352 N 
ATOM     27  C   UNL     1      15.431  -6.975   4.486  1.00  0.00     0.251 C 
ATOM     28  H   UNL     1      13.663  -7.881   4.240  1.00  0.00     0.163 HD
ATOM     29  O   UNL     1      16.025  -8.025   4.708  1.00  0.00    -0.269 OA
BRANCH  27  30
ATOM     30  C   UNL     1      16.156  -5.685   4.556  1.00  0.00     0.039 A 
ATOM     31  C   UNL     1      17.429  -5.597   3.986  1.00  0.00     0.014 A 
ATOM     32  C   UNL     1      15.596  -4.572   5.188  1.00  0.00     0.014 A 
ATOM     33  C   UNL     1      18.111  -4.378   3.995  1.00  0.00     0.010 A 
ATOM     34  C   UNL     1      16.245  -3.340   5.131  1.00  0.00     0.010 A 
ATOM     35  C   UNL     1      17.511  -3.229   4.536  1.00  0.00    -0.014 A 
BRANCH  35  36
ATOM     36  C   UNL     1      18.190  -1.907   4.480  1.00  0.00     0.031 A 
ATOM     37  C   UNL     1      18.580  -1.198   5.750  1.00  0.00     0.074 A 
ATOM     38  C   UNL     1      18.404  -1.319   3.286  1.00  0.00     0.049 A 
ATOM     39  N   UNL     1      19.126  -0.019   5.903  1.00  0.00    -0.248 NA
ATOM     40  C   UNL     1      18.296  -1.895   7.015  1.00  0.00     0.031 C 
ATOM     41  C   UNL     1      18.030  -1.883   1.987  1.00  0.00     0.029 A 
ATOM     42  N   UNL     1      18.978  -0.113   2.968  1.00  0.00    -0.354 N 
ATOM     43  C   UNL     1      19.242   0.171   7.275  1.00  0.00     0.074 A 
ATOM     44  C   UNL     1      18.659  -0.989   7.912  1.00  0.00     0.031 C 
ATOM     45  C   UNL     1      18.406  -1.038   1.014  1.00  0.00     0.029 A 
ATOM     46  C   UNL     1      19.006   0.148   1.618  1.00  0.00     0.049 A 
ATOM     47  H   UNL     1      19.336   0.507   3.643  1.00  0.00     0.167 HD
ATOM     48  C   UNL     1      19.805   1.207   7.943  1.00  0.00     0.037 A 
ATOM     49  C   UNL     1      19.454   1.224   0.941  1.00  0.00     0.037 A 
ATOM     50  C   UNL     1      20.399   2.352   7.301  1.00  0.00     0.049 A 
ATOM     51  C   UNL     1      20.061   2.370   1.706  1.00  0.00     0.074 A 
ATOM     52  C   UNL     1      21.044   3.428   7.887  1.00  0.00     0.029 A 
ATOM     53  N   UNL     1      20.417   2.575   5.931  1.00  0.00    -0.354 N 
ATOM     54  N   UNL     1      20.223   2.502   3.001  1.00  0.00    -0.248 NA
ATOM     55  C   UNL     1      20.550   3.510   0.919  1.00  0.00     0.031 C 
ATOM     56  C   UNL     1      21.402   4.327   6.877  1.00  0.00     0.029 A 
ATOM     57  C   UNL     1      21.036   3.783   5.656  1.00  0.00     0.049 A 
ATOM     58  H   UNL     1      20.044   1.964   5.255  1.00  0.00     0.167 HD
ATOM     59  C   UNL     1      20.858   3.726   3.182  1.00  0.00     0.074 A 
ATOM     60  C   UNL     1      21.063   4.288   1.863  1.00  0.00     0.031 C 
ATOM     61  C   UNL     1      21.238   4.330   4.336  1.00  0.00     0.037 A 
BRANCH  48  62
ATOM     62  C   UNL     1      19.805   1.154   9.448  1.00  0.00     0.058 A 
ATOM     63  C   UNL     1      20.591   0.229  10.155  1.00  0.00     0.135 A 
ATOM     64  C   UNL     1      19.041   2.065  10.196  1.00  0.00     0.135 A 
ATOM     65  F   UNL     1      21.331  -0.676   9.494  1.00  0.00    -0.206 F 
ATOM     66  C   UNL     1      20.596   0.189  11.546  1.00  0.00     0.059 A 
ATOM     67  C   UNL     1      19.056   2.064  11.588  1.00  0.00     0.059 A 
ATOM     68  F   UNL     1      18.271   2.972   9.574  1.00  0.00    -0.206 F 
ATOM     69  C   UNL     1      19.825   1.112  12.254  1.00  0.00     0.060 A 
BRANCH  69  70
ATOM     70  S   UNL     1      19.849   1.050  14.058  1.00  0.00     0.124 S 
ATOM     71  O   UNL     1      19.099  -0.176  14.317  1.00  0.00    -0.237 OA
ATOM     72  O   UNL     1      21.278   0.990  14.348  1.00  0.00    -0.237 OA
ATOM     73  O   UNL     1      19.183   2.287  14.451  1.00  0.00    -0.744 OA
ENDBRANCH  69  70
ENDBRANCH  48  62
BRANCH  49  74
ATOM     74  C   UNL     1      19.360   1.261  -0.544  1.00  0.00     0.058 A 
ATOM     75  C   UNL     1      20.510   1.199  -1.344  1.00  0.00     0.135 A 
ATOM     76  C   UNL     1      18.118   1.351  -1.194  1.00  0.00     0.135 A 
ATOM     77  F   UNL     1      21.721   1.121  -0.772  1.00  0.00    -0.206 F 
ATOM     78  C   UNL     1      20.437   1.242  -2.733  1.00  0.00     0.059 A 
ATOM     79  C   UNL     1      18.017   1.366  -2.581  1.00  0.00     0.059 A 
ATOM     80  F   UNL     1      16.985   1.398  -0.476  1.00  0.00    -0.206 F 
ATOM     81  C   UNL     1      19.184   1.322  -3.343  1.00  0.00     0.060 A 
BRANCH  81  82
ATOM     82  S   UNL     1      19.098   1.334  -5.147  1.00  0.00     0.124 S 
ATOM     83  O   UNL     1      19.613   2.662  -5.457  1.00  0.00    -0.237 OA
ATOM     84  O   UNL     1      19.965   0.214  -5.500  1.00  0.00    -0.237 OA
ATOM     85  O   UNL     1      17.678   1.128  -5.416  1.00  0.00    -0.744 OA
ENDBRANCH  81  82
ENDBRANCH  49  74
BRANCH  61  86
ATOM     86  C   UNL     1      21.945   5.654   4.227  1.00  0.00     0.058 A 
ATOM     87  C   UNL     1      21.271   6.824   3.844  1.00  0.00     0.135 A 
ATOM     88  C   UNL     1      23.305   5.762   4.561  1.00  0.00     0.135 A 
ATOM     89  F   UNL     1      19.973   6.778   3.507  1.00  0.00    -0.206 F 
ATOM     90  C   UNL     1      21.927   8.050   3.771  1.00  0.00     0.059 A 
ATOM     91  C   UNL     1      23.973   6.982   4.527  1.00  0.00     0.059 A 
ATOM     92  F   UNL     1      23.995   4.676   4.945  1.00  0.00    -0.206 F 
ATOM     93  C   UNL     1      23.277   8.119   4.119  1.00  0.00     0.060 A 
BRANCH  93  94
ATOM     94  S   UNL     1      24.106   9.722   4.054  1.00  0.00     0.124 S 
ATOM     95  O   UNL     1      24.219   9.936   2.615  1.00  0.00    -0.237 OA
ATOM     96  O   UNL     1      23.161  10.588   4.752  1.00  0.00    -0.237 OA
ATOM     97  O   UNL     1      25.364   9.483   4.754  1.00  0.00    -0.744 OA
ENDBRANCH  93  94
ENDBRANCH  61  86
ENDBRANCH  35  36
ENDBRANCH  27  30
ENDBRANCH  25  26
ENDBRANCH  24  25
ENDBRANCH   1  24
TORSDOF 18
