REMARK SMILES C=CCN(CC(=O)NCCCCCCNC(=O)c1ccc(-c2c3nc(c(-c4c(F)cc(S(=O)(=O)[O-])cc4F)c4ccc([nH]4)c(-c4c(F)cc(S(=O)(=O)[O-])cc4F)c4nc(c(-c5c(F)cc(S(=O)(=O)[O-])cc5F)c5ccc2[nH]5)C=C4)C=C3)cc1)C(=O)N1CC[C@@H]([NH+]2CCCCC2)C1
REMARK SMILES IDX 11 1 10 2 9 3 8 4 6 5 7 6 5 8 4 9 3 10 2 11 1 12 84 13 85 14
REMARK SMILES IDX 86 15 87 16 96 17 88 18 89 19 90 20 91 21 95 22 92 24 94 25
REMARK SMILES IDX 93 26 12 27 13 28 14 29 15 30 16 31 17 33 18 34 19 35 83 36
REMARK SMILES IDX 20 37 82 38 21 39 22 40 23 41 76 42 24 43 81 44 75 45 77 46
REMARK SMILES IDX 25 47 80 48 74 49 73 50 26 52 60 53 39 54 59 55 40 56 43 57
REMARK SMILES IDX 58 58 78 59 41 60 42 61 57 63 79 64 44 65 27 66 28 67 37 68
REMARK SMILES IDX 29 69 30 70 36 71 38 72 31 73 32 74 33 75 34 76 35 77 61 78
REMARK SMILES IDX 62 79 71 80 63 81 64 82 70 83 72 84 65 85 66 86 67 87 68 88
REMARK SMILES IDX 69 89 45 90 46 91 55 92 47 93 48 94 54 95 56 96 49 97 50 98
REMARK SMILES IDX 51 99 52 100 53 101
REMARK H PARENT 8 7 90 23 15 32 77 51 43 62
REMARK Flexibility Score: inf
ROOT
ATOM      1  C   UNL     1      -5.689  -1.049  -1.065  1.00  0.00     0.002 C 
ENDROOT
BRANCH   1   2
ATOM      2  C   UNL     1      -4.309  -0.648  -0.527  1.00  0.00     0.021 C 
BRANCH   2   3
ATOM      3  C   UNL     1      -4.295  -0.079   0.890  1.00  0.00     0.116 C 
BRANCH   3   4
ATOM      4  N   UNL     1      -4.554  -1.046   1.926  1.00  0.00    -0.355 N 
ATOM      5  C   UNL     1      -3.715  -1.561   2.865  1.00  0.00     0.239 C 
ATOM      6  O   UNL     1      -4.247  -2.016   3.887  1.00  0.00    -0.273 OA
ATOM      7  H   UNL     1      -5.478  -1.387   1.959  1.00  0.00     0.163 HD
BRANCH   5   8
ATOM      8  C   UNL     1      -2.167  -1.585   2.733  1.00  0.00     0.221 C 
BRANCH   8   9
ATOM      9  N   UNL     1      -1.484  -1.686   1.426  1.00  0.00    -0.312 N 
BRANCH   9  10
ATOM     10  C   UNL     1      -0.952  -0.439   0.884  1.00  0.00     0.149 C 
BRANCH  10  11
ATOM     11  C   UNL     1       0.527  -0.317   1.079  1.00  0.00    -0.013 C 
ATOM     12  C   UNL     1       1.359   0.007   0.078  1.00  0.00     0.006 C 
ENDBRANCH  10  11
ENDBRANCH   9  10
BRANCH   9  13
ATOM     13  C   UNL     1      -1.096  -2.873   0.794  1.00  0.00     0.320 C 
ATOM     14  O   UNL     1      -0.249  -2.897  -0.100  1.00  0.00    -0.248 OA
BRANCH  13  15
ATOM     15  N   UNL     1      -1.650  -4.051   1.217  1.00  0.00    -0.318 N 
ATOM     16  C   UNL     1      -3.032  -4.266   1.488  1.00  0.00     0.128 C 
ATOM     17  C   UNL     1      -1.048  -5.373   0.992  1.00  0.00     0.186 C 
ATOM     18  C   UNL     1      -2.990  -5.444   2.419  1.00  0.00     0.088 C 
ATOM     19  C   UNL     1      -2.022  -6.393   1.705  1.00  0.00     0.205 C 
BRANCH  19  20
ATOM     20  N   UNL     1      -2.648  -7.439   0.864  1.00  0.00    -0.331 N 
ATOM     21  C   UNL     1      -3.519  -7.027  -0.240  1.00  0.00     0.262 C 
ATOM     22  C   UNL     1      -3.268  -8.538   1.619  1.00  0.00     0.262 C 
ATOM     23  H   UNL     1      -1.807  -7.779   0.398  1.00  0.00     0.348 HD
ATOM     24  C   UNL     1      -4.968  -6.692   0.142  1.00  0.00     0.062 C 
ATOM     25  C   UNL     1      -4.691  -8.283   2.125  1.00  0.00     0.062 C 
ATOM     26  C   UNL     1      -5.620  -7.726   1.050  1.00  0.00     0.012 C 
ENDBRANCH  19  20
ENDBRANCH  13  15
ENDBRANCH   9  13
ENDBRANCH   8   9
ENDBRANCH   5   8
ENDBRANCH   3   4
ENDBRANCH   2   3
ENDBRANCH   1   2
BRANCH   1  27
ATOM     27  C   UNL     1      -6.806  -0.011  -0.901  1.00  0.00     0.002 C 
BRANCH  27  28
ATOM     28  C   UNL     1      -6.487   1.397  -1.408  1.00  0.00     0.021 C 
BRANCH  28  29
ATOM     29  C   UNL     1      -6.206   1.494  -2.902  1.00  0.00     0.116 C 
BRANCH  29  30
ATOM     30  N   UNL     1      -7.388   1.210  -3.700  1.00  0.00    -0.352 N 
ATOM     31  C   UNL     1      -7.998   1.990  -4.651  1.00  0.00     0.251 C 
ATOM     32  H   UNL     1      -7.810   0.336  -3.536  1.00  0.00     0.163 HD
ATOM     33  O   UNL     1      -9.109   1.677  -5.081  1.00  0.00    -0.269 OA
BRANCH  31  34
ATOM     34  C   UNL     1      -7.330   3.215  -5.143  1.00  0.00     0.039 A 
ATOM     35  C   UNL     1      -8.074   4.389  -5.284  1.00  0.00     0.014 A 
ATOM     36  C   UNL     1      -5.970   3.205  -5.465  1.00  0.00     0.014 A 
ATOM     37  C   UNL     1      -7.441   5.567  -5.690  1.00  0.00     0.010 A 
ATOM     38  C   UNL     1      -5.326   4.394  -5.794  1.00  0.00     0.010 A 
ATOM     39  C   UNL     1      -6.054   5.588  -5.917  1.00  0.00    -0.014 A 
BRANCH  39  40
ATOM     40  C   UNL     1      -5.345   6.836  -6.305  1.00  0.00     0.031 A 
ATOM     41  C   UNL     1      -4.643   6.912  -7.636  1.00  0.00     0.074 A 
ATOM     42  C   UNL     1      -5.275   7.870  -5.442  1.00  0.00     0.049 A 
ATOM     43  N   UNL     1      -3.870   7.855  -8.110  1.00  0.00    -0.248 NA
ATOM     44  C   UNL     1      -4.811   5.764  -8.543  1.00  0.00     0.031 C 
ATOM     45  C   UNL     1      -5.886   7.907  -4.111  1.00  0.00     0.029 A 
ATOM     46  N   UNL     1      -4.644   9.085  -5.547  1.00  0.00    -0.354 N 
ATOM     47  C   UNL     1      -3.457   7.413  -9.361  1.00  0.00     0.074 A 
ATOM     48  C   UNL     1      -4.013   6.091  -9.549  1.00  0.00     0.031 C 
ATOM     49  C   UNL     1      -5.609   9.086  -3.530  1.00  0.00     0.029 A 
ATOM     50  C   UNL     1      -4.765   9.872  -4.424  1.00  0.00     0.049 A 
ATOM     51  H   UNL     1      -4.151   9.368  -6.351  1.00  0.00     0.167 HD
ATOM     52  C   UNL     1      -2.705   8.060 -10.283  1.00  0.00     0.037 A 
ATOM     53  C   UNL     1      -4.238  11.080  -4.139  1.00  0.00     0.037 A 
ATOM     54  C   UNL     1      -2.174   9.386 -10.101  1.00  0.00     0.049 A 
ATOM     55  C   UNL     1      -3.379  11.766  -5.172  1.00  0.00     0.074 A 
ATOM     56  C   UNL     1      -1.423  10.139 -10.986  1.00  0.00     0.029 A 
ATOM     57  N   UNL     1      -2.343  10.158  -8.962  1.00  0.00    -0.354 N 
ATOM     58  N   UNL     1      -3.033  11.348  -6.366  1.00  0.00    -0.248 NA
ATOM     59  C   UNL     1      -2.845  13.091  -4.824  1.00  0.00     0.031 C 
ATOM     60  C   UNL     1      -1.102  11.350 -10.367  1.00  0.00     0.029 A 
ATOM     61  C   UNL     1      -1.702  11.376  -9.119  1.00  0.00     0.049 A 
ATOM     62  H   UNL     1      -2.843   9.882  -8.160  1.00  0.00     0.167 HD
ATOM     63  C   UNL     1      -2.281  12.376  -6.926  1.00  0.00     0.074 A 
ATOM     64  C   UNL     1      -2.227  13.437  -5.943  1.00  0.00     0.031 C 
ATOM     65  C   UNL     1      -1.689  12.437  -8.144  1.00  0.00     0.037 A 
BRANCH  52  66
ATOM     66  C   UNL     1      -2.427   7.360 -11.585  1.00  0.00     0.058 A 
ATOM     67  C   UNL     1      -3.438   7.160 -12.538  1.00  0.00     0.135 A 
ATOM     68  C   UNL     1      -1.125   6.953 -11.917  1.00  0.00     0.135 A 
ATOM     69  F   UNL     1      -4.704   7.513 -12.266  1.00  0.00    -0.206 F 
ATOM     70  C   UNL     1      -3.171   6.572 -13.770  1.00  0.00     0.059 A 
ATOM     71  C   UNL     1      -0.828   6.389 -13.155  1.00  0.00     0.059 A 
ATOM     72  F   UNL     1      -0.121   7.117 -11.041  1.00  0.00    -0.206 F 
ATOM     73  C   UNL     1      -1.860   6.198 -14.072  1.00  0.00     0.060 A 
BRANCH  73  74
ATOM     74  S   UNL     1      -1.527   5.477 -15.693  1.00  0.00     0.124 S 
ATOM     75  O   UNL     1      -2.172   4.173 -15.571  1.00  0.00    -0.237 OA
ATOM     76  O   UNL     1      -2.179   6.424 -16.593  1.00  0.00    -0.237 OA
ATOM     77  O   UNL     1      -0.070   5.452 -15.762  1.00  0.00    -0.744 OA
ENDBRANCH  73  74
ENDBRANCH  52  66
BRANCH  53  78
ATOM     78  C   UNL     1      -4.495  11.727  -2.823  1.00  0.00     0.058 A 
ATOM     79  C   UNL     1      -5.241  12.913  -2.730  1.00  0.00     0.135 A 
ATOM     80  C   UNL     1      -3.965  11.199  -1.635  1.00  0.00     0.135 A 
ATOM     81  F   UNL     1      -5.767  13.461  -3.836  1.00  0.00    -0.206 F 
ATOM     82  C   UNL     1      -5.415  13.575  -1.519  1.00  0.00     0.059 A 
ATOM     83  C   UNL     1      -4.154  11.824  -0.406  1.00  0.00     0.059 A 
ATOM     84  F   UNL     1      -3.261  10.056  -1.661  1.00  0.00    -0.206 F 
ATOM     85  C   UNL     1      -4.861  13.024  -0.362  1.00  0.00     0.060 A 
BRANCH  85  86
ATOM     86  S   UNL     1      -5.086  13.893   1.205  1.00  0.00     0.124 S 
ATOM     87  O   UNL     1      -4.190  15.031   1.040  1.00  0.00    -0.237 OA
ATOM     88  O   UNL     1      -6.514  14.194   1.187  1.00  0.00    -0.237 OA
ATOM     89  O   UNL     1      -4.674  12.904   2.198  1.00  0.00    -0.744 OA
ENDBRANCH  85  86
ENDBRANCH  53  78
BRANCH  65  90
ATOM     90  C   UNL     1      -0.993  13.716  -8.523  1.00  0.00     0.058 A 
ATOM     91  C   UNL     1       0.229  14.097  -7.949  1.00  0.00     0.135 A 
ATOM     92  C   UNL     1      -1.528  14.535  -9.532  1.00  0.00     0.135 A 
ATOM     93  F   UNL     1       0.781  13.353  -6.977  1.00  0.00    -0.206 F 
ATOM     94  C   UNL     1       0.888  15.255  -8.349  1.00  0.00     0.059 A 
ATOM     95  C   UNL     1      -0.871  15.680  -9.969  1.00  0.00     0.059 A 
ATOM     96  F   UNL     1      -2.690  14.211 -10.121  1.00  0.00    -0.206 F 
ATOM     97  C   UNL     1       0.333  16.037  -9.364  1.00  0.00     0.060 A 
BRANCH  97  98
ATOM     98  S   UNL     1       1.225  17.509  -9.908  1.00  0.00     0.124 S 
ATOM     99  O   UNL     1       1.024  18.410  -8.778  1.00  0.00    -0.237 OA
ATOM    100  O   UNL     1       2.583  17.003 -10.081  1.00  0.00    -0.237 OA
ATOM    101  O   UNL     1       0.541  17.887 -11.141  1.00  0.00    -0.744 OA
ENDBRANCH  97  98
ENDBRANCH  65  90
ENDBRANCH  39  40
ENDBRANCH  31  34
ENDBRANCH  29  30
ENDBRANCH  28  29
ENDBRANCH  27  28
ENDBRANCH   1  27
TORSDOF 22
