REMARK SMILES O=C(NCCCCCCNC(=O)[C@H]1[C@H]2CC[C@H](CC2)[C@H]1C(=O)Nc1ccc(C(=O)N2CCCC2)cc1)c1ccc(-c2c3nc(c(-c4c(F)cc(S(=O)(=O)[O-])cc4F)c4ccc([nH]4)c(-c4c(F)cc(S(=O)(=O)[O-])cc4F)c4nc(c(-c5c(F)cc(S(=O)(=O)[O-])cc5F)c5ccc2[nH]5)C=C4)C=C3)cc1
REMARK SMILES IDX 6 1 5 2 4 3 3 4 1 5 2 6 37 8 38 9 102 10 39 11 101 12 40 13
REMARK SMILES IDX 41 14 42 15 95 16 43 17 100 18 94 19 96 20 44 21 99 22 93 23
REMARK SMILES IDX 92 24 45 26 79 27 58 28 78 29 59 30 62 31 77 32 97 33 60 34
REMARK SMILES IDX 61 35 76 37 98 38 63 39 46 40 47 41 56 42 48 43 49 44 55 45
REMARK SMILES IDX 57 46 50 47 51 48 52 49 53 50 54 51 80 52 81 53 90 54 82 55
REMARK SMILES IDX 83 56 89 57 91 58 84 59 85 60 86 61 87 62 88 63 64 64 65 65
REMARK SMILES IDX 74 66 66 67 67 68 73 69 75 70 68 71 69 72 70 73 71 74 72 75
REMARK SMILES IDX 7 76 8 77 9 78 10 79 11 80 12 82 13 83 14 84 20 85 19 86
REMARK SMILES IDX 15 87 17 88 18 89 16 90 21 91 22 92 23 93 24 95 25 96 36 97
REMARK SMILES IDX 26 98 35 99 27 100 28 101 29 102 30 103 31 104 34 105 32 106
REMARK SMILES IDX 33 107
REMARK H PARENT 3 7 96 25 62 36 10 81 23 94
REMARK Flexibility Score: inf
ROOT
ATOM      1  C   UNL     1       4.330  -3.106   2.216  1.00  0.00     0.002 C 
ENDROOT
BRANCH   1   2
ATOM      2  C   UNL     1       4.682  -1.626   2.083  1.00  0.00     0.021 C 
BRANCH   2   3
ATOM      3  C   UNL     1       4.370  -1.016   0.722  1.00  0.00     0.116 C 
BRANCH   3   4
ATOM      4  N   UNL     1       2.951  -1.020   0.412  1.00  0.00    -0.352 N 
ATOM      5  O   UNL     1       0.972  -0.098  -0.162  1.00  0.00    -0.269 OA
ATOM      6  C   UNL     1       2.183   0.015  -0.074  1.00  0.00     0.251 C 
ATOM      7  H   UNL     1       2.479  -1.870   0.568  1.00  0.00     0.163 HD
BRANCH   6   8
ATOM      8  C   UNL     1       2.855   1.277  -0.454  1.00  0.00     0.039 A 
ATOM      9  C   UNL     1       3.995   1.256  -1.262  1.00  0.00     0.014 A 
ATOM     10  C   UNL     1       2.362   2.485   0.044  1.00  0.00     0.014 A 
ATOM     11  C   UNL     1       4.721   2.424  -1.458  1.00  0.00     0.010 A 
ATOM     12  C   UNL     1       3.046   3.671  -0.229  1.00  0.00     0.010 A 
ATOM     13  C   UNL     1       4.247   3.647  -0.957  1.00  0.00    -0.014 A 
BRANCH  13  14
ATOM     14  C   UNL     1       4.984   4.900  -1.259  1.00  0.00     0.031 A 
ATOM     15  C   UNL     1       5.600   5.724  -0.163  1.00  0.00     0.074 A 
ATOM     16  C   UNL     1       5.089   5.290  -2.544  1.00  0.00     0.049 A 
ATOM     17  N   UNL     1       6.241   6.861  -0.250  1.00  0.00    -0.248 NA
ATOM     18  C   UNL     1       5.474   5.211   1.210  1.00  0.00     0.031 C 
ATOM     19  C   UNL     1       4.525   4.572  -3.690  1.00  0.00     0.029 A 
ATOM     20  N   UNL     1       5.702   6.379  -3.106  1.00  0.00    -0.354 N 
ATOM     21  C   UNL     1       6.578   7.213   1.052  1.00  0.00     0.074 A 
ATOM     22  C   UNL     1       6.047   6.178   1.915  1.00  0.00     0.031 C 
ATOM     23  C   UNL     1       4.843   5.222  -4.818  1.00  0.00     0.029 A 
ATOM     24  C   UNL     1       5.570   6.437  -4.473  1.00  0.00     0.049 A 
ATOM     25  H   UNL     1       6.190   7.055  -2.582  1.00  0.00     0.167 HD
ATOM     26  C   UNL     1       7.269   8.296   1.483  1.00  0.00     0.037 A 
ATOM     27  C   UNL     1       5.963   7.377  -5.353  1.00  0.00     0.037 A 
ATOM     28  C   UNL     1       7.794   9.317   0.610  1.00  0.00     0.049 A 
ATOM     29  C   UNL     1       6.695   8.585  -4.847  1.00  0.00     0.074 A 
ATOM     30  C   UNL     1       8.534  10.438   0.944  1.00  0.00     0.029 A 
ATOM     31  N   UNL     1       7.625   9.349  -0.768  1.00  0.00    -0.354 N 
ATOM     32  N   UNL     1       7.031   8.887  -3.615  1.00  0.00    -0.248 NA
ATOM     33  C   UNL     1       7.100   9.581  -5.846  1.00  0.00     0.031 C 
ATOM     34  C   UNL     1       8.767  11.174  -0.223  1.00  0.00     0.029 A 
ATOM     35  C   UNL     1       8.226  10.482  -1.295  1.00  0.00     0.049 A 
ATOM     36  H   UNL     1       7.148   8.667  -1.294  1.00  0.00     0.167 HD
ATOM     37  C   UNL     1       7.710  10.097  -3.693  1.00  0.00     0.074 A 
ATOM     38  C   UNL     1       7.745  10.464  -5.095  1.00  0.00     0.031 C 
ATOM     39  C   UNL     1       8.256  10.833  -2.694  1.00  0.00     0.037 A 
BRANCH  26  40
ATOM     40  C   UNL     1       7.478   8.450   2.967  1.00  0.00     0.058 A 
ATOM     41  C   UNL     1       8.334   7.602   3.688  1.00  0.00     0.135 A 
ATOM     42  C   UNL     1       6.836   9.481   3.673  1.00  0.00     0.135 A 
ATOM     43  F   UNL     1       8.965   6.591   3.069  1.00  0.00    -0.206 F 
ATOM     44  C   UNL     1       8.519   7.749   5.060  1.00  0.00     0.059 A 
ATOM     45  C   UNL     1       7.028   9.664   5.040  1.00  0.00     0.059 A 
ATOM     46  F   UNL     1       6.009  10.324   3.035  1.00  0.00    -0.206 F 
ATOM     47  C   UNL     1       7.858   8.781   5.728  1.00  0.00     0.060 A 
BRANCH  47  48
ATOM     48  S   UNL     1       8.095   8.944   7.510  1.00  0.00     0.124 S 
ATOM     49  O   UNL     1       7.343   7.795   8.007  1.00  0.00    -0.237 OA
ATOM     50  O   UNL     1       9.545   8.854   7.641  1.00  0.00    -0.237 OA
ATOM     51  O   UNL     1       7.518  10.249   7.813  1.00  0.00    -0.744 OA
ENDBRANCH  47  48
ENDBRANCH  26  40
BRANCH  27  52
ATOM     52  C   UNL     1       5.659   7.200  -6.796  1.00  0.00     0.058 A 
ATOM     53  C   UNL     1       6.676   6.925  -7.721  1.00  0.00     0.135 A 
ATOM     54  C   UNL     1       4.338   7.252  -7.271  1.00  0.00     0.135 A 
ATOM     55  F   UNL     1       7.954   6.867  -7.315  1.00  0.00    -0.206 F 
ATOM     56  C   UNL     1       6.397   6.715  -9.067  1.00  0.00     0.059 A 
ATOM     57  C   UNL     1       4.031   7.017  -8.606  1.00  0.00     0.059 A 
ATOM     58  F   UNL     1       3.327   7.492  -6.421  1.00  0.00    -0.206 F 
ATOM     59  C   UNL     1       5.070   6.756  -9.498  1.00  0.00     0.060 A 
BRANCH  59  60
ATOM     60  S   UNL     1       4.715   6.416 -11.235  1.00  0.00     0.124 S 
ATOM     61  O   UNL     1       5.206   7.629 -11.878  1.00  0.00    -0.237 OA
ATOM     62  O   UNL     1       5.494   5.205 -11.475  1.00  0.00    -0.237 OA
ATOM     63  O   UNL     1       3.266   6.233 -11.252  1.00  0.00    -0.744 OA
ENDBRANCH  59  60
ENDBRANCH  27  52
BRANCH  39  64
ATOM     64  C   UNL     1       8.977  12.094  -3.083  1.00  0.00     0.058 A 
ATOM     65  C   UNL     1       8.289  13.238  -3.519  1.00  0.00     0.135 A 
ATOM     66  C   UNL     1      10.375  12.172  -2.971  1.00  0.00     0.135 A 
ATOM     67  F   UNL     1       6.954  13.213  -3.654  1.00  0.00    -0.206 F 
ATOM     68  C   UNL     1       8.964  14.408  -3.850  1.00  0.00     0.059 A 
ATOM     69  C   UNL     1      11.067  13.341  -3.268  1.00  0.00     0.059 A 
ATOM     70  F   UNL     1      11.080  11.109  -2.553  1.00  0.00    -0.206 F 
ATOM     71  C   UNL     1      10.354  14.451  -3.717  1.00  0.00     0.060 A 
BRANCH  71  72
ATOM     72  S   UNL     1      11.214  15.989  -4.112  1.00  0.00     0.124 S 
ATOM     73  O   UNL     1      11.133  16.005  -5.568  1.00  0.00    -0.237 OA
ATOM     74  O   UNL     1      10.403  16.986  -3.420  1.00  0.00    -0.237 OA
ATOM     75  O   UNL     1      12.549  15.782  -3.559  1.00  0.00    -0.744 OA
ENDBRANCH  71  72
ENDBRANCH  39  64
ENDBRANCH  13  14
ENDBRANCH   6   8
ENDBRANCH   3   4
ENDBRANCH   2   3
ENDBRANCH   1   2
BRANCH   1  76
ATOM     76  C   UNL     1       4.866  -3.996   1.092  1.00  0.00     0.002 C 
BRANCH  76  77
ATOM     77  C   UNL     1       6.384  -3.910   0.845  1.00  0.00     0.021 C 
BRANCH  77  78
ATOM     78  C   UNL     1       7.257  -4.393   2.005  1.00  0.00     0.116 C 
BRANCH  78  79
ATOM     79  N   UNL     1       6.989  -5.786   2.264  1.00  0.00    -0.356 N 
ATOM     80  C   UNL     1       7.692  -6.774   2.839  1.00  0.00     0.224 C 
ATOM     81  H   UNL     1       6.101  -6.074   1.952  1.00  0.00     0.163 HD
ATOM     82  O   UNL     1       7.152  -7.883   2.761  1.00  0.00    -0.275 OA
BRANCH  80  83
ATOM     83  C   UNL     1       9.091  -6.626   3.407  1.00  0.00     0.094 C 
ATOM     84  C   UNL     1       9.724  -5.368   4.082  1.00  0.00     0.002 C 
ATOM     85  C   UNL     1       9.511  -7.883   4.194  1.00  0.00     0.094 C 
ATOM     86  C   UNL     1       9.780  -5.377   5.629  1.00  0.00     0.005 C 
ATOM     87  C   UNL     1      11.224  -5.414   3.692  1.00  0.00     0.005 C 
ATOM     88  C   UNL     1      10.791  -7.561   5.016  1.00  0.00     0.002 C 
ATOM     89  C   UNL     1      10.432  -6.646   6.181  1.00  0.00     0.005 C 
ATOM     90  C   UNL     1      11.807  -6.778   4.133  1.00  0.00     0.005 C 
BRANCH  85  91
ATOM     91  C   UNL     1       8.483  -8.794   4.936  1.00  0.00     0.228 C 
ATOM     92  O   UNL     1       8.653 -10.024   4.827  1.00  0.00    -0.274 OA
ATOM     93  N   UNL     1       7.510  -8.451   5.833  1.00  0.00    -0.326 N 
ATOM     94  H   UNL     1       7.028  -9.233   6.188  1.00  0.00     0.169 HD
BRANCH  93  95
ATOM     95  C   UNL     1       7.043  -7.244   6.362  1.00  0.00     0.041 A 
ATOM     96  C   UNL     1       7.114  -7.060   7.740  1.00  0.00     0.027 A 
ATOM     97  C   UNL     1       6.475  -6.231   5.604  1.00  0.00     0.027 A 
ATOM     98  C   UNL     1       6.947  -5.777   8.279  1.00  0.00     0.016 A 
ATOM     99  C   UNL     1       6.310  -4.939   6.132  1.00  0.00     0.016 A 
ATOM    100  C   UNL     1       6.665  -4.671   7.453  1.00  0.00     0.040 A 
BRANCH 100 101
ATOM    101  C   UNL     1       7.041  -3.321   8.008  1.00  0.00     0.253 C 
ATOM    102  O   UNL     1       7.260  -3.246   9.219  1.00  0.00    -0.269 OA
ATOM    103  N   UNL     1       7.434  -2.301   7.154  1.00  0.00    -0.339 N 
ATOM    104  C   UNL     1       6.684  -1.643   6.100  1.00  0.00     0.120 C 
ATOM    105  C   UNL     1       8.579  -1.471   7.512  1.00  0.00     0.120 C 
ATOM    106  C   UNL     1       7.775  -0.958   5.296  1.00  0.00     0.023 C 
ATOM    107  C   UNL     1       8.716  -0.448   6.384  1.00  0.00     0.023 C 
ENDBRANCH 100 101
ENDBRANCH  93  95
ENDBRANCH  85  91
ENDBRANCH  80  83
ENDBRANCH  78  79
ENDBRANCH  77  78
ENDBRANCH  76  77
ENDBRANCH   1  76
TORSDOF 19
