REMARK SMILES CC[C@@H](Oc1ccccc1/C=C1/SC(=O)N(c2ccc(C)c(C)c2)C1=O)C(=O)NCCCCCCNC(=O)c1ccc(-c2c3nc(c(-c4c(F)cc(S(=O)(=O)[O-])cc4F)c4ccc([nH]4)c(-c4c(F)cc(S(=O)(=O)[O-])cc4F)c4nc(c(-c5c(F)cc(S(=O)(=O)[O-])cc5F)c5ccc2[nH]5)C=C4)C=C3)cc1
REMARK SMILES IDX 32 1 31 2 30 3 29 4 27 5 28 6 3 8 2 9 1 10 4 11 5 12 6 13
REMARK SMILES IDX 10 14 7 15 9 16 8 17 11 18 12 19 13 20 25 21 14 22 16 23
REMARK SMILES IDX 26 24 15 25 17 26 18 27 24 28 19 29 22 30 20 31 23 32 21 33
REMARK SMILES IDX 33 34 34 35 35 36 36 37 37 38 38 40 39 41 40 42 104 43 41 44
REMARK SMILES IDX 103 45 42 46 43 47 44 48 97 49 45 50 102 51 96 52 98 53
REMARK SMILES IDX 46 54 101 55 95 56 94 57 47 59 81 60 60 61 80 62 61 63 64 64
REMARK SMILES IDX 79 65 99 66 62 67 63 68 78 70 100 71 65 72 48 73 49 74 58 75
REMARK SMILES IDX 50 76 51 77 57 78 59 79 52 80 53 81 54 82 55 83 56 84 82 85
REMARK SMILES IDX 83 86 92 87 84 88 85 89 91 90 93 91 86 92 87 93 88 94 89 95
REMARK SMILES IDX 90 96 66 97 67 98 76 99 68 100 69 101 75 102 77 103 70 104
REMARK SMILES IDX 71 105 72 106 73 107 74 108
REMARK H PARENT 29 7 36 39 98 58 64 69
REMARK Flexibility Score: inf
ROOT
ATOM      1  C   UNL     1      -3.208   3.539   3.258  1.00  0.00     0.002 C 
ENDROOT
BRANCH   1   2
ATOM      2  C   UNL     1      -2.363   2.612   2.371  1.00  0.00     0.021 C 
BRANCH   2   3
ATOM      3  C   UNL     1      -1.749   3.269   1.134  1.00  0.00     0.116 C 
BRANCH   3   4
ATOM      4  N   UNL     1      -0.506   3.967   1.415  1.00  0.00    -0.353 N 
ATOM      5  C   UNL     1       0.769   3.700   0.995  1.00  0.00     0.261 C 
ATOM      6  O   UNL     1       1.646   4.523   1.281  1.00  0.00    -0.271 OA
ATOM      7  H   UNL     1      -0.595   4.754   1.999  1.00  0.00     0.163 HD
BRANCH   5   8
ATOM      8  C   UNL     1       1.141   2.378   0.285  1.00  0.00     0.261 C 
BRANCH   8   9
ATOM      9  C   UNL     1       1.064   1.239   1.318  1.00  0.00     0.052 C 
ATOM     10  C   UNL     1       2.181   0.217   1.148  1.00  0.00     0.008 C 
ENDBRANCH   8   9
BRANCH   8  11
ATOM     11  O   UNL     1       0.255   2.135  -0.812  1.00  0.00    -0.480 OA
BRANCH  11  12
ATOM     12  C   UNL     1       0.830   1.528  -1.899  1.00  0.00     0.127 A 
ATOM     13  C   UNL     1       1.531   2.306  -2.821  1.00  0.00     0.047 A 
ATOM     14  C   UNL     1       0.559   0.174  -2.173  1.00  0.00     0.018 A 
ATOM     15  C   UNL     1       2.006   1.724  -3.998  1.00  0.00     0.004 A 
ATOM     16  C   UNL     1       1.067  -0.407  -3.339  1.00  0.00     0.012 A 
ATOM     17  C   UNL     1       1.785   0.369  -4.251  1.00  0.00     0.001 A 
BRANCH  14  18
ATOM     18  C   UNL     1      -0.264  -0.640  -1.273  1.00  0.00     0.033 C 
ATOM     19  C   UNL     1      -1.576  -0.448  -1.076  1.00  0.00     0.084 C 
ATOM     20  S   UNL     1      -2.455  -1.245   0.177  1.00  0.00    -0.022 SA
ATOM     21  C   UNL     1      -2.468   0.502  -1.806  1.00  0.00     0.272 C 
ATOM     22  C   UNL     1      -3.871  -0.230  -0.062  1.00  0.00     0.298 C 
ATOM     23  N   UNL     1      -3.692   0.553  -1.171  1.00  0.00    -0.236 N 
ATOM     24  O   UNL     1      -2.149   1.106  -2.819  1.00  0.00    -0.268 OA
ATOM     25  O   UNL     1      -4.807  -0.239   0.729  1.00  0.00    -0.260 OA
BRANCH  23  26
ATOM     26  C   UNL     1      -4.733   1.346  -1.685  1.00  0.00     0.053 A 
ATOM     27  C   UNL     1      -5.620   0.790  -2.602  1.00  0.00     0.027 A 
ATOM     28  C   UNL     1      -4.869   2.681  -1.298  1.00  0.00     0.030 A 
ATOM     29  C   UNL     1      -6.658   1.566  -3.111  1.00  0.00     0.006 A 
ATOM     30  C   UNL     1      -5.933   3.462  -1.776  1.00  0.00    -0.046 A 
ATOM     31  C   UNL     1      -6.842   2.893  -2.690  1.00  0.00    -0.048 A 
ATOM     32  C   UNL     1      -6.098   4.872  -1.278  1.00  0.00     0.044 C 
ATOM     33  C   UNL     1      -7.970   3.688  -3.286  1.00  0.00     0.044 C 
ENDBRANCH  23  26
ENDBRANCH  14  18
ENDBRANCH  11  12
ENDBRANCH   8  11
ENDBRANCH   5   8
ENDBRANCH   3   4
ENDBRANCH   2   3
ENDBRANCH   1   2
BRANCH   1  34
ATOM     34  C   UNL     1      -4.464   4.150   2.611  1.00  0.00     0.002 C 
BRANCH  34  35
ATOM     35  C   UNL     1      -5.482   3.145   2.065  1.00  0.00     0.021 C 
BRANCH  35  36
ATOM     36  C   UNL     1      -6.298   2.412   3.122  1.00  0.00     0.116 C 
BRANCH  36  37
ATOM     37  N   UNL     1      -7.445   3.195   3.559  1.00  0.00    -0.352 N 
ATOM     38  C   UNL     1      -8.747   3.242   3.117  1.00  0.00     0.251 C 
ATOM     39  H   UNL     1      -7.254   3.803   4.310  1.00  0.00     0.163 HD
ATOM     40  O   UNL     1      -9.455   4.173   3.504  1.00  0.00    -0.269 OA
BRANCH  38  41
ATOM     41  C   UNL     1      -9.328   2.232   2.191  1.00  0.00     0.039 A 
ATOM     42  C   UNL     1     -10.351   2.631   1.317  1.00  0.00     0.014 A 
ATOM     43  C   UNL     1      -8.975   0.884   2.232  1.00  0.00     0.014 A 
ATOM     44  C   UNL     1     -10.979   1.702   0.474  1.00  0.00     0.010 A 
ATOM     45  C   UNL     1      -9.530  -0.023   1.326  1.00  0.00     0.010 A 
ATOM     46  C   UNL     1     -10.557   0.365   0.453  1.00  0.00    -0.014 A 
BRANCH  46  47
ATOM     47  C   UNL     1     -11.196  -0.670  -0.409  1.00  0.00     0.031 A 
ATOM     48  C   UNL     1     -11.830  -1.882   0.227  1.00  0.00     0.074 A 
ATOM     49  C   UNL     1     -11.123  -0.589  -1.752  1.00  0.00     0.049 A 
ATOM     50  N   UNL     1     -12.235  -2.997  -0.326  1.00  0.00    -0.248 NA
ATOM     51  C   UNL     1     -11.991  -1.846   1.689  1.00  0.00     0.031 C 
ATOM     52  C   UNL     1     -10.527   0.515  -2.502  1.00  0.00     0.029 A 
ATOM     53  N   UNL     1     -11.527  -1.472  -2.724  1.00  0.00    -0.354 N 
ATOM     54  C   UNL     1     -12.643  -3.814   0.723  1.00  0.00     0.074 A 
ATOM     55  C   UNL     1     -12.410  -3.076   1.946  1.00  0.00     0.031 C 
ATOM     56  C   UNL     1     -10.602   0.245  -3.815  1.00  0.00     0.029 A 
ATOM     57  C   UNL     1     -11.200  -1.075  -3.999  1.00  0.00     0.049 A 
ATOM     58  H   UNL     1     -12.005  -2.310  -2.527  1.00  0.00     0.167 HD
ATOM     59  C   UNL     1     -13.172  -5.061   0.674  1.00  0.00     0.037 A 
ATOM     60  C   UNL     1     -11.335  -1.708  -5.181  1.00  0.00     0.037 A 
ATOM     61  C   UNL     1     -13.453  -5.771  -0.546  1.00  0.00     0.049 A 
ATOM     62  C   UNL     1     -11.953  -3.079  -5.224  1.00  0.00     0.074 A 
ATOM     63  C   UNL     1     -14.049  -7.010  -0.705  1.00  0.00     0.029 A 
ATOM     64  N   UNL     1     -13.163  -5.301  -1.819  1.00  0.00    -0.354 N 
ATOM     65  N   UNL     1     -12.359  -3.828  -4.227  1.00  0.00    -0.248 NA
ATOM     66  C   UNL     1     -12.135  -3.692  -6.548  1.00  0.00     0.031 C 
ATOM     67  C   UNL     1     -14.088  -7.304  -2.072  1.00  0.00     0.029 A 
ATOM     68  C   UNL     1     -13.558  -6.229  -2.768  1.00  0.00     0.049 A 
ATOM     69  H   UNL     1     -12.738  -4.435  -2.018  1.00  0.00     0.167 HD
ATOM     70  C   UNL     1     -12.873  -4.986  -4.803  1.00  0.00     0.074 A 
ATOM     71  C   UNL     1     -12.722  -4.841  -6.236  1.00  0.00     0.031 C 
ATOM     72  C   UNL     1     -13.424  -6.065  -4.195  1.00  0.00     0.037 A 
BRANCH  59  73
ATOM     73  C   UNL     1     -13.463  -5.741   1.986  1.00  0.00     0.058 A 
ATOM     74  C   UNL     1     -14.491  -5.306   2.838  1.00  0.00     0.135 A 
ATOM     75  C   UNL     1     -12.692  -6.839   2.403  1.00  0.00     0.135 A 
ATOM     76  F   UNL     1     -15.254  -4.256   2.494  1.00  0.00    -0.206 F 
ATOM     77  C   UNL     1     -14.705  -5.893   4.081  1.00  0.00     0.059 A 
ATOM     78  C   UNL     1     -12.909  -7.463   3.628  1.00  0.00     0.059 A 
ATOM     79  F   UNL     1     -11.703  -7.306   1.624  1.00  0.00    -0.206 F 
ATOM     80  C   UNL     1     -13.899  -6.964   4.472  1.00  0.00     0.060 A 
BRANCH  80  81
ATOM     81  S   UNL     1     -14.152  -7.686   6.107  1.00  0.00     0.124 S 
ATOM     82  O   UNL     1     -13.510  -6.694   6.964  1.00  0.00    -0.237 OA
ATOM     83  O   UNL     1     -15.607  -7.756   6.200  1.00  0.00    -0.237 OA
ATOM     84  O   UNL     1     -13.471  -8.974   6.018  1.00  0.00    -0.744 OA
ENDBRANCH  80  81
ENDBRANCH  59  73
BRANCH  60  85
ATOM     85  C   UNL     1     -10.882  -1.028  -6.423  1.00  0.00     0.058 A 
ATOM     86  C   UNL     1     -11.809  -0.483  -7.322  1.00  0.00     0.135 A 
ATOM     87  C   UNL     1      -9.517  -0.844  -6.697  1.00  0.00     0.135 A 
ATOM     88  F   UNL     1     -13.124  -0.641  -7.106  1.00  0.00    -0.206 F 
ATOM     89  C   UNL     1     -11.402   0.229  -8.445  1.00  0.00     0.059 A 
ATOM     90  C   UNL     1      -9.085  -0.118  -7.803  1.00  0.00     0.059 A 
ATOM     91  F   UNL     1      -8.591  -1.329  -5.855  1.00  0.00    -0.206 F 
ATOM     92  C   UNL     1     -10.037   0.416  -8.671  1.00  0.00     0.060 A 
BRANCH  92  93
ATOM     93  S   UNL     1      -9.525   1.429 -10.076  1.00  0.00     0.124 S 
ATOM     94  O   UNL     1      -9.805   0.540 -11.198  1.00  0.00    -0.237 OA
ATOM     95  O   UNL     1     -10.399   2.591  -9.948  1.00  0.00    -0.237 OA
ATOM     96  O   UNL     1      -8.113   1.684  -9.807  1.00  0.00    -0.744 OA
ENDBRANCH  92  93
ENDBRANCH  60  85
BRANCH  72  97
ATOM     97  C   UNL     1     -13.961  -7.167  -5.064  1.00  0.00     0.058 A 
ATOM     98  C   UNL     1     -13.115  -8.098  -5.685  1.00  0.00     0.135 A 
ATOM     99  C   UNL     1     -15.348  -7.357  -5.183  1.00  0.00     0.135 A 
ATOM    100  F   UNL     1     -11.783  -7.956  -5.608  1.00  0.00    -0.206 F 
ATOM    101  C   UNL     1     -13.626  -9.183  -6.391  1.00  0.00     0.059 A 
ATOM    102  C   UNL     1     -15.880  -8.445  -5.867  1.00  0.00     0.059 A 
ATOM    103  F   UNL     1     -16.200  -6.497  -4.602  1.00  0.00    -0.206 F 
ATOM    104  C   UNL     1     -15.010  -9.354  -6.467  1.00  0.00     0.060 A 
BRANCH 104 105
ATOM    105  S   UNL     1     -15.659 -10.812  -7.314  1.00  0.00     0.124 S 
ATOM    106  O   UNL     1     -15.443 -10.461  -8.713  1.00  0.00    -0.237 OA
ATOM    107  O   UNL     1     -14.813 -11.880  -6.790  1.00  0.00    -0.237 OA
ATOM    108  O   UNL     1     -17.054 -10.860  -6.886  1.00  0.00    -0.744 OA
ENDBRANCH 104 105
ENDBRANCH  72  97
ENDBRANCH  46  47
ENDBRANCH  38  41
ENDBRANCH  36  37
ENDBRANCH  35  36
ENDBRANCH  34  35
ENDBRANCH   1  34
TORSDOF 21
