REMARK SMILES Cc1ccccc1[C@@H]1[NH2+][C@@H](C(=O)NCCCCCCNC(=O)c2ccc(-c3c4nc(c(-c5c(F)cc(S(=O)(=O)[O-])cc5F)c5ccc([nH]5)c(-c5c(F)cc(S(=O)(=O)[O-])cc5F)c5nc(c(-c6c(F)cc(S(=O)(=O)[O-])cc6F)c6ccc3[nH]6)C=C5)C=C4)cc2)CC2=c3ccccc3=N[C@@H]21
REMARK SMILES IDX 17 1 16 2 15 3 14 4 13 5 11 6 12 7 10 9 8 10 9 11 98 12
REMARK SMILES IDX 90 15 97 16 89 17 91 18 96 19 92 20 95 21 93 22 94 23 7 24
REMARK SMILES IDX 1 25 2 26 3 27 4 28 6 29 5 30 18 31 19 32 20 33 21 34 22 36
REMARK SMILES IDX 23 37 24 38 88 39 25 40 87 41 26 42 27 43 28 44 81 45 29 46
REMARK SMILES IDX 86 47 80 48 82 49 30 50 85 51 79 52 78 53 31 55 65 56 44 57
REMARK SMILES IDX 64 58 45 59 48 60 63 61 83 62 46 63 47 64 62 66 84 67 49 68
REMARK SMILES IDX 32 69 33 70 42 71 34 72 35 73 41 74 43 75 36 76 37 77 38 78
REMARK SMILES IDX 39 79 40 80 66 81 67 82 76 83 68 84 69 85 75 86 77 87 70 88
REMARK SMILES IDX 71 89 72 90 73 91 74 92 50 93 51 94 60 95 52 96 53 97 59 98
REMARK SMILES IDX 61 99 54 100 55 101 56 102 57 103 58 104
REMARK H PARENT 13 8 9 13 9 14 20 35 82 54 48 65
REMARK Flexibility Score: inf
ROOT
ATOM      1  C   UNL     1       4.063   4.553  -4.322  1.00  0.00     0.002 C 
ENDROOT
BRANCH   1   2
ATOM      2  C   UNL     1       3.129   4.023  -3.226  1.00  0.00     0.002 C 
BRANCH   2   3
ATOM      3  C   UNL     1       3.324   4.555  -1.795  1.00  0.00     0.021 C 
BRANCH   3   4
ATOM      4  C   UNL     1       2.969   6.029  -1.488  1.00  0.00     0.116 C 
BRANCH   4   5
ATOM      5  N   UNL     1       1.594   6.441  -1.121  1.00  0.00    -0.351 N 
ATOM      6  C   UNL     1       1.033   6.472   0.183  1.00  0.00     0.278 C 
ATOM      7  O   UNL     1       0.235   7.340   0.523  1.00  0.00    -0.268 OA
ATOM      8  H   UNL     1       1.007   6.722  -1.859  1.00  0.00     0.163 HD
BRANCH   6   9
ATOM      9  C   UNL     1       1.305   5.174   0.951  1.00  0.00     0.277 C 
ATOM     10  C   UNL     1       0.393   2.832   0.629  1.00  0.00     0.243 C 
ATOM     11  N   UNL     1       0.472   4.240   0.206  1.00  0.00    -0.327 N 
ATOM     12  C   UNL     1       1.605   2.383   1.562  1.00  0.00     0.196 C 
ATOM     13  H   UNL     1      -0.478   4.609   0.229  1.00  0.00     0.347 HD
ATOM     14  H   UNL     1       0.932   4.188  -0.703  1.00  0.00     0.347 HD
ATOM     15  C   UNL     1       2.093   3.568   2.441  1.00  0.00    -0.024 C 
ATOM     16  N   UNL     1       2.829   1.980   0.816  1.00  0.00    -0.270 NA
ATOM     17  C   UNL     1       1.230   4.841   2.438  1.00  0.00     0.109 C 
ATOM     18  C   UNL     1       3.434   3.672   2.402  1.00  0.00     0.002 A 
ATOM     19  C   UNL     1       3.777   2.704   1.333  1.00  0.00     0.066 A 
ATOM     20  C   UNL     1       4.284   4.815   2.643  1.00  0.00     0.010 A 
ATOM     21  C   UNL     1       5.163   2.786   0.805  1.00  0.00     0.028 A 
ATOM     22  C   UNL     1       5.450   4.920   1.984  1.00  0.00     0.001 A 
ATOM     23  C   UNL     1       5.913   3.861   1.105  1.00  0.00     0.002 A 
BRANCH  10  24
ATOM     24  C   UNL     1      -0.184   2.069  -0.606  1.00  0.00     0.015 A 
ATOM     25  C   UNL     1      -1.708   0.552   0.775  1.00  0.00     0.045 C 
ATOM     26  C   UNL     1      -1.248   1.152  -0.520  1.00  0.00    -0.042 A 
ATOM     27  C   UNL     1      -2.020   0.855  -1.676  1.00  0.00     0.004 A 
ATOM     28  C   UNL     1      -1.767   1.446  -2.913  1.00  0.00     0.000 A 
ATOM     29  C   UNL     1       0.104   2.541  -1.918  1.00  0.00     0.010 A 
ATOM     30  C   UNL     1      -0.689   2.290  -3.037  1.00  0.00     0.001 A 
ENDBRANCH  10  24
ENDBRANCH   6   9
ENDBRANCH   4   5
ENDBRANCH   3   4
ENDBRANCH   2   3
ENDBRANCH   1   2
BRANCH   1  31
ATOM     31  C   UNL     1       5.550   4.657  -3.983  1.00  0.00     0.021 C 
BRANCH  31  32
ATOM     32  C   UNL     1       6.228   3.342  -3.645  1.00  0.00     0.116 C 
BRANCH  32  33
ATOM     33  N   UNL     1       6.651   2.548  -4.782  1.00  0.00    -0.352 N 
ATOM     34  C   UNL     1       7.847   1.843  -4.648  1.00  0.00     0.251 C 
ATOM     35  H   UNL     1       6.119   2.508  -5.609  1.00  0.00     0.163 HD
ATOM     36  O   UNL     1       8.958   2.335  -4.624  1.00  0.00    -0.269 OA
BRANCH  34  37
ATOM     37  C   UNL     1       7.614   0.497  -4.085  1.00  0.00     0.039 A 
ATOM     38  C   UNL     1       7.555  -0.663  -4.854  1.00  0.00     0.014 A 
ATOM     39  C   UNL     1       7.239   0.504  -2.739  1.00  0.00     0.014 A 
ATOM     40  C   UNL     1       7.006  -1.815  -4.284  1.00  0.00     0.010 A 
ATOM     41  C   UNL     1       6.614  -0.596  -2.213  1.00  0.00     0.010 A 
ATOM     42  C   UNL     1       6.477  -1.748  -2.992  1.00  0.00    -0.014 A 
BRANCH  42  43
ATOM     43  C   UNL     1       5.751  -2.812  -2.315  1.00  0.00     0.031 A 
ATOM     44  C   UNL     1       6.438  -3.609  -1.279  1.00  0.00     0.074 A 
ATOM     45  C   UNL     1       4.410  -2.860  -2.457  1.00  0.00     0.049 A 
ATOM     46  N   UNL     1       5.957  -4.665  -0.724  1.00  0.00    -0.248 NA
ATOM     47  C   UNL     1       7.770  -3.265  -0.796  1.00  0.00     0.031 C 
ATOM     48  C   UNL     1       3.442  -3.532  -1.599  1.00  0.00     0.029 A 
ATOM     49  N   UNL     1       3.664  -2.447  -3.565  1.00  0.00    -0.354 N 
ATOM     50  C   UNL     1       6.764  -4.995   0.344  1.00  0.00     0.074 A 
ATOM     51  C   UNL     1       7.910  -4.126   0.216  1.00  0.00     0.031 C 
ATOM     52  C   UNL     1       2.321  -3.748  -2.305  1.00  0.00     0.029 A 
ATOM     53  C   UNL     1       2.599  -3.369  -3.680  1.00  0.00     0.049 A 
ATOM     54  H   UNL     1       3.844  -1.673  -4.145  1.00  0.00     0.167 HD
ATOM     55  C   UNL     1       6.302  -5.896   1.262  1.00  0.00     0.037 A 
ATOM     56  C   UNL     1       2.575  -4.226  -4.748  1.00  0.00     0.037 A 
ATOM     57  C   UNL     1       5.036  -6.481   0.808  1.00  0.00     0.049 A 
ATOM     58  C   UNL     1       2.796  -5.683  -4.382  1.00  0.00     0.074 A 
ATOM     59  C   UNL     1       3.698  -6.224   1.060  1.00  0.00     0.029 A 
ATOM     60  N   UNL     1       5.061  -7.296  -0.308  1.00  0.00    -0.354 N 
ATOM     61  N   UNL     1       3.009  -6.121  -3.170  1.00  0.00    -0.248 NA
ATOM     62  C   UNL     1       2.853  -6.761  -5.372  1.00  0.00     0.031 C 
ATOM     63  C   UNL     1       2.930  -6.829   0.019  1.00  0.00     0.029 A 
ATOM     64  C   UNL     1       3.800  -7.468  -0.846  1.00  0.00     0.049 A 
ATOM     65  H   UNL     1       5.878  -7.704  -0.674  1.00  0.00     0.167 HD
ATOM     66  C   UNL     1       3.298  -7.458  -3.208  1.00  0.00     0.074 A 
ATOM     67  C   UNL     1       3.162  -7.823  -4.606  1.00  0.00     0.031 C 
ATOM     68  C   UNL     1       3.675  -8.176  -2.111  1.00  0.00     0.037 A 
BRANCH  55  69
ATOM     69  C   UNL     1       6.870  -6.123   2.653  1.00  0.00     0.058 A 
ATOM     70  C   UNL     1       6.062  -6.694   3.664  1.00  0.00     0.135 A 
ATOM     71  C   UNL     1       8.163  -5.766   3.084  1.00  0.00     0.135 A 
ATOM     72  F   UNL     1       4.836  -7.165   3.398  1.00  0.00    -0.206 F 
ATOM     73  C   UNL     1       6.466  -6.803   4.998  1.00  0.00     0.059 A 
ATOM     74  C   UNL     1       8.575  -5.820   4.420  1.00  0.00     0.059 A 
ATOM     75  F   UNL     1       9.121  -5.402   2.227  1.00  0.00    -0.206 F 
ATOM     76  C   UNL     1       7.713  -6.330   5.376  1.00  0.00     0.060 A 
BRANCH  76  77
ATOM     77  S   UNL     1       8.195  -6.410   7.110  1.00  0.00     0.124 S 
ATOM     78  O   UNL     1       7.146  -5.624   7.754  1.00  0.00    -0.237 OA
ATOM     79  O   UNL     1       8.166  -7.844   7.371  1.00  0.00    -0.237 OA
ATOM     80  O   UNL     1       9.522  -5.799   7.124  1.00  0.00    -0.744 OA
ENDBRANCH  76  77
ENDBRANCH  55  69
BRANCH  56  81
ATOM     81  C   UNL     1       3.037  -3.549  -6.000  1.00  0.00     0.058 A 
ATOM     82  C   UNL     1       2.261  -2.466  -6.468  1.00  0.00     0.135 A 
ATOM     83  C   UNL     1       4.382  -3.592  -6.391  1.00  0.00     0.135 A 
ATOM     84  F   UNL     1       0.956  -2.394  -6.157  1.00  0.00    -0.206 F 
ATOM     85  C   UNL     1       2.841  -1.369  -7.098  1.00  0.00     0.059 A 
ATOM     86  C   UNL     1       4.978  -2.512  -7.047  1.00  0.00     0.059 A 
ATOM     87  F   UNL     1       5.170  -4.604  -5.998  1.00  0.00    -0.206 F 
ATOM     88  C   UNL     1       4.218  -1.368  -7.301  1.00  0.00     0.060 A 
BRANCH  88  89
ATOM     89  S   UNL     1       5.022   0.198  -7.726  1.00  0.00     0.124 S 
ATOM     90  O   UNL     1       4.243   0.644  -8.875  1.00  0.00    -0.237 OA
ATOM     91  O   UNL     1       4.849   0.978  -6.498  1.00  0.00    -0.237 OA
ATOM     92  O   UNL     1       6.397  -0.196  -8.014  1.00  0.00    -0.744 OA
ENDBRANCH  88  89
ENDBRANCH  56  81
BRANCH  68  93
ATOM     93  C   UNL     1       3.962  -9.646  -2.169  1.00  0.00     0.058 A 
ATOM     94  C   UNL     1       3.024 -10.557  -2.678  1.00  0.00     0.135 A 
ATOM     95  C   UNL     1       5.125 -10.194  -1.590  1.00  0.00     0.135 A 
ATOM     96  F   UNL     1       1.878 -10.121  -3.225  1.00  0.00    -0.206 F 
ATOM     97  C   UNL     1       3.233 -11.934  -2.629  1.00  0.00     0.059 A 
ATOM     98  C   UNL     1       5.332 -11.565  -1.485  1.00  0.00     0.059 A 
ATOM     99  F   UNL     1       6.109  -9.405  -1.130  1.00  0.00    -0.206 F 
ATOM    100  C   UNL     1       4.389 -12.429  -2.025  1.00  0.00     0.060 A 
BRANCH 100 101
ATOM    101  S   UNL     1       4.650 -14.210  -1.931  1.00  0.00     0.124 S 
ATOM    102  O   UNL     1       3.295 -14.726  -1.756  1.00  0.00    -0.237 OA
ATOM    103  O   UNL     1       5.265 -14.480  -3.226  1.00  0.00    -0.237 OA
ATOM    104  O   UNL     1       5.525 -14.360  -0.773  1.00  0.00    -0.744 OA
ENDBRANCH 100 101
ENDBRANCH  68  93
ENDBRANCH  42  43
ENDBRANCH  34  37
ENDBRANCH  32  33
ENDBRANCH  31  32
ENDBRANCH   1  31
TORSDOF 17
