REMARK SMILES CC(C)C[C@@H](CNc1ccc(C(=O)N(C)C)nn1)C(=O)NCCCCCCNC(=O)c1ccc(-c2c3nc(c(-c4c(F)cc(S(=O)(=O)[O-])cc4F)c4ccc([nH]4)c(-c4c(F)cc(S(=O)(=O)[O-])cc4F)c4nc(c(-c5c(F)cc(S(=O)(=O)[O-])cc5F)c5ccc2[nH]5)C=C4)C=C3)cc1
REMARK SMILES IDX 24 1 23 2 22 3 21 4 19 5 20 6 5 8 4 9 2 10 1 11 3 12 6 13
REMARK SMILES IDX 7 14 8 16 9 17 18 18 10 19 17 20 11 21 12 22 13 23 14 24
REMARK SMILES IDX 15 25 16 26 25 27 26 28 27 29 28 30 29 31 30 33 31 34 32 35
REMARK SMILES IDX 96 36 33 37 95 38 34 39 35 40 36 41 89 42 37 43 94 44 88 45
REMARK SMILES IDX 90 46 38 47 93 48 87 49 86 50 39 52 73 53 52 54 72 55 53 56
REMARK SMILES IDX 56 57 71 58 91 59 54 60 55 61 70 63 92 64 57 65 40 66 41 67
REMARK SMILES IDX 50 68 42 69 43 70 49 71 51 72 44 73 45 74 46 75 47 76 48 77
REMARK SMILES IDX 74 78 75 79 84 80 76 81 77 82 83 83 85 84 78 85 79 86 80 87
REMARK SMILES IDX 81 88 82 89 58 90 59 91 68 92 60 93 61 94 67 95 69 96 62 97
REMARK SMILES IDX 63 98 64 99 65 100 66 101
REMARK H PARENT 21 7 7 15 28 32 90 51 56 62
REMARK Flexibility Score: inf
ROOT
ATOM      1  C   UNL     1      -5.571   2.523  -3.369  1.00  0.00     0.002 C 
ENDROOT
BRANCH   1   2
ATOM      2  C   UNL     1      -4.095   2.138  -3.252  1.00  0.00     0.021 C 
BRANCH   2   3
ATOM      3  C   UNL     1      -3.432   2.626  -1.971  1.00  0.00     0.116 C 
BRANCH   3   4
ATOM      4  N   UNL     1      -3.781   1.823  -0.818  1.00  0.00    -0.356 N 
ATOM      5  C   UNL     1      -3.013   1.380   0.210  1.00  0.00     0.224 C 
ATOM      6  O   UNL     1      -3.599   0.916   1.195  1.00  0.00    -0.275 OA
ATOM      7  H   UNL     1      -4.727   1.555  -0.773  1.00  0.00     0.163 HD
BRANCH   5   8
ATOM      8  C   UNL     1      -1.486   1.429   0.195  1.00  0.00     0.098 C 
BRANCH   8   9
ATOM      9  C   UNL     1      -0.852   0.748  -1.031  1.00  0.00     0.018 C 
BRANCH   9  10
ATOM     10  C   UNL     1       0.685   0.706  -1.058  1.00  0.00    -0.017 C 
ATOM     11  C   UNL     1       1.259  -0.154   0.067  1.00  0.00     0.007 C 
ATOM     12  C   UNL     1       1.153   0.168  -2.414  1.00  0.00     0.007 C 
ENDBRANCH   9  10
ENDBRANCH   8   9
BRANCH   8  13
ATOM     13  C   UNL     1      -0.933   2.776   0.687  1.00  0.00     0.128 C 
BRANCH  13  14
ATOM     14  N   UNL     1      -1.113   3.914  -0.198  1.00  0.00    -0.368 N 
ATOM     15  H   UNL     1      -0.684   3.891  -1.084  1.00  0.00     0.162 HD
BRANCH  14  16
ATOM     16  C   UNL     1      -1.856   5.025   0.146  1.00  0.00     0.148 A 
ATOM     17  C   UNL     1      -2.021   5.454   1.455  1.00  0.00     0.051 A 
ATOM     18  N   UNL     1      -2.491   5.691  -0.837  1.00  0.00    -0.132 NA
ATOM     19  C   UNL     1      -2.910   6.488   1.756  1.00  0.00     0.040 A 
ATOM     20  N   UNL     1      -3.379   6.723  -0.554  1.00  0.00    -0.143 NA
ATOM     21  C   UNL     1      -3.582   7.111   0.723  1.00  0.00     0.151 A 
BRANCH  21  22
ATOM     22  C   UNL     1      -4.656   8.125   0.948  1.00  0.00     0.273 C 
ATOM     23  O   UNL     1      -5.670   8.049   0.249  1.00  0.00    -0.267 OA
ATOM     24  N   UNL     1      -4.543   9.104   1.950  1.00  0.00    -0.343 N 
ATOM     25  C   UNL     1      -3.352   9.424   2.721  1.00  0.00     0.146 C 
ATOM     26  C   UNL     1      -5.684   9.987   2.133  1.00  0.00     0.146 C 
ENDBRANCH  21  22
ENDBRANCH  14  16
ENDBRANCH  13  14
ENDBRANCH   8  13
ENDBRANCH   5   8
ENDBRANCH   3   4
ENDBRANCH   2   3
ENDBRANCH   1   2
BRANCH   1  27
ATOM     27  C   UNL     1      -5.877   4.012  -3.162  1.00  0.00     0.002 C 
BRANCH  27  28
ATOM     28  C   UNL     1      -5.037   4.981  -3.999  1.00  0.00     0.021 C 
BRANCH  28  29
ATOM     29  C   UNL     1      -5.103   4.746  -5.502  1.00  0.00     0.116 C 
BRANCH  29  30
ATOM     30  N   UNL     1      -6.461   4.833  -6.014  1.00  0.00    -0.352 N 
ATOM     31  C   UNL     1      -6.938   5.555  -7.079  1.00  0.00     0.251 C 
ATOM     32  H   UNL     1      -7.131   4.299  -5.529  1.00  0.00     0.163 HD
ATOM     33  O   UNL     1      -8.143   5.656  -7.269  1.00  0.00    -0.269 OA
BRANCH  31  34
ATOM     34  C   UNL     1      -5.980   6.221  -7.986  1.00  0.00     0.039 A 
ATOM     35  C   UNL     1      -6.196   7.555  -8.339  1.00  0.00     0.014 A 
ATOM     36  C   UNL     1      -4.866   5.531  -8.472  1.00  0.00     0.014 A 
ATOM     37  C   UNL     1      -5.262   8.215  -9.140  1.00  0.00     0.010 A 
ATOM     38  C   UNL     1      -3.902   6.211  -9.208  1.00  0.00     0.010 A 
ATOM     39  C   UNL     1      -4.092   7.558  -9.555  1.00  0.00    -0.014 A 
BRANCH  39  40
ATOM     40  C   UNL     1      -3.056   8.251 -10.363  1.00  0.00     0.031 A 
ATOM     41  C   UNL     1      -2.739   7.757 -11.750  1.00  0.00     0.074 A 
ATOM     42  C   UNL     1      -2.350   9.265  -9.822  1.00  0.00     0.049 A 
ATOM     43  N   UNL     1      -1.795   8.143 -12.568  1.00  0.00    -0.248 NA
ATOM     44  C   UNL     1      -3.576   6.664 -12.277  1.00  0.00     0.031 C 
ATOM     45  C   UNL     1      -2.541   9.806  -8.474  1.00  0.00     0.029 A 
ATOM     46  N   UNL     1      -1.316  10.010 -10.331  1.00  0.00    -0.354 N 
ATOM     47  C   UNL     1      -1.906   7.327 -13.687  1.00  0.00     0.074 A 
ATOM     48  C   UNL     1      -2.984   6.399 -13.433  1.00  0.00     0.031 C 
ATOM     49  C   UNL     1      -1.664  10.803  -8.270  1.00  0.00     0.029 A 
ATOM     50  C   UNL     1      -0.816  10.941  -9.449  1.00  0.00     0.049 A 
ATOM     51  H   UNL     1      -0.964   9.890 -11.243  1.00  0.00     0.167 HD
ATOM     52  C   UNL     1      -1.181   7.362 -14.830  1.00  0.00     0.037 A 
ATOM     53  C   UNL     1       0.221  11.793  -9.570  1.00  0.00     0.037 A 
ATOM     54  C   UNL     1      -0.141   8.321 -15.092  1.00  0.00     0.049 A 
ATOM     55  C   UNL     1       1.011  11.804 -10.855  1.00  0.00     0.074 A 
ATOM     56  C   UNL     1       0.594   8.491 -16.253  1.00  0.00     0.029 A 
ATOM     57  N   UNL     1       0.314   9.268 -14.187  1.00  0.00    -0.354 N 
ATOM     58  N   UNL     1       0.842  11.077 -11.934  1.00  0.00    -0.248 NA
ATOM     59  C   UNL     1       2.131  12.753 -10.943  1.00  0.00     0.031 C 
ATOM     60  C   UNL     1       1.534   9.500 -16.029  1.00  0.00     0.029 A 
ATOM     61  C   UNL     1       1.340  10.004 -14.753  1.00  0.00     0.049 A 
ATOM     62  H   UNL     1      -0.040   9.396 -13.277  1.00  0.00     0.167 HD
ATOM     63  C   UNL     1       1.803  11.511 -12.841  1.00  0.00     0.074 A 
ATOM     64  C   UNL     1       2.547  12.567 -12.188  1.00  0.00     0.031 C 
ATOM     65  C   UNL     1       2.048  11.077 -14.101  1.00  0.00     0.037 A 
BRANCH  52  66
ATOM     66  C   UNL     1      -1.477   6.343 -15.896  1.00  0.00     0.058 A 
ATOM     67  C   UNL     1      -2.646   6.399 -16.670  1.00  0.00     0.135 A 
ATOM     68  C   UNL     1      -0.528   5.357 -16.212  1.00  0.00     0.135 A 
ATOM     69  F   UNL     1      -3.595   7.309 -16.400  1.00  0.00    -0.206 F 
ATOM     70  C   UNL     1      -2.864   5.512 -17.719  1.00  0.00     0.059 A 
ATOM     71  C   UNL     1      -0.713   4.478 -17.274  1.00  0.00     0.059 A 
ATOM     72  F   UNL     1       0.605   5.256 -15.499  1.00  0.00    -0.206 F 
ATOM     73  C   UNL     1      -1.886   4.562 -18.021  1.00  0.00     0.060 A 
BRANCH  73  74
ATOM     74  S   UNL     1      -2.159   3.461 -19.425  1.00  0.00     0.124 S 
ATOM     75  O   UNL     1      -3.225   2.601 -18.920  1.00  0.00    -0.237 OA
ATOM     76  O   UNL     1      -2.545   4.394 -20.480  1.00  0.00    -0.237 OA
ATOM     77  O   UNL     1      -0.865   2.812 -19.608  1.00  0.00    -0.744 OA
ENDBRANCH  73  74
ENDBRANCH  52  66
BRANCH  53  78
ATOM     78  C   UNL     1       0.589  12.708  -8.453  1.00  0.00     0.058 A 
ATOM     79  C   UNL     1       0.462  14.100  -8.586  1.00  0.00     0.135 A 
ATOM     80  C   UNL     1       1.117  12.216  -7.250  1.00  0.00     0.135 A 
ATOM     81  F   UNL     1      -0.034  14.622  -9.718  1.00  0.00    -0.206 F 
ATOM     82  C   UNL     1       0.889  14.971  -7.589  1.00  0.00     0.059 A 
ATOM     83  C   UNL     1       1.520  13.066  -6.224  1.00  0.00     0.059 A 
ATOM     84  F   UNL     1       1.244  10.893  -7.060  1.00  0.00    -0.206 F 
ATOM     85  C   UNL     1       1.424  14.444  -6.413  1.00  0.00     0.060 A 
BRANCH  85  86
ATOM     86  S   UNL     1       1.991  15.582  -5.131  1.00  0.00     0.124 S 
ATOM     87  O   UNL     1       3.214  16.108  -5.726  1.00  0.00    -0.237 OA
ATOM     88  O   UNL     1       0.874  16.517  -5.033  1.00  0.00    -0.237 OA
ATOM     89  O   UNL     1       2.177  14.716  -3.970  1.00  0.00    -0.744 OA
ENDBRANCH  85  86
ENDBRANCH  53  78
BRANCH  65  90
ATOM     90  C   UNL     1       3.117  11.780 -14.891  1.00  0.00     0.058 A 
ATOM     91  C   UNL     1       4.481  11.614 -14.609  1.00  0.00     0.135 A 
ATOM     92  C   UNL     1       2.767  12.569 -16.000  1.00  0.00     0.135 A 
ATOM     93  F   UNL     1       4.869  10.876 -13.557  1.00  0.00    -0.206 F 
ATOM     94  C   UNL     1       5.461  12.219 -15.389  1.00  0.00     0.059 A 
ATOM     95  C   UNL     1       3.731  13.156 -16.812  1.00  0.00     0.059 A 
ATOM     96  F   UNL     1       1.476  12.751 -16.320  1.00  0.00    -0.206 F 
ATOM     97  C   UNL     1       5.076  12.982 -16.494  1.00  0.00     0.060 A 
BRANCH  97  98
ATOM     98  S   UNL     1       6.361  13.713 -17.530  1.00  0.00     0.124 S 
ATOM     99  O   UNL     1       6.862  14.779 -16.669  1.00  0.00    -0.237 OA
ATOM    100  O   UNL     1       7.268  12.589 -17.741  1.00  0.00    -0.237 OA
ATOM    101  O   UNL     1       5.632  14.154 -18.716  1.00  0.00    -0.744 OA
ENDBRANCH  97  98
ENDBRANCH  65  90
ENDBRANCH  39  40
ENDBRANCH  31  34
ENDBRANCH  29  30
ENDBRANCH  28  29
ENDBRANCH  27  28
ENDBRANCH   1  27
TORSDOF 22
