REMARK SMILES C#CCN(CC(=O)NCCCCCCNC(=O)c1ccc(-c2c3nc(c(-c4c(F)cc(S(=O)(=O)[O-])cc4F)c4ccc([nH]4)c(-c4c(F)cc(S(=O)(=O)[O-])cc4F)c4nc(c(-c5c(F)cc(S(=O)(=O)[O-])cc5F)c5ccc2[nH]5)C=C4)C=C3)cc1)C(=O)N1CC[N@@H+]2CCC[C@H]2C1
REMARK SMILES IDX 11 1 10 2 9 3 8 4 6 5 7 6 5 8 4 9 3 10 2 11 1 12 84 13 85 14
REMARK SMILES IDX 86 15 87 16 94 17 88 18 93 19 89 20 92 21 90 22 91 24 12 25
REMARK SMILES IDX 13 26 14 27 15 28 16 29 17 31 18 32 19 33 83 34 20 35 82 36
REMARK SMILES IDX 21 37 22 38 23 39 76 40 24 41 81 42 75 43 77 44 25 45 80 46
REMARK SMILES IDX 74 47 73 48 26 50 60 51 39 52 59 53 40 54 43 55 58 56 78 57
REMARK SMILES IDX 41 58 42 59 57 61 79 62 44 63 27 64 28 65 37 66 29 67 30 68
REMARK SMILES IDX 36 69 38 70 31 71 32 72 33 73 34 74 35 75 61 76 62 77 71 78
REMARK SMILES IDX 63 79 64 80 70 81 72 82 65 83 66 84 67 85 68 86 69 87 45 88
REMARK SMILES IDX 46 89 55 90 47 91 48 92 54 93 56 94 49 95 50 96 51 97 52 98
REMARK SMILES IDX 53 99
REMARK H PARENT 8 7 89 23 15 30 77 49 43 60
REMARK Flexibility Score: inf
ROOT
ATOM      1  C   UNL     1      -6.432  -0.068  -2.319  1.00  0.00     0.002 C 
ENDROOT
BRANCH   1   2
ATOM      2  C   UNL     1      -5.087   0.181  -1.627  1.00  0.00     0.021 C 
BRANCH   2   3
ATOM      3  C   UNL     1      -5.165   0.341  -0.107  1.00  0.00     0.116 C 
BRANCH   3   4
ATOM      4  N   UNL     1      -5.478  -0.884   0.591  1.00  0.00    -0.355 N 
ATOM      5  C   UNL     1      -4.677  -1.746   1.276  1.00  0.00     0.239 C 
ATOM      6  O   UNL     1      -5.246  -2.582   1.990  1.00  0.00    -0.273 OA
ATOM      7  H   UNL     1      -6.429  -1.138   0.568  1.00  0.00     0.163 HD
BRANCH   5   8
ATOM      8  C   UNL     1      -3.139  -1.655   1.283  1.00  0.00     0.222 C 
BRANCH   8   9
ATOM      9  N   UNL     1      -2.454  -1.288   0.042  1.00  0.00    -0.304 N 
BRANCH   9  10
ATOM     10  C   UNL     1      -1.890   0.068  -0.030  1.00  0.00     0.211 C 
BRANCH  10  11
ATOM     11  C   UNL     1      -0.370   0.068  -0.030  1.00  0.00    -0.085 C 
ATOM     12  C   UNL     1       0.933   0.068  -0.030  1.00  0.00     0.006 C 
ENDBRANCH  10  11
ENDBRANCH   9  10
BRANCH   9  13
ATOM     13  C   UNL     1      -2.149  -2.185  -0.983  1.00  0.00     0.321 C 
ATOM     14  O   UNL     1      -1.468  -1.861  -1.956  1.00  0.00    -0.248 OA
BRANCH  13  15
ATOM     15  N   UNL     1      -2.545  -3.501  -0.817  1.00  0.00    -0.313 N 
ATOM     16  C   UNL     1      -3.954  -3.905  -0.928  1.00  0.00     0.183 C 
ATOM     17  C   UNL     1      -1.629  -4.560  -1.283  1.00  0.00     0.186 C 
ATOM     18  C   UNL     1      -4.233  -5.214  -0.152  1.00  0.00     0.284 C 
ATOM     19  C   UNL     1      -1.938  -5.872  -0.543  1.00  0.00     0.204 C 
ATOM     20  N   UNL     1      -3.356  -6.262  -0.678  1.00  0.00    -0.330 N 
ATOM     21  C   UNL     1      -1.256  -7.136  -1.045  1.00  0.00     0.073 C 
ATOM     22  C   UNL     1      -3.442  -7.566  -0.043  1.00  0.00     0.262 C 
ATOM     23  H   UNL     1      -3.683  -6.352  -1.640  1.00  0.00     0.348 HD
ATOM     24  C   UNL     1      -2.222  -8.264  -0.645  1.00  0.00     0.068 C 
ENDBRANCH  13  15
ENDBRANCH   9  13
ENDBRANCH   8   9
ENDBRANCH   5   8
ENDBRANCH   3   4
ENDBRANCH   2   3
ENDBRANCH   1   2
BRANCH   1  25
ATOM     25  C   UNL     1      -7.553   0.909  -1.952  1.00  0.00     0.002 C 
BRANCH  25  26
ATOM     26  C   UNL     1      -7.206   2.393  -2.105  1.00  0.00     0.021 C 
BRANCH  26  27
ATOM     27  C   UNL     1      -6.878   2.827  -3.529  1.00  0.00     0.116 C 
BRANCH  27  28
ATOM     28  N   UNL     1      -8.028   2.702  -4.410  1.00  0.00    -0.352 N 
ATOM     29  C   UNL     1      -8.663   3.664  -5.157  1.00  0.00     0.251 C 
ATOM     30  H   UNL     1      -8.406   1.796  -4.481  1.00  0.00     0.163 HD
ATOM     31  O   UNL     1      -9.754   3.421  -5.662  1.00  0.00    -0.269 OA
BRANCH  29  32
ATOM     32  C   UNL     1      -8.040   4.995  -5.336  1.00  0.00     0.039 A 
ATOM     33  C   UNL     1      -8.840   6.136  -5.237  1.00  0.00     0.014 A 
ATOM     34  C   UNL     1      -6.676   5.118  -5.617  1.00  0.00     0.014 A 
ATOM     35  C   UNL     1      -8.260   7.401  -5.362  1.00  0.00     0.010 A 
ATOM     36  C   UNL     1      -6.088   6.379  -5.665  1.00  0.00     0.010 A 
ATOM     37  C   UNL     1      -6.873   7.535  -5.543  1.00  0.00    -0.014 A 
BRANCH  37  38
ATOM     38  C   UNL     1      -6.230   8.873  -5.609  1.00  0.00     0.031 A 
ATOM     39  C   UNL     1      -5.524   9.313  -6.864  1.00  0.00     0.074 A 
ATOM     40  C   UNL     1      -6.234   9.669  -4.520  1.00  0.00     0.049 A 
ATOM     41  N   UNL     1      -4.850  10.412  -7.090  1.00  0.00    -0.248 NA
ATOM     42  C   UNL     1      -5.560   8.387  -8.008  1.00  0.00     0.031 C 
ATOM     43  C   UNL     1      -6.847   9.337  -3.232  1.00  0.00     0.029 A 
ATOM     44  N   UNL     1      -5.698  10.917  -4.318  1.00  0.00    -0.354 N 
ATOM     45  C   UNL     1      -4.376  10.306  -8.393  1.00  0.00     0.074 A 
ATOM     46  C   UNL     1      -4.791   9.012  -8.889  1.00  0.00     0.031 C 
ATOM     47  C   UNL     1      -6.671  10.362  -2.382  1.00  0.00     0.029 A 
ATOM     48  C   UNL     1      -5.898  11.405  -3.047  1.00  0.00     0.049 A 
ATOM     49  H   UNL     1      -5.216  11.415  -5.016  1.00  0.00     0.167 HD
ATOM     50  C   UNL     1      -3.680  11.214  -9.118  1.00  0.00     0.037 A 
ATOM     51  C   UNL     1      -5.493  12.558  -2.478  1.00  0.00     0.037 A 
ATOM     52  C   UNL     1      -3.288  12.509  -8.624  1.00  0.00     0.049 A 
ATOM     53  C   UNL     1      -4.705  13.543  -3.300  1.00  0.00     0.074 A 
ATOM     54  C   UNL     1      -2.625  13.520  -9.297  1.00  0.00     0.029 A 
ATOM     55  N   UNL     1      -3.521  12.972  -7.337  1.00  0.00    -0.354 N 
ATOM     56  N   UNL     1      -4.320  13.451  -4.551  1.00  0.00    -0.248 NA
ATOM     57  C   UNL     1      -4.302  14.791  -2.638  1.00  0.00     0.031 C 
ATOM     58  C   UNL     1      -2.412  14.574  -8.403  1.00  0.00     0.029 A 
ATOM     59  C   UNL     1      -2.994  14.245  -7.190  1.00  0.00     0.049 A 
ATOM     60  H   UNL     1      -3.992  12.471  -6.633  1.00  0.00     0.167 HD
ATOM     61  C   UNL     1      -3.658  14.641  -4.833  1.00  0.00     0.074 A 
ATOM     62  C   UNL     1      -3.707  15.442  -3.628  1.00  0.00     0.031 C 
ATOM     63  C   UNL     1      -3.062  15.036  -5.986  1.00  0.00     0.037 A 
BRANCH  50  64
ATOM     64  C   UNL     1      -3.303  10.848 -10.528  1.00  0.00     0.058 A 
ATOM     65  C   UNL     1      -4.266  10.748 -11.546  1.00  0.00     0.135 A 
ATOM     66  C   UNL     1      -1.958  10.652 -10.881  1.00  0.00     0.135 A 
ATOM     67  F   UNL     1      -5.568  10.910 -11.263  1.00  0.00    -0.206 F 
ATOM     68  C   UNL     1      -3.911  10.446 -12.856  1.00  0.00     0.059 A 
ATOM     69  C   UNL     1      -1.577  10.378 -12.192  1.00  0.00     0.059 A 
ATOM     70  F   UNL     1      -0.995  10.734  -9.948  1.00  0.00    -0.206 F 
ATOM     71  C   UNL     1      -2.563  10.267 -13.171  1.00  0.00     0.060 A 
BRANCH  71  72
ATOM     72  S   UNL     1      -2.120   9.902 -14.882  1.00  0.00     0.124 S 
ATOM     73  O   UNL     1      -2.612   8.535 -15.025  1.00  0.00    -0.237 OA
ATOM     74  O   UNL     1      -2.861  10.922 -15.619  1.00  0.00    -0.237 OA
ATOM     75  O   UNL     1      -0.669  10.051 -14.899  1.00  0.00    -0.744 OA
ENDBRANCH  71  72
ENDBRANCH  50  64
BRANCH  51  76
ATOM     76  C   UNL     1      -5.830  12.851  -1.058  1.00  0.00     0.058 A 
ATOM     77  C   UNL     1      -6.721  13.882  -0.723  1.00  0.00     0.135 A 
ATOM     78  C   UNL     1      -5.261  12.115  -0.006  1.00  0.00     0.135 A 
ATOM     79  F   UNL     1      -7.288  14.618  -1.691  1.00  0.00    -0.206 F 
ATOM     80  C   UNL     1      -7.015  14.193   0.601  1.00  0.00     0.059 A 
ATOM     81  C   UNL     1      -5.562  12.387   1.325  1.00  0.00     0.059 A 
ATOM     82  F   UNL     1      -4.417  11.106  -0.271  1.00  0.00    -0.206 F 
ATOM     83  C   UNL     1      -6.428  13.438   1.619  1.00  0.00     0.060 A 
BRANCH  83  84
ATOM     84  S   UNL     1      -6.835  13.832   3.334  1.00  0.00     0.124 S 
ATOM     85  O   UNL     1      -6.115  15.085   3.526  1.00  0.00    -0.237 OA
ATOM     86  O   UNL     1      -8.291  13.931   3.288  1.00  0.00    -0.237 OA
ATOM     87  O   UNL     1      -6.316  12.685   4.073  1.00  0.00    -0.744 OA
ENDBRANCH  83  84
ENDBRANCH  51  76
BRANCH  63  88
ATOM     88  C   UNL     1      -2.450  16.410  -6.017  1.00  0.00     0.058 A 
ATOM     89  C   UNL     1      -1.271  16.712  -5.318  1.00  0.00     0.135 A 
ATOM     90  C   UNL     1      -3.025  17.424  -6.801  1.00  0.00     0.135 A 
ATOM     91  F   UNL     1      -0.684  15.782  -4.548  1.00  0.00    -0.206 F 
ATOM     92  C   UNL     1      -0.698  17.979  -5.374  1.00  0.00     0.059 A 
ATOM     93  C   UNL     1      -2.451  18.688  -6.897  1.00  0.00     0.059 A 
ATOM     94  F   UNL     1      -4.147  17.186  -7.499  1.00  0.00    -0.206 F 
ATOM     95  C   UNL     1      -1.294  18.959  -6.170  1.00  0.00     0.060 A 
BRANCH  95  96
ATOM     96  S   UNL     1      -0.520  20.587  -6.260  1.00  0.00     0.124 S 
ATOM     97  O   UNL     1      -0.832  21.135  -4.944  1.00  0.00    -0.237 OA
ATOM     98  O   UNL     1       0.882  20.253  -6.491  1.00  0.00    -0.237 OA
ATOM     99  O   UNL     1      -1.199  21.226  -7.383  1.00  0.00    -0.744 OA
ENDBRANCH  95  96
ENDBRANCH  63  88
ENDBRANCH  37  38
ENDBRANCH  29  32
ENDBRANCH  27  28
ENDBRANCH  26  27
ENDBRANCH  25  26
ENDBRANCH   1  25
TORSDOF 21
