REMARK SMILES O=C(NCCCCCCNC(=O)[C@@H]1CN(C(=O)C2(Cc3ccccc3)CCC2)CCO1)c1ccc(-c2c3nc(c(-c4c(F)cc(S(=O)(=O)[O-])cc4F)c4ccc([nH]4)c(-c4c(F)cc(S(=O)(=O)[O-])cc4F)c4nc(c(-c5c(F)cc(S(=O)(=O)[O-])cc5F)c5ccc2[nH]5)C=C4)C=C3)cc1
REMARK SMILES IDX 7 1 6 2 5 3 4 4 3 5 1 6 2 7 32 9 33 10 97 11 34 12 96 13
REMARK SMILES IDX 35 14 36 15 37 16 90 17 38 18 95 19 89 20 91 21 39 22 94 23
REMARK SMILES IDX 88 24 87 25 40 27 74 28 53 29 73 30 54 31 57 32 72 33 92 34
REMARK SMILES IDX 55 35 56 36 71 38 93 39 58 40 41 41 42 42 51 43 43 44 44 45
REMARK SMILES IDX 50 46 52 47 45 48 46 49 47 50 48 51 49 52 75 53 76 54 85 55
REMARK SMILES IDX 77 56 78 57 84 58 86 59 79 60 80 61 81 62 82 63 83 64 59 65
REMARK SMILES IDX 60 66 69 67 61 68 62 69 68 70 70 71 63 72 64 73 65 74 66 75
REMARK SMILES IDX 67 76 8 77 9 78 10 79 11 80 12 82 13 83 14 84 31 85 15 86
REMARK SMILES IDX 30 87 29 88 16 89 17 90 18 91 26 92 28 93 27 94 19 95 20 96
REMARK SMILES IDX 21 97 25 98 22 99 24 100 23 101
REMARK H PARENT 3 8 91 26 57 37 10 81
REMARK Flexibility Score: inf
ROOT
ATOM      1  C   UNL     1       4.961  -2.545   3.341  1.00  0.00     0.002 C 
ENDROOT
BRANCH   1   2
ATOM      2  C   UNL     1       4.291  -1.172   3.469  1.00  0.00     0.002 C 
BRANCH   2   3
ATOM      3  C   UNL     1       4.751  -0.142   2.436  1.00  0.00     0.021 C 
BRANCH   3   4
ATOM      4  C   UNL     1       4.529  -0.571   0.991  1.00  0.00     0.116 C 
BRANCH   4   5
ATOM      5  N   UNL     1       3.117  -0.746   0.697  1.00  0.00    -0.352 N 
ATOM      6  O   UNL     1       1.117  -0.174  -0.168  1.00  0.00    -0.269 OA
ATOM      7  C   UNL     1       2.338  -0.079  -0.215  1.00  0.00     0.251 C 
ATOM      8  H   UNL     1       2.655  -1.437   1.225  1.00  0.00     0.163 HD
BRANCH   7   9
ATOM      9  C   UNL     1       2.986   0.760  -1.244  1.00  0.00     0.039 A 
ATOM     10  C   UNL     1       4.091   0.282  -1.957  1.00  0.00     0.014 A 
ATOM     11  C   UNL     1       2.468   2.029  -1.508  1.00  0.00     0.014 A 
ATOM     12  C   UNL     1       4.745   1.114  -2.859  1.00  0.00     0.010 A 
ATOM     13  C   UNL     1       3.082   2.834  -2.469  1.00  0.00     0.010 A 
ATOM     14  C   UNL     1       4.234   2.390  -3.138  1.00  0.00    -0.014 A 
BRANCH  14  15
ATOM     15  C   UNL     1       4.864   3.235  -4.181  1.00  0.00     0.031 A 
ATOM     16  C   UNL     1       5.491   4.551  -3.826  1.00  0.00     0.074 A 
ATOM     17  C   UNL     1       4.816   2.826  -5.463  1.00  0.00     0.049 A 
ATOM     18  N   UNL     1       5.987   5.467  -4.617  1.00  0.00    -0.248 NA
ATOM     19  C   UNL     1       5.560   4.886  -2.397  1.00  0.00     0.031 C 
ATOM     20  C   UNL     1       4.224   1.567  -5.922  1.00  0.00     0.029 A 
ATOM     21  N   UNL     1       5.247   3.431  -6.615  1.00  0.00    -0.354 N 
ATOM     22  C   UNL     1       6.402   6.501  -3.787  1.00  0.00     0.074 A 
ATOM     23  C   UNL     1       6.079   6.106  -2.432  1.00  0.00     0.031 C 
ATOM     24  C   UNL     1       4.325   1.495  -7.257  1.00  0.00     0.029 A 
ATOM     25  C   UNL     1       4.926   2.729  -7.752  1.00  0.00     0.049 A 
ATOM     26  H   UNL     1       5.737   4.285  -6.627  1.00  0.00     0.167 HD
ATOM     27  C   UNL     1       6.997   7.670  -4.129  1.00  0.00     0.037 A 
ATOM     28  C   UNL     1       5.056   3.056  -9.052  1.00  0.00     0.037 A 
ATOM     29  C   UNL     1       7.304   8.046  -5.486  1.00  0.00     0.049 A 
ATOM     30  C   UNL     1       5.680   4.371  -9.415  1.00  0.00     0.074 A 
ATOM     31  C   UNL     1       7.942   9.187  -5.939  1.00  0.00     0.029 A 
ATOM     32  N   UNL     1       6.974   7.301  -6.611  1.00  0.00    -0.354 N 
ATOM     33  N   UNL     1       6.111   5.321  -8.619  1.00  0.00    -0.248 NA
ATOM     34  C   UNL     1       5.841   4.663 -10.845  1.00  0.00     0.031 C 
ATOM     35  C   UNL     1       7.943   9.161  -7.337  1.00  0.00     0.029 A 
ATOM     36  C   UNL     1       7.368   7.972  -7.758  1.00  0.00     0.049 A 
ATOM     37  H   UNL     1       6.525   6.425  -6.596  1.00  0.00     0.167 HD
ATOM     38  C   UNL     1       6.620   6.312  -9.449  1.00  0.00     0.074 A 
ATOM     39  C   UNL     1       6.441   5.847 -10.810  1.00  0.00     0.031 C 
ATOM     40  C   UNL     1       7.193   7.493  -9.109  1.00  0.00     0.037 A 
BRANCH  27  41
ATOM     41  C   UNL     1       7.310   8.641  -3.021  1.00  0.00     0.058 A 
ATOM     42  C   UNL     1       8.288   8.376  -2.049  1.00  0.00     0.135 A 
ATOM     43  C   UNL     1       6.615   9.859  -2.929  1.00  0.00     0.135 A 
ATOM     44  F   UNL     1       8.980   7.225  -2.082  1.00  0.00    -0.206 F 
ATOM     45  C   UNL     1       8.525   9.253  -0.996  1.00  0.00     0.059 A 
ATOM     46  C   UNL     1       6.859  10.767  -1.903  1.00  0.00     0.059 A 
ATOM     47  F   UNL     1       5.675  10.172  -3.835  1.00  0.00    -0.206 F 
ATOM     48  C   UNL     1       7.797  10.442  -0.925  1.00  0.00     0.060 A 
BRANCH  48  49
ATOM     49  S   UNL     1       8.075  11.542   0.479  1.00  0.00     0.124 S 
ATOM     50  O   UNL     1       7.434  10.799   1.560  1.00  0.00    -0.237 OA
ATOM     51  O   UNL     1       9.531  11.613   0.537  1.00  0.00    -0.237 OA
ATOM     52  O   UNL     1       7.405  12.777   0.083  1.00  0.00    -0.744 OA
ENDBRANCH  48  49
ENDBRANCH  27  41
BRANCH  28  53
ATOM     53  C   UNL     1       4.561   2.108 -10.083  1.00  0.00     0.058 A 
ATOM     54  C   UNL     1       5.449   1.352 -10.859  1.00  0.00     0.135 A 
ATOM     55  C   UNL     1       3.185   1.867 -10.239  1.00  0.00     0.135 A 
ATOM     56  F   UNL     1       6.771   1.549 -10.748  1.00  0.00    -0.206 F 
ATOM     57  C   UNL     1       4.994   0.382 -11.745  1.00  0.00     0.059 A 
ATOM     58  C   UNL     1       2.707   0.885 -11.099  1.00  0.00     0.059 A 
ATOM     59  F   UNL     1       2.296   2.552  -9.502  1.00  0.00    -0.206 F 
ATOM     60  C   UNL     1       3.621   0.146 -11.847  1.00  0.00     0.060 A 
BRANCH  60  61
ATOM     61  S   UNL     1       3.051  -1.188 -12.923  1.00  0.00     0.124 S 
ATOM     62  O   UNL     1       3.308  -0.630 -14.245  1.00  0.00    -0.237 OA
ATOM     63  O   UNL     1       3.913  -2.294 -12.518  1.00  0.00    -0.237 OA
ATOM     64  O   UNL     1       1.644  -1.335 -12.561  1.00  0.00    -0.744 OA
ENDBRANCH  60  61
ENDBRANCH  28  53
BRANCH  40  65
ATOM     65  C   UNL     1       7.720   8.362 -10.217  1.00  0.00     0.058 A 
ATOM     66  C   UNL     1       6.869   9.106 -11.047  1.00  0.00     0.135 A 
ATOM     67  C   UNL     1       9.106   8.535 -10.372  1.00  0.00     0.135 A 
ATOM     68  F   UNL     1       5.537   8.967 -10.949  1.00  0.00    -0.206 F 
ATOM     69  C   UNL     1       7.373   9.999 -11.988  1.00  0.00     0.059 A 
ATOM     70  C   UNL     1       9.631   9.441 -11.287  1.00  0.00     0.059 A 
ATOM     71  F   UNL     1       9.963   7.848  -9.600  1.00  0.00    -0.206 F 
ATOM     72  C   UNL     1       8.756  10.170 -12.090  1.00  0.00     0.060 A 
BRANCH  72  73
ATOM     73  S   UNL     1       9.393  11.399 -13.249  1.00  0.00     0.124 S 
ATOM     74  O   UNL     1       9.136  10.756 -14.533  1.00  0.00    -0.237 OA
ATOM     75  O   UNL     1       8.570  12.566 -12.947  1.00  0.00    -0.237 OA
ATOM     76  O   UNL     1      10.800  11.519 -12.878  1.00  0.00    -0.744 OA
ENDBRANCH  72  73
ENDBRANCH  40  65
ENDBRANCH  14  15
ENDBRANCH   7   9
ENDBRANCH   4   5
ENDBRANCH   3   4
ENDBRANCH   2   3
ENDBRANCH   1   2
BRANCH   1  77
ATOM     77  C   UNL     1       6.495  -2.513   3.375  1.00  0.00     0.021 C 
BRANCH  77  78
ATOM     78  C   UNL     1       7.066  -1.817   4.611  1.00  0.00     0.116 C 
BRANCH  78  79
ATOM     79  N   UNL     1       6.699  -2.544   5.811  1.00  0.00    -0.354 N 
ATOM     80  C   UNL     1       7.501  -3.295   6.621  1.00  0.00     0.250 C 
ATOM     81  H   UNL     1       5.752  -2.490   6.074  1.00  0.00     0.163 HD
ATOM     82  O   UNL     1       6.977  -3.982   7.499  1.00  0.00    -0.272 OA
BRANCH  80  83
ATOM     83  C   UNL     1       9.012  -3.244   6.394  1.00  0.00     0.226 C 
ATOM     84  C   UNL     1       9.681  -4.429   7.088  1.00  0.00     0.161 C 
ATOM     85  O   UNL     1       9.516  -1.997   6.909  1.00  0.00    -0.365 OA
ATOM     86  N   UNL     1      11.135  -4.340   6.948  1.00  0.00    -0.337 N 
ATOM     87  C   UNL     1      10.938  -1.897   6.736  1.00  0.00     0.183 C 
ATOM     88  C   UNL     1      11.677  -3.061   7.408  1.00  0.00     0.148 C 
BRANCH  86  89
ATOM     89  C   UNL     1      11.971  -5.450   6.883  1.00  0.00     0.229 C 
ATOM     90  O   UNL     1      12.967  -5.482   7.621  1.00  0.00    -0.274 OA
BRANCH  89  91
ATOM     91  C   UNL     1      11.670  -6.580   5.800  1.00  0.00     0.053 C 
ATOM     92  C   UNL     1      10.648  -7.663   6.285  1.00  0.00     0.017 C 
ATOM     93  C   UNL     1      10.703  -6.302   4.601  1.00  0.00     0.017 C 
ATOM     94  C   UNL     1       9.939  -7.594   4.926  1.00  0.00     0.002 C 
BRANCH  91  95
ATOM     95  C   UNL     1      12.986  -7.265   5.326  1.00  0.00     0.052 C 
BRANCH  95  96
ATOM     96  C   UNL     1      13.805  -6.447   4.343  1.00  0.00    -0.047 A 
ATOM     97  C   UNL     1      14.141  -7.002   3.097  1.00  0.00     0.004 A 
ATOM     98  C   UNL     1      14.314  -5.179   4.656  1.00  0.00     0.004 A 
ATOM     99  C   UNL     1      14.946  -6.306   2.191  1.00  0.00     0.000 A 
ATOM    100  C   UNL     1      15.106  -4.476   3.744  1.00  0.00     0.000 A 
ATOM    101  C   UNL     1      15.425  -5.039   2.513  1.00  0.00     0.000 A 
ENDBRANCH  95  96
ENDBRANCH  91  95
ENDBRANCH  89  91
ENDBRANCH  86  89
ENDBRANCH  80  83
ENDBRANCH  78  79
ENDBRANCH  77  78
ENDBRANCH   1  77
TORSDOF 20
