REMARK SMILES CC1(C)[C@H](C(=O)Nc2ccc(NC(=O)C[NH+]3CCCCC3)cc2)[C@@H]1C(=O)NCCCCCCNC(=O)c1ccc(-c2c3nc(c(-c4c(F)cc(S(=O)(=O)[O-])cc4F)c4ccc([nH]4)c(-c4c(F)cc(S(=O)(=O)[O-])cc4F)c4nc(c(-c5c(F)cc(S(=O)(=O)[O-])cc5F)c5ccc2[nH]5)C=C4)C=C3)cc1
REMARK SMILES IDX 29 1 28 2 27 3 25 4 26 5 24 7 1 8 2 9 3 10 4 11 5 12 6 13
REMARK SMILES IDX 7 14 8 16 9 17 23 18 10 19 22 20 11 21 12 22 13 23 14 25
REMARK SMILES IDX 15 26 16 27 17 28 21 29 18 31 20 32 19 33 30 34 31 35 32 36
REMARK SMILES IDX 33 37 34 38 35 39 36 41 37 42 38 43 102 44 39 45 101 46
REMARK SMILES IDX 40 47 41 48 42 49 95 50 43 51 100 52 94 53 96 54 44 55 99 56
REMARK SMILES IDX 93 57 92 58 45 60 79 61 58 62 78 63 59 64 62 65 77 66 97 67
REMARK SMILES IDX 60 68 61 69 76 71 98 72 63 73 46 74 47 75 56 76 48 77 49 78
REMARK SMILES IDX 55 79 57 80 50 81 51 82 52 83 53 84 54 85 80 86 81 87 90 88
REMARK SMILES IDX 82 89 83 90 89 91 91 92 84 93 85 94 86 95 87 96 88 97 64 98
REMARK SMILES IDX 65 99 74 100 66 101 67 102 73 103 75 104 68 105 69 106
REMARK SMILES IDX 70 107 71 108 72 109
REMARK H PARENT 27 6 7 15 12 24 16 30 34 40 96 59 62 70
REMARK Flexibility Score: inf
ROOT
ATOM      1  C   UNL     1      -5.251   0.959   0.698  1.00  0.00     0.021 C 
ENDROOT
BRANCH   1   2
ATOM      2  C   UNL     1      -3.809   0.901   0.198  1.00  0.00     0.116 C 
BRANCH   2   3
ATOM      3  N   UNL     1      -2.849   1.173   1.247  1.00  0.00    -0.356 N 
ATOM      4  C   UNL     1      -1.578   0.679   1.389  1.00  0.00     0.224 C 
ATOM      5  O   UNL     1      -0.903   1.009   2.354  1.00  0.00    -0.275 OA
ATOM      6  H   UNL     1      -3.147   1.793   1.951  1.00  0.00     0.163 HD
BRANCH   4   7
ATOM      7  C   UNL     1      -1.116  -0.366   0.450  1.00  0.00     0.098 C 
ATOM      8  C   UNL     1       0.903  -1.915  -0.138  1.00  0.00     0.013 C 
ATOM      9  C   UNL     1       0.344  -0.507  -0.013  1.00  0.00    -0.011 C 
ATOM     10  C   UNL     1       1.404   0.458   0.417  1.00  0.00     0.013 C 
ATOM     11  C   UNL     1      -0.752  -0.175  -0.999  1.00  0.00     0.098 C 
BRANCH  11  12
ATOM     12  C   UNL     1      -1.086   0.975  -1.885  1.00  0.00     0.228 C 
ATOM     13  O   UNL     1      -1.617   0.670  -2.958  1.00  0.00    -0.274 OA
ATOM     14  N   UNL     1      -1.037   2.321  -1.646  1.00  0.00    -0.326 N 
ATOM     15  H   UNL     1      -1.474   2.859  -2.345  1.00  0.00     0.169 HD
BRANCH  14  16
ATOM     16  C   UNL     1      -0.499   3.083  -0.623  1.00  0.00     0.041 A 
ATOM     17  C   UNL     1      -1.367   3.767   0.212  1.00  0.00     0.028 A 
ATOM     18  C   UNL     1       0.866   3.304  -0.518  1.00  0.00     0.028 A 
ATOM     19  C   UNL     1      -0.874   4.478   1.302  1.00  0.00     0.028 A 
ATOM     20  C   UNL     1       1.364   4.058   0.552  1.00  0.00     0.028 A 
ATOM     21  C   UNL     1       0.495   4.638   1.486  1.00  0.00     0.041 A 
BRANCH  21  22
ATOM     22  N   UNL     1       1.070   5.309   2.579  1.00  0.00    -0.321 N 
ATOM     23  C   UNL     1       0.583   6.252   3.445  1.00  0.00     0.279 C 
ATOM     24  H   UNL     1       2.004   5.051   2.756  1.00  0.00     0.170 HD
ATOM     25  O   UNL     1       1.274   6.535   4.434  1.00  0.00    -0.268 OA
BRANCH  23  26
ATOM     26  C   UNL     1      -0.745   6.987   3.204  1.00  0.00     0.363 C 
BRANCH  26  27
ATOM     27  N   UNL     1      -0.825   7.475   1.819  1.00  0.00    -0.327 N 
ATOM     28  C   UNL     1      -2.195   7.707   1.363  1.00  0.00     0.262 C 
ATOM     29  C   UNL     1       0.029   8.641   1.579  1.00  0.00     0.262 C 
ATOM     30  H   UNL     1      -0.459   6.713   1.248  1.00  0.00     0.348 HD
ATOM     31  C   UNL     1      -2.187   7.923  -0.152  1.00  0.00     0.062 C 
ATOM     32  C   UNL     1       0.102   8.939   0.081  1.00  0.00     0.062 C 
ATOM     33  C   UNL     1      -1.285   9.091  -0.537  1.00  0.00     0.012 C 
ENDBRANCH  26  27
ENDBRANCH  23  26
ENDBRANCH  21  22
ENDBRANCH  14  16
ENDBRANCH  11  12
ENDBRANCH   4   7
ENDBRANCH   2   3
ENDBRANCH   1   2
BRANCH   1  34
ATOM     34  C   UNL     1      -5.727   2.315   1.236  1.00  0.00     0.002 C 
BRANCH  34  35
ATOM     35  C   UNL     1      -5.594   3.517   0.298  1.00  0.00     0.002 C 
BRANCH  35  36
ATOM     36  C   UNL     1      -6.170   3.350  -1.106  1.00  0.00     0.021 C 
BRANCH  36  37
ATOM     37  C   UNL     1      -7.638   2.947  -1.165  1.00  0.00     0.116 C 
BRANCH  37  38
ATOM     38  N   UNL     1      -8.518   3.921  -0.542  1.00  0.00    -0.352 N 
ATOM     39  C   UNL     1      -9.693   4.456  -1.014  1.00  0.00     0.251 C 
ATOM     40  H   UNL     1      -8.232   4.243   0.343  1.00  0.00     0.163 HD
ATOM     41  O   UNL     1     -10.237   5.370  -0.401  1.00  0.00    -0.269 OA
BRANCH  39  42
ATOM     42  C   UNL     1     -10.281   3.953  -2.276  1.00  0.00     0.039 A 
ATOM     43  C   UNL     1     -10.743   4.875  -3.219  1.00  0.00     0.014 A 
ATOM     44  C   UNL     1     -10.369   2.582  -2.534  1.00  0.00     0.014 A 
ATOM     45  C   UNL     1     -11.227   4.424  -4.450  1.00  0.00     0.010 A 
ATOM     46  C   UNL     1     -10.785   2.138  -3.787  1.00  0.00     0.010 A 
ATOM     47  C   UNL     1     -11.217   3.054  -4.758  1.00  0.00    -0.014 A 
BRANCH  47  48
ATOM     48  C   UNL     1     -11.649   2.558  -6.091  1.00  0.00     0.031 A 
ATOM     49  C   UNL     1     -12.852   1.663  -6.210  1.00  0.00     0.074 A 
ATOM     50  C   UNL     1     -10.915   2.855  -7.182  1.00  0.00     0.049 A 
ATOM     51  N   UNL     1     -13.334   1.064  -7.269  1.00  0.00    -0.248 NA
ATOM     52  C   UNL     1     -13.596   1.384  -4.972  1.00  0.00     0.031 C 
ATOM     53  C   UNL     1      -9.700   3.673  -7.188  1.00  0.00     0.029 A 
ATOM     54  N   UNL     1     -11.075   2.491  -8.496  1.00  0.00    -0.354 N 
ATOM     55  C   UNL     1     -14.425   0.326  -6.823  1.00  0.00     0.074 A 
ATOM     56  C   UNL     1     -14.503   0.513  -5.391  1.00  0.00     0.031 C 
ATOM     57  C   UNL     1      -9.237   3.764  -8.445  1.00  0.00     0.029 A 
ATOM     58  C   UNL     1     -10.097   2.982  -9.329  1.00  0.00     0.049 A 
ATOM     59  H   UNL     1     -11.820   1.931  -8.812  1.00  0.00     0.167 HD
ATOM     60  C   UNL     1     -15.294  -0.421  -7.545  1.00  0.00     0.037 A 
ATOM     61  C   UNL     1      -9.909   2.815 -10.652  1.00  0.00     0.037 A 
ATOM     62  C   UNL     1     -15.226  -0.581  -8.974  1.00  0.00     0.049 A 
ATOM     63  C   UNL     1     -10.889   1.983 -11.433  1.00  0.00     0.074 A 
ATOM     64  C   UNL     1     -16.093  -1.269  -9.805  1.00  0.00     0.029 A 
ATOM     65  N   UNL     1     -14.235  -0.048  -9.785  1.00  0.00    -0.354 N 
ATOM     66  N   UNL     1     -11.949   1.341 -11.005  1.00  0.00    -0.248 NA
ATOM     67  C   UNL     1     -10.650   1.855 -12.878  1.00  0.00     0.031 C 
ATOM     68  C   UNL     1     -15.605  -1.184 -11.113  1.00  0.00     0.029 A 
ATOM     69  C   UNL     1     -14.458  -0.406 -11.104  1.00  0.00     0.049 A 
ATOM     70  H   UNL     1     -13.483   0.503  -9.469  1.00  0.00     0.167 HD
ATOM     71  C   UNL     1     -12.518   0.754 -12.129  1.00  0.00     0.074 A 
ATOM     72  C   UNL     1     -11.691   1.126 -13.258  1.00  0.00     0.031 C 
ATOM     73  C   UNL     1     -13.627  -0.022 -12.218  1.00  0.00     0.037 A 
BRANCH  60  74
ATOM     74  C   UNL     1     -16.398  -1.118  -6.798  1.00  0.00     0.058 A 
ATOM     75  C   UNL     1     -17.463  -0.405  -6.224  1.00  0.00     0.135 A 
ATOM     76  C   UNL     1     -16.406  -2.517  -6.674  1.00  0.00     0.135 A 
ATOM     77  F   UNL     1     -17.498   0.935  -6.300  1.00  0.00    -0.206 F 
ATOM     78  C   UNL     1     -18.478  -1.049  -5.524  1.00  0.00     0.059 A 
ATOM     79  C   UNL     1     -17.426  -3.185  -6.002  1.00  0.00     0.059 A 
ATOM     80  F   UNL     1     -15.413  -3.248  -7.204  1.00  0.00    -0.206 F 
ATOM     81  C   UNL     1     -18.449  -2.440  -5.416  1.00  0.00     0.060 A 
BRANCH  81  82
ATOM     82  S   UNL     1     -19.769  -3.262  -4.499  1.00  0.00     0.124 S 
ATOM     83  O   UNL     1     -19.409  -2.941  -3.122  1.00  0.00    -0.237 OA
ATOM     84  O   UNL     1     -20.965  -2.599  -5.011  1.00  0.00    -0.237 OA
ATOM     85  O   UNL     1     -19.623  -4.664  -4.876  1.00  0.00    -0.744 OA
ENDBRANCH  81  82
ENDBRANCH  60  74
BRANCH  61  86
ATOM     86  C   UNL     1      -8.757   3.472 -11.326  1.00  0.00     0.058 A 
ATOM     87  C   UNL     1      -8.954   4.561 -12.188  1.00  0.00     0.135 A 
ATOM     88  C   UNL     1      -7.440   3.041 -11.107  1.00  0.00     0.135 A 
ATOM     89  F   UNL     1     -10.196   5.005 -12.434  1.00  0.00    -0.206 F 
ATOM     90  C   UNL     1      -7.888   5.192 -12.820  1.00  0.00     0.059 A 
ATOM     91  C   UNL     1      -6.355   3.671 -11.709  1.00  0.00     0.059 A 
ATOM     92  F   UNL     1      -7.197   2.014 -10.277  1.00  0.00    -0.206 F 
ATOM     93  C   UNL     1      -6.590   4.741 -12.571  1.00  0.00     0.060 A 
BRANCH  93  94
ATOM     94  S   UNL     1      -5.209   5.603 -13.353  1.00  0.00     0.124 S 
ATOM     95  O   UNL     1      -5.316   5.139 -14.731  1.00  0.00    -0.237 OA
ATOM     96  O   UNL     1      -5.551   7.003 -13.122  1.00  0.00    -0.237 OA
ATOM     97  O   UNL     1      -4.049   5.119 -12.610  1.00  0.00    -0.744 OA
ENDBRANCH  93  94
ENDBRANCH  61  86
BRANCH  73  98
ATOM     98  C   UNL     1     -14.032  -0.496 -13.586  1.00  0.00     0.058 A 
ATOM     99  C   UNL     1     -13.328  -1.512 -14.251  1.00  0.00     0.135 A 
ATOM    100  C   UNL     1     -15.171   0.033 -14.213  1.00  0.00     0.135 A 
ATOM    101  F   UNL     1     -12.228  -2.046 -13.698  1.00  0.00    -0.206 F 
ATOM    102  C   UNL     1     -13.731  -1.975 -15.500  1.00  0.00     0.059 A 
ATOM    103  C   UNL     1     -15.607  -0.433 -15.450  1.00  0.00     0.059 A 
ATOM    104  F   UNL     1     -15.885   1.000 -13.615  1.00  0.00    -0.206 F 
ATOM    105  C   UNL     1     -14.873  -1.431 -16.090  1.00  0.00     0.060 A 
BRANCH 105 106
ATOM    106  S   UNL     1     -15.409  -2.070 -17.692  1.00  0.00     0.124 S 
ATOM    107  O   UNL     1     -14.433  -1.463 -18.591  1.00  0.00    -0.237 OA
ATOM    108  O   UNL     1     -15.291  -3.513 -17.509  1.00  0.00    -0.237 OA
ATOM    109  O   UNL     1     -16.775  -1.570 -17.816  1.00  0.00    -0.744 OA
ENDBRANCH 105 106
ENDBRANCH  73  98
ENDBRANCH  47  48
ENDBRANCH  39  42
ENDBRANCH  37  38
ENDBRANCH  36  37
ENDBRANCH  35  36
ENDBRANCH  34  35
ENDBRANCH   1  34
TORSDOF 21
