REMARK SMILES Cc1c(CC(=O)NCCCCCCNC(=O)c2ccc(-c3c4nc(c(-c5c(F)cc(S(=O)(=O)[O-])cc5F)c5ccc([nH]5)c(-c5c(F)cc(S(=O)(=O)[O-])cc5F)c5nc(c(-c6c(F)cc(S(=O)(=O)[O-])cc6F)c6ccc3[nH]6)C=C5)C=C4)cc2)cc(-c2ccccc2)cc1-c1ccccc1
REMARK SMILES IDX 11 1 10 2 9 3 8 4 7 5 5 6 6 7 4 9 3 10 1 11 2 12 92 13 83 14
REMARK SMILES IDX 91 15 84 16 93 17 94 18 98 19 95 20 97 21 96 22 85 23 86 24
REMARK SMILES IDX 90 25 87 26 89 27 88 28 12 29 13 30 14 31 15 32 16 34 17 35
REMARK SMILES IDX 18 36 82 37 19 38 81 39 20 40 21 41 22 42 75 43 23 44 80 45
REMARK SMILES IDX 74 46 76 47 24 48 79 49 73 50 72 51 25 53 59 54 38 55 58 56
REMARK SMILES IDX 39 57 42 58 57 59 77 60 40 61 41 62 56 64 78 65 43 66 26 67
REMARK SMILES IDX 27 68 36 69 28 70 29 71 35 72 37 73 30 74 31 75 32 76 33 77
REMARK SMILES IDX 34 78 60 79 61 80 70 81 62 82 63 83 69 84 71 85 64 86 65 87
REMARK SMILES IDX 66 88 67 89 68 90 44 91 45 92 54 93 46 94 47 95 53 96 55 97
REMARK SMILES IDX 48 98 49 99 50 100 51 101 52 102
REMARK H PARENT 7 8 14 33 76 52 42 63
REMARK Flexibility Score: inf
ROOT
ATOM      1  C   UNL     1       1.561  -1.655   5.953  1.00  0.00     0.002 C 
ENDROOT
BRANCH   1   2
ATOM      2  C   UNL     1       0.336  -1.357   5.073  1.00  0.00     0.002 C 
BRANCH   2   3
ATOM      3  C   UNL     1       0.613  -0.969   3.615  1.00  0.00     0.021 C 
BRANCH   3   4
ATOM      4  C   UNL     1       1.526  -1.930   2.853  1.00  0.00     0.116 C 
BRANCH   4   5
ATOM      5  N   UNL     1       0.822  -3.094   2.350  1.00  0.00    -0.356 N 
ATOM      6  C   UNL     1       0.552  -3.440   1.057  1.00  0.00     0.224 C 
ATOM      7  O   UNL     1      -0.037  -4.502   0.840  1.00  0.00    -0.275 OA
ATOM      8  H   UNL     1       0.494  -3.720   3.035  1.00  0.00     0.163 HD
BRANCH   6   9
ATOM      9  C   UNL     1       1.018  -2.554  -0.094  1.00  0.00     0.135 C 
BRANCH   9  10
ATOM     10  C   UNL     1       0.339  -1.197  -0.154  1.00  0.00    -0.035 A 
ATOM     11  C   UNL     1       2.552   0.052  -0.359  1.00  0.00     0.045 C 
ATOM     12  C   UNL     1       1.044   0.033  -0.229  1.00  0.00    -0.040 A 
ATOM     13  C   UNL     1       0.313   1.252  -0.233  1.00  0.00    -0.015 A 
ATOM     14  C   UNL     1      -1.071  -1.186  -0.144  1.00  0.00     0.013 A 
ATOM     15  C   UNL     1      -1.097   1.206  -0.198  1.00  0.00     0.017 A 
ATOM     16  C   UNL     1      -1.807   0.002  -0.167  1.00  0.00    -0.017 A 
BRANCH  13  17
ATOM     17  C   UNL     1       0.958   2.580  -0.234  1.00  0.00    -0.018 A 
ATOM     18  C   UNL     1       0.825   3.432   0.875  1.00  0.00     0.009 A 
ATOM     19  C   UNL     1       1.709   3.032  -1.331  1.00  0.00     0.009 A 
ATOM     20  C   UNL     1       1.434   4.689   0.895  1.00  0.00     0.001 A 
ATOM     21  C   UNL     1       2.330   4.284  -1.307  1.00  0.00     0.001 A 
ATOM     22  C   UNL     1       2.192   5.111  -0.194  1.00  0.00     0.000 A 
ENDBRANCH  13  17
BRANCH  16  23
ATOM     23  C   UNL     1      -3.278  -0.020  -0.164  1.00  0.00    -0.018 A 
ATOM     24  C   UNL     1      -3.991  -0.692   0.842  1.00  0.00     0.009 A 
ATOM     25  C   UNL     1      -4.010   0.621  -1.177  1.00  0.00     0.009 A 
ATOM     26  C   UNL     1      -5.388  -0.725   0.834  1.00  0.00     0.001 A 
ATOM     27  C   UNL     1      -5.407   0.587  -1.188  1.00  0.00     0.001 A 
ATOM     28  C   UNL     1      -6.095  -0.087  -0.182  1.00  0.00     0.000 A 
ENDBRANCH  16  23
ENDBRANCH   9  10
ENDBRANCH   6   9
ENDBRANCH   4   5
ENDBRANCH   3   4
ENDBRANCH   2   3
ENDBRANCH   1   2
BRANCH   1  29
ATOM     29  C   UNL     1       2.708  -0.642   5.889  1.00  0.00     0.021 C 
BRANCH  29  30
ATOM     30  C   UNL     1       2.380   0.701   6.539  1.00  0.00     0.116 C 
BRANCH  30  31
ATOM     31  N   UNL     1       3.195   0.975   7.697  1.00  0.00    -0.352 N 
ATOM     32  C   UNL     1       3.306   2.178   8.413  1.00  0.00     0.251 C 
ATOM     33  H   UNL     1       3.741   0.225   8.027  1.00  0.00     0.163 HD
ATOM     34  O   UNL     1       4.180   2.381   9.223  1.00  0.00    -0.269 OA
BRANCH  32  35
ATOM     35  C   UNL     1       2.193   3.131   8.249  1.00  0.00     0.039 A 
ATOM     36  C   UNL     1       1.353   3.294   9.357  1.00  0.00     0.014 A 
ATOM     37  C   UNL     1       1.840   3.612   6.994  1.00  0.00     0.014 A 
ATOM     38  C   UNL     1       0.062   3.777   9.163  1.00  0.00     0.010 A 
ATOM     39  C   UNL     1       0.534   4.019   6.786  1.00  0.00     0.010 A 
ATOM     40  C   UNL     1      -0.365   4.046   7.860  1.00  0.00    -0.014 A 
BRANCH  40  41
ATOM     41  C   UNL     1      -1.770   4.254   7.536  1.00  0.00     0.031 A 
ATOM     42  C   UNL     1      -2.292   5.623   7.346  1.00  0.00     0.074 A 
ATOM     43  C   UNL     1      -2.596   3.190   7.442  1.00  0.00     0.049 A 
ATOM     44  N   UNL     1      -3.513   5.979   7.566  1.00  0.00    -0.248 NA
ATOM     45  C   UNL     1      -1.432   6.728   6.937  1.00  0.00     0.031 C 
ATOM     46  C   UNL     1      -3.966   3.177   6.940  1.00  0.00     0.029 A 
ATOM     47  N   UNL     1      -2.416   1.925   8.008  1.00  0.00    -0.354 N 
ATOM     48  C   UNL     1      -3.663   7.272   7.115  1.00  0.00     0.074 A 
ATOM     49  C   UNL     1      -2.326   7.709   6.779  1.00  0.00     0.031 C 
ATOM     50  C   UNL     1      -4.589   2.088   7.417  1.00  0.00     0.029 A 
ATOM     51  C   UNL     1      -3.686   1.436   8.352  1.00  0.00     0.049 A 
ATOM     52  H   UNL     1      -1.558   1.462   8.140  1.00  0.00     0.167 HD
ATOM     53  C   UNL     1      -4.912   7.797   6.948  1.00  0.00     0.037 A 
ATOM     54  C   UNL     1      -4.000   1.141   9.647  1.00  0.00     0.037 A 
ATOM     55  C   UNL     1      -5.944   6.853   7.367  1.00  0.00     0.049 A 
ATOM     56  C   UNL     1      -5.118   1.985  10.213  1.00  0.00     0.074 A 
ATOM     57  C   UNL     1      -6.676   5.912   6.661  1.00  0.00     0.029 A 
ATOM     58  N   UNL     1      -6.108   6.548   8.715  1.00  0.00    -0.354 N 
ATOM     59  N   UNL     1      -5.518   3.114   9.694  1.00  0.00    -0.248 NA
ATOM     60  C   UNL     1      -5.868   1.625  11.413  1.00  0.00     0.031 C 
ATOM     61  C   UNL     1      -7.213   4.986   7.587  1.00  0.00     0.029 A 
ATOM     62  C   UNL     1      -6.838   5.381   8.859  1.00  0.00     0.049 A 
ATOM     63  H   UNL     1      -5.754   7.085   9.460  1.00  0.00     0.167 HD
ATOM     64  C   UNL     1      -6.529   3.635  10.460  1.00  0.00     0.074 A 
ATOM     65  C   UNL     1      -6.726   2.655  11.513  1.00  0.00     0.031 C 
ATOM     66  C   UNL     1      -7.128   4.828  10.173  1.00  0.00     0.037 A 
BRANCH  53  67
ATOM     67  C   UNL     1      -5.159   9.012   6.077  1.00  0.00     0.058 A 
ATOM     68  C   UNL     1      -6.274   9.073   5.214  1.00  0.00     0.135 A 
ATOM     69  C   UNL     1      -4.277  10.106   5.979  1.00  0.00     0.135 A 
ATOM     70  F   UNL     1      -7.260   8.168   5.276  1.00  0.00    -0.206 F 
ATOM     71  C   UNL     1      -6.418  10.051   4.228  1.00  0.00     0.059 A 
ATOM     72  C   UNL     1      -4.366  11.066   4.964  1.00  0.00     0.059 A 
ATOM     73  F   UNL     1      -3.303  10.288   6.884  1.00  0.00    -0.206 F 
ATOM     74  C   UNL     1      -5.432  11.016   4.076  1.00  0.00     0.060 A 
BRANCH  74  75
ATOM     75  S   UNL     1      -5.553  12.171   2.695  1.00  0.00     0.124 S 
ATOM     76  O   UNL     1      -5.794  11.280   1.564  1.00  0.00    -0.237 OA
ATOM     77  O   UNL     1      -6.679  13.006   3.097  1.00  0.00    -0.237 OA
ATOM     78  O   UNL     1      -4.250  12.832   2.691  1.00  0.00    -0.744 OA
ENDBRANCH  74  75
ENDBRANCH  53  67
BRANCH  54  79
ATOM     79  C   UNL     1      -2.879   0.553  10.427  1.00  0.00     0.058 A 
ATOM     80  C   UNL     1      -2.477  -0.760  10.118  1.00  0.00     0.135 A 
ATOM     81  C   UNL     1      -1.988   1.343  11.165  1.00  0.00     0.135 A 
ATOM     82  F   UNL     1      -3.300  -1.567   9.428  1.00  0.00    -0.206 F 
ATOM     83  C   UNL     1      -1.200  -1.229  10.412  1.00  0.00     0.059 A 
ATOM     84  C   UNL     1      -0.699   0.894  11.470  1.00  0.00     0.059 A 
ATOM     85  F   UNL     1      -2.316   2.600  11.497  1.00  0.00    -0.206 F 
ATOM     86  C   UNL     1      -0.297  -0.369  11.033  1.00  0.00     0.060 A 
BRANCH  86  87
ATOM     87  S   UNL     1       1.427  -0.899  11.173  1.00  0.00     0.124 S 
ATOM     88  O   UNL     1       1.292  -2.248  11.716  1.00  0.00    -0.237 OA
ATOM     89  O   UNL     1       1.878  -0.827   9.784  1.00  0.00    -0.237 OA
ATOM     90  O   UNL     1       2.006   0.086  12.079  1.00  0.00    -0.744 OA
ENDBRANCH  86  87
ENDBRANCH  54  79
BRANCH  66  91
ATOM     91  C   UNL     1      -8.128   5.529  11.056  1.00  0.00     0.058 A 
ATOM     92  C   UNL     1      -8.071   5.515  12.459  1.00  0.00     0.135 A 
ATOM     93  C   UNL     1      -9.118   6.367  10.489  1.00  0.00     0.135 A 
ATOM     94  F   UNL     1      -7.112   4.837  13.107  1.00  0.00    -0.206 F 
ATOM     95  C   UNL     1      -8.971   6.231  13.251  1.00  0.00     0.059 A 
ATOM     96  C   UNL     1      -9.992   7.129  11.258  1.00  0.00     0.059 A 
ATOM     97  F   UNL     1      -9.260   6.476   9.159  1.00  0.00    -0.206 F 
ATOM     98  C   UNL     1      -9.928   7.037  12.642  1.00  0.00     0.060 A 
BRANCH  98  99
ATOM     99  S   UNL     1     -11.054   8.023  13.646  1.00  0.00     0.124 S 
ATOM    100  O   UNL     1     -12.229   7.160  13.699  1.00  0.00    -0.237 OA
ATOM    101  O   UNL     1     -10.327   8.175  14.903  1.00  0.00    -0.237 OA
ATOM    102  O   UNL     1     -11.202   9.248  12.865  1.00  0.00    -0.744 OA
ENDBRANCH  98  99
ENDBRANCH  66  91
ENDBRANCH  40  41
ENDBRANCH  32  35
ENDBRANCH  30  31
ENDBRANCH  29  30
ENDBRANCH   1  29
TORSDOF 19
