REMARK SMILES Cc1ccc(-c2cc(Cl)ccc2Cl)c(C(=O)NCCCCCCNC(=O)c2ccc(-c3c4nc(c(-c5c(F)cc(S(=O)(=O)[O-])cc5F)c5ccc([nH]5)c(-c5c(F)cc(S(=O)(=O)[O-])cc5F)c5nc(c(-c6c(F)cc(S(=O)(=O)[O-])cc6F)c6ccc3[nH]6)C=C5)C=C4)cc2)c1
REMARK SMILES IDX 21 1 20 2 19 3 18 4 17 5 15 6 16 7 14 9 1 10 2 11 3 12 93 13
REMARK SMILES IDX 4 14 5 15 6 16 7 17 12 18 8 19 11 20 13 21 9 22 10 23 22 24
REMARK SMILES IDX 23 25 24 26 25 27 26 29 27 30 28 31 92 32 29 33 91 34 30 35
REMARK SMILES IDX 31 36 32 37 85 38 33 39 90 40 84 41 86 42 34 43 89 44 83 45
REMARK SMILES IDX 82 46 35 48 69 49 48 50 68 51 49 52 52 53 67 54 87 55 50 56
REMARK SMILES IDX 51 57 66 59 88 60 53 61 36 62 37 63 46 64 38 65 39 66 45 67
REMARK SMILES IDX 47 68 40 69 41 70 42 71 43 72 44 73 70 74 71 75 80 76 72 77
REMARK SMILES IDX 73 78 79 79 81 80 74 81 75 82 76 83 77 84 78 85 54 86 55 87
REMARK SMILES IDX 64 88 56 89 57 90 63 91 65 92 58 93 59 94 60 95 61 96 62 97
REMARK H PARENT 17 8 24 28 86 47 52 58
REMARK Flexibility Score: inf
ROOT
ATOM      1  C   UNL     1       0.541   7.049   0.174  1.00  0.00     0.002 C 
ENDROOT
BRANCH   1   2
ATOM      2  C   UNL     1       0.319   6.096  -1.011  1.00  0.00     0.002 C 
BRANCH   2   3
ATOM      3  C   UNL     1       0.752   4.636  -0.798  1.00  0.00     0.021 C 
BRANCH   3   4
ATOM      4  C   UNL     1       0.177   3.984   0.463  1.00  0.00     0.116 C 
BRANCH   4   5
ATOM      5  N   UNL     1      -1.190   3.559   0.248  1.00  0.00    -0.352 N 
ATOM      6  C   UNL     1      -1.826   2.368   0.017  1.00  0.00     0.251 C 
ATOM      7  O   UNL     1      -3.053   2.467  -0.034  1.00  0.00    -0.269 OA
ATOM      8  H   UNL     1      -1.821   4.314   0.276  1.00  0.00     0.163 HD
BRANCH   6   9
ATOM      9  C   UNL     1      -1.150   1.021  -0.119  1.00  0.00     0.047 A 
ATOM     10  C   UNL     1       2.404  -0.399  -0.330  1.00  0.00     0.044 C 
ATOM     11  C   UNL     1       0.907  -0.328  -0.249  1.00  0.00    -0.050 A 
ATOM     12  C   UNL     1       0.162  -1.494  -0.114  1.00  0.00     0.004 A 
ATOM     13  C   UNL     1       0.238   0.906  -0.311  1.00  0.00     0.018 A 
ATOM     14  C   UNL     1      -1.227  -1.422  -0.050  1.00  0.00     0.010 A 
ATOM     15  C   UNL     1      -1.909  -0.183  -0.047  1.00  0.00    -0.004 A 
BRANCH  15  16
ATOM     16  C   UNL     1      -3.389  -0.233  -0.030  1.00  0.00     0.003 A 
ATOM     17  C   UNL     1      -4.096   0.138  -1.195  1.00  0.00     0.030 A 
ATOM     18  C   UNL     1      -4.140  -0.628   1.095  1.00  0.00     0.049 A 
ATOM     19  C   UNL     1      -5.489   0.176  -1.210  1.00  0.00     0.041 A 
ATOM     20  C   UNL     1      -5.541  -0.619   1.062  1.00  0.00     0.023 A 
ATOM     21  Cl  UNL     1      -3.389  -1.134   2.571  1.00  0.00    -0.084 Cl
ATOM     22  Cl  UNL     1      -6.319   0.712  -2.620  1.00  0.00    -0.084 Cl
ATOM     23  C   UNL     1      -6.215  -0.204  -0.086  1.00  0.00     0.022 A 
ENDBRANCH  15  16
ENDBRANCH   6   9
ENDBRANCH   4   5
ENDBRANCH   3   4
ENDBRANCH   2   3
ENDBRANCH   1   2
BRANCH   1  24
ATOM     24  C   UNL     1       1.909   6.967   0.855  1.00  0.00     0.021 C 
BRANCH  24  25
ATOM     25  C   UNL     1       3.045   7.511  -0.002  1.00  0.00     0.116 C 
BRANCH  25  26
ATOM     26  N   UNL     1       3.730   8.627   0.636  1.00  0.00    -0.352 N 
ATOM     27  C   UNL     1       4.928   9.209   0.263  1.00  0.00     0.251 C 
ATOM     28  H   UNL     1       3.288   9.014   1.426  1.00  0.00     0.163 HD
ATOM     29  O   UNL     1       5.574   9.943   0.989  1.00  0.00    -0.269 OA
BRANCH  27  30
ATOM     30  C   UNL     1       5.323   9.011  -1.144  1.00  0.00     0.039 A 
ATOM     31  C   UNL     1       5.107  10.085  -2.016  1.00  0.00     0.014 A 
ATOM     32  C   UNL     1       5.566   7.724  -1.614  1.00  0.00     0.014 A 
ATOM     33  C   UNL     1       4.962   9.836  -3.376  1.00  0.00     0.010 A 
ATOM     34  C   UNL     1       5.339   7.469  -2.951  1.00  0.00     0.010 A 
ATOM     35  C   UNL     1       4.992   8.515  -3.820  1.00  0.00    -0.014 A 
BRANCH  35  36
ATOM     36  C   UNL     1       4.584   8.109  -5.158  1.00  0.00     0.031 A 
ATOM     37  C   UNL     1       5.600   7.683  -6.142  1.00  0.00     0.074 A 
ATOM     38  C   UNL     1       3.270   8.016  -5.459  1.00  0.00     0.049 A 
ATOM     39  N   UNL     1       5.389   7.625  -7.412  1.00  0.00    -0.248 NA
ATOM     40  C   UNL     1       6.960   7.309  -5.767  1.00  0.00     0.031 C 
ATOM     41  C   UNL     1       2.670   7.341  -6.606  1.00  0.00     0.029 A 
ATOM     42  N   UNL     1       2.207   8.699  -4.864  1.00  0.00    -0.354 N 
ATOM     43  C   UNL     1       6.456   6.978  -7.986  1.00  0.00     0.074 A 
ATOM     44  C   UNL     1       7.430   6.838  -6.927  1.00  0.00     0.031 C 
ATOM     45  C   UNL     1       1.434   7.827  -6.797  1.00  0.00     0.029 A 
ATOM     46  C   UNL     1       1.254   8.936  -5.878  1.00  0.00     0.049 A 
ATOM     47  H   UNL     1       2.136   8.965  -3.919  1.00  0.00     0.167 HD
ATOM     48  C   UNL     1       6.357   6.530  -9.269  1.00  0.00     0.037 A 
ATOM     49  C   UNL     1       0.959  10.218  -6.251  1.00  0.00     0.037 A 
ATOM     50  C   UNL     1       5.085   6.910  -9.878  1.00  0.00     0.049 A 
ATOM     51  C   UNL     1       1.391  10.578  -7.664  1.00  0.00     0.074 A 
ATOM     52  C   UNL     1       3.870   6.276 -10.079  1.00  0.00     0.029 A 
ATOM     53  N   UNL     1       4.849   8.251 -10.105  1.00  0.00    -0.354 N 
ATOM     54  N   UNL     1       1.963   9.754  -8.501  1.00  0.00    -0.248 NA
ATOM     55  C   UNL     1       1.274  11.928  -8.219  1.00  0.00     0.031 C 
ATOM     56  C   UNL     1       2.899   7.267 -10.408  1.00  0.00     0.029 A 
ATOM     57  C   UNL     1       3.528   8.498 -10.418  1.00  0.00     0.049 A 
ATOM     58  H   UNL     1       5.542   8.949 -10.050  1.00  0.00     0.167 HD
ATOM     59  C   UNL     1       2.365  10.440  -9.619  1.00  0.00     0.074 A 
ATOM     60  C   UNL     1       1.885  11.793  -9.409  1.00  0.00     0.031 C 
ATOM     61  C   UNL     1       3.110   9.876 -10.615  1.00  0.00     0.037 A 
BRANCH  48  62
ATOM     62  C   UNL     1       7.341   5.565  -9.876  1.00  0.00     0.058 A 
ATOM     63  C   UNL     1       6.901   4.543 -10.742  1.00  0.00     0.135 A 
ATOM     64  C   UNL     1       8.724   5.571  -9.608  1.00  0.00     0.135 A 
ATOM     65  F   UNL     1       5.622   4.457 -11.130  1.00  0.00    -0.206 F 
ATOM     66  C   UNL     1       7.748   3.547 -11.224  1.00  0.00     0.059 A 
ATOM     67  C   UNL     1       9.583   4.552 -10.033  1.00  0.00     0.059 A 
ATOM     68  F   UNL     1       9.294   6.584  -8.938  1.00  0.00    -0.206 F 
ATOM     69  C   UNL     1       9.081   3.536 -10.836  1.00  0.00     0.060 A 
BRANCH  69  70
ATOM     70  S   UNL     1      10.124   2.170 -11.380  1.00  0.00     0.124 S 
ATOM     71  O   UNL     1       9.334   1.005 -10.992  1.00  0.00    -0.237 OA
ATOM     72  O   UNL     1      10.227   2.420 -12.813  1.00  0.00    -0.237 OA
ATOM     73  O   UNL     1      11.356   2.360 -10.618  1.00  0.00    -0.744 OA
ENDBRANCH  69  70
ENDBRANCH  48  62
BRANCH  49  74
ATOM     74  C   UNL     1       0.921  11.143  -5.080  1.00  0.00     0.058 A 
ATOM     75  C   UNL     1      -0.071  10.923  -4.102  1.00  0.00     0.135 A 
ATOM     76  C   UNL     1       2.042  11.895  -4.704  1.00  0.00     0.135 A 
ATOM     77  F   UNL     1      -1.175  10.221  -4.412  1.00  0.00    -0.206 F 
ATOM     78  C   UNL     1       0.116  11.283  -2.772  1.00  0.00     0.059 A 
ATOM     79  C   UNL     1       2.243  12.279  -3.377  1.00  0.00     0.059 A 
ATOM     80  F   UNL     1       3.019  12.141  -5.588  1.00  0.00    -0.206 F 
ATOM     81  C   UNL     1       1.308  11.906  -2.409  1.00  0.00     0.060 A 
BRANCH  81  82
ATOM     82  S   UNL     1       1.682  12.066  -0.646  1.00  0.00     0.124 S 
ATOM     83  O   UNL     1       0.615  12.949  -0.190  1.00  0.00    -0.237 OA
ATOM     84  O   UNL     1       1.596  10.681  -0.185  1.00  0.00    -0.237 OA
ATOM     85  O   UNL     1       3.022  12.640  -0.641  1.00  0.00    -0.744 OA
ENDBRANCH  81  82
ENDBRANCH  49  74
BRANCH  61  86
ATOM     86  C   UNL     1       3.532  10.608 -11.862  1.00  0.00     0.058 A 
ATOM     87  C   UNL     1       2.629  11.363 -12.628  1.00  0.00     0.135 A 
ATOM     88  C   UNL     1       4.830  10.462 -12.403  1.00  0.00     0.135 A 
ATOM     89  F   UNL     1       1.356  11.517 -12.230  1.00  0.00    -0.206 F 
ATOM     90  C   UNL     1       3.000  11.969 -13.830  1.00  0.00     0.059 A 
ATOM     91  C   UNL     1       5.205  11.010 -13.625  1.00  0.00     0.059 A 
ATOM     92  F   UNL     1       5.794   9.804 -11.743  1.00  0.00    -0.206 F 
ATOM     93  C   UNL     1       4.291  11.786 -14.321  1.00  0.00     0.060 A 
BRANCH  93  94
ATOM     94  S   UNL     1       4.771  12.550 -15.881  1.00  0.00     0.124 S 
ATOM     95  O   UNL     1       3.558  12.427 -16.684  1.00  0.00    -0.237 OA
ATOM     96  O   UNL     1       5.107  13.903 -15.448  1.00  0.00    -0.237 OA
ATOM     97  O   UNL     1       5.895  11.733 -16.328  1.00  0.00    -0.744 OA
ENDBRANCH  93  94
ENDBRANCH  61  86
ENDBRANCH  35  36
ENDBRANCH  27  30
ENDBRANCH  25  26
ENDBRANCH  24  25
ENDBRANCH   1  24
TORSDOF 17
