REMARK SMILES C[C@](NC(=O)N1CCC[NH2+]CC1)(C(=O)NCCCCCCNC(=O)c1ccc(-c2c3nc(c(-c4c(F)cc(S(=O)(=O)[O-])cc4F)c4ccc([nH]4)c(-c4c(F)cc(S(=O)(=O)[O-])cc4F)c4nc(c(-c5c(F)cc(S(=O)(=O)[O-])cc5F)c5ccc2[nH]5)C=C4)C=C3)cc1)C(F)(F)F
REMARK SMILES IDX 17 1 16 2 15 3 13 4 14 5 2 7 1 8 91 9 92 10 93 11 94 12 3 13
REMARK SMILES IDX 4 14 5 16 6 17 7 18 8 19 12 21 11 22 10 23 9 26 18 28 19 29
REMARK SMILES IDX 20 30 21 31 22 32 23 33 24 35 25 36 26 37 90 38 27 39 89 40
REMARK SMILES IDX 28 41 29 42 30 43 83 44 31 45 88 46 82 47 84 48 32 49 87 50
REMARK SMILES IDX 81 51 80 52 33 54 67 55 46 56 66 57 47 58 50 59 65 60 85 61
REMARK SMILES IDX 48 62 49 63 64 65 86 66 51 67 34 68 35 69 44 70 36 71 37 72
REMARK SMILES IDX 43 73 45 74 38 75 39 76 40 77 41 78 42 79 68 80 69 81 78 82
REMARK SMILES IDX 70 83 71 84 77 85 79 86 72 87 73 88 74 89 75 90 76 91 52 92
REMARK SMILES IDX 53 93 62 94 54 95 55 96 61 97 63 98 56 99 57 100 58 101
REMARK SMILES IDX 59 102 60 103
REMARK H PARENT 15 6 3 15 10 24 10 25 22 34 84 53 50 64
REMARK Flexibility Score: 80.00
ROOT
ATOM      1  C   UNL     1      -1.686  -1.759  -1.710  1.00  0.00     0.021 C 
ENDROOT
BRANCH   1   2
ATOM      2  C   UNL     1      -1.018  -0.404  -1.921  1.00  0.00     0.116 C 
BRANCH   2   3
ATOM      3  N   UNL     1      -1.550   0.630  -1.050  1.00  0.00    -0.354 N 
ATOM      4  C   UNL     1      -0.946   1.666  -0.389  1.00  0.00     0.255 C 
ATOM      5  O   UNL     1      -1.715   2.470   0.145  1.00  0.00    -0.272 OA
ATOM      6  H   UNL     1      -2.523   0.575  -0.908  1.00  0.00     0.163 HD
BRANCH   4   7
ATOM      7  C   UNL     1       0.587   1.835  -0.343  1.00  0.00     0.213 C 
ATOM      8  C   UNL     1       1.170   1.998  -1.772  1.00  0.00     0.056 C 
BRANCH   7   9
ATOM      9  C   UNL     1       0.899   3.179   0.376  1.00  0.00     0.420 C 
ATOM     10  F   UNL     1       0.322   3.351   1.580  1.00  0.00    -0.168 F 
ATOM     11  F   UNL     1       2.241   3.315   0.559  1.00  0.00    -0.168 F 
ATOM     12  F   UNL     1       0.520   4.248  -0.374  1.00  0.00    -0.168 F 
ENDBRANCH   7   9
BRANCH   7  13
ATOM     13  N   UNL     1       1.212   0.597   0.243  1.00  0.00    -0.316 N 
ATOM     14  C   UNL     1       1.591   0.275   1.503  1.00  0.00     0.318 C 
ATOM     15  H   UNL     1       1.376  -0.116  -0.416  1.00  0.00     0.166 HD
ATOM     16  O   UNL     1       2.349  -0.677   1.663  1.00  0.00    -0.249 OA
BRANCH  14  17
ATOM     17  N   UNL     1       1.225   1.101   2.518  1.00  0.00    -0.319 N 
BRANCH  17  18
ATOM     18  C   UNL     1      -0.136   1.093   3.044  1.00  0.00     0.127 C 
BRANCH  18  19
ATOM     19  C   UNL     1      -0.378   0.098   4.177  1.00  0.00     0.083 CG0
ATOM     20  G   UNL     1       0.414   0.283   5.476  1.00  0.00     0.000 G0
ENDBRANCH  18  19
ENDBRANCH  17  18
BRANCH  17  21
ATOM     21  C   UNL     1       2.280   1.761   3.281  1.00  0.00     0.182 C 
BRANCH  21  22
ATOM     22  C   UNL     1       2.480   1.284   4.722  1.00  0.00     0.282 C 
BRANCH  22  23
ATOM     23  N   UNL     1       1.298   1.437   5.579  1.00  0.00    -0.345 N 
ATOM     24  H   UNL     1       1.601   1.538   6.547  1.00  0.00     0.346 HD
ATOM     25  H   UNL     1       0.784   2.263   5.272  1.00  0.00     0.346 HD
BRANCH  23  26
ATOM     26  C   UNL     1       0.414   0.283   5.476  1.00  0.00     0.262 CG0
ATOM     27  G   UNL     1      -0.378   0.098   4.177  1.00  0.00     0.000 G0
ENDBRANCH  23  26
ENDBRANCH  22  23
ENDBRANCH  21  22
ENDBRANCH  17  21
ENDBRANCH  14  17
ENDBRANCH   7  13
ENDBRANCH   4   7
ENDBRANCH   2   3
ENDBRANCH   1   2
BRANCH   1  28
ATOM     28  C   UNL     1      -3.178  -1.815  -2.051  1.00  0.00     0.002 C 
BRANCH  28  29
ATOM     29  C   UNL     1      -3.553  -1.395  -3.476  1.00  0.00     0.002 C 
BRANCH  29  30
ATOM     30  C   UNL     1      -2.828  -2.141  -4.598  1.00  0.00     0.021 C 
BRANCH  30  31
ATOM     31  C   UNL     1      -2.960  -3.661  -4.561  1.00  0.00     0.116 C 
BRANCH  31  32
ATOM     32  N   UNL     1      -4.338  -4.105  -4.699  1.00  0.00    -0.352 N 
ATOM     33  C   UNL     1      -4.886  -4.991  -5.596  1.00  0.00     0.251 C 
ATOM     34  H   UNL     1      -4.972  -3.713  -4.055  1.00  0.00     0.163 HD
ATOM     35  O   UNL     1      -6.102  -5.114  -5.669  1.00  0.00    -0.269 OA
BRANCH  33  36
ATOM     36  C   UNL     1      -4.003  -5.772  -6.492  1.00  0.00     0.039 A 
ATOM     37  C   UNL     1      -4.322  -5.852  -7.850  1.00  0.00     0.014 A 
ATOM     38  C   UNL     1      -2.861  -6.410  -6.000  1.00  0.00     0.014 A 
ATOM     39  C   UNL     1      -3.453  -6.505  -8.727  1.00  0.00     0.010 A 
ATOM     40  C   UNL     1      -1.960  -6.996  -6.886  1.00  0.00     0.010 A 
ATOM     41  C   UNL     1      -2.241  -7.041  -8.260  1.00  0.00    -0.014 A 
BRANCH  41  42
ATOM     42  C   UNL     1      -1.240  -7.615  -9.198  1.00  0.00     0.031 A 
ATOM     43  C   UNL     1      -0.851  -9.064  -9.108  1.00  0.00     0.074 A 
ATOM     44  C   UNL     1      -0.623  -6.805 -10.082  1.00  0.00     0.049 A 
ATOM     45  N   UNL     1       0.057  -9.719  -9.786  1.00  0.00    -0.248 NA
ATOM     46  C   UNL     1      -1.556  -9.878  -8.106  1.00  0.00     0.031 C 
ATOM     47  C   UNL     1      -0.874  -5.370 -10.228  1.00  0.00     0.029 A 
ATOM     48  N   UNL     1       0.355  -7.066 -11.009  1.00  0.00    -0.354 N 
ATOM     49  C   UNL     1       0.036 -11.018  -9.292  1.00  0.00     0.074 A 
ATOM     50  C   UNL     1      -0.932 -11.041  -8.216  1.00  0.00     0.031 C 
ATOM     51  C   UNL     1      -0.079  -4.880 -11.191  1.00  0.00     0.029 A 
ATOM     52  C   UNL     1       0.769  -5.953 -11.701  1.00  0.00     0.049 A 
ATOM     53  H   UNL     1       0.724  -7.965 -11.164  1.00  0.00     0.167 HD
ATOM     54  C   UNL     1       0.742 -12.096  -9.712  1.00  0.00     0.037 A 
ATOM     55  C   UNL     1       1.738  -5.803 -12.627  1.00  0.00     0.037 A 
ATOM     56  C   UNL     1       1.704 -12.062 -10.783  1.00  0.00     0.049 A 
ATOM     57  C   UNL     1       2.526  -7.006 -13.065  1.00  0.00     0.074 A 
ATOM     58  C   UNL     1       2.434 -13.109 -11.318  1.00  0.00     0.029 A 
ATOM     59  N   UNL     1       2.084 -10.918 -11.474  1.00  0.00    -0.354 N 
ATOM     60  N   UNL     1       2.440  -8.245 -12.640  1.00  0.00    -0.248 NA
ATOM     61  C   UNL     1       3.538  -6.796 -14.109  1.00  0.00     0.031 C 
ATOM     62  C   UNL     1       3.295 -12.590 -12.292  1.00  0.00     0.029 A 
ATOM     63  C   UNL     1       3.060 -11.229 -12.408  1.00  0.00     0.049 A 
ATOM     64  H   UNL     1       1.714 -10.019 -11.323  1.00  0.00     0.167 HD
ATOM     65  C   UNL     1       3.375  -8.965 -13.375  1.00  0.00     0.074 A 
ATOM     66  C   UNL     1       4.001  -8.027 -14.284  1.00  0.00     0.031 C 
ATOM     67  C   UNL     1       3.684 -10.284 -13.303  1.00  0.00     0.037 A 
BRANCH  54  68
ATOM     68  C   UNL     1       0.500 -13.402  -9.000  1.00  0.00     0.058 A 
ATOM     69  C   UNL     1      -0.724 -14.083  -9.102  1.00  0.00     0.135 A 
ATOM     70  C   UNL     1       1.505 -13.985  -8.211  1.00  0.00     0.135 A 
ATOM     71  F   UNL     1      -1.726 -13.569  -9.835  1.00  0.00    -0.206 F 
ATOM     72  C   UNL     1      -0.960 -15.267  -8.411  1.00  0.00     0.059 A 
ATOM     73  C   UNL     1       1.303 -15.186  -7.537  1.00  0.00     0.059 A 
ATOM     74  F   UNL     1       2.697 -13.382  -8.080  1.00  0.00    -0.206 F 
ATOM     75  C   UNL     1       0.058 -15.808  -7.625  1.00  0.00     0.060 A 
BRANCH  75  76
ATOM     76  S   UNL     1      -0.275 -17.328  -6.710  1.00  0.00     0.124 S 
ATOM     77  O   UNL     1      -1.172 -16.846  -5.664  1.00  0.00    -0.237 OA
ATOM     78  O   UNL     1      -0.887 -18.176  -7.728  1.00  0.00    -0.237 OA
ATOM     79  O   UNL     1       1.046 -17.750  -6.257  1.00  0.00    -0.744 OA
ENDBRANCH  75  76
ENDBRANCH  54  68
BRANCH  55  80
ATOM     80  C   UNL     1       2.006  -4.454 -13.192  1.00  0.00     0.058 A 
ATOM     81  C   UNL     1       1.665  -4.137 -14.515  1.00  0.00     0.135 A 
ATOM     82  C   UNL     1       2.567  -3.438 -12.401  1.00  0.00     0.135 A 
ATOM     83  F   UNL     1       1.135  -5.076 -15.313  1.00  0.00    -0.206 F 
ATOM     84  C   UNL     1       1.869  -2.863 -15.035  1.00  0.00     0.059 A 
ATOM     85  C   UNL     1       2.756  -2.149 -12.890  1.00  0.00     0.059 A 
ATOM     86  F   UNL     1       2.896  -3.684 -11.124  1.00  0.00    -0.206 F 
ATOM     87  C   UNL     1       2.406  -1.872 -14.211  1.00  0.00     0.060 A 
BRANCH  87  88
ATOM     88  S   UNL     1       2.590  -0.201 -14.870  1.00  0.00     0.124 S 
ATOM     89  O   UNL     1       3.701  -0.371 -15.799  1.00  0.00    -0.237 OA
ATOM     90  O   UNL     1       1.282   0.034 -15.473  1.00  0.00    -0.237 OA
ATOM     91  O   UNL     1       2.876   0.598 -13.682  1.00  0.00    -0.744 OA
ENDBRANCH  87  88
ENDBRANCH  55  80
BRANCH  67  92
ATOM     92  C   UNL     1       4.742 -10.802 -14.241  1.00  0.00     0.058 A 
ATOM     93  C   UNL     1       6.099 -10.489 -14.068  1.00  0.00     0.135 A 
ATOM     94  C   UNL     1       4.400 -11.672 -15.289  1.00  0.00     0.135 A 
ATOM     95  F   UNL     1       6.481  -9.654 -13.088  1.00  0.00    -0.206 F 
ATOM     96  C   UNL     1       7.078 -11.007 -14.910  1.00  0.00     0.059 A 
ATOM     97  C   UNL     1       5.365 -12.226 -16.124  1.00  0.00     0.059 A 
ATOM     98  F   UNL     1       3.117 -12.011 -15.495  1.00  0.00    -0.206 F 
ATOM     99  C   UNL     1       6.702 -11.880 -15.932  1.00  0.00     0.060 A 
BRANCH  99 100
ATOM    100  S   UNL     1       7.988 -12.580 -16.987  1.00  0.00     0.124 S 
ATOM    101  O   UNL     1       8.381 -11.421 -17.782  1.00  0.00    -0.237 OA
ATOM    102  O   UNL     1       8.971 -13.043 -16.013  1.00  0.00    -0.237 OA
ATOM    103  O   UNL     1       7.293 -13.636 -17.718  1.00  0.00    -0.744 OA
ENDBRANCH  99 100
ENDBRANCH  67  92
ENDBRANCH  41  42
ENDBRANCH  33  36
ENDBRANCH  31  32
ENDBRANCH  30  31
ENDBRANCH  29  30
ENDBRANCH  28  29
ENDBRANCH   1  28
TORSDOF 19
