REMARK SMILES C[C@H]([C@@H](C)O)[NH+]1CCC(C)(C(=O)NCCCCCCNC(=O)c2ccc(-c3c4nc(c(-c5c(F)cc(S(=O)(=O)[O-])cc5F)c5ccc([nH]5)c(-c5c(F)cc(S(=O)(=O)[O-])cc5F)c5nc(c(-c6c(F)cc(S(=O)(=O)[O-])cc6F)c6ccc3[nH]6)C=C5)C=C4)cc2)CC1
REMARK SMILES IDX 16 1 15 2 14 3 13 4 11 5 12 6 9 8 6 9 7 10 90 11 8 13 89 14
REMARK SMILES IDX 10 15 2 16 1 17 3 18 4 19 5 20 17 22 18 23 19 24 20 25 21 26
REMARK SMILES IDX 22 28 23 29 24 30 88 31 25 32 87 33 26 34 27 35 28 36 81 37
REMARK SMILES IDX 29 38 86 39 80 40 82 41 30 42 85 43 79 44 78 45 31 47 65 48
REMARK SMILES IDX 44 49 64 50 45 51 48 52 63 53 83 54 46 55 47 56 62 58 84 59
REMARK SMILES IDX 49 60 32 61 33 62 42 63 34 64 35 65 41 66 43 67 36 68 37 69
REMARK SMILES IDX 38 70 39 71 40 72 66 73 67 74 76 75 68 76 69 77 75 78 77 79
REMARK SMILES IDX 70 80 71 81 72 82 73 83 74 84 50 85 51 86 60 87 52 88 53 89
REMARK SMILES IDX 59 90 61 91 54 92 55 93 56 94 57 95 58 96
REMARK H PARENT 13 7 6 12 5 21 20 27 82 46 48 57
REMARK Flexibility Score: inf
ROOT
ATOM      1  C   UNL     1      -5.251   4.731   1.982  1.00  0.00     0.002 C 
ENDROOT
BRANCH   1   2
ATOM      2  C   UNL     1      -3.757   4.405   1.958  1.00  0.00     0.021 C 
BRANCH   2   3
ATOM      3  C   UNL     1      -3.196   3.990   3.318  1.00  0.00     0.116 C 
BRANCH   3   4
ATOM      4  N   UNL     1      -3.697   2.684   3.721  1.00  0.00    -0.356 N 
ATOM      5  C   UNL     1      -3.087   1.472   3.857  1.00  0.00     0.226 C 
ATOM      6  O   UNL     1      -3.813   0.515   4.136  1.00  0.00    -0.274 OA
ATOM      7  H   UNL     1      -4.658   2.674   3.936  1.00  0.00     0.163 HD
BRANCH   5   8
ATOM      8  C   UNL     1      -1.563   1.314   3.676  1.00  0.00     0.057 C 
ATOM      9  N   UNL     1      -0.728  -0.573   1.508  1.00  0.00    -0.331 N 
ATOM     10  C   UNL     1      -1.472   0.640   1.227  1.00  0.00     0.263 C 
ATOM     11  C   UNL     1      -1.186  -1.131   2.780  1.00  0.00     0.263 C 
ATOM     12  H   UNL     1      -0.963  -1.227   0.761  1.00  0.00     0.348 HD
ATOM     13  C   UNL     1      -1.173   1.737   2.238  1.00  0.00     0.078 C 
ATOM     14  C   UNL     1      -1.126  -0.162   3.966  1.00  0.00     0.078 C 
ATOM     15  C   UNL     1      -0.858   2.158   4.763  1.00  0.00     0.022 C 
BRANCH   9  16
ATOM     16  C   UNL     1       0.733  -0.594   1.252  1.00  0.00     0.209 C 
ATOM     17  C   UNL     1       1.663  -0.048   2.356  1.00  0.00     0.078 C 
BRANCH  16  18
ATOM     18  C   UNL     1       1.185  -0.117  -0.177  1.00  0.00     0.169 C 
ATOM     19  C   UNL     1       1.247   1.388  -0.443  1.00  0.00     0.045 C 
BRANCH  18  20
ATOM     20  O   UNL     1       2.494  -0.652  -0.455  1.00  0.00    -0.387 OA
ATOM     21  H   UNL     1       3.136  -0.273   0.165  1.00  0.00     0.211 HD
ENDBRANCH  18  20
ENDBRANCH  16  18
ENDBRANCH   9  16
ENDBRANCH   5   8
ENDBRANCH   3   4
ENDBRANCH   2   3
ENDBRANCH   1   2
BRANCH   1  22
ATOM     22  C   UNL     1      -5.652   5.783   3.020  1.00  0.00     0.002 C 
BRANCH  22  23
ATOM     23  C   UNL     1      -4.857   7.090   2.947  1.00  0.00     0.021 C 
BRANCH  23  24
ATOM     24  C   UNL     1      -4.922   7.786   1.593  1.00  0.00     0.116 C 
BRANCH  24  25
ATOM     25  N   UNL     1      -6.285   8.148   1.243  1.00  0.00    -0.352 N 
ATOM     26  C   UNL     1      -6.798   9.383   0.936  1.00  0.00     0.251 C 
ATOM     27  H   UNL     1      -6.930   7.404   1.225  1.00  0.00     0.163 HD
ATOM     28  O   UNL     1      -8.011   9.554   0.900  1.00  0.00    -0.269 OA
BRANCH  26  29
ATOM     29  C   UNL     1      -5.874  10.502   0.661  1.00  0.00     0.039 A 
ATOM     30  C   UNL     1      -6.127  11.748   1.238  1.00  0.00     0.014 A 
ATOM     31  C   UNL     1      -4.760  10.317  -0.164  1.00  0.00     0.014 A 
ATOM     32  C   UNL     1      -5.234  12.798   1.025  1.00  0.00     0.010 A 
ATOM     33  C   UNL     1      -3.832  11.342  -0.311  1.00  0.00     0.010 A 
ATOM     34  C   UNL     1      -4.064  12.596   0.273  1.00  0.00    -0.014 A 
BRANCH  34  35
ATOM     35  C   UNL     1      -3.077  13.688   0.075  1.00  0.00     0.031 A 
ATOM     36  C   UNL     1      -2.803  14.212  -1.309  1.00  0.00     0.074 A 
ATOM     37  C   UNL     1      -2.389  14.163   1.131  1.00  0.00     0.049 A 
ATOM     38  N   UNL     1      -1.933  15.109  -1.694  1.00  0.00    -0.248 NA
ATOM     39  C   UNL     1      -3.591  13.630  -2.408  1.00  0.00     0.031 C 
ATOM     40  C   UNL     1      -2.536  13.703   2.514  1.00  0.00     0.029 A 
ATOM     41  N   UNL     1      -1.420  15.132   1.207  1.00  0.00    -0.354 N 
ATOM     42  C   UNL     1      -2.060  15.192  -3.075  1.00  0.00     0.074 A 
ATOM     43  C   UNL     1      -3.048  14.212  -3.468  1.00  0.00     0.031 C 
ATOM     44  C   UNL     1      -1.706  14.404   3.302  1.00  0.00     0.029 A 
ATOM     45  C   UNL     1      -0.938  15.333   2.479  1.00  0.00     0.049 A 
ATOM     46  H   UNL     1      -1.101  15.637   0.424  1.00  0.00     0.167 HD
ATOM     47  C   UNL     1      -1.428  16.025  -3.935  1.00  0.00     0.037 A 
ATOM     48  C   UNL     1       0.023  16.163   2.930  1.00  0.00     0.037 A 
ATOM     49  C   UNL     1      -0.461  17.013  -3.531  1.00  0.00     0.049 A 
ATOM     50  C   UNL     1       0.719  17.073   1.953  1.00  0.00     0.074 A 
ATOM     51  C   UNL     1       0.197  17.943  -4.317  1.00  0.00     0.029 A 
ATOM     52  N   UNL     1      -0.010  17.197  -2.232  1.00  0.00    -0.354 N 
ATOM     53  N   UNL     1       0.542  17.182   0.658  1.00  0.00    -0.248 NA
ATOM     54  C   UNL     1       1.740  17.978   2.499  1.00  0.00     0.031 C 
ATOM     55  C   UNL     1       1.084  18.654  -3.502  1.00  0.00     0.029 A 
ATOM     56  C   UNL     1       0.935  18.209  -2.198  1.00  0.00     0.049 A 
ATOM     57  H   UNL     1      -0.317  16.684  -1.450  1.00  0.00     0.167 HD
ATOM     58  C   UNL     1       1.406  18.188   0.239  1.00  0.00     0.074 A 
ATOM     59  C   UNL     1       2.097  18.662   1.420  1.00  0.00     0.031 C 
ATOM     60  C   UNL     1       1.607  18.677  -1.010  1.00  0.00     0.037 A 
BRANCH  47  61
ATOM     61  C   UNL     1      -1.762  15.907  -5.398  1.00  0.00     0.058 A 
ATOM     62  C   UNL     1      -3.018  16.284  -5.903  1.00  0.00     0.135 A 
ATOM     63  C   UNL     1      -0.803  15.445  -6.315  1.00  0.00     0.135 A 
ATOM     64  F   UNL     1      -3.978  16.718  -5.071  1.00  0.00    -0.206 F 
ATOM     65  C   UNL     1      -3.320  16.179  -7.256  1.00  0.00     0.059 A 
ATOM     66  C   UNL     1      -1.073  15.362  -7.678  1.00  0.00     0.059 A 
ATOM     67  F   UNL     1       0.414  15.070  -5.889  1.00  0.00    -0.206 F 
ATOM     68  C   UNL     1      -2.341  15.718  -8.136  1.00  0.00     0.060 A 
BRANCH  68  69
ATOM     69  S   UNL     1      -2.749  15.594  -9.890  1.00  0.00     0.124 S 
ATOM     70  O   UNL     1      -3.660  14.454  -9.897  1.00  0.00    -0.237 OA
ATOM     71  O   UNL     1      -3.358  16.893 -10.160  1.00  0.00    -0.237 OA
ATOM     72  O   UNL     1      -1.455  15.367 -10.526  1.00  0.00    -0.744 OA
ENDBRANCH  68  69
ENDBRANCH  47  61
BRANCH  48  73
ATOM     73  C   UNL     1       0.369  16.185   4.377  1.00  0.00     0.058 A 
ATOM     74  C   UNL     1       0.057  17.293   5.178  1.00  0.00     0.135 A 
ATOM     75  C   UNL     1       1.007  15.095   4.990  1.00  0.00     0.135 A 
ATOM     76  F   UNL     1      -0.548  18.362   4.638  1.00  0.00    -0.206 F 
ATOM     77  C   UNL     1       0.382  17.330   6.530  1.00  0.00     0.059 A 
ATOM     78  C   UNL     1       1.317  15.097   6.346  1.00  0.00     0.059 A 
ATOM     79  F   UNL     1       1.312  14.003   4.272  1.00  0.00    -0.206 F 
ATOM     80  C   UNL     1       1.010  16.224   7.106  1.00  0.00     0.060 A 
BRANCH  80  81
ATOM     81  S   UNL     1       1.387  16.265   8.872  1.00  0.00     0.124 S 
ATOM     82  O   UNL     1       2.488  17.219   8.915  1.00  0.00    -0.237 OA
ATOM     83  O   UNL     1       0.123  16.719   9.443  1.00  0.00    -0.237 OA
ATOM     84  O   UNL     1       1.739  14.880   9.171  1.00  0.00    -0.744 OA
ENDBRANCH  80  81
ENDBRANCH  48  73
BRANCH  60  85
ATOM     85  C   UNL     1       2.583  19.811  -1.164  1.00  0.00     0.058 A 
ATOM     86  C   UNL     1       3.968  19.622  -1.033  1.00  0.00     0.135 A 
ATOM     87  C   UNL     1       2.127  21.096  -1.504  1.00  0.00     0.135 A 
ATOM     88  F   UNL     1       4.457  18.416  -0.703  1.00  0.00    -0.206 F 
ATOM     89  C   UNL     1       4.864  20.671  -1.212  1.00  0.00     0.059 A 
ATOM     90  C   UNL     1       3.007  22.152  -1.718  1.00  0.00     0.059 A 
ATOM     91  F   UNL     1       0.813  21.330  -1.652  1.00  0.00    -0.206 F 
ATOM     92  C   UNL     1       4.374  21.931  -1.558  1.00  0.00     0.060 A 
BRANCH  92  93
ATOM     93  S   UNL     1       5.552  23.274  -1.824  1.00  0.00     0.124 S 
ATOM     94  O   UNL     1       5.984  23.559  -0.460  1.00  0.00    -0.237 OA
ATOM     95  O   UNL     1       6.548  22.647  -2.687  1.00  0.00    -0.237 OA
ATOM     96  O   UNL     1       4.746  24.313  -2.458  1.00  0.00    -0.744 OA
ENDBRANCH  92  93
ENDBRANCH  60  85
ENDBRANCH  34  35
ENDBRANCH  26  29
ENDBRANCH  24  25
ENDBRANCH  23  24
ENDBRANCH  22  23
ENDBRANCH   1  22
TORSDOF 19
