REMARK SMILES NS(=O)(=O)c1ccc(-c2coc(=O)n2-c2ccc(C(=O)NCCCCCCNC(=O)c3ccc(-c4c5nc(c(-c6c(F)cc(S(=O)(=O)[O-])cc6F)c6ccc([nH]6)c(-c6c(F)cc(S(=O)(=O)[O-])cc6F)c6nc(c(-c7c(F)cc(S(=O)(=O)[O-])cc7F)c7ccc4[nH]7)C=C6)C=C5)cc3)cc2)cc1
REMARK SMILES IDX 24 1 23 2 22 3 21 4 19 5 20 6 18 8 15 9 16 10 98 11 17 12
REMARK SMILES IDX 97 13 14 14 9 15 10 16 11 17 12 18 13 19 8 20 5 21 6 22
REMARK SMILES IDX 100 23 7 24 99 25 2 26 3 27 4 28 1 29 25 32 26 33 27 34
REMARK SMILES IDX 28 35 29 36 30 38 31 39 32 40 96 41 33 42 95 43 34 44 35 45
REMARK SMILES IDX 36 46 89 47 37 48 94 49 88 50 90 51 38 52 93 53 87 54 86 55
REMARK SMILES IDX 39 57 73 58 52 59 72 60 53 61 56 62 71 63 91 64 54 65 55 66
REMARK SMILES IDX 70 68 92 69 57 70 40 71 41 72 50 73 42 74 43 75 49 76 51 77
REMARK SMILES IDX 44 78 45 79 46 80 47 81 48 82 74 83 75 84 84 85 76 86 77 87
REMARK SMILES IDX 83 88 85 89 78 90 79 91 80 92 81 93 82 94 58 95 59 96 68 97
REMARK SMILES IDX 60 98 61 99 67 100 69 101 62 102 63 103 64 104 65 105 66 106
REMARK H PARENT 21 7 1 30 1 31 28 37 90 56 56 67
REMARK Flexibility Score: inf
ROOT
ATOM      1  C   UNL     1       9.319  -3.412   0.380  1.00  0.00     0.002 C 
ENDROOT
BRANCH   1   2
ATOM      2  C   UNL     1       8.260  -3.477   1.489  1.00  0.00     0.021 C 
BRANCH   2   3
ATOM      3  C   UNL     1       6.832  -3.536   0.944  1.00  0.00     0.116 C 
BRANCH   3   4
ATOM      4  N   UNL     1       6.519  -4.884   0.509  1.00  0.00    -0.352 N 
ATOM      5  C   UNL     1       5.780  -5.901   1.057  1.00  0.00     0.251 C 
ATOM      6  O   UNL     1       5.710  -6.951   0.415  1.00  0.00    -0.269 OA
ATOM      7  H   UNL     1       6.921  -5.117  -0.359  1.00  0.00     0.163 HD
BRANCH   5   8
ATOM      8  C   UNL     1       4.992  -5.763   2.316  1.00  0.00     0.039 A 
ATOM      9  C   UNL     1       3.211  -5.441   4.463  1.00  0.00     0.053 A 
ATOM     10  C   UNL     1       3.041  -6.508   3.582  1.00  0.00     0.028 A 
ATOM     11  C   UNL     1       4.323  -4.607   4.335  1.00  0.00     0.028 A 
ATOM     12  C   UNL     1       3.908  -6.642   2.493  1.00  0.00     0.016 A 
ATOM     13  C   UNL     1       5.244  -4.818   3.309  1.00  0.00     0.016 A 
BRANCH   9  14
ATOM     14  N   UNL     1       2.275  -5.178   5.474  1.00  0.00    -0.242 N 
ATOM     15  C   UNL     1       1.584  -4.022   5.699  1.00  0.00     0.095 A 
ATOM     16  C   UNL     1       1.004  -4.174   6.884  1.00  0.00     0.228 A 
ATOM     17  O   UNL     1       1.250  -5.405   7.493  1.00  0.00    -0.415 OA
ATOM     18  C   UNL     1       2.054  -6.038   6.545  1.00  0.00     0.424 A 
ATOM     19  O   UNL     1       2.481  -7.175   6.694  1.00  0.00    -0.223 OA
BRANCH  15  20
ATOM     20  C   UNL     1       1.379  -2.941   4.732  1.00  0.00     0.002 A 
ATOM     21  C   UNL     1       0.865  -0.899   2.873  1.00  0.00     0.082 A 
ATOM     22  C   UNL     1       0.700  -2.231   2.495  1.00  0.00     0.022 A 
ATOM     23  C   UNL     1       1.291  -0.576   4.165  1.00  0.00     0.022 A 
ATOM     24  C   UNL     1       0.956  -3.243   3.424  1.00  0.00     0.012 A 
ATOM     25  C   UNL     1       1.541  -1.597   5.092  1.00  0.00     0.012 A 
BRANCH  21  26
ATOM     26  S   UNL     1       0.536   0.393   1.712  1.00  0.00     0.238 S 
ATOM     27  O   UNL     1       1.256   1.577   2.094  1.00  0.00    -0.207 OA
ATOM     28  O   UNL     1      -0.886   0.399   1.425  1.00  0.00    -0.207 OA
BRANCH  26  29
ATOM     29  N   UNL     1       1.287  -0.144   0.306  1.00  0.00    -0.225 NA
ATOM     30  H   UNL     1       1.152   0.543  -0.435  1.00  0.00     0.137 HD
ATOM     31  H   UNL     1       0.878  -1.035   0.022  1.00  0.00     0.137 HD
ENDBRANCH  26  29
ENDBRANCH  21  26
ENDBRANCH  15  20
ENDBRANCH   9  14
ENDBRANCH   5   8
ENDBRANCH   3   4
ENDBRANCH   2   3
ENDBRANCH   1   2
BRANCH   1  32
ATOM     32  C   UNL     1       9.165  -2.239  -0.604  1.00  0.00     0.002 C 
BRANCH  32  33
ATOM     33  C   UNL     1       9.026  -0.846   0.030  1.00  0.00     0.021 C 
BRANCH  33  34
ATOM     34  C   UNL     1      10.307  -0.367   0.692  1.00  0.00     0.116 C 
BRANCH  34  35
ATOM     35  N   UNL     1      11.360  -0.105  -0.293  1.00  0.00    -0.352 N 
ATOM     36  C   UNL     1      12.656   0.318  -0.075  1.00  0.00     0.251 C 
ATOM     37  H   UNL     1      11.110  -0.251  -1.234  1.00  0.00     0.163 HD
ATOM     38  O   UNL     1      13.298   0.857  -0.970  1.00  0.00    -0.269 OA
BRANCH  36  39
ATOM     39  C   UNL     1      13.254   0.087   1.249  1.00  0.00     0.039 A 
ATOM     40  C   UNL     1      14.100   1.017   1.860  1.00  0.00     0.014 A 
ATOM     41  C   UNL     1      12.922  -1.103   1.888  1.00  0.00     0.014 A 
ATOM     42  C   UNL     1      14.556   0.756   3.151  1.00  0.00     0.010 A 
ATOM     43  C   UNL     1      13.198  -1.258   3.215  1.00  0.00     0.010 A 
ATOM     44  C   UNL     1      14.090  -0.384   3.821  1.00  0.00    -0.014 A 
BRANCH  44  45
ATOM     45  C   UNL     1      14.408  -0.654   5.216  1.00  0.00     0.031 A 
ATOM     46  C   UNL     1      13.946   0.413   6.142  1.00  0.00     0.074 A 
ATOM     47  C   UNL     1      14.811  -1.882   5.621  1.00  0.00     0.049 A 
ATOM     48  N   UNL     1      14.670   1.246   6.812  1.00  0.00    -0.248 NA
ATOM     49  C   UNL     1      12.505   0.728   6.176  1.00  0.00     0.031 C 
ATOM     50  C   UNL     1      14.982  -3.094   4.805  1.00  0.00     0.029 A 
ATOM     51  N   UNL     1      15.042  -2.349   6.877  1.00  0.00    -0.354 N 
ATOM     52  C   UNL     1      13.772   1.993   7.570  1.00  0.00     0.074 A 
ATOM     53  C   UNL     1      12.488   1.815   6.950  1.00  0.00     0.031 C 
ATOM     54  C   UNL     1      15.049  -4.182   5.604  1.00  0.00     0.029 A 
ATOM     55  C   UNL     1      15.101  -3.740   6.984  1.00  0.00     0.049 A 
ATOM     56  H   UNL     1      15.159  -1.752   7.651  1.00  0.00     0.167 HD
ATOM     57  C   UNL     1      14.109   2.437   8.814  1.00  0.00     0.037 A 
ATOM     58  C   UNL     1      15.164  -4.466   8.132  1.00  0.00     0.037 A 
ATOM     59  C   UNL     1      15.536   2.336   9.018  1.00  0.00     0.049 A 
ATOM     60  C   UNL     1      15.631  -3.536   9.193  1.00  0.00     0.074 A 
ATOM     61  C   UNL     1      16.649   2.857   8.389  1.00  0.00     0.029 A 
ATOM     62  N   UNL     1      15.984   1.265   9.754  1.00  0.00    -0.354 N 
ATOM     63  N   UNL     1      16.817  -2.989   9.201  1.00  0.00    -0.248 NA
ATOM     64  C   UNL     1      14.616  -2.832   9.960  1.00  0.00     0.031 C 
ATOM     65  C   UNL     1      17.608   1.801   8.400  1.00  0.00     0.029 A 
ATOM     66  C   UNL     1      17.069   0.728   9.112  1.00  0.00     0.049 A 
ATOM     67  H   UNL     1      15.593   0.940  10.597  1.00  0.00     0.167 HD
ATOM     68  C   UNL     1      16.600  -1.675   9.591  1.00  0.00     0.074 A 
ATOM     69  C   UNL     1      15.236  -1.660  10.121  1.00  0.00     0.031 C 
ATOM     70  C   UNL     1      17.429  -0.673   9.170  1.00  0.00     0.037 A 
BRANCH  57  71
ATOM     71  C   UNL     1      13.145   2.558   9.977  1.00  0.00     0.058 A 
ATOM     72  C   UNL     1      13.602   3.134  11.182  1.00  0.00     0.135 A 
ATOM     73  C   UNL     1      11.902   1.890  10.062  1.00  0.00     0.135 A 
ATOM     74  F   UNL     1      14.771   3.794  11.223  1.00  0.00    -0.206 F 
ATOM     75  C   UNL     1      12.922   2.984  12.391  1.00  0.00     0.059 A 
ATOM     76  C   UNL     1      11.181   1.776  11.245  1.00  0.00     0.059 A 
ATOM     77  F   UNL     1      11.362   1.231   9.032  1.00  0.00    -0.206 F 
ATOM     78  C   UNL     1      11.717   2.289  12.413  1.00  0.00     0.060 A 
BRANCH  78  79
ATOM     79  S   UNL     1      10.879   2.015  13.982  1.00  0.00     0.124 S 
ATOM     80  O   UNL     1      11.798   1.099  14.646  1.00  0.00    -0.237 OA
ATOM     81  O   UNL     1      10.814   3.367  14.526  1.00  0.00    -0.237 OA
ATOM     82  O   UNL     1       9.596   1.445  13.580  1.00  0.00    -0.744 OA
ENDBRANCH  78  79
ENDBRANCH  57  71
BRANCH  58  83
ATOM     83  C   UNL     1      14.530  -5.779   8.444  1.00  0.00     0.058 A 
ATOM     84  C   UNL     1      14.880  -6.508   9.598  1.00  0.00     0.135 A 
ATOM     85  C   UNL     1      13.361  -6.202   7.782  1.00  0.00     0.135 A 
ATOM     86  F   UNL     1      15.968  -6.166  10.306  1.00  0.00    -0.206 F 
ATOM     87  C   UNL     1      14.091  -7.556  10.094  1.00  0.00     0.059 A 
ATOM     88  C   UNL     1      12.562  -7.246   8.253  1.00  0.00     0.059 A 
ATOM     89  F   UNL     1      12.905  -5.547   6.703  1.00  0.00    -0.206 F 
ATOM     90  C   UNL     1      12.918  -7.902   9.425  1.00  0.00     0.060 A 
BRANCH  90  91
ATOM     91  S   UNL     1      11.798  -9.124  10.156  1.00  0.00     0.124 S 
ATOM     92  O   UNL     1      12.556 -10.360  10.001  1.00  0.00    -0.237 OA
ATOM     93  O   UNL     1      11.653  -8.632  11.522  1.00  0.00    -0.237 OA
ATOM     94  O   UNL     1      10.599  -9.019   9.329  1.00  0.00    -0.744 OA
ENDBRANCH  90  91
ENDBRANCH  58  83
BRANCH  70  95
ATOM     95  C   UNL     1      18.746  -1.058   8.539  1.00  0.00     0.058 A 
ATOM     96  C   UNL     1      18.889  -1.740   7.316  1.00  0.00     0.135 A 
ATOM     97  C   UNL     1      19.918  -0.575   9.139  1.00  0.00     0.135 A 
ATOM     98  F   UNL     1      17.817  -2.149   6.625  1.00  0.00    -0.206 F 
ATOM     99  C   UNL     1      20.142  -1.966   6.739  1.00  0.00     0.059 A 
ATOM    100  C   UNL     1      21.173  -0.760   8.567  1.00  0.00     0.059 A 
ATOM    101  F   UNL     1      19.846   0.137  10.275  1.00  0.00    -0.206 F 
ATOM    102  C   UNL     1      21.280  -1.469   7.374  1.00  0.00     0.060 A 
BRANCH 102 103
ATOM    103  S   UNL     1      22.897  -1.705   6.604  1.00  0.00     0.124 S 
ATOM    104  O   UNL     1      23.112  -3.138   6.773  1.00  0.00    -0.237 OA
ATOM    105  O   UNL     1      22.666  -1.254   5.235  1.00  0.00    -0.237 OA
ATOM    106  O   UNL     1      23.778  -0.846   7.393  1.00  0.00    -0.744 OA
ENDBRANCH 102 103
ENDBRANCH  70  95
ENDBRANCH  44  45
ENDBRANCH  36  39
ENDBRANCH  34  35
ENDBRANCH  33  34
ENDBRANCH  32  33
ENDBRANCH   1  32
TORSDOF 20
