REMARK SMILES CNc1nc(C(=O)N2C[C@@H](C(=O)NCCCCCCNC(=O)c3ccc(-c4c5nc(c(-c6c(F)cc(S(=O)(=O)[O-])cc6F)c6ccc([nH]6)c(-c6c(F)cc(S(=O)(=O)[O-])cc6F)c6nc(c(-c7c(F)cc(S(=O)(=O)[O-])cc7F)c7ccc4[nH]7)C=C6)C=C5)cc3)[C@H](c3ccccc3C)C2)cs1
REMARK SMILES IDX 16 1 15 2 14 3 13 4 11 5 12 6 10 8 8 9 9 10 97 11 89 12 6 13
REMARK SMILES IDX 7 14 5 15 3 16 4 17 99 18 98 19 2 20 1 21 90 23 91 24 95 25
REMARK SMILES IDX 92 26 94 27 96 28 93 29 17 30 18 31 19 32 20 33 21 34 22 36
REMARK SMILES IDX 23 37 24 38 88 39 25 40 87 41 26 42 27 43 28 44 81 45 29 46
REMARK SMILES IDX 86 47 80 48 82 49 30 50 85 51 79 52 78 53 31 55 65 56 44 57
REMARK SMILES IDX 64 58 45 59 48 60 63 61 83 62 46 63 47 64 62 66 84 67 49 68
REMARK SMILES IDX 32 69 33 70 42 71 34 72 35 73 41 74 43 75 36 76 37 77 38 78
REMARK SMILES IDX 39 79 40 80 66 81 67 82 76 83 68 84 69 85 75 86 77 87 70 88
REMARK SMILES IDX 71 89 72 90 73 91 74 92 50 93 51 94 60 95 52 96 53 97 59 98
REMARK SMILES IDX 61 99 54 100 55 101 56 102 57 103 58 104
REMARK H PARENT 13 7 2 22 20 35 82 54 48 65
REMARK Flexibility Score: inf
ROOT
ATOM      1  C   UNL     1      -1.490  -5.948  -1.898  1.00  0.00     0.002 C 
ENDROOT
BRANCH   1   2
ATOM      2  C   UNL     1      -0.840  -4.560  -1.873  1.00  0.00     0.021 C 
BRANCH   2   3
ATOM      3  C   UNL     1      -1.684  -3.422  -2.438  1.00  0.00     0.116 C 
BRANCH   3   4
ATOM      4  N   UNL     1      -2.946  -3.251  -1.740  1.00  0.00    -0.356 N 
ATOM      5  C   UNL     1      -3.770  -2.165  -1.725  1.00  0.00     0.225 C 
ATOM      6  O   UNL     1      -4.879  -2.286  -1.202  1.00  0.00    -0.275 OA
ATOM      7  H   UNL     1      -3.246  -4.022  -1.207  1.00  0.00     0.163 HD
BRANCH   5   8
ATOM      8  C   UNL     1      -3.311  -0.864  -2.343  1.00  0.00     0.107 C 
ATOM      9  N   UNL     1      -3.652   1.421  -2.388  1.00  0.00    -0.336 N 
ATOM     10  C   UNL     1      -3.766   0.298  -1.479  1.00  0.00     0.134 C 
ATOM     11  C   UNL     1      -4.051   1.013  -3.724  1.00  0.00     0.129 C 
ATOM     12  C   UNL     1      -3.979  -0.544  -3.706  1.00  0.00     0.053 C 
BRANCH   9  13
ATOM     13  C   UNL     1      -3.102   2.660  -2.136  1.00  0.00     0.273 C 
ATOM     14  O   UNL     1      -3.377   3.643  -2.833  1.00  0.00    -0.267 OA
BRANCH  13  15
ATOM     15  C   UNL     1      -2.109   2.754  -1.057  1.00  0.00     0.141 A 
ATOM     16  C   UNL     1      -0.397   2.030   0.183  1.00  0.00     0.183 A 
ATOM     17  N   UNL     1      -1.284   1.677  -0.714  1.00  0.00    -0.215 NA
ATOM     18  S   UNL     1      -0.537   3.657   0.730  1.00  0.00    -0.105 S 
ATOM     19  C   UNL     1      -1.807   3.923  -0.386  1.00  0.00     0.102 A 
BRANCH  16  20
ATOM     20  N   UNL     1       0.587   1.239   0.651  1.00  0.00    -0.365 N 
ATOM     21  C   UNL     1       0.854  -0.047   0.057  1.00  0.00     0.142 C 
ATOM     22  H   UNL     1       1.133   1.543   1.411  1.00  0.00     0.162 HD
ENDBRANCH  16  20
ENDBRANCH  13  15
ENDBRANCH   9  13
BRANCH  12  23
ATOM     23  C   UNL     1      -3.249  -1.230  -4.856  1.00  0.00    -0.039 A 
ATOM     24  C   UNL     1      -2.118  -0.618  -5.438  1.00  0.00     0.004 A 
ATOM     25  C   UNL     1      -3.610  -2.523  -5.311  1.00  0.00    -0.048 A 
ATOM     26  C   UNL     1      -1.370  -1.252  -6.433  1.00  0.00     0.000 A 
ATOM     27  C   UNL     1      -2.818  -3.160  -6.289  1.00  0.00     0.004 A 
ATOM     28  C   UNL     1      -4.753  -3.336  -4.758  1.00  0.00     0.044 C 
ATOM     29  C   UNL     1      -1.711  -2.530  -6.849  1.00  0.00     0.000 A 
ENDBRANCH  12  23
ENDBRANCH   5   8
ENDBRANCH   3   4
ENDBRANCH   2   3
ENDBRANCH   1   2
BRANCH   1  30
ATOM     30  C   UNL     1      -2.012  -6.434  -3.252  1.00  0.00     0.002 C 
BRANCH  30  31
ATOM     31  C   UNL     1      -1.007  -6.428  -4.404  1.00  0.00     0.021 C 
BRANCH  31  32
ATOM     32  C   UNL     1       0.316  -7.136  -4.132  1.00  0.00     0.116 C 
BRANCH  32  33
ATOM     33  N   UNL     1       0.156  -8.533  -3.766  1.00  0.00    -0.352 N 
ATOM     34  C   UNL     1       0.846  -9.636  -4.210  1.00  0.00     0.251 C 
ATOM     35  H   UNL     1      -0.548  -8.716  -3.103  1.00  0.00     0.163 HD
ATOM     36  O   UNL     1       0.494 -10.759  -3.859  1.00  0.00    -0.269 OA
BRANCH  34  37
ATOM     37  C   UNL     1       1.982  -9.473  -5.145  1.00  0.00     0.039 A 
ATOM     38  C   UNL     1       2.046 -10.298  -6.271  1.00  0.00     0.014 A 
ATOM     39  C   UNL     1       2.963  -8.500  -4.933  1.00  0.00     0.014 A 
ATOM     40  C   UNL     1       3.042 -10.088  -7.227  1.00  0.00     0.010 A 
ATOM     41  C   UNL     1       3.910  -8.245  -5.922  1.00  0.00     0.010 A 
ATOM     42  C   UNL     1       3.950  -9.026  -7.086  1.00  0.00    -0.014 A 
BRANCH  42  43
ATOM     43  C   UNL     1       4.908  -8.686  -8.171  1.00  0.00     0.031 A 
ATOM     44  C   UNL     1       6.391  -8.773  -7.941  1.00  0.00     0.074 A 
ATOM     45  C   UNL     1       4.434  -8.224  -9.345  1.00  0.00     0.049 A 
ATOM     46  N   UNL     1       7.370  -8.449  -8.745  1.00  0.00    -0.248 NA
ATOM     47  C   UNL     1       6.830  -9.265  -6.626  1.00  0.00     0.031 C 
ATOM     48  C   UNL     1       3.017  -8.042  -9.670  1.00  0.00     0.029 A 
ATOM     49  N   UNL     1       5.088  -7.806 -10.478  1.00  0.00    -0.354 N 
ATOM     50  C   UNL     1       8.540  -8.696  -8.037  1.00  0.00     0.074 A 
ATOM     51  C   UNL     1       8.146  -9.140  -6.717  1.00  0.00     0.031 C 
ATOM     52  C   UNL     1       2.909  -7.564 -10.919  1.00  0.00     0.029 A 
ATOM     53  C   UNL     1       4.245  -7.362 -11.470  1.00  0.00     0.049 A 
ATOM     54  H   UNL     1       6.068  -7.823 -10.571  1.00  0.00     0.167 HD
ATOM     55  C   UNL     1       9.825  -8.586  -8.457  1.00  0.00     0.037 A 
ATOM     56  C   UNL     1       4.514  -6.833 -12.679  1.00  0.00     0.037 A 
ATOM     57  C   UNL     1      10.208  -8.142  -9.774  1.00  0.00     0.049 A 
ATOM     58  C   UNL     1       5.946  -6.692 -13.116  1.00  0.00     0.074 A 
ATOM     59  C   UNL     1      11.478  -8.044 -10.313  1.00  0.00     0.029 A 
ATOM     60  N   UNL     1       9.325  -7.708 -10.754  1.00  0.00    -0.354 N 
ATOM     61  N   UNL     1       7.039  -7.002 -12.461  1.00  0.00    -0.248 NA
ATOM     62  C   UNL     1       6.182  -6.134 -14.454  1.00  0.00     0.031 C 
ATOM     63  C   UNL     1      11.368  -7.501 -11.598  1.00  0.00     0.029 A 
ATOM     64  C   UNL     1      10.026  -7.310 -11.882  1.00  0.00     0.049 A 
ATOM     65  H   UNL     1       8.345  -7.686 -10.661  1.00  0.00     0.167 HD
ATOM     66  C   UNL     1       8.094  -6.684 -13.309  1.00  0.00     0.074 A 
ATOM     67  C   UNL     1       7.505  -6.181 -14.534  1.00  0.00     0.031 C 
ATOM     68  C   UNL     1       9.428  -6.795 -13.091  1.00  0.00     0.037 A 
BRANCH  55  69
ATOM     69  C   UNL     1      10.908  -8.951  -7.477  1.00  0.00     0.058 A 
ATOM     70  C   UNL     1      11.105 -10.278  -7.058  1.00  0.00     0.135 A 
ATOM     71  C   UNL     1      11.770  -7.970  -6.960  1.00  0.00     0.135 A 
ATOM     72  F   UNL     1      10.305 -11.256  -7.510  1.00  0.00    -0.206 F 
ATOM     73  C   UNL     1      12.087 -10.611  -6.131  1.00  0.00     0.059 A 
ATOM     74  C   UNL     1      12.780  -8.286  -6.055  1.00  0.00     0.059 A 
ATOM     75  F   UNL     1      11.631  -6.687  -7.328  1.00  0.00    -0.206 F 
ATOM     76  C   UNL     1      12.917  -9.607  -5.631  1.00  0.00     0.060 A 
BRANCH  76  77
ATOM     77  S   UNL     1      14.170 -10.053  -4.411  1.00  0.00     0.124 S 
ATOM     78  O   UNL     1      13.349 -10.308  -3.232  1.00  0.00    -0.237 OA
ATOM     79  O   UNL     1      14.790 -11.228  -5.016  1.00  0.00    -0.237 OA
ATOM     80  O   UNL     1      15.017  -8.867  -4.342  1.00  0.00    -0.744 OA
ENDBRANCH  76  77
ENDBRANCH  55  69
BRANCH  56  81
ATOM     81  C   UNL     1       3.393  -6.399 -13.556  1.00  0.00     0.058 A 
ATOM     82  C   UNL     1       3.064  -7.109 -14.718  1.00  0.00     0.135 A 
ATOM     83  C   UNL     1       2.601  -5.289 -13.221  1.00  0.00     0.135 A 
ATOM     84  F   UNL     1       3.796  -8.172 -15.085  1.00  0.00    -0.206 F 
ATOM     85  C   UNL     1       1.990  -6.736 -15.521  1.00  0.00     0.059 A 
ATOM     86  C   UNL     1       1.507  -4.911 -13.993  1.00  0.00     0.059 A 
ATOM     87  F   UNL     1       2.865  -4.584 -12.110  1.00  0.00    -0.206 F 
ATOM     88  C   UNL     1       1.212  -5.639 -15.144  1.00  0.00     0.060 A 
BRANCH  88  89
ATOM     89  S   UNL     1      -0.225  -5.211 -16.150  1.00  0.00     0.124 S 
ATOM     90  O   UNL     1       0.405  -4.653 -17.341  1.00  0.00    -0.237 OA
ATOM     91  O   UNL     1      -0.876  -6.507 -16.319  1.00  0.00    -0.237 OA
ATOM     92  O   UNL     1      -0.949  -4.260 -15.312  1.00  0.00    -0.744 OA
ENDBRANCH  88  89
ENDBRANCH  56  81
BRANCH  68  93
ATOM     93  C   UNL     1      10.348  -6.363 -14.200  1.00  0.00     0.058 A 
ATOM     94  C   UNL     1      10.527  -5.007 -14.517  1.00  0.00     0.135 A 
ATOM     95  C   UNL     1      11.101  -7.308 -14.915  1.00  0.00     0.135 A 
ATOM     96  F   UNL     1       9.825  -4.063 -13.870  1.00  0.00    -0.206 F 
ATOM     97  C   UNL     1      11.407  -4.604 -15.516  1.00  0.00     0.059 A 
ATOM     98  C   UNL     1      12.009  -6.925 -15.899  1.00  0.00     0.059 A 
ATOM     99  F   UNL     1      10.975  -8.617 -14.647  1.00  0.00    -0.206 F 
ATOM    100  C   UNL     1      12.148  -5.571 -16.198  1.00  0.00     0.060 A 
BRANCH 100 101
ATOM    101  S   UNL     1      13.319  -5.029 -17.461  1.00  0.00     0.124 S 
ATOM    102  O   UNL     1      12.422  -4.610 -18.534  1.00  0.00    -0.237 OA
ATOM    103  O   UNL     1      14.037  -3.956 -16.780  1.00  0.00    -0.237 OA
ATOM    104  O   UNL     1      14.105  -6.228 -17.733  1.00  0.00    -0.744 OA
ENDBRANCH 100 101
ENDBRANCH  68  93
ENDBRANCH  42  43
ENDBRANCH  34  37
ENDBRANCH  32  33
ENDBRANCH  31  32
ENDBRANCH  30  31
ENDBRANCH   1  30
TORSDOF 20
