REMARK SMILES Cc1nc(Nc2ccc(F)cc2)nc(OCC(=O)NCCCCCCNC(=O)c2ccc(-c3c4nc(c(-c5c(F)cc(S(=O)(=O)[O-])cc5F)c5ccc([nH]5)c(-c5c(F)cc(S(=O)(=O)[O-])cc5F)c5nc(c(-c6c(F)cc(S(=O)(=O)[O-])cc6F)c6ccc3[nH]6)C=C5)C=C4)cc2)c1CCO
REMARK SMILES IDX 21 1 20 2 19 3 17 4 18 5 16 7 15 8 14 9 1 10 2 11 3 12 95 13
REMARK SMILES IDX 4 14 13 15 96 16 97 17 98 18 5 20 6 22 7 23 12 24 8 25 11 26
REMARK SMILES IDX 9 27 10 28 22 29 23 30 24 31 25 32 26 33 27 34 28 36 29 37
REMARK SMILES IDX 30 38 94 39 31 40 93 41 32 42 33 43 34 44 87 45 35 46 92 47
REMARK SMILES IDX 86 48 88 49 36 50 91 51 85 52 84 53 37 55 71 56 50 57 70 58
REMARK SMILES IDX 51 59 54 60 69 61 89 62 52 63 53 64 68 66 90 67 55 68 38 69
REMARK SMILES IDX 39 70 48 71 40 72 41 73 47 74 49 75 42 76 43 77 44 78 45 79
REMARK SMILES IDX 46 80 72 81 73 82 82 83 74 84 75 85 81 86 83 87 76 88 77 89
REMARK SMILES IDX 78 90 79 91 80 92 56 93 57 94 66 95 58 96 59 97 65 98 67 99
REMARK SMILES IDX 60 100 61 101 62 102 63 103 64 104
REMARK H PARENT 19 6 98 19 5 21 26 35 88 54 54 65
REMARK Flexibility Score: inf
ROOT
ATOM      1  C   UNL     1       2.641  -1.917   3.664  1.00  0.00     0.021 C 
ENDROOT
BRANCH   1   2
ATOM      2  C   UNL     1       2.804  -3.175   2.820  1.00  0.00     0.116 C 
BRANCH   2   3
ATOM      3  N   UNL     1       1.538  -3.845   2.631  1.00  0.00    -0.353 N 
ATOM      4  C   UNL     1       0.897  -4.116   1.469  1.00  0.00     0.258 C 
ATOM      5  O   UNL     1      -0.144  -4.774   1.525  1.00  0.00    -0.271 OA
ATOM      6  H   UNL     1       1.083  -4.141   3.452  1.00  0.00     0.163 HD
BRANCH   4   7
ATOM      7  C   UNL     1       1.520  -3.673   0.137  1.00  0.00     0.331 C 
BRANCH   7   8
ATOM      8  O   UNL     1       1.776  -2.321  -0.176  1.00  0.00    -0.467 OA
BRANCH   8   9
ATOM      9  C   UNL     1       0.860  -1.322  -0.078  1.00  0.00     0.222 A 
ATOM     10  C   UNL     1      -2.682  -0.034  -0.052  1.00  0.00     0.067 C 
ATOM     11  C   UNL     1      -1.192  -0.206  -0.007  1.00  0.00     0.050 A 
ATOM     12  N   UNL     1      -0.551   0.958   0.192  1.00  0.00    -0.218 NA
ATOM     13  C   UNL     1      -0.519  -1.404  -0.242  1.00  0.00     0.038 A 
ATOM     14  C   UNL     1       0.779   0.979   0.152  1.00  0.00     0.230 A 
ATOM     15  N   UNL     1       1.504  -0.137   0.062  1.00  0.00    -0.177 NA
BRANCH  13  16
ATOM     16  C   UNL     1      -1.261  -2.616  -0.736  1.00  0.00     0.071 C 
BRANCH  16  17
ATOM     17  C   UNL     1      -1.086  -2.933  -2.226  1.00  0.00     0.161 C 
BRANCH  17  18
ATOM     18  O   UNL     1       0.264  -3.085  -2.637  1.00  0.00    -0.396 OA
ATOM     19  H   UNL     1       0.740  -2.251  -2.499  1.00  0.00     0.210 HD
ENDBRANCH  17  18
ENDBRANCH  16  17
ENDBRANCH  13  16
BRANCH  14  20
ATOM     20  N   UNL     1       1.430   2.212   0.059  1.00  0.00    -0.324 N 
ATOM     21  H   UNL     1       2.412   2.186  -0.008  1.00  0.00     0.170 HD
BRANCH  20  22
ATOM     22  C   UNL     1       0.837   3.484   0.050  1.00  0.00     0.041 A 
ATOM     23  C   UNL     1      -0.120   3.843   1.013  1.00  0.00     0.029 A 
ATOM     24  C   UNL     1       1.077   4.372  -1.010  1.00  0.00     0.029 A 
ATOM     25  C   UNL     1      -0.817   5.050   0.929  1.00  0.00     0.041 A 
ATOM     26  C   UNL     1       0.365   5.574  -1.109  1.00  0.00     0.041 A 
ATOM     27  C   UNL     1      -0.577   5.899  -0.140  1.00  0.00     0.123 A 
ATOM     28  F   UNL     1      -1.274   7.038  -0.248  1.00  0.00    -0.207 F 
ENDBRANCH  20  22
ENDBRANCH  14  20
ENDBRANCH   8   9
ENDBRANCH   7   8
ENDBRANCH   4   7
ENDBRANCH   2   3
ENDBRANCH   1   2
BRANCH   1  29
ATOM     29  C   UNL     1       1.966  -2.140   5.024  1.00  0.00     0.002 C 
BRANCH  29  30
ATOM     30  C   UNL     1       2.530  -3.292   5.864  1.00  0.00     0.002 C 
BRANCH  30  31
ATOM     31  C   UNL     1       4.041  -3.256   6.087  1.00  0.00     0.021 C 
BRANCH  31  32
ATOM     32  C   UNL     1       4.553  -1.966   6.708  1.00  0.00     0.116 C 
BRANCH  32  33
ATOM     33  N   UNL     1       4.018  -1.756   8.042  1.00  0.00    -0.352 N 
ATOM     34  C   UNL     1       4.699  -1.517   9.207  1.00  0.00     0.251 C 
ATOM     35  H   UNL     1       3.037  -1.791   8.120  1.00  0.00     0.163 HD
ATOM     36  O   UNL     1       4.116  -1.573  10.288  1.00  0.00    -0.269 OA
BRANCH  34  37
ATOM     37  C   UNL     1       6.144  -1.214   9.151  1.00  0.00     0.039 A 
ATOM     38  C   UNL     1       7.008  -1.857  10.038  1.00  0.00     0.014 A 
ATOM     39  C   UNL     1       6.643  -0.311   8.205  1.00  0.00     0.014 A 
ATOM     40  C   UNL     1       8.383  -1.635   9.940  1.00  0.00     0.010 A 
ATOM     41  C   UNL     1       8.016  -0.158   8.054  1.00  0.00     0.010 A 
ATOM     42  C   UNL     1       8.900  -0.810   8.926  1.00  0.00    -0.014 A 
BRANCH  42  43
ATOM     43  C   UNL     1      10.362  -0.612   8.766  1.00  0.00     0.031 A 
ATOM     44  C   UNL     1      10.961   0.756   8.943  1.00  0.00     0.074 A 
ATOM     45  C   UNL     1      11.142  -1.654   8.418  1.00  0.00     0.049 A 
ATOM     46  N   UNL     1      12.203   1.138   8.797  1.00  0.00    -0.248 NA
ATOM     47  C   UNL     1      10.039   1.845   9.309  1.00  0.00     0.031 C 
ATOM     48  C   UNL     1      10.669  -3.020   8.185  1.00  0.00     0.029 A 
ATOM     49  N   UNL     1      12.495  -1.730   8.200  1.00  0.00    -0.354 N 
ATOM     50  C   UNL     1      12.212   2.503   9.055  1.00  0.00     0.074 A 
ATOM     51  C   UNL     1      10.842   2.898   9.293  1.00  0.00     0.031 C 
ATOM     52  C   UNL     1      11.719  -3.805   7.898  1.00  0.00     0.029 A 
ATOM     53  C   UNL     1      12.932  -2.993   7.879  1.00  0.00     0.049 A 
ATOM     54  H   UNL     1      13.095  -0.952   8.267  1.00  0.00     0.167 HD
ATOM     55  C   UNL     1      13.270   3.346   9.119  1.00  0.00     0.037 A 
ATOM     56  C   UNL     1      14.170  -3.447   7.601  1.00  0.00     0.037 A 
ATOM     57  C   UNL     1      14.633   2.941   8.889  1.00  0.00     0.049 A 
ATOM     58  C   UNL     1      15.327  -2.486   7.635  1.00  0.00     0.074 A 
ATOM     59  C   UNL     1      15.780   3.711   8.957  1.00  0.00     0.029 A 
ATOM     60  N   UNL     1      15.033   1.657   8.546  1.00  0.00    -0.354 N 
ATOM     61  N   UNL     1      15.323  -1.204   7.918  1.00  0.00    -0.248 NA
ATOM     62  C   UNL     1      16.654  -3.028   7.315  1.00  0.00     0.031 C 
ATOM     63  C   UNL     1      16.868   2.906   8.605  1.00  0.00     0.029 A 
ATOM     64  C   UNL     1      16.407   1.619   8.376  1.00  0.00     0.049 A 
ATOM     65  H   UNL     1      14.429   0.887   8.440  1.00  0.00     0.167 HD
ATOM     66  C   UNL     1      16.648  -0.792   7.832  1.00  0.00     0.074 A 
ATOM     67  C   UNL     1      17.427  -1.963   7.482  1.00  0.00     0.031 C 
ATOM     68  C   UNL     1      17.171   0.445   8.027  1.00  0.00     0.037 A 
BRANCH  55  69
ATOM     69  C   UNL     1      12.997   4.785   9.465  1.00  0.00     0.058 A 
ATOM     70  C   UNL     1      13.207   5.804   8.523  1.00  0.00     0.135 A 
ATOM     71  C   UNL     1      12.561   5.162  10.747  1.00  0.00     0.135 A 
ATOM     72  F   UNL     1      13.619   5.504   7.281  1.00  0.00    -0.206 F 
ATOM     73  C   UNL     1      13.001   7.143   8.840  1.00  0.00     0.059 A 
ATOM     74  C   UNL     1      12.318   6.492  11.076  1.00  0.00     0.059 A 
ATOM     75  F   UNL     1      12.324   4.227  11.682  1.00  0.00    -0.206 F 
ATOM     76  C   UNL     1      12.552   7.477  10.118  1.00  0.00     0.060 A 
BRANCH  76  77
ATOM     77  S   UNL     1      12.238   9.214  10.496  1.00  0.00     0.124 S 
ATOM     78  O   UNL     1      13.588   9.767  10.513  1.00  0.00    -0.237 OA
ATOM     79  O   UNL     1      11.395   9.622   9.376  1.00  0.00    -0.237 OA
ATOM     80  O   UNL     1      11.563   9.162  11.790  1.00  0.00    -0.744 OA
ENDBRANCH  76  77
ENDBRANCH  55  69
BRANCH  56  81
ATOM     81  C   UNL     1      14.371  -4.892   7.311  1.00  0.00     0.058 A 
ATOM     82  C   UNL     1      13.875  -5.479   6.137  1.00  0.00     0.135 A 
ATOM     83  C   UNL     1      15.010  -5.727   8.240  1.00  0.00     0.135 A 
ATOM     84  F   UNL     1      13.247  -4.727   5.220  1.00  0.00    -0.206 F 
ATOM     85  C   UNL     1      13.970  -6.848   5.912  1.00  0.00     0.059 A 
ATOM     86  C   UNL     1      15.141  -7.096   8.025  1.00  0.00     0.059 A 
ATOM     87  F   UNL     1      15.512  -5.209   9.371  1.00  0.00    -0.206 F 
ATOM     88  C   UNL     1      14.598  -7.650   6.867  1.00  0.00     0.060 A 
BRANCH  88  89
ATOM     89  S   UNL     1      14.669  -9.430   6.575  1.00  0.00     0.124 S 
ATOM     90  O   UNL     1      13.259  -9.796   6.660  1.00  0.00    -0.237 OA
ATOM     91  O   UNL     1      15.263  -9.496   5.244  1.00  0.00    -0.237 OA
ATOM     92  O   UNL     1      15.512  -9.918   7.662  1.00  0.00    -0.744 OA
ENDBRANCH  88  89
ENDBRANCH  56  81
BRANCH  68  93
ATOM     93  C   UNL     1      18.660   0.607   7.886  1.00  0.00     0.058 A 
ATOM     94  C   UNL     1      19.454   0.890   9.009  1.00  0.00     0.135 A 
ATOM     95  C   UNL     1      19.288   0.576   6.631  1.00  0.00     0.135 A 
ATOM     96  F   UNL     1      18.903   0.938  10.233  1.00  0.00    -0.206 F 
ATOM     97  C   UNL     1      20.812   1.161   8.891  1.00  0.00     0.059 A 
ATOM     98  C   UNL     1      20.652   0.814   6.492  1.00  0.00     0.059 A 
ATOM     99  F   UNL     1      18.576   0.299   5.527  1.00  0.00    -0.206 F 
ATOM    100  C   UNL     1      21.402   1.125   7.627  1.00  0.00     0.060 A 
BRANCH 100 101
ATOM    101  S   UNL     1      23.167   1.481   7.493  1.00  0.00     0.124 S 
ATOM    102  O   UNL     1      23.211   2.903   7.815  1.00  0.00    -0.237 OA
ATOM    103  O   UNL     1      23.738   0.585   8.495  1.00  0.00    -0.237 OA
ATOM    104  O   UNL     1      23.478   1.141   6.108  1.00  0.00    -0.744 OA
ENDBRANCH 100 101
ENDBRANCH  68  93
ENDBRANCH  42  43
ENDBRANCH  34  37
ENDBRANCH  32  33
ENDBRANCH  31  32
ENDBRANCH  30  31
ENDBRANCH  29  30
ENDBRANCH   1  29
TORSDOF 23
