REMARK SMILES CC(C)c1cc(C2CC[NH+](Cc3c[nH]nc3C(=O)NCCCCCCNC(=O)c3ccc(-c4c5nc(c(-c6c(F)cc(S(=O)(=O)[O-])cc6F)c6ccc([nH]6)c(-c6c(F)cc(S(=O)(=O)[O-])cc6F)c6nc(c(-c7c(F)cc(S(=O)(=O)[O-])cc7F)c7ccc4[nH]7)C=C6)C=C5)cc3)CC2)n[nH]1
REMARK SMILES IDX 22 1 21 2 20 3 19 4 17 5 18 6 16 8 12 9 13 10 14 11 15 12
REMARK SMILES IDX 11 14 10 15 7 16 8 17 96 18 9 19 95 20 6 22 4 23 5 24 98 25
REMARK SMILES IDX 97 26 2 28 1 29 3 30 23 31 24 32 25 33 26 34 27 35 28 37
REMARK SMILES IDX 29 38 30 39 94 40 31 41 93 42 32 43 33 44 34 45 87 46 35 47
REMARK SMILES IDX 92 48 86 49 88 50 36 51 91 52 85 53 84 54 37 56 71 57 50 58
REMARK SMILES IDX 70 59 51 60 54 61 69 62 89 63 52 64 53 65 68 67 90 68 55 69
REMARK SMILES IDX 38 70 39 71 48 72 40 73 41 74 47 75 49 76 42 77 43 78 44 79
REMARK SMILES IDX 45 80 46 81 72 82 73 83 82 84 74 85 75 86 81 87 83 88 76 89
REMARK SMILES IDX 77 90 78 91 79 92 80 93 56 94 57 95 66 96 58 97 59 98 65 99
REMARK SMILES IDX 67 100 60 101 61 102 62 103 63 104 64 105
REMARK H PARENT 19 7 14 13 10 21 98 27 26 36 88 55 54 66
REMARK Flexibility Score: inf
ROOT
ATOM      1  C   UNL     1      -3.746   1.327   8.931  1.00  0.00     0.002 C 
ENDROOT
BRANCH   1   2
ATOM      2  C   UNL     1      -3.396   1.410   7.453  1.00  0.00     0.021 C 
BRANCH   2   3
ATOM      3  C   UNL     1      -2.281   2.383   7.100  1.00  0.00     0.116 C 
BRANCH   3   4
ATOM      4  N   UNL     1      -0.982   1.799   7.046  1.00  0.00    -0.351 N 
ATOM      5  C   UNL     1       0.028   1.919   6.124  1.00  0.00     0.272 C 
ATOM      6  O   UNL     1       1.014   1.224   6.415  1.00  0.00    -0.267 OA
ATOM      7  H   UNL     1      -0.772   1.205   7.803  1.00  0.00     0.163 HD
BRANCH   5   8
ATOM      8  C   UNL     1       0.031   2.780   4.886  1.00  0.00     0.158 A 
ATOM      9  C   UNL     1      -0.848   3.739   4.205  1.00  0.00     0.057 A 
ATOM     10  C   UNL     1      -0.078   4.201   3.143  1.00  0.00     0.115 A 
ATOM     11  N   UNL     1       1.083   3.518   3.158  1.00  0.00    -0.284 N 
ATOM     12  N   UNL     1       1.175   2.662   4.162  1.00  0.00    -0.170 NA
ATOM     13  H   UNL     1       1.793   3.644   2.487  1.00  0.00     0.189 HD
BRANCH   9  14
ATOM     14  C   UNL     1      -2.232   4.300   4.437  1.00  0.00     0.303 C 
BRANCH  14  15
ATOM     15  N   UNL     1      -3.323   3.636   3.676  1.00  0.00    -0.331 N 
ATOM     16  C   UNL     1      -4.345   1.977   1.421  1.00  0.00     0.051 C 
ATOM     17  C   UNL     1      -4.527   3.496   1.457  1.00  0.00     0.071 C 
ATOM     18  C   UNL     1      -4.416   1.477   2.862  1.00  0.00     0.071 C 
ATOM     19  C   UNL     1      -3.480   4.193   2.329  1.00  0.00     0.263 C 
ATOM     20  C   UNL     1      -3.429   2.181   3.799  1.00  0.00     0.263 C 
ATOM     21  H   UNL     1      -4.176   3.893   4.172  1.00  0.00     0.348 HD
BRANCH  16  22
ATOM     22  C   UNL     1      -3.099   1.533   0.696  1.00  0.00     0.066 A 
ATOM     23  C   UNL     1      -0.983   1.136   0.110  1.00  0.00     0.038 A 
ATOM     24  C   UNL     1      -1.758   1.688   1.096  1.00  0.00     0.049 A 
ATOM     25  N   UNL     1      -1.875   0.673  -0.815  1.00  0.00    -0.282 N 
ATOM     26  N   UNL     1      -3.163   0.900  -0.485  1.00  0.00    -0.180 NA
ATOM     27  H   UNL     1      -1.604   0.216  -1.643  1.00  0.00     0.190 HD
BRANCH  23  28
ATOM     28  C   UNL     1       0.507   1.070   0.035  1.00  0.00     0.031 C 
ATOM     29  C   UNL     1       1.020  -0.270  -0.473  1.00  0.00     0.014 C 
ATOM     30  C   UNL     1       1.058   2.242  -0.774  1.00  0.00     0.014 C 
ENDBRANCH  23  28
ENDBRANCH  16  22
ENDBRANCH  14  15
ENDBRANCH   9  14
ENDBRANCH   5   8
ENDBRANCH   3   4
ENDBRANCH   2   3
ENDBRANCH   1   2
BRANCH   1  31
ATOM     31  C   UNL     1      -4.104   2.659   9.600  1.00  0.00     0.002 C 
BRANCH  31  32
ATOM     32  C   UNL     1      -5.128   3.540   8.872  1.00  0.00     0.021 C 
BRANCH  32  33
ATOM     33  C   UNL     1      -6.457   2.873   8.518  1.00  0.00     0.116 C 
BRANCH  33  34
ATOM     34  N   UNL     1      -7.084   2.244   9.667  1.00  0.00    -0.352 N 
ATOM     35  C   UNL     1      -8.288   2.499  10.273  1.00  0.00     0.251 C 
ATOM     36  H   UNL     1      -6.561   1.518  10.076  1.00  0.00     0.163 HD
ATOM     37  O   UNL     1      -8.541   1.980  11.355  1.00  0.00    -0.269 OA
BRANCH  35  38
ATOM     38  C   UNL     1      -9.268   3.409   9.642  1.00  0.00     0.039 A 
ATOM     39  C   UNL     1      -9.913   4.355  10.443  1.00  0.00     0.014 A 
ATOM     40  C   UNL     1      -9.573   3.318   8.281  1.00  0.00     0.014 A 
ATOM     41  C   UNL     1     -10.809   5.258   9.865  1.00  0.00     0.010 A 
ATOM     42  C   UNL     1     -10.418   4.260   7.695  1.00  0.00     0.010 A 
ATOM     43  C   UNL     1     -11.036   5.245   8.479  1.00  0.00    -0.014 A 
BRANCH  43  44
ATOM     44  C   UNL     1     -11.874   6.289   7.832  1.00  0.00     0.031 A 
ATOM     45  C   UNL     1     -13.155   5.923   7.136  1.00  0.00     0.074 A 
ATOM     46  C   UNL     1     -11.435   7.564   7.817  1.00  0.00     0.049 A 
ATOM     47  N   UNL     1     -13.975   6.690   6.464  1.00  0.00    -0.248 NA
ATOM     48  C   UNL     1     -13.557   4.508   7.179  1.00  0.00     0.031 C 
ATOM     49  C   UNL     1     -10.183   8.032   8.416  1.00  0.00     0.029 A 
ATOM     50  N   UNL     1     -11.980   8.697   7.266  1.00  0.00    -0.354 N 
ATOM     51  C   UNL     1     -14.982   5.854   5.997  1.00  0.00     0.074 A 
ATOM     52  C   UNL     1     -14.647   4.513   6.425  1.00  0.00     0.031 C 
ATOM     53  C   UNL     1     -10.063   9.353   8.213  1.00  0.00     0.029 A 
ATOM     54  C   UNL     1     -11.204   9.820   7.433  1.00  0.00     0.049 A 
ATOM     55  H   UNL     1     -12.845   8.705   6.796  1.00  0.00     0.167 HD
ATOM     56  C   UNL     1     -16.092   6.180   5.291  1.00  0.00     0.037 A 
ATOM     57  C   UNL     1     -11.379  11.081   6.992  1.00  0.00     0.037 A 
ATOM     58  C   UNL     1     -16.424   7.522   4.884  1.00  0.00     0.049 A 
ATOM     59  C   UNL     1     -12.611  11.414   6.195  1.00  0.00     0.074 A 
ATOM     60  C   UNL     1     -17.562   7.965   4.232  1.00  0.00     0.029 A 
ATOM     61  N   UNL     1     -15.618   8.635   5.077  1.00  0.00    -0.354 N 
ATOM     62  N   UNL     1     -13.596  10.625   5.835  1.00  0.00    -0.248 NA
ATOM     63  C   UNL     1     -12.757  12.804   5.743  1.00  0.00     0.031 C 
ATOM     64  C   UNL     1     -17.418   9.333   3.979  1.00  0.00     0.029 A 
ATOM     65  C   UNL     1     -16.215   9.755   4.522  1.00  0.00     0.049 A 
ATOM     66  H   UNL     1     -14.749   8.629   5.540  1.00  0.00     0.167 HD
ATOM     67  C   UNL     1     -14.485  11.426   5.127  1.00  0.00     0.074 A 
ATOM     68  C   UNL     1     -13.932  12.765   5.130  1.00  0.00     0.031 C 
ATOM     69  C   UNL     1     -15.650  11.083   4.526  1.00  0.00     0.037 A 
BRANCH  56  70
ATOM     70  C   UNL     1     -17.033   5.070   4.907  1.00  0.00     0.058 A 
ATOM     71  C   UNL     1     -17.825   4.409   5.859  1.00  0.00     0.135 A 
ATOM     72  C   UNL     1     -17.188   4.700   3.560  1.00  0.00     0.135 A 
ATOM     73  F   UNL     1     -17.710   4.712   7.162  1.00  0.00    -0.206 F 
ATOM     74  C   UNL     1     -18.717   3.405   5.495  1.00  0.00     0.059 A 
ATOM     75  C   UNL     1     -18.095   3.719   3.169  1.00  0.00     0.059 A 
ATOM     76  F   UNL     1     -16.458   5.300   2.606  1.00  0.00    -0.206 F 
ATOM     77  C   UNL     1     -18.846   3.068   4.147  1.00  0.00     0.060 A 
BRANCH  77  78
ATOM     78  S   UNL     1     -20.020   1.774   3.692  1.00  0.00     0.124 S 
ATOM     79  O   UNL     1     -19.346   0.581   4.194  1.00  0.00    -0.237 OA
ATOM     80  O   UNL     1     -21.222   2.175   4.416  1.00  0.00    -0.237 OA
ATOM     81  O   UNL     1     -20.101   1.883   2.238  1.00  0.00    -0.744 OA
ENDBRANCH  77  78
ENDBRANCH  56  70
BRANCH  57  82
ATOM     82  C   UNL     1     -10.357  12.120   7.291  1.00  0.00     0.058 A 
ATOM     83  C   UNL     1     -10.632  13.174   8.175  1.00  0.00     0.135 A 
ATOM     84  C   UNL     1      -9.080  12.072   6.710  1.00  0.00     0.135 A 
ATOM     85  F   UNL     1     -11.841  13.268   8.750  1.00  0.00    -0.206 F 
ATOM     86  C   UNL     1      -9.684  14.151   8.462  1.00  0.00     0.059 A 
ATOM     87  C   UNL     1      -8.106  13.021   7.003  1.00  0.00     0.059 A 
ATOM     88  F   UNL     1      -8.759  11.076   5.870  1.00  0.00    -0.206 F 
ATOM     89  C   UNL     1      -8.422  14.064   7.873  1.00  0.00     0.060 A 
BRANCH  89  90
ATOM     90  S   UNL     1      -7.183  15.310   8.289  1.00  0.00     0.124 S 
ATOM     91  O   UNL     1      -7.688  16.476   7.576  1.00  0.00    -0.237 OA
ATOM     92  O   UNL     1      -7.277  15.360   9.745  1.00  0.00    -0.237 OA
ATOM     93  O   UNL     1      -5.944  14.738   7.769  1.00  0.00    -0.744 OA
ENDBRANCH  89  90
ENDBRANCH  57  82
BRANCH  69  94
ATOM     94  C   UNL     1     -16.414  12.172   3.823  1.00  0.00     0.058 A 
ATOM     95  C   UNL     1     -15.966  12.717   2.610  1.00  0.00     0.135 A 
ATOM     96  C   UNL     1     -17.635  12.636   4.338  1.00  0.00     0.135 A 
ATOM     97  F   UNL     1     -14.800  12.316   2.078  1.00  0.00    -0.206 F 
ATOM     98  C   UNL     1     -16.692  13.696   1.940  1.00  0.00     0.059 A 
ATOM     99  C   UNL     1     -18.393  13.594   3.671  1.00  0.00     0.059 A 
ATOM    100  F   UNL     1     -18.114  12.143   5.492  1.00  0.00    -0.206 F 
ATOM    101  C   UNL     1     -17.908  14.125   2.477  1.00  0.00     0.060 A 
BRANCH 101 102
ATOM    102  S   UNL     1     -18.860  15.365   1.574  1.00  0.00     0.124 S 
ATOM    103  O   UNL     1     -18.064  16.567   1.798  1.00  0.00    -0.237 OA
ATOM    104  O   UNL     1     -18.845  14.839   0.213  1.00  0.00    -0.237 OA
ATOM    105  O   UNL     1     -20.162  15.342   2.235  1.00  0.00    -0.744 OA
ENDBRANCH 101 102
ENDBRANCH  69  94
ENDBRANCH  43  44
ENDBRANCH  35  38
ENDBRANCH  33  34
ENDBRANCH  32  33
ENDBRANCH  31  32
ENDBRANCH   1  31
TORSDOF 20
