REMARK SMILES CCCC(O)(CCC)[C@@]1(C)CC[C@@H](C(=O)NCCCCCCNC(=O)c2ccc(-c3c4nc(c(-c5c(F)cc(S(=O)(=O)[O-])cc5F)c5ccc([nH]5)c(-c5c(F)cc(S(=O)(=O)[O-])cc5F)c5nc(c(-c6c(F)cc(S(=O)(=O)[O-])cc6F)c6ccc3[nH]6)C=C5)C=C4)cc2)C(C)(C)O1
REMARK SMILES IDX 19 1 18 2 17 3 16 4 14 5 15 6 13 8 9 9 11 10 95 11 10 12
REMARK SMILES IDX 12 13 92 14 93 15 94 16 4 17 3 18 2 19 1 20 5 21 6 23 7 24
REMARK SMILES IDX 8 25 20 26 21 27 22 28 23 29 24 30 25 32 26 33 27 34 91 35
REMARK SMILES IDX 28 36 90 37 29 38 30 39 31 40 84 41 32 42 89 43 83 44 85 45
REMARK SMILES IDX 33 46 88 47 82 48 81 49 34 51 68 52 47 53 67 54 48 55 51 56
REMARK SMILES IDX 66 57 86 58 49 59 50 60 65 62 87 63 52 64 35 65 36 66 45 67
REMARK SMILES IDX 37 68 38 69 44 70 46 71 39 72 40 73 41 74 42 75 43 76 69 77
REMARK SMILES IDX 70 78 79 79 71 80 72 81 78 82 80 83 73 84 74 85 75 86 76 87
REMARK SMILES IDX 77 88 53 89 54 90 63 91 55 92 56 93 62 94 64 95 57 96 58 97
REMARK SMILES IDX 59 98 60 99 61 100
REMARK H PARENT 16 7 5 22 23 31 85 50 51 61
REMARK Flexibility Score: inf
ROOT
ATOM      1  C   UNL     1      -3.730   3.331   6.735  1.00  0.00     0.002 C 
ENDROOT
BRANCH   1   2
ATOM      2  C   UNL     1      -2.780   2.403   5.992  1.00  0.00     0.021 C 
BRANCH   2   3
ATOM      3  C   UNL     1      -1.956   3.065   4.882  1.00  0.00     0.116 C 
BRANCH   3   4
ATOM      4  N   UNL     1      -0.867   3.798   5.476  1.00  0.00    -0.356 N 
ATOM      5  C   UNL     1       0.438   3.473   5.578  1.00  0.00     0.226 C 
ATOM      6  O   UNL     1       1.124   4.187   6.322  1.00  0.00    -0.275 OA
ATOM      7  H   UNL     1      -1.113   4.668   5.865  1.00  0.00     0.163 HD
BRANCH   5   8
ATOM      8  C   UNL     1       1.105   2.354   4.790  1.00  0.00     0.110 C 
ATOM      9  C   UNL     1       1.262   0.205   2.612  1.00  0.00     0.095 C 
ATOM     10  C   UNL     1       2.138   1.487   2.702  1.00  0.00     0.039 C 
ATOM     11  O   UNL     1       0.367   0.259   3.736  1.00  0.00    -0.366 OA
ATOM     12  C   UNL     1       1.885  -1.187   2.821  1.00  0.00     0.045 C 
ATOM     13  C   UNL     1       1.308   2.655   3.307  1.00  0.00     0.019 C 
ATOM     14  C   UNL     1       0.753   0.853   5.002  1.00  0.00     0.075 C 
ATOM     15  C   UNL     1      -0.455   0.396   5.809  1.00  0.00     0.043 C 
ATOM     16  C   UNL     1       1.929   0.281   5.841  1.00  0.00     0.043 C 
BRANCH   9  17
ATOM     17  C   UNL     1       0.492   0.244   1.184  1.00  0.00     0.093 C 
BRANCH  17  18
ATOM     18  C   UNL     1       1.302  -0.347  -0.033  1.00  0.00     0.038 C 
BRANCH  18  19
ATOM     19  C   UNL     1       2.767   0.085  -0.293  1.00  0.00    -0.000 C 
ATOM     20  C   UNL     1       3.861  -0.542   0.568  1.00  0.00     0.004 C 
ENDBRANCH  18  19
ENDBRANCH  17  18
BRANCH  17  21
ATOM     21  O   UNL     1       0.296   1.653   0.839  1.00  0.00    -0.387 OA
ATOM     22  H   UNL     1      -0.164   1.716  -0.013  1.00  0.00     0.211 HD
ENDBRANCH  17  21
BRANCH  17  23
ATOM     23  C   UNL     1      -0.979  -0.286   1.226  1.00  0.00     0.038 C 
BRANCH  23  24
ATOM     24  C   UNL     1      -1.293  -1.778   1.059  1.00  0.00    -0.000 C 
ATOM     25  C   UNL     1      -1.641  -2.510   2.346  1.00  0.00     0.004 C 
ENDBRANCH  23  24
ENDBRANCH  17  23
ENDBRANCH   9  17
ENDBRANCH   5   8
ENDBRANCH   3   4
ENDBRANCH   2   3
ENDBRANCH   1   2
BRANCH   1  26
ATOM     26  C   UNL     1      -4.811   3.934   5.847  1.00  0.00     0.002 C 
BRANCH  26  27
ATOM     27  C   UNL     1      -5.594   2.903   5.031  1.00  0.00     0.021 C 
BRANCH  27  28
ATOM     28  C   UNL     1      -6.215   1.790   5.867  1.00  0.00     0.116 C 
BRANCH  28  29
ATOM     29  N   UNL     1      -7.126   2.324   6.869  1.00  0.00    -0.352 N 
ATOM     30  C   UNL     1      -8.471   2.098   6.996  1.00  0.00     0.251 C 
ATOM     31  H   UNL     1      -6.725   2.923   7.540  1.00  0.00     0.163 HD
ATOM     32  O   UNL     1      -9.165   2.809   7.719  1.00  0.00    -0.269 OA
BRANCH  30  33
ATOM     33  C   UNL     1      -9.065   0.984   6.239  1.00  0.00     0.039 A 
ATOM     34  C   UNL     1     -10.187   1.209   5.441  1.00  0.00     0.014 A 
ATOM     35  C   UNL     1      -8.459  -0.275   6.289  1.00  0.00     0.014 A 
ATOM     36  C   UNL     1     -10.678   0.172   4.646  1.00  0.00     0.010 A 
ATOM     37  C   UNL     1      -8.901  -1.278   5.440  1.00  0.00     0.010 A 
ATOM     38  C   UNL     1     -10.022  -1.069   4.620  1.00  0.00    -0.014 A 
BRANCH  38  39
ATOM     39  C   UNL     1     -10.494  -2.195   3.781  1.00  0.00     0.031 A 
ATOM     40  C   UNL     1     -10.940  -3.465   4.448  1.00  0.00     0.074 A 
ATOM     41  C   UNL     1     -10.412  -2.120   2.439  1.00  0.00     0.049 A 
ATOM     42  N   UNL     1     -11.209  -4.629   3.920  1.00  0.00    -0.248 NA
ATOM     43  C   UNL     1     -11.055  -3.428   5.916  1.00  0.00     0.031 C 
ATOM     44  C   UNL     1      -9.961  -0.952   1.682  1.00  0.00     0.029 A 
ATOM     45  N   UNL     1     -10.673  -3.062   1.476  1.00  0.00    -0.354 N 
ATOM     46  C   UNL     1     -11.494  -5.470   4.989  1.00  0.00     0.074 A 
ATOM     47  C   UNL     1     -11.309  -4.696   6.197  1.00  0.00     0.031 C 
ATOM     48  C   UNL     1      -9.975  -1.246   0.372  1.00  0.00     0.029 A 
ATOM     49  C   UNL     1     -10.387  -2.636   0.200  1.00  0.00     0.049 A 
ATOM     50  H   UNL     1     -11.031  -3.956   1.678  1.00  0.00     0.167 HD
ATOM     51  C   UNL     1     -11.889  -6.764   4.964  1.00  0.00     0.037 A 
ATOM     52  C   UNL     1     -10.426  -3.300  -0.972  1.00  0.00     0.037 A 
ATOM     53  C   UNL     1     -12.085  -7.514   3.752  1.00  0.00     0.049 A 
ATOM     54  C   UNL     1     -10.865  -4.739  -0.985  1.00  0.00     0.074 A 
ATOM     55  C   UNL     1     -12.535  -8.813   3.607  1.00  0.00     0.029 A 
ATOM     56  N   UNL     1     -11.834  -7.031   2.475  1.00  0.00    -0.354 N 
ATOM     57  N   UNL     1     -11.182  -5.510   0.029  1.00  0.00    -0.248 NA
ATOM     58  C   UNL     1     -10.960  -5.398  -2.294  1.00  0.00     0.031 C 
ATOM     59  C   UNL     1     -12.507  -9.133   2.246  1.00  0.00     0.029 A 
ATOM     60  C   UNL     1     -12.101  -8.013   1.537  1.00  0.00     0.049 A 
ATOM     61  H   UNL     1     -11.513  -6.123   2.267  1.00  0.00     0.167 HD
ATOM     62  C   UNL     1     -11.548  -6.733  -0.521  1.00  0.00     0.074 A 
ATOM     63  C   UNL     1     -11.407  -6.602  -1.958  1.00  0.00     0.031 C 
ATOM     64  C   UNL     1     -11.973  -7.858   0.107  1.00  0.00     0.037 A 
BRANCH  51  65
ATOM     65  C   UNL     1     -12.112  -7.444   6.289  1.00  0.00     0.058 A 
ATOM     66  C   UNL     1     -13.151  -7.063   7.154  1.00  0.00     0.135 A 
ATOM     67  C   UNL     1     -11.261  -8.479   6.710  1.00  0.00     0.135 A 
ATOM     68  F   UNL     1     -13.989  -6.071   6.810  1.00  0.00    -0.206 F 
ATOM     69  C   UNL     1     -13.301  -7.639   8.412  1.00  0.00     0.059 A 
ATOM     70  C   UNL     1     -11.415  -9.095   7.948  1.00  0.00     0.059 A 
ATOM     71  F   UNL     1     -10.254  -8.890   5.923  1.00  0.00    -0.206 F 
ATOM     72  C   UNL     1     -12.421  -8.648   8.803  1.00  0.00     0.060 A 
BRANCH  72  73
ATOM     73  S   UNL     1     -12.598  -9.354  10.454  1.00  0.00     0.124 S 
ATOM     74  O   UNL     1     -12.082  -8.273  11.288  1.00  0.00    -0.237 OA
ATOM     75  O   UNL     1     -14.036  -9.590  10.541  1.00  0.00    -0.237 OA
ATOM     76  O   UNL     1     -11.771 -10.556  10.401  1.00  0.00    -0.744 OA
ENDBRANCH  72  73
ENDBRANCH  51  65
BRANCH  52  77
ATOM     77  C   UNL     1     -10.051  -2.589  -2.223  1.00  0.00     0.058 A 
ATOM     78  C   UNL     1     -11.025  -2.207  -3.156  1.00  0.00     0.135 A 
ATOM     79  C   UNL     1      -8.721  -2.214  -2.475  1.00  0.00     0.135 A 
ATOM     80  F   UNL     1     -12.308  -2.548  -2.963  1.00  0.00    -0.206 F 
ATOM     81  C   UNL     1     -10.698  -1.472  -4.291  1.00  0.00     0.059 A 
ATOM     82  C   UNL     1      -8.373  -1.459  -3.591  1.00  0.00     0.059 A 
ATOM     83  F   UNL     1      -7.753  -2.542  -1.605  1.00  0.00    -0.206 F 
ATOM     84  C   UNL     1      -9.370  -1.092  -4.494  1.00  0.00     0.060 A 
BRANCH  84  85
ATOM     85  S   UNL     1      -8.975  -0.057  -5.920  1.00  0.00     0.124 S 
ATOM     86  O   UNL     1      -9.141  -0.998  -7.022  1.00  0.00    -0.237 OA
ATOM     87  O   UNL     1      -9.980   0.996  -5.821  1.00  0.00    -0.237 OA
ATOM     88  O   UNL     1      -7.603   0.369  -5.656  1.00  0.00    -0.744 OA
ENDBRANCH  84  85
ENDBRANCH  52  77
BRANCH  64  89
ATOM     89  C   UNL     1     -12.377  -9.031  -0.743  1.00  0.00     0.058 A 
ATOM     90  C   UNL     1     -11.433  -9.846  -1.383  1.00  0.00     0.135 A 
ATOM     91  C   UNL     1     -13.729  -9.407  -0.818  1.00  0.00     0.135 A 
ATOM     92  F   UNL     1     -10.129  -9.526  -1.350  1.00  0.00    -0.206 F 
ATOM     93  C   UNL     1     -11.814 -10.997  -2.066  1.00  0.00     0.059 A 
ATOM     94  C   UNL     1     -14.130 -10.567  -1.472  1.00  0.00     0.059 A 
ATOM     95  F   UNL     1     -14.671  -8.664  -0.216  1.00  0.00    -0.206 F 
ATOM     96  C   UNL     1     -13.164 -11.356  -2.094  1.00  0.00     0.060 A 
BRANCH  96  97
ATOM     97  S   UNL     1     -13.634 -12.896  -2.910  1.00  0.00     0.124 S 
ATOM     98  O   UNL     1     -13.454 -12.552  -4.316  1.00  0.00    -0.237 OA
ATOM     99  O   UNL     1     -12.671 -13.845  -2.361  1.00  0.00    -0.237 OA
ATOM    100  O   UNL     1     -15.016 -13.099  -2.486  1.00  0.00    -0.744 OA
ENDBRANCH  96  97
ENDBRANCH  64  89
ENDBRANCH  38  39
ENDBRANCH  30  33
ENDBRANCH  28  29
ENDBRANCH  27  28
ENDBRANCH  26  27
ENDBRANCH   1  26
TORSDOF 22
