REMARK SMILES O=C(NCCCCCCNC(=O)[C@@H]1CSCN1C(=O)c1cccc(Cl)c1)c1ccc(-c2c3nc(c(-c4c(F)cc(S(=O)(=O)[O-])cc4F)c4ccc([nH]4)c(-c4c(F)cc(S(=O)(=O)[O-])cc4F)c4nc(c(-c5c(F)cc(S(=O)(=O)[O-])cc5F)c5ccc2[nH]5)C=C4)C=C3)cc1
REMARK SMILES IDX 6 1 5 2 4 3 3 4 1 5 2 6 27 8 28 9 92 10 29 11 91 12 30 13
REMARK SMILES IDX 31 14 32 15 85 16 33 17 90 18 84 19 86 20 34 21 89 22 83 23
REMARK SMILES IDX 82 24 35 26 69 27 48 28 68 29 49 30 52 31 67 32 87 33 50 34
REMARK SMILES IDX 51 35 66 37 88 38 53 39 36 40 37 41 46 42 38 43 39 44 45 45
REMARK SMILES IDX 47 46 40 47 41 48 42 49 43 50 44 51 70 52 71 53 80 54 72 55
REMARK SMILES IDX 73 56 79 57 81 58 74 59 75 60 76 61 77 62 78 63 54 64 55 65
REMARK SMILES IDX 64 66 56 67 57 68 63 69 65 70 58 71 59 72 60 73 61 74 62 75
REMARK SMILES IDX 7 76 8 77 9 78 10 79 11 80 12 82 13 83 14 84 17 85 15 86
REMARK SMILES IDX 16 87 18 88 19 89 20 90 21 91 26 92 22 93 24 94 23 95 25 96
REMARK H PARENT 3 7 86 25 52 36 10 81
REMARK Flexibility Score: inf
ROOT
ATOM      1  C   UNL     1      10.432 -12.590  -3.030  1.00  0.00     0.002 C 
ENDROOT
BRANCH   1   2
ATOM      2  C   UNL     1      10.328 -13.019  -1.565  1.00  0.00     0.021 C 
BRANCH   2   3
ATOM      3  C   UNL     1       9.112 -13.881  -1.244  1.00  0.00     0.116 C 
BRANCH   3   4
ATOM      4  N   UNL     1       9.146 -15.155  -1.946  1.00  0.00    -0.352 N 
ATOM      5  O   UNL     1       9.422 -17.377  -2.184  1.00  0.00    -0.269 OA
ATOM      6  C   UNL     1       9.180 -16.434  -1.443  1.00  0.00     0.251 C 
ATOM      7  H   UNL     1       9.145 -15.091  -2.929  1.00  0.00     0.163 HD
BRANCH   6   8
ATOM      8  C   UNL     1       8.936 -16.662  -0.001  1.00  0.00     0.039 A 
ATOM      9  C   UNL     1       7.899 -15.998   0.657  1.00  0.00     0.014 A 
ATOM     10  C   UNL     1       9.749 -17.559   0.698  1.00  0.00     0.014 A 
ATOM     11  C   UNL     1       7.771 -16.114   2.037  1.00  0.00     0.010 A 
ATOM     12  C   UNL     1       9.563 -17.740   2.072  1.00  0.00     0.010 A 
ATOM     13  C   UNL     1       8.597 -16.990   2.760  1.00  0.00    -0.014 A 
BRANCH  13  14
ATOM     14  C   UNL     1       8.405 -17.120   4.228  1.00  0.00     0.031 A 
ATOM     15  C   UNL     1       9.480 -16.695   5.192  1.00  0.00     0.074 A 
ATOM     16  C   UNL     1       7.228 -17.587   4.689  1.00  0.00     0.049 A 
ATOM     17  N   UNL     1       9.459 -16.698   6.501  1.00  0.00    -0.248 NA
ATOM     18  C   UNL     1      10.745 -16.214   4.616  1.00  0.00     0.031 C 
ATOM     19  C   UNL     1       6.116 -18.043   3.850  1.00  0.00     0.029 A 
ATOM     20  N   UNL     1       6.757 -17.735   5.968  1.00  0.00    -0.354 N 
ATOM     21  C   UNL     1      10.711 -16.248   6.905  1.00  0.00     0.074 A 
ATOM     22  C   UNL     1      11.476 -16.001   5.702  1.00  0.00     0.031 C 
ATOM     23  C   UNL     1       5.075 -18.363   4.632  1.00  0.00     0.029 A 
ATOM     24  C   UNL     1       5.462 -18.192   6.028  1.00  0.00     0.049 A 
ATOM     25  H   UNL     1       7.295 -17.533   6.768  1.00  0.00     0.167 HD
ATOM     26  C   UNL     1      11.175 -16.053   8.164  1.00  0.00     0.037 A 
ATOM     27  C   UNL     1       4.671 -18.449   7.087  1.00  0.00     0.037 A 
ATOM     28  C   UNL     1      10.396 -16.274   9.356  1.00  0.00     0.049 A 
ATOM     29  C   UNL     1       5.207 -18.213   8.470  1.00  0.00     0.074 A 
ATOM     30  C   UNL     1      10.762 -16.067  10.675  1.00  0.00     0.029 A 
ATOM     31  N   UNL     1       9.093 -16.752   9.376  1.00  0.00    -0.354 N 
ATOM     32  N   UNL     1       6.384 -17.759   8.831  1.00  0.00    -0.248 NA
ATOM     33  C   UNL     1       4.309 -18.523   9.589  1.00  0.00     0.031 C 
ATOM     34  C   UNL     1       9.694 -16.455  11.493  1.00  0.00     0.029 A 
ATOM     35  C   UNL     1       8.646 -16.860  10.683  1.00  0.00     0.049 A 
ATOM     36  H   UNL     1       8.564 -16.980   8.577  1.00  0.00     0.167 HD
ATOM     37  C   UNL     1       6.358 -17.703  10.219  1.00  0.00     0.074 A 
ATOM     38  C   UNL     1       5.045 -18.160  10.630  1.00  0.00     0.031 C 
ATOM     39  C   UNL     1       7.333 -17.308  11.075  1.00  0.00     0.037 A 
BRANCH  26  40
ATOM     40  C   UNL     1      12.601 -15.597   8.321  1.00  0.00     0.058 A 
ATOM     41  C   UNL     1      13.005 -14.292   7.993  1.00  0.00     0.135 A 
ATOM     42  C   UNL     1      13.573 -16.469   8.839  1.00  0.00     0.135 A 
ATOM     43  F   UNL     1      12.122 -13.419   7.483  1.00  0.00    -0.206 F 
ATOM     44  C   UNL     1      14.325 -13.879   8.144  1.00  0.00     0.059 A 
ATOM     45  C   UNL     1      14.894 -16.070   9.023  1.00  0.00     0.059 A 
ATOM     46  F   UNL     1      13.243 -17.727   9.172  1.00  0.00    -0.206 F 
ATOM     47  C   UNL     1      15.264 -14.777   8.657  1.00  0.00     0.060 A 
BRANCH  47  48
ATOM     48  S   UNL     1      16.974 -14.228   8.843  1.00  0.00     0.124 S 
ATOM     49  O   UNL     1      17.434 -14.237   7.458  1.00  0.00    -0.237 OA
ATOM     50  O   UNL     1      16.816 -12.909   9.448  1.00  0.00    -0.237 OA
ATOM     51  O   UNL     1      17.565 -15.243   9.708  1.00  0.00    -0.744 OA
ENDBRANCH  47  48
ENDBRANCH  26  40
BRANCH  27  52
ATOM     52  C   UNL     1       3.285 -18.938   6.872  1.00  0.00     0.058 A 
ATOM     53  C   UNL     1       2.180 -18.117   7.142  1.00  0.00     0.135 A 
ATOM     54  C   UNL     1       3.037 -20.222   6.364  1.00  0.00     0.135 A 
ATOM     55  F   UNL     1       2.367 -16.881   7.632  1.00  0.00    -0.206 F 
ATOM     56  C   UNL     1       0.878 -18.556   6.930  1.00  0.00     0.059 A 
ATOM     57  C   UNL     1       1.746 -20.674   6.118  1.00  0.00     0.059 A 
ATOM     58  F   UNL     1       4.062 -21.039   6.071  1.00  0.00    -0.206 F 
ATOM     59  C   UNL     1       0.671 -19.837   6.414  1.00  0.00     0.060 A 
BRANCH  59  60
ATOM     60  S   UNL     1      -1.020 -20.379   6.091  1.00  0.00     0.124 S 
ATOM     61  O   UNL     1      -1.501 -20.655   7.440  1.00  0.00    -0.237 OA
ATOM     62  O   UNL     1      -1.598 -19.212   5.433  1.00  0.00    -0.237 OA
ATOM     63  O   UNL     1      -0.839 -21.546   5.233  1.00  0.00    -0.744 OA
ENDBRANCH  59  60
ENDBRANCH  27  52
BRANCH  39  64
ATOM     64  C   UNL     1       6.997 -17.308  12.540  1.00  0.00     0.058 A 
ATOM     65  C   UNL     1       6.879 -18.500  13.273  1.00  0.00     0.135 A 
ATOM     66  C   UNL     1       6.812 -16.096  13.223  1.00  0.00     0.135 A 
ATOM     67  F   UNL     1       7.039 -19.686  12.664  1.00  0.00    -0.206 F 
ATOM     68  C   UNL     1       6.557 -18.490  14.626  1.00  0.00     0.059 A 
ATOM     69  C   UNL     1       6.516 -16.062  14.582  1.00  0.00     0.059 A 
ATOM     70  F   UNL     1       6.925 -14.928  12.571  1.00  0.00    -0.206 F 
ATOM     71  C   UNL     1       6.374 -17.265  15.271  1.00  0.00     0.060 A 
BRANCH  71  72
ATOM     72  S   UNL     1       5.970 -17.261  17.030  1.00  0.00     0.124 S 
ATOM     73  O   UNL     1       4.557 -17.627  17.007  1.00  0.00    -0.237 OA
ATOM     74  O   UNL     1       6.877 -18.272  17.565  1.00  0.00    -0.237 OA
ATOM     75  O   UNL     1       6.258 -15.890  17.441  1.00  0.00    -0.744 OA
ENDBRANCH  71  72
ENDBRANCH  39  64
ENDBRANCH  13  14
ENDBRANCH   6   8
ENDBRANCH   3   4
ENDBRANCH   2   3
ENDBRANCH   1   2
BRANCH   1  76
ATOM     76  C   UNL     1       9.255 -11.758  -3.560  1.00  0.00     0.002 C 
BRANCH  76  77
ATOM     77  C   UNL     1       8.888 -10.529  -2.719  1.00  0.00     0.021 C 
BRANCH  77  78
ATOM     78  C   UNL     1      10.032  -9.530  -2.571  1.00  0.00     0.116 C 
BRANCH  78  79
ATOM     79  N   UNL     1      10.076  -8.573  -3.648  1.00  0.00    -0.354 N 
ATOM     80  C   UNL     1       9.692  -7.270  -3.714  1.00  0.00     0.243 C 
ATOM     81  H   UNL     1      10.451  -8.927  -4.487  1.00  0.00     0.163 HD
ATOM     82  O   UNL     1       9.755  -6.773  -4.847  1.00  0.00    -0.273 OA
BRANCH  80  83
ATOM     83  C   UNL     1       9.018  -6.490  -2.539  1.00  0.00     0.185 C 
ATOM     84  C   UNL     1       9.188  -4.982  -2.778  1.00  0.00     0.106 C 
ATOM     85  N   UNL     1       9.460  -6.728  -1.155  1.00  0.00    -0.317 N 
ATOM     86  S   UNL     1      10.611  -4.471  -1.757  1.00  0.00    -0.138 SA
ATOM     87  C   UNL     1      10.676  -6.019  -0.825  1.00  0.00     0.190 C 
BRANCH  85  88
ATOM     88  C   UNL     1       8.711  -7.498  -0.278  1.00  0.00     0.255 C 
ATOM     89  O   UNL     1       7.635  -8.006  -0.578  1.00  0.00    -0.269 OA
BRANCH  88  90
ATOM     90  C   UNL     1       9.289  -7.832   1.042  1.00  0.00     0.041 A 
ATOM     91  C   UNL     1       9.170  -6.956   2.123  1.00  0.00     0.014 A 
ATOM     92  C   UNL     1       9.927  -9.067   1.198  1.00  0.00     0.034 A 
ATOM     93  C   UNL     1       9.734  -7.306   3.354  1.00  0.00     0.002 A 
ATOM     94  C   UNL     1      10.490  -9.402   2.424  1.00  0.00     0.041 A 
ATOM     95  C   UNL     1      10.403  -8.525   3.502  1.00  0.00     0.020 A 
ATOM     96  Cl  UNL     1      11.302 -10.909   2.593  1.00  0.00    -0.084 Cl
ENDBRANCH  88  90
ENDBRANCH  85  88
ENDBRANCH  80  83
ENDBRANCH  78  79
ENDBRANCH  77  78
ENDBRANCH  76  77
ENDBRANCH   1  76
TORSDOF 18
