REMARK SMILES C[C@@H]1CN(C(=O)N[C@@H]2CCCCC[C@@H]2C(=O)NCCCCCCNC(=O)c2ccc(-c3c4nc(c(-c5c(F)cc(S(=O)(=O)[O-])cc5F)c5ccc([nH]5)c(-c5c(F)cc(S(=O)(=O)[O-])cc5F)c5nc(c(-c6c(F)cc(S(=O)(=O)[O-])cc6F)c6ccc3[nH]6)C=C5)C=C4)cc2)C[C@H]1C
REMARK SMILES IDX 20 1 19 2 18 3 17 4 15 5 16 6 14 8 8 9 7 10 1 11 2 12 3 13
REMARK SMILES IDX 94 14 4 15 93 16 95 17 5 18 6 19 9 21 10 22 11 23 13 25
REMARK SMILES IDX 12 26 21 28 22 29 23 30 24 31 25 32 26 34 27 35 28 36 92 37
REMARK SMILES IDX 29 38 91 39 30 40 31 41 32 42 85 43 33 44 90 45 84 46 86 47
REMARK SMILES IDX 34 48 89 49 83 50 82 51 35 53 69 54 48 55 68 56 49 57 52 58
REMARK SMILES IDX 67 59 87 60 50 61 51 62 66 64 88 65 53 66 36 67 37 68 46 69
REMARK SMILES IDX 38 70 39 71 45 72 47 73 40 74 41 75 42 76 43 77 44 78 70 79
REMARK SMILES IDX 71 80 80 81 72 82 73 83 79 84 81 85 74 86 75 87 76 88 77 89
REMARK SMILES IDX 78 90 54 91 55 92 64 93 56 94 57 95 63 96 65 97 58 98 59 99
REMARK SMILES IDX 60 100 61 101 62 102
REMARK H PARENT 17 7 7 20 24 33 86 52 52 63
REMARK Flexibility Score: 90.00
ROOT
ATOM      1  C   UNL     1      -0.876   6.544  -7.521  1.00  0.00     0.002 C 
ENDROOT
BRANCH   1   2
ATOM      2  C   UNL     1      -0.584   6.742  -6.029  1.00  0.00     0.021 C 
BRANCH   2   3
ATOM      3  C   UNL     1      -1.659   6.214  -5.086  1.00  0.00     0.116 C 
BRANCH   3   4
ATOM      4  N   UNL     1      -1.885   4.798  -5.267  1.00  0.00    -0.356 N 
ATOM      5  C   UNL     1      -2.219   3.832  -4.370  1.00  0.00     0.225 C 
ATOM      6  O   UNL     1      -2.280   2.692  -4.827  1.00  0.00    -0.275 OA
ATOM      7  H   UNL     1      -1.781   4.480  -6.193  1.00  0.00     0.163 HD
BRANCH   5   8
ATOM      8  C   UNL     1      -2.418   4.188  -2.888  1.00  0.00     0.101 C 
BRANCH   8   9
ATOM      9  C   UNL     1      -2.561   2.973  -1.927  1.00  0.00     0.096 C 
BRANCH   9  10
ATOM     10  N   UNL     1      -3.194   1.786  -2.500  1.00  0.00    -0.334 N 
ATOM     11  C   UNL     1       1.169  -0.191   0.080  1.00  0.00     0.010 C 
ATOM     12  C   UNL     1       0.541  -0.341  -1.298  1.00  0.00     0.010 C 
ATOM     13  C   UNL     1      -0.552   0.696  -1.537  1.00  0.00     0.125 C 
ATOM     14  C   UNL     1      -0.193  -1.669  -1.518  1.00  0.00     0.010 C 
ATOM     15  N   UNL     1      -1.579   0.048  -2.326  1.00  0.00    -0.324 N 
ATOM     16  C   UNL     1      -1.178  -1.317  -2.633  1.00  0.00     0.125 C 
ATOM     17  C   UNL     1       0.741  -2.814  -1.864  1.00  0.00     0.010 C 
ATOM     18  C   UNL     1      -2.788   0.517  -2.744  1.00  0.00     0.317 C 
ATOM     19  O   UNL     1      -3.587  -0.210  -3.343  1.00  0.00    -0.249 OA
ATOM     20  H   UNL     1      -4.127   1.946  -2.769  1.00  0.00     0.165 HD
ENDBRANCH   9  10
BRANCH   9  21
ATOM     21  C   UNL     1      -3.231   3.254  -0.570  1.00  0.00     0.026 C 
BRANCH  21  22
ATOM     22  C   UNL     1      -2.599   4.410   0.199  1.00  0.00     0.002 C 
BRANCH  22  23
ATOM     23  C   UNL     1      -3.206   5.771  -0.128  1.00  0.00     0.000 CG0
ATOM     24  G   UNL     1      -3.034   6.258  -1.564  1.00  0.00     0.000 G0
ENDBRANCH  22  23
ENDBRANCH  21  22
ENDBRANCH   9  21
ENDBRANCH   8   9
BRANCH   8  25
ATOM     25  C   UNL     1      -3.490   5.266  -2.645  1.00  0.00     0.015 C 
BRANCH  25  26
ATOM     26  C   UNL     1      -3.034   6.258  -1.564  1.00  0.00     0.001 CG0
ATOM     27  G   UNL     1      -3.206   5.771  -0.128  1.00  0.00     0.000 G0
ENDBRANCH  25  26
ENDBRANCH   8  25
ENDBRANCH   5   8
ENDBRANCH   3   4
ENDBRANCH   2   3
ENDBRANCH   1   2
BRANCH   1  28
ATOM     28  C   UNL     1      -2.237   7.052  -8.004  1.00  0.00     0.002 C 
BRANCH  28  29
ATOM     29  C   UNL     1      -2.543   8.514  -7.681  1.00  0.00     0.021 C 
BRANCH  29  30
ATOM     30  C   UNL     1      -1.472   9.505  -8.117  1.00  0.00     0.116 C 
BRANCH  30  31
ATOM     31  N   UNL     1      -1.237   9.477  -9.550  1.00  0.00    -0.352 N 
ATOM     32  C   UNL     1      -1.178  10.525 -10.437  1.00  0.00     0.251 C 
ATOM     33  H   UNL     1      -1.101   8.583  -9.940  1.00  0.00     0.163 HD
ATOM     34  O   UNL     1      -1.133  10.311 -11.640  1.00  0.00    -0.269 OA
BRANCH  32  35
ATOM     35  C   UNL     1      -1.199  11.912  -9.921  1.00  0.00     0.039 A 
ATOM     36  C   UNL     1      -2.045  12.843 -10.528  1.00  0.00     0.014 A 
ATOM     37  C   UNL     1      -0.403  12.284  -8.835  1.00  0.00     0.014 A 
ATOM     38  C   UNL     1      -2.133  14.135 -10.006  1.00  0.00     0.010 A 
ATOM     39  C   UNL     1      -0.554  13.545  -8.267  1.00  0.00     0.010 A 
ATOM     40  C   UNL     1      -1.415  14.487  -8.851  1.00  0.00    -0.014 A 
BRANCH  40  41
ATOM     41  C   UNL     1      -1.550  15.834  -8.241  1.00  0.00     0.031 A 
ATOM     42  C   UNL     1      -0.362  16.754  -8.168  1.00  0.00     0.074 A 
ATOM     43  C   UNL     1      -2.727  16.206  -7.701  1.00  0.00     0.049 A 
ATOM     44  N   UNL     1      -0.272  17.949  -7.642  1.00  0.00    -0.248 NA
ATOM     45  C   UNL     1       0.899  16.253  -8.736  1.00  0.00     0.031 C 
ATOM     46  C   UNL     1      -3.942  15.387  -7.675  1.00  0.00     0.029 A 
ATOM     47  N   UNL     1      -3.097  17.366  -7.069  1.00  0.00    -0.354 N 
ATOM     48  C   UNL     1       1.054  18.335  -7.803  1.00  0.00     0.074 A 
ATOM     49  C   UNL     1       1.744  17.222  -8.419  1.00  0.00     0.031 C 
ATOM     50  C   UNL     1      -4.931  16.087  -7.098  1.00  0.00     0.029 A 
ATOM     51  C   UNL     1      -4.414  17.384  -6.672  1.00  0.00     0.049 A 
ATOM     52  H   UNL     1      -2.478  18.116  -6.915  1.00  0.00     0.167 HD
ATOM     53  C   UNL     1       1.638  19.517  -7.489  1.00  0.00     0.037 A 
ATOM     54  C   UNL     1      -5.123  18.337  -6.037  1.00  0.00     0.037 A 
ATOM     55  C   UNL     1       0.938  20.622  -6.886  1.00  0.00     0.049 A 
ATOM     56  C   UNL     1      -4.447  19.630  -5.669  1.00  0.00     0.074 A 
ATOM     57  C   UNL     1       1.420  21.883  -6.582  1.00  0.00     0.029 A 
ATOM     58  N   UNL     1      -0.390  20.595  -6.484  1.00  0.00    -0.354 N 
ATOM     59  N   UNL     1      -3.210  20.007  -5.892  1.00  0.00    -0.248 NA
ATOM     60  C   UNL     1      -5.263  20.626  -4.963  1.00  0.00     0.031 C 
ATOM     61  C   UNL     1       0.402  22.597  -5.940  1.00  0.00     0.029 A 
ATOM     62  C   UNL     1      -0.735  21.805  -5.902  1.00  0.00     0.049 A 
ATOM     63  H   UNL     1      -0.999  19.829  -6.595  1.00  0.00     0.167 HD
ATOM     64  C   UNL     1      -3.110  21.299  -5.386  1.00  0.00     0.074 A 
ATOM     65  C   UNL     1      -4.413  21.637  -4.850  1.00  0.00     0.031 C 
ATOM     66  C   UNL     1      -2.038  22.130  -5.372  1.00  0.00     0.037 A 
BRANCH  53  67
ATOM     67  C   UNL     1       3.110  19.659  -7.775  1.00  0.00     0.058 A 
ATOM     68  C   UNL     1       3.615  19.678  -9.086  1.00  0.00     0.135 A 
ATOM     69  C   UNL     1       4.033  19.771  -6.721  1.00  0.00     0.135 A 
ATOM     70  F   UNL     1       2.783  19.564 -10.133  1.00  0.00    -0.206 F 
ATOM     71  C   UNL     1       4.981  19.744  -9.341  1.00  0.00     0.059 A 
ATOM     72  C   UNL     1       5.401  19.875  -6.954  1.00  0.00     0.059 A 
ATOM     73  F   UNL     1       3.610  19.765  -5.447  1.00  0.00    -0.206 F 
ATOM     74  C   UNL     1       5.867  19.834  -8.266  1.00  0.00     0.060 A 
BRANCH  74  75
ATOM     75  S   UNL     1       7.639  19.876  -8.611  1.00  0.00     0.124 S 
ATOM     76  O   UNL     1       7.888  18.496  -9.017  1.00  0.00    -0.237 OA
ATOM     77  O   UNL     1       7.727  20.874  -9.671  1.00  0.00    -0.237 OA
ATOM     78  O   UNL     1       8.225  20.269  -7.333  1.00  0.00    -0.744 OA
ENDBRANCH  74  75
ENDBRANCH  53  67
BRANCH  54  79
ATOM     79  C   UNL     1      -6.568  18.121  -5.756  1.00  0.00     0.058 A 
ATOM     80  C   UNL     1      -7.547  18.845  -6.453  1.00  0.00     0.135 A 
ATOM     81  C   UNL     1      -7.001  17.174  -4.816  1.00  0.00     0.135 A 
ATOM     82  F   UNL     1      -7.182  19.767  -7.356  1.00  0.00    -0.206 F 
ATOM     83  C   UNL     1      -8.904  18.643  -6.225  1.00  0.00     0.059 A 
ATOM     84  C   UNL     1      -8.353  16.935  -4.588  1.00  0.00     0.059 A 
ATOM     85  F   UNL     1      -6.105  16.445  -4.132  1.00  0.00    -0.206 F 
ATOM     86  C   UNL     1      -9.297  17.680  -5.295  1.00  0.00     0.060 A 
BRANCH  86  87
ATOM     87  S   UNL     1     -11.062  17.381  -5.056  1.00  0.00     0.124 S 
ATOM     88  O   UNL     1     -11.478  18.602  -4.376  1.00  0.00    -0.237 OA
ATOM     89  O   UNL     1     -11.532  17.223  -6.429  1.00  0.00    -0.237 OA
ATOM     90  O   UNL     1     -11.091  16.166  -4.247  1.00  0.00    -0.744 OA
ENDBRANCH  86  87
ENDBRANCH  54  79
BRANCH  66  91
ATOM     91  C   UNL     1      -2.233  23.505  -4.790  1.00  0.00     0.058 A 
ATOM     92  C   UNL     1      -2.405  23.711  -3.412  1.00  0.00     0.135 A 
ATOM     93  C   UNL     1      -2.198  24.637  -5.621  1.00  0.00     0.135 A 
ATOM     94  F   UNL     1      -2.455  22.664  -2.573  1.00  0.00    -0.206 F 
ATOM     95  C   UNL     1      -2.558  24.988  -2.882  1.00  0.00     0.059 A 
ATOM     96  C   UNL     1      -2.317  25.925  -5.109  1.00  0.00     0.059 A 
ATOM     97  F   UNL     1      -2.026  24.499  -6.946  1.00  0.00    -0.206 F 
ATOM     98  C   UNL     1      -2.509  26.090  -3.738  1.00  0.00     0.060 A 
BRANCH  98  99
ATOM     99  S   UNL     1      -2.672  27.743  -3.031  1.00  0.00     0.124 S 
ATOM    100  O   UNL     1      -4.088  27.776  -2.683  1.00  0.00    -0.237 OA
ATOM    101  O   UNL     1      -1.743  27.693  -1.906  1.00  0.00    -0.237 OA
ATOM    102  O   UNL     1      -2.273  28.622  -4.126  1.00  0.00    -0.744 OA
ENDBRANCH  98  99
ENDBRANCH  66  91
ENDBRANCH  40  41
ENDBRANCH  32  35
ENDBRANCH  30  31
ENDBRANCH  29  30
ENDBRANCH  28  29
ENDBRANCH   1  28
TORSDOF 17
