REMARK SMILES C[C@@H](C(=O)NCCCCCCNC(=O)c1ccc(-c2c3nc(c(-c4c(F)cc(S(=O)(=O)[O-])cc4F)c4ccc([nH]4)c(-c4c(F)cc(S(=O)(=O)[O-])cc4F)c4nc(c(-c5c(F)cc(S(=O)(=O)[O-])cc5F)c5ccc2[nH]5)C=C4)C=C3)cc1)c1ccc2c3cc(Cl)ccc3n(C(=O)c3cocn3)c2c1
REMARK SMILES IDX 8 1 7 2 6 3 5 4 3 5 4 6 2 8 1 9 81 10 82 11 101 12 83 13
REMARK SMILES IDX 100 14 84 15 92 16 85 17 91 18 86 19 90 20 87 21 89 22 88 23
REMARK SMILES IDX 93 24 94 25 95 26 96 27 99 28 97 29 98 30 9 31 10 32 11 33
REMARK SMILES IDX 12 34 13 35 14 37 15 38 16 39 80 40 17 41 79 42 18 43 19 44
REMARK SMILES IDX 20 45 73 46 21 47 78 48 72 49 74 50 22 51 77 52 71 53 70 54
REMARK SMILES IDX 23 56 57 57 36 58 56 59 37 60 40 61 55 62 75 63 38 64 39 65
REMARK SMILES IDX 54 67 76 68 41 69 24 70 25 71 34 72 26 73 27 74 33 75 35 76
REMARK SMILES IDX 28 77 29 78 30 79 31 80 32 81 58 82 59 83 68 84 60 85 61 86
REMARK SMILES IDX 67 87 69 88 62 89 63 90 64 91 65 92 66 93 42 94 43 95 52 96
REMARK SMILES IDX 44 97 45 98 51 99 53 100 46 101 47 102 48 103 49 104 50 105
REMARK H PARENT 5 7 12 36 74 55 40 66
REMARK Flexibility Score: inf
ROOT
ATOM      1  C   UNL     1       4.971   1.249   2.592  1.00  0.00     0.002 C 
ENDROOT
BRANCH   1   2
ATOM      2  C   UNL     1       4.237   0.520   1.458  1.00  0.00     0.021 C 
BRANCH   2   3
ATOM      3  C   UNL     1       3.412  -0.683   1.925  1.00  0.00     0.116 C 
BRANCH   3   4
ATOM      4  N   UNL     1       2.327  -0.240   2.775  1.00  0.00    -0.356 N 
ATOM      5  C   UNL     1       1.026   0.021   2.459  1.00  0.00     0.227 C 
ATOM      6  O   UNL     1       0.361   0.634   3.297  1.00  0.00    -0.274 OA
ATOM      7  H   UNL     1       2.563  -0.107   3.722  1.00  0.00     0.163 HD
BRANCH   5   8
ATOM      8  C   UNL     1       0.449  -0.483   1.126  1.00  0.00     0.105 C 
ATOM      9  C   UNL     1       0.962   0.302  -0.087  1.00  0.00     0.023 C 
BRANCH   8  10
ATOM     10  C   UNL     1      -1.079  -0.493   1.150  1.00  0.00    -0.034 A 
ATOM     11  C   UNL     1      -1.814   0.670   0.905  1.00  0.00     0.005 A 
ATOM     12  C   UNL     1      -1.757  -1.685   1.460  1.00  0.00     0.032 A 
ATOM     13  C   UNL     1      -3.207   0.646   0.874  1.00  0.00     0.011 A 
ATOM     14  C   UNL     1      -3.168  -1.692   1.489  1.00  0.00     0.058 A 
ATOM     15  C   UNL     1      -3.892  -0.554   1.147  1.00  0.00     0.008 A 
ATOM     16  N   UNL     1      -4.078  -2.714   1.802  1.00  0.00    -0.274 N 
ATOM     17  C   UNL     1      -5.268  -0.894   1.170  1.00  0.00     0.009 A 
ATOM     18  C   UNL     1      -5.380  -2.210   1.637  1.00  0.00     0.057 A 
ATOM     19  C   UNL     1      -6.429  -0.150   0.869  1.00  0.00     0.031 A 
ATOM     20  C   UNL     1      -6.653  -2.749   1.919  1.00  0.00     0.029 A 
ATOM     21  C   UNL     1      -7.681  -0.717   1.083  1.00  0.00     0.041 A 
ATOM     22  C   UNL     1      -7.794  -1.991   1.620  1.00  0.00     0.023 A 
ATOM     23  Cl  UNL     1      -9.096   0.191   0.715  1.00  0.00    -0.084 Cl
BRANCH  16  24
ATOM     24  C   UNL     1      -3.695  -4.008   2.252  1.00  0.00     0.284 C 
ATOM     25  O   UNL     1      -2.615  -4.073   2.847  1.00  0.00    -0.266 OA
BRANCH  24  26
ATOM     26  C   UNL     1      -4.456  -5.234   2.035  1.00  0.00     0.167 A 
ATOM     27  C   UNL     1      -5.333  -5.543   1.015  1.00  0.00     0.231 A 
ATOM     28  N   UNL     1      -4.281  -6.369   2.817  1.00  0.00    -0.211 NA
ATOM     29  O   UNL     1      -5.722  -6.843   1.157  1.00  0.00    -0.451 OA
ATOM     30  C   UNL     1      -5.032  -7.278   2.245  1.00  0.00     0.308 A 
ENDBRANCH  24  26
ENDBRANCH  16  24
ENDBRANCH   8  10
ENDBRANCH   5   8
ENDBRANCH   3   4
ENDBRANCH   2   3
ENDBRANCH   1   2
BRANCH   1  31
ATOM     31  C   UNL     1       5.947   0.381   3.392  1.00  0.00     0.002 C 
BRANCH  31  32
ATOM     32  C   UNL     1       7.001  -0.342   2.551  1.00  0.00     0.021 C 
BRANCH  32  33
ATOM     33  C   UNL     1       7.888   0.578   1.717  1.00  0.00     0.116 C 
BRANCH  33  34
ATOM     34  N   UNL     1       8.709   1.445   2.549  1.00  0.00    -0.352 N 
ATOM     35  C   UNL     1      10.073   1.604   2.546  1.00  0.00     0.251 C 
ATOM     36  H   UNL     1       8.219   1.993   3.203  1.00  0.00     0.163 HD
ATOM     37  O   UNL     1      10.625   2.230   3.445  1.00  0.00    -0.269 OA
BRANCH  35  38
ATOM     38  C   UNL     1      10.873   0.993   1.464  1.00  0.00     0.039 A 
ATOM     39  C   UNL     1      11.990   0.224   1.796  1.00  0.00     0.014 A 
ATOM     40  C   UNL     1      10.502   1.161   0.126  1.00  0.00     0.014 A 
ATOM     41  C   UNL     1      12.693  -0.443   0.790  1.00  0.00     0.010 A 
ATOM     42  C   UNL     1      11.168   0.450  -0.868  1.00  0.00     0.010 A 
ATOM     43  C   UNL     1      12.261  -0.369  -0.545  1.00  0.00    -0.014 A 
BRANCH  43  44
ATOM     44  C   UNL     1      12.907  -1.174  -1.614  1.00  0.00     0.031 A 
ATOM     45  C   UNL     1      13.619  -0.492  -2.749  1.00  0.00     0.074 A 
ATOM     46  C   UNL     1      12.758  -2.514  -1.611  1.00  0.00     0.049 A 
ATOM     47  N   UNL     1      14.135  -1.018  -3.830  1.00  0.00    -0.248 NA
ATOM     48  C   UNL     1      13.744   0.972  -2.675  1.00  0.00     0.031 C 
ATOM     49  C   UNL     1      12.040  -3.284  -0.592  1.00  0.00     0.029 A 
ATOM     50  N   UNL     1      13.177  -3.466  -2.508  1.00  0.00    -0.354 N 
ATOM     51  C   UNL     1      14.623   0.049  -4.575  1.00  0.00     0.074 A 
ATOM     52  C   UNL     1      14.317   1.256  -3.837  1.00  0.00     0.031 C 
ATOM     53  C   UNL     1      12.065  -4.585  -0.922  1.00  0.00     0.029 A 
ATOM     54  C   UNL     1      12.765  -4.740  -2.193  1.00  0.00     0.049 A 
ATOM     55  H   UNL     1      13.721  -3.256  -3.301  1.00  0.00     0.167 HD
ATOM     56  C   UNL     1      15.277   0.020  -5.760  1.00  0.00     0.037 A 
ATOM     57  C   UNL     1      12.909  -5.900  -2.865  1.00  0.00     0.037 A 
ATOM     58  C   UNL     1      15.617  -1.188  -6.464  1.00  0.00     0.049 A 
ATOM     59  C   UNL     1      13.644  -5.902  -4.178  1.00  0.00     0.074 A 
ATOM     60  C   UNL     1      16.382  -1.326  -7.610  1.00  0.00     0.029 A 
ATOM     61  N   UNL     1      15.209  -2.462  -6.099  1.00  0.00    -0.354 N 
ATOM     62  N   UNL     1      14.190  -4.894  -4.815  1.00  0.00    -0.248 NA
ATOM     63  C   UNL     1      13.780  -7.194  -4.865  1.00  0.00     0.031 C 
ATOM     64  C   UNL     1      16.392  -2.678  -7.967  1.00  0.00     0.029 A 
ATOM     65  C   UNL     1      15.671  -3.387  -7.020  1.00  0.00     0.049 A 
ATOM     66  H   UNL     1      14.671  -2.677  -5.304  1.00  0.00     0.167 HD
ATOM     67  C   UNL     1      14.746  -5.433  -5.970  1.00  0.00     0.074 A 
ATOM     68  C   UNL     1      14.487  -6.857  -5.936  1.00  0.00     0.031 C 
ATOM     69  C   UNL     1      15.407  -4.803  -6.971  1.00  0.00     0.037 A 
BRANCH  56  70
ATOM     70  C   UNL     1      15.679   1.327  -6.381  1.00  0.00     0.058 A 
ATOM     71  C   UNL     1      16.743   2.089  -5.873  1.00  0.00     0.135 A 
ATOM     72  C   UNL     1      15.046   1.780  -7.550  1.00  0.00     0.135 A 
ATOM     73  F   UNL     1      17.372   1.708  -4.751  1.00  0.00    -0.206 F 
ATOM     74  C   UNL     1      17.160   3.259  -6.498  1.00  0.00     0.059 A 
ATOM     75  C   UNL     1      15.462   2.936  -8.205  1.00  0.00     0.059 A 
ATOM     76  F   UNL     1      14.022   1.090  -8.075  1.00  0.00    -0.206 F 
ATOM     77  C   UNL     1      16.517   3.672  -7.667  1.00  0.00     0.060 A 
BRANCH  77  78
ATOM     78  S   UNL     1      17.098   5.172  -8.487  1.00  0.00     0.124 S 
ATOM     79  O   UNL     1      16.604   6.207  -7.584  1.00  0.00    -0.237 OA
ATOM     80  O   UNL     1      18.544   4.980  -8.501  1.00  0.00    -0.237 OA
ATOM     81  O   UNL     1      16.449   5.119  -9.793  1.00  0.00    -0.744 OA
ENDBRANCH  77  78
ENDBRANCH  56  70
BRANCH  57  82
ATOM     82  C   UNL     1      12.326  -7.156  -2.321  1.00  0.00     0.058 A 
ATOM     83  C   UNL     1      13.146  -8.184  -1.836  1.00  0.00     0.135 A 
ATOM     84  C   UNL     1      10.937  -7.356  -2.289  1.00  0.00     0.135 A 
ATOM     85  F   UNL     1      14.480  -8.042  -1.853  1.00  0.00    -0.206 F 
ATOM     86  C   UNL     1      12.613  -9.379  -1.361  1.00  0.00     0.059 A 
ATOM     87  C   UNL     1      10.379  -8.531  -1.796  1.00  0.00     0.059 A 
ATOM     88  F   UNL     1      10.107  -6.396  -2.726  1.00  0.00    -0.206 F 
ATOM     89  C   UNL     1      11.226  -9.543  -1.348  1.00  0.00     0.060 A 
BRANCH  89  90
ATOM     90  S   UNL     1      10.540 -11.087  -0.709  1.00  0.00     0.124 S 
ATOM     91  O   UNL     1      10.802 -12.002  -1.813  1.00  0.00    -0.237 OA
ATOM     92  O   UNL     1      11.330 -11.299   0.500  1.00  0.00    -0.237 OA
ATOM     93  O   UNL     1       9.136 -10.757  -0.480  1.00  0.00    -0.744 OA
ENDBRANCH  89  90
ENDBRANCH  57  82
BRANCH  69  94
ATOM     94  C   UNL     1      15.908  -5.643  -8.111  1.00  0.00     0.058 A 
ATOM     95  C   UNL     1      15.034  -6.139  -9.091  1.00  0.00     0.135 A 
ATOM     96  C   UNL     1      17.281  -5.888  -8.269  1.00  0.00     0.135 A 
ATOM     97  F   UNL     1      13.711  -5.940  -8.979  1.00  0.00    -0.206 F 
ATOM     98  C   UNL     1      15.504  -6.855 -10.186  1.00  0.00     0.059 A 
ATOM     99  C   UNL     1      17.776  -6.581  -9.369  1.00  0.00     0.059 A 
ATOM    100  F   UNL     1      18.159  -5.428  -7.363  1.00  0.00    -0.206 F 
ATOM    101  C   UNL     1      16.878  -7.065 -10.320  1.00  0.00     0.060 A 
BRANCH 101 102
ATOM    102  S   UNL     1      17.480  -7.941 -11.780  1.00  0.00     0.124 S 
ATOM    103  O   UNL     1      17.103  -9.316 -11.474  1.00  0.00    -0.237 OA
ATOM    104  O   UNL     1      16.732  -7.303 -12.858  1.00  0.00    -0.237 OA
ATOM    105  O   UNL     1      18.914  -7.667 -11.773  1.00  0.00    -0.744 OA
ENDBRANCH 101 102
ENDBRANCH  69  94
ENDBRANCH  43  44
ENDBRANCH  35  38
ENDBRANCH  33  34
ENDBRANCH  32  33
ENDBRANCH  31  32
ENDBRANCH   1  31
TORSDOF 19
