REMARK SMILES C[C@@H](C(=O)NCCCCCCNC(=O)c1ccc(-c2c3nc(c(-c4c(F)cc(S(=O)(=O)[O-])cc4F)c4ccc([nH]4)c(-c4c(F)cc(S(=O)(=O)[O-])cc4F)c4nc(c(-c5c(F)cc(S(=O)(=O)[O-])cc5F)c5ccc2[nH]5)C=C4)C=C3)cc1)c1ccc(C[C@@H]2CCC[C@@H]2O)cc1F
REMARK SMILES IDX 8 1 7 2 6 3 5 4 3 5 4 6 2 8 1 9 81 10 82 11 93 12 83 13
REMARK SMILES IDX 92 14 94 15 84 16 85 17 86 18 87 19 90 20 88 21 89 22 91 23
REMARK SMILES IDX 9 25 10 26 11 27 12 28 13 29 14 31 15 32 16 33 80 34 17 35
REMARK SMILES IDX 79 36 18 37 19 38 20 39 73 40 21 41 78 42 72 43 74 44 22 45
REMARK SMILES IDX 77 46 71 47 70 48 23 50 57 51 36 52 56 53 37 54 40 55 55 56
REMARK SMILES IDX 75 57 38 58 39 59 54 61 76 62 41 63 24 64 25 65 34 66 26 67
REMARK SMILES IDX 27 68 33 69 35 70 28 71 29 72 30 73 31 74 32 75 58 76 59 77
REMARK SMILES IDX 68 78 60 79 61 80 67 81 69 82 62 83 63 84 64 85 65 86 66 87
REMARK SMILES IDX 42 88 43 89 52 90 44 91 45 92 51 93 53 94 46 95 47 96 48 97
REMARK SMILES IDX 49 98 50 99
REMARK H PARENT 5 7 91 24 12 30 74 49 40 60
REMARK Flexibility Score: inf
ROOT
ATOM      1  C   UNL     1      -9.289   3.941  11.695  1.00  0.00     0.002 C 
ENDROOT
BRANCH   1   2
ATOM      2  C   UNL     1     -10.163   2.996  10.858  1.00  0.00     0.021 C 
BRANCH   2   3
ATOM      3  C   UNL     1     -10.465   3.523   9.453  1.00  0.00     0.116 C 
BRANCH   3   4
ATOM      4  N   UNL     1      -9.261   3.509   8.650  1.00  0.00    -0.356 N 
ATOM      5  C   UNL     1      -8.850   2.609   7.712  1.00  0.00     0.227 C 
ATOM      6  O   UNL     1      -7.688   2.718   7.311  1.00  0.00    -0.274 OA
ATOM      7  H   UNL     1      -8.646   4.262   8.805  1.00  0.00     0.163 HD
BRANCH   5   8
ATOM      8  C   UNL     1      -9.830   1.546   7.177  1.00  0.00     0.108 C 
ATOM      9  C   UNL     1     -10.178   0.489   8.233  1.00  0.00     0.023 C 
BRANCH   8  10
ATOM     10  C   UNL     1      -9.273   0.909   5.909  1.00  0.00    -0.000 A 
ATOM     11  C   UNL     1      -8.526  -0.276   5.939  1.00  0.00     0.008 A 
ATOM     12  C   UNL     1      -9.423   1.559   4.680  1.00  0.00     0.127 A 
ATOM     13  C   UNL     1      -7.954  -0.789   4.777  1.00  0.00     0.004 A 
ATOM     14  C   UNL     1      -8.824   1.068   3.520  1.00  0.00     0.043 A 
ATOM     15  F   UNL     1     -10.132   2.695   4.607  1.00  0.00    -0.207 F 
ATOM     16  C   UNL     1      -8.053  -0.101   3.565  1.00  0.00    -0.045 A 
BRANCH  16  17
ATOM     17  C   UNL     1      -7.308  -0.583   2.346  1.00  0.00     0.041 C 
BRANCH  17  18
ATOM     18  C   UNL     1      -5.780  -0.342   2.292  1.00  0.00     0.022 C 
ATOM     19  C   UNL     1      -4.959  -1.032   3.390  1.00  0.00     0.007 C 
ATOM     20  C   UNL     1      -5.303   1.111   2.390  1.00  0.00     0.117 C 
ATOM     21  C   UNL     1      -4.658   0.030   4.453  1.00  0.00     0.003 C 
ATOM     22  C   UNL     1      -5.122   1.366   3.881  1.00  0.00     0.032 C 
BRANCH  20  23
ATOM     23  O   UNL     1      -6.183   2.026   1.771  1.00  0.00    -0.393 OA
ATOM     24  H   UNL     1      -7.056   1.968   2.190  1.00  0.00     0.210 HD
ENDBRANCH  20  23
ENDBRANCH  17  18
ENDBRANCH  16  17
ENDBRANCH   8  10
ENDBRANCH   5   8
ENDBRANCH   3   4
ENDBRANCH   2   3
ENDBRANCH   1   2
BRANCH   1  25
ATOM     25  C   UNL     1      -9.871   5.344  11.895  1.00  0.00     0.002 C 
BRANCH  25  26
ATOM     26  C   UNL     1     -11.281   5.371  12.488  1.00  0.00     0.021 C 
BRANCH  26  27
ATOM     27  C   UNL     1     -11.392   4.728  13.866  1.00  0.00     0.116 C 
BRANCH  27  28
ATOM     28  N   UNL     1     -10.618   5.451  14.863  1.00  0.00    -0.352 N 
ATOM     29  C   UNL     1     -11.035   5.999  16.049  1.00  0.00     0.251 C 
ATOM     30  H   UNL     1      -9.662   5.563  14.657  1.00  0.00     0.163 HD
ATOM     31  O   UNL     1     -10.300   6.770  16.663  1.00  0.00    -0.269 OA
BRANCH  29  32
ATOM     32  C   UNL     1     -12.377   5.671  16.575  1.00  0.00     0.039 A 
ATOM     33  C   UNL     1     -13.182   6.698  17.072  1.00  0.00     0.014 A 
ATOM     34  C   UNL     1     -12.839   4.352  16.570  1.00  0.00     0.014 A 
ATOM     35  C   UNL     1     -14.476   6.409  17.509  1.00  0.00     0.010 A 
ATOM     36  C   UNL     1     -14.154   4.079  16.933  1.00  0.00     0.010 A 
ATOM     37  C   UNL     1     -14.986   5.103  17.410  1.00  0.00    -0.014 A 
BRANCH  37  38
ATOM     38  C   UNL     1     -16.386   4.790  17.795  1.00  0.00     0.031 A 
ATOM     39  C   UNL     1     -16.665   3.840  18.927  1.00  0.00     0.074 A 
ATOM     40  C   UNL     1     -17.405   5.316  17.085  1.00  0.00     0.049 A 
ATOM     41  N   UNL     1     -17.814   3.391  19.365  1.00  0.00    -0.248 NA
ATOM     42  C   UNL     1     -15.499   3.302  19.647  1.00  0.00     0.031 C 
ATOM     43  C   UNL     1     -17.261   6.218  15.940  1.00  0.00     0.029 A 
ATOM     44  N   UNL     1     -18.762   5.162  17.214  1.00  0.00    -0.354 N 
ATOM     45  C   UNL     1     -17.509   2.517  20.402  1.00  0.00     0.074 A 
ATOM     46  C   UNL     1     -16.067   2.451  20.489  1.00  0.00     0.031 C 
ATOM     47  C   UNL     1     -18.479   6.556  15.489  1.00  0.00     0.029 A 
ATOM     48  C   UNL     1     -19.490   5.863  16.281  1.00  0.00     0.049 A 
ATOM     49  H   UNL     1     -19.177   4.602  17.910  1.00  0.00     0.167 HD
ATOM     50  C   UNL     1     -18.355   1.850  21.224  1.00  0.00     0.037 A 
ATOM     51  C   UNL     1     -20.820   5.931  16.079  1.00  0.00     0.037 A 
ATOM     52  C   UNL     1     -19.791   1.933  21.139  1.00  0.00     0.049 A 
ATOM     53  C   UNL     1     -21.740   5.161  16.988  1.00  0.00     0.074 A 
ATOM     54  C   UNL     1     -20.736   1.331  21.952  1.00  0.00     0.029 A 
ATOM     55  N   UNL     1     -20.490   2.657  20.183  1.00  0.00    -0.354 N 
ATOM     56  N   UNL     1     -21.436   4.383  18.000  1.00  0.00    -0.248 NA
ATOM     57  C   UNL     1     -23.181   5.279  16.732  1.00  0.00     0.031 C 
ATOM     58  C   UNL     1     -22.004   1.649  21.456  1.00  0.00     0.029 A 
ATOM     59  C   UNL     1     -21.853   2.498  20.372  1.00  0.00     0.049 A 
ATOM     60  H   UNL     1     -20.078   3.204  19.476  1.00  0.00     0.167 HD
ATOM     61  C   UNL     1     -22.649   3.945  18.520  1.00  0.00     0.074 A 
ATOM     62  C   UNL     1     -23.690   4.553  17.718  1.00  0.00     0.031 C 
ATOM     63  C   UNL     1     -22.880   3.116  19.569  1.00  0.00     0.037 A 
BRANCH  50  64
ATOM     64  C   UNL     1     -17.750   0.975  22.288  1.00  0.00     0.058 A 
ATOM     65  C   UNL     1     -17.055   1.516  23.382  1.00  0.00     0.135 A 
ATOM     66  C   UNL     1     -17.899  -0.421  22.237  1.00  0.00     0.135 A 
ATOM     67  F   UNL     1     -16.869   2.843  23.476  1.00  0.00    -0.206 F 
ATOM     68  C   UNL     1     -16.504   0.706  24.369  1.00  0.00     0.059 A 
ATOM     69  C   UNL     1     -17.383  -1.249  23.230  1.00  0.00     0.059 A 
ATOM     70  F   UNL     1     -18.554  -0.995  21.215  1.00  0.00    -0.206 F 
ATOM     71  C   UNL     1     -16.674  -0.677  24.285  1.00  0.00     0.060 A 
BRANCH  71  72
ATOM     72  S   UNL     1     -15.956  -1.712  25.578  1.00  0.00     0.124 S 
ATOM     73  O   UNL     1     -14.531  -1.599  25.283  1.00  0.00    -0.237 OA
ATOM     74  O   UNL     1     -16.405  -1.045  26.795  1.00  0.00    -0.237 OA
ATOM     75  O   UNL     1     -16.545  -3.024  25.330  1.00  0.00    -0.744 OA
ENDBRANCH  71  72
ENDBRANCH  50  64
BRANCH  51  76
ATOM     76  C   UNL     1     -21.363   6.777  14.982  1.00  0.00     0.058 A 
ATOM     77  C   UNL     1     -22.084   7.948  15.261  1.00  0.00     0.135 A 
ATOM     78  C   UNL     1     -21.162   6.442  13.633  1.00  0.00     0.135 A 
ATOM     79  F   UNL     1     -22.310   8.308  16.534  1.00  0.00    -0.206 F 
ATOM     80  C   UNL     1     -22.601   8.747  14.247  1.00  0.00     0.059 A 
ATOM     81  C   UNL     1     -21.644   7.241  12.601  1.00  0.00     0.059 A 
ATOM     82  F   UNL     1     -20.465   5.342  13.310  1.00  0.00    -0.206 F 
ATOM     83  C   UNL     1     -22.371   8.386  12.918  1.00  0.00     0.060 A 
BRANCH  83  84
ATOM     84  S   UNL     1     -23.005   9.458  11.610  1.00  0.00     0.124 S 
ATOM     85  O   UNL     1     -24.439   9.210  11.696  1.00  0.00    -0.237 OA
ATOM     86  O   UNL     1     -22.555  10.775  12.050  1.00  0.00    -0.237 OA
ATOM     87  O   UNL     1     -22.347   8.948  10.411  1.00  0.00    -0.744 OA
ENDBRANCH  83  84
ENDBRANCH  51  76
BRANCH  63  88
ATOM     88  C   UNL     1     -24.313   2.843  19.938  1.00  0.00     0.058 A 
ATOM     89  C   UNL     1     -25.145   2.043  19.140  1.00  0.00     0.135 A 
ATOM     90  C   UNL     1     -24.842   3.344  21.140  1.00  0.00     0.135 A 
ATOM     91  F   UNL     1     -24.692   1.545  17.978  1.00  0.00    -0.206 F 
ATOM     92  C   UNL     1     -26.458   1.766  19.509  1.00  0.00     0.059 A 
ATOM     93  C   UNL     1     -26.142   3.054  21.544  1.00  0.00     0.059 A 
ATOM     94  F   UNL     1     -24.087   4.106  21.946  1.00  0.00    -0.206 F 
ATOM     95  C   UNL     1     -26.946   2.272  20.715  1.00  0.00     0.060 A 
BRANCH  95  96
ATOM     96  S   UNL     1     -28.637   1.870  21.200  1.00  0.00     0.124 S 
ATOM     97  O   UNL     1     -29.412   2.682  20.267  1.00  0.00    -0.237 OA
ATOM     98  O   UNL     1     -28.689   0.428  20.981  1.00  0.00    -0.237 OA
ATOM     99  O   UNL     1     -28.700   2.289  22.597  1.00  0.00    -0.744 OA
ENDBRANCH  95  96
ENDBRANCH  63  88
ENDBRANCH  37  38
ENDBRANCH  29  32
ENDBRANCH  27  28
ENDBRANCH  26  27
ENDBRANCH  25  26
ENDBRANCH   1  25
TORSDOF 20
