REMARK SMILES Cc1cc(Cl)ccc1-c1ccc(C(=O)NCCCCCCNC(=O)c2ccc(-c3c4nc(c(-c5c(F)cc(S(=O)(=O)[O-])cc5F)c5ccc([nH]5)c(-c5c(F)cc(S(=O)(=O)[O-])cc5F)c5nc(c(-c6c(F)cc(S(=O)(=O)[O-])cc6F)c6ccc3[nH]6)C=C5)C=C4)cc2)c(Cl)c1
REMARK SMILES IDX 19 1 18 2 17 3 16 4 15 5 13 6 14 7 12 9 9 10 10 11 93 12
REMARK SMILES IDX 11 13 91 14 92 15 8 16 1 17 2 18 3 19 4 20 7 21 5 22 6 23
REMARK SMILES IDX 20 24 21 25 22 26 23 27 24 29 25 30 26 31 90 32 27 33 89 34
REMARK SMILES IDX 28 35 29 36 30 37 83 38 31 39 88 40 82 41 84 42 32 43 87 44
REMARK SMILES IDX 81 45 80 46 33 48 67 49 46 50 66 51 47 52 50 53 65 54 85 55
REMARK SMILES IDX 48 56 49 57 64 59 86 60 51 61 34 62 35 63 44 64 36 65 37 66
REMARK SMILES IDX 43 67 45 68 38 69 39 70 40 71 41 72 42 73 68 74 69 75 78 76
REMARK SMILES IDX 70 77 71 78 77 79 79 80 72 81 73 82 74 83 75 84 76 85 52 86
REMARK SMILES IDX 53 87 62 88 54 89 55 90 61 91 63 92 56 93 57 94 58 95 59 96
REMARK SMILES IDX 60 97
REMARK H PARENT 15 8 22 28 84 47 50 58
REMARK Flexibility Score: inf
ROOT
ATOM      1  C   UNL     1      -9.667  -5.442   3.964  1.00  0.00     0.002 C 
ENDROOT
BRANCH   1   2
ATOM      2  C   UNL     1      -9.601  -3.938   3.689  1.00  0.00     0.002 C 
BRANCH   2   3
ATOM      3  C   UNL     1      -8.210  -3.430   3.303  1.00  0.00     0.021 C 
BRANCH   3   4
ATOM      4  C   UNL     1      -7.688  -3.974   1.965  1.00  0.00     0.116 C 
BRANCH   4   5
ATOM      5  N   UNL     1      -8.057  -3.061   0.903  1.00  0.00    -0.352 N 
ATOM      6  C   UNL     1      -7.390  -2.091   0.208  1.00  0.00     0.252 C 
ATOM      7  O   UNL     1      -8.079  -1.421  -0.570  1.00  0.00    -0.269 OA
ATOM      8  H   UNL     1      -8.995  -3.160   0.620  1.00  0.00     0.163 HD
BRANCH   6   9
ATOM      9  C   UNL     1      -5.917  -1.847   0.217  1.00  0.00     0.058 A 
ATOM     10  C   UNL     1      -3.177  -1.139  -0.153  1.00  0.00    -0.017 A 
ATOM     11  C   UNL     1      -4.069  -1.065  -1.220  1.00  0.00     0.009 A 
ATOM     12  C   UNL     1      -3.663  -1.573   1.085  1.00  0.00     0.030 A 
ATOM     13  C   UNL     1      -5.409  -1.434  -1.038  1.00  0.00     0.016 A 
ATOM     14  C   UNL     1      -5.023  -1.859   1.291  1.00  0.00     0.054 A 
ATOM     15  Cl  UNL     1      -5.442  -1.975   2.956  1.00  0.00    -0.083 Cl
BRANCH  10  16
ATOM     16  C   UNL     1      -1.788  -0.679  -0.248  1.00  0.00    -0.015 A 
ATOM     17  C   UNL     1      -2.461   1.795  -0.059  1.00  0.00     0.045 C 
ATOM     18  C   UNL     1      -1.441   0.688  -0.148  1.00  0.00    -0.042 A 
ATOM     19  C   UNL     1      -0.083   1.055  -0.125  1.00  0.00     0.024 A 
ATOM     20  C   UNL     1       0.916   0.085  -0.178  1.00  0.00     0.041 A 
ATOM     21  C   UNL     1      -0.759  -1.638  -0.321  1.00  0.00     0.010 A 
ATOM     22  Cl  UNL     1       2.569   0.557  -0.099  1.00  0.00    -0.084 Cl
ATOM     23  C   UNL     1       0.584  -1.260  -0.281  1.00  0.00     0.021 A 
ENDBRANCH  10  16
ENDBRANCH   6   9
ENDBRANCH   4   5
ENDBRANCH   3   4
ENDBRANCH   2   3
ENDBRANCH   1   2
BRANCH   1  24
ATOM     24  C   UNL     1      -8.655  -5.955   4.994  1.00  0.00     0.021 C 
BRANCH  24  25
ATOM     25  C   UNL     1      -8.778  -5.309   6.371  1.00  0.00     0.116 C 
BRANCH  25  26
ATOM     26  N   UNL     1     -10.083  -5.569   6.962  1.00  0.00    -0.352 N 
ATOM     27  C   UNL     1     -10.390  -6.249   8.109  1.00  0.00     0.251 C 
ATOM     28  H   UNL     1     -10.852  -5.205   6.467  1.00  0.00     0.163 HD
ATOM     29  O   UNL     1     -11.548  -6.627   8.309  1.00  0.00    -0.269 OA
BRANCH  27  30
ATOM     30  C   UNL     1      -9.336  -6.526   9.104  1.00  0.00     0.039 A 
ATOM     31  C   UNL     1      -9.285  -7.780   9.717  1.00  0.00     0.014 A 
ATOM     32  C   UNL     1      -8.411  -5.535   9.447  1.00  0.00     0.014 A 
ATOM     33  C   UNL     1      -8.277  -8.054  10.643  1.00  0.00     0.010 A 
ATOM     34  C   UNL     1      -7.363  -5.834  10.310  1.00  0.00     0.010 A 
ATOM     35  C   UNL     1      -7.293  -7.091  10.927  1.00  0.00    -0.014 A 
BRANCH  35  36
ATOM     36  C   UNL     1      -6.189  -7.377  11.876  1.00  0.00     0.031 A 
ATOM     37  C   UNL     1      -6.072  -6.595  13.155  1.00  0.00     0.074 A 
ATOM     38  C   UNL     1      -5.263  -8.300  11.556  1.00  0.00     0.049 A 
ATOM     39  N   UNL     1      -5.163  -6.673  14.092  1.00  0.00    -0.248 NA
ATOM     40  C   UNL     1      -7.100  -5.571  13.400  1.00  0.00     0.031 C 
ATOM     41  C   UNL     1      -5.249  -9.092  10.325  1.00  0.00     0.029 A 
ATOM     42  N   UNL     1      -4.153  -8.728  12.239  1.00  0.00    -0.354 N 
ATOM     43  C   UNL     1      -5.501  -5.705  15.030  1.00  0.00     0.074 A 
ATOM     44  C   UNL     1      -6.660  -5.008  14.515  1.00  0.00     0.031 C 
ATOM     45  C   UNL     1      -4.209  -9.939  10.360  1.00  0.00     0.029 A 
ATOM     46  C   UNL     1      -3.459  -9.723  11.593  1.00  0.00     0.049 A 
ATOM     47  H   UNL     1      -3.880  -8.357  13.109  1.00  0.00     0.167 HD
ATOM     48  C   UNL     1      -4.916  -5.437  16.223  1.00  0.00     0.037 A 
ATOM     49  C   UNL     1      -2.346 -10.388  11.958  1.00  0.00     0.037 A 
ATOM     50  C   UNL     1      -3.765  -6.141  16.727  1.00  0.00     0.049 A 
ATOM     51  C   UNL     1      -1.695 -10.056  13.271  1.00  0.00     0.074 A 
ATOM     52  C   UNL     1      -3.121  -5.984  17.941  1.00  0.00     0.029 A 
ATOM     53  N   UNL     1      -3.080  -7.133  16.037  1.00  0.00    -0.354 N 
ATOM     54  N   UNL     1      -2.061  -9.180  14.177  1.00  0.00    -0.248 NA
ATOM     55  C   UNL     1      -0.479 -10.806  13.614  1.00  0.00     0.031 C 
ATOM     56  C   UNL     1      -2.017  -6.844  17.963  1.00  0.00     0.029 A 
ATOM     57  C   UNL     1      -2.004  -7.578  16.787  1.00  0.00     0.049 A 
ATOM     58  H   UNL     1      -3.324  -7.470  15.144  1.00  0.00     0.167 HD
ATOM     59  C   UNL     1      -1.139  -9.294  15.211  1.00  0.00     0.074 A 
ATOM     60  C   UNL     1      -0.203 -10.329  14.821  1.00  0.00     0.031 C 
ATOM     61  C   UNL     1      -1.078  -8.608  16.381  1.00  0.00     0.037 A 
BRANCH  48  62
ATOM     62  C   UNL     1      -5.513  -4.326  17.046  1.00  0.00     0.058 A 
ATOM     63  C   UNL     1      -6.795  -4.431  17.612  1.00  0.00     0.135 A 
ATOM     64  C   UNL     1      -4.808  -3.129  17.252  1.00  0.00     0.135 A 
ATOM     65  F   UNL     1      -7.521  -5.548  17.440  1.00  0.00    -0.206 F 
ATOM     66  C   UNL     1      -7.381  -3.370  18.296  1.00  0.00     0.059 A 
ATOM     67  C   UNL     1      -5.361  -2.067  17.962  1.00  0.00     0.059 A 
ATOM     68  F   UNL     1      -3.576  -2.972  16.742  1.00  0.00    -0.206 F 
ATOM     69  C   UNL     1      -6.659  -2.187  18.455  1.00  0.00     0.060 A 
BRANCH  69  70
ATOM     70  S   UNL     1      -7.451  -0.800  19.297  1.00  0.00     0.124 S 
ATOM     71  O   UNL     1      -8.387  -0.338  18.276  1.00  0.00    -0.237 OA
ATOM     72  O   UNL     1      -8.052  -1.441  20.462  1.00  0.00    -0.237 OA
ATOM     73  O   UNL     1      -6.340   0.102  19.584  1.00  0.00    -0.744 OA
ENDBRANCH  69  70
ENDBRANCH  48  62
BRANCH  49  74
ATOM     74  C   UNL     1      -1.820 -11.472  11.088  1.00  0.00     0.058 A 
ATOM     75  C   UNL     1      -1.945 -12.816  11.471  1.00  0.00     0.135 A 
ATOM     76  C   UNL     1      -1.231 -11.198   9.844  1.00  0.00     0.135 A 
ATOM     77  F   UNL     1      -2.496 -13.127  12.654  1.00  0.00    -0.206 F 
ATOM     78  C   UNL     1      -1.506 -13.851  10.653  1.00  0.00     0.059 A 
ATOM     79  C   UNL     1      -0.805 -12.217   8.998  1.00  0.00     0.059 A 
ATOM     80  F   UNL     1      -1.103  -9.930   9.425  1.00  0.00    -0.206 F 
ATOM     81  C   UNL     1      -0.944 -13.541   9.413  1.00  0.00     0.060 A 
BRANCH  81  82
ATOM     82  S   UNL     1      -0.450 -14.898   8.328  1.00  0.00     0.124 S 
ATOM     83  O   UNL     1       0.725 -15.415   9.019  1.00  0.00    -0.237 OA
ATOM     84  O   UNL     1      -1.633 -15.752   8.351  1.00  0.00    -0.237 OA
ATOM     85  O   UNL     1      -0.193 -14.232   7.054  1.00  0.00    -0.744 OA
ENDBRANCH  81  82
ENDBRANCH  49  74
BRANCH  61  86
ATOM     86  C   UNL     1       0.024  -8.976  17.337  1.00  0.00     0.058 A 
ATOM     87  C   UNL     1       1.364  -8.644  17.087  1.00  0.00     0.135 A 
ATOM     88  C   UNL     1      -0.274  -9.634  18.543  1.00  0.00     0.135 A 
ATOM     89  F   UNL     1       1.705  -8.022  15.947  1.00  0.00    -0.206 F 
ATOM     90  C   UNL     1       2.374  -8.973  17.985  1.00  0.00     0.059 A 
ATOM     91  C   UNL     1       0.716  -9.947  19.468  1.00  0.00     0.059 A 
ATOM     92  F   UNL     1      -1.541  -9.966  18.837  1.00  0.00    -0.206 F 
ATOM     93  C   UNL     1       2.040  -9.624  19.174  1.00  0.00     0.060 A 
BRANCH  93  94
ATOM     94  S   UNL     1       3.356 -10.019  20.345  1.00  0.00     0.124 S 
ATOM     95  O   UNL     1       4.021 -11.131  19.675  1.00  0.00    -0.237 OA
ATOM     96  O   UNL     1       4.110  -8.770  20.400  1.00  0.00    -0.237 OA
ATOM     97  O   UNL     1       2.634 -10.362  21.566  1.00  0.00    -0.744 OA
ENDBRANCH  93  94
ENDBRANCH  61  86
ENDBRANCH  35  36
ENDBRANCH  27  30
ENDBRANCH  25  26
ENDBRANCH  24  25
ENDBRANCH   1  24
TORSDOF 17
