REMARK SMILES O=C(NCCCCCCNC(=O)[C@@H]1CS[C@H](c2cccc([N+](=O)[O-])c2)[NH2+]1)c1ccc(-c2c3nc(c(-c4c(F)cc(S(=O)(=O)[O-])cc4F)c4ccc([nH]4)c(-c4c(F)cc(S(=O)(=O)[O-])cc4F)c4nc(c(-c5c(F)cc(S(=O)(=O)[O-])cc5F)c5ccc2[nH]5)C=C4)C=C3)cc1
REMARK SMILES IDX 6 1 5 2 4 3 3 4 1 5 2 6 27 8 28 9 92 10 29 11 91 12 30 13
REMARK SMILES IDX 31 14 32 15 85 16 33 17 90 18 84 19 86 20 34 21 89 22 83 23
REMARK SMILES IDX 82 24 35 26 69 27 48 28 68 29 49 30 52 31 67 32 87 33 50 34
REMARK SMILES IDX 51 35 66 37 88 38 53 39 36 40 37 41 46 42 38 43 39 44 45 45
REMARK SMILES IDX 47 46 40 47 41 48 42 49 43 50 44 51 70 52 71 53 80 54 72 55
REMARK SMILES IDX 73 56 79 57 81 58 74 59 75 60 76 61 77 62 78 63 54 64 55 65
REMARK SMILES IDX 64 66 56 67 57 68 63 69 65 70 58 71 59 72 60 73 61 74 62 75
REMARK SMILES IDX 7 76 8 77 9 78 10 79 11 80 12 82 13 83 14 84 26 85 15 86
REMARK SMILES IDX 16 87 17 90 18 91 25 92 19 93 21 94 20 95 22 96 23 97 24 98
REMARK H PARENT 3 7 86 25 52 36 10 81 26 88 26 89
REMARK Flexibility Score: inf
ROOT
ATOM      1  C   UNL     1      13.774   6.212  -8.970  1.00  0.00     0.002 C 
ENDROOT
BRANCH   1   2
ATOM      2  C   UNL     1      14.487   7.085  -7.936  1.00  0.00     0.021 C 
BRANCH   2   3
ATOM      3  C   UNL     1      15.684   6.429  -7.258  1.00  0.00     0.116 C 
BRANCH   3   4
ATOM      4  N   UNL     1      16.827   6.302  -8.145  1.00  0.00    -0.352 N 
ATOM      5  O   UNL     1      18.894   6.800  -8.915  1.00  0.00    -0.269 OA
ATOM      6  C   UNL     1      18.085   6.848  -8.002  1.00  0.00     0.251 C 
ATOM      7  H   UNL     1      16.686   5.755  -8.951  1.00  0.00     0.163 HD
BRANCH   6   8
ATOM      8  C   UNL     1      18.428   7.516  -6.727  1.00  0.00     0.039 A 
ATOM      9  C   UNL     1      18.158   6.882  -5.512  1.00  0.00     0.014 A 
ATOM     10  C   UNL     1      18.989   8.796  -6.746  1.00  0.00     0.014 A 
ATOM     11  C   UNL     1      18.309   7.585  -4.324  1.00  0.00     0.010 A 
ATOM     12  C   UNL     1      19.230   9.465  -5.541  1.00  0.00     0.010 A 
ATOM     13  C   UNL     1      18.867   8.876  -4.321  1.00  0.00    -0.014 A 
BRANCH  13  14
ATOM     14  C   UNL     1      19.128   9.533  -3.014  1.00  0.00     0.031 A 
ATOM     15  C   UNL     1      18.419  10.794  -2.604  1.00  0.00     0.074 A 
ATOM     16  C   UNL     1      19.984   8.930  -2.165  1.00  0.00     0.049 A 
ATOM     17  N   UNL     1      18.494  11.445  -1.471  1.00  0.00    -0.248 NA
ATOM     18  C   UNL     1      17.517  11.412  -3.589  1.00  0.00     0.031 C 
ATOM     19  C   UNL     1      20.754   7.719  -2.471  1.00  0.00     0.029 A 
ATOM     20  N   UNL     1      20.330   9.223  -0.873  1.00  0.00    -0.354 N 
ATOM     21  C   UNL     1      17.661  12.550  -1.604  1.00  0.00     0.074 A 
ATOM     22  C   UNL     1      17.110  12.498  -2.942  1.00  0.00     0.031 C 
ATOM     23  C   UNL     1      21.432   7.340  -1.379  1.00  0.00     0.029 A 
ATOM     24  C   UNL     1      21.197   8.311  -0.318  1.00  0.00     0.049 A 
ATOM     25  H   UNL     1      19.991  10.010  -0.388  1.00  0.00     0.167 HD
ATOM     26  C   UNL     1      17.377  13.511  -0.691  1.00  0.00     0.037 A 
ATOM     27  C   UNL     1      21.753   8.263   0.906  1.00  0.00     0.037 A 
ATOM     28  C   UNL     1      17.928  13.550   0.642  1.00  0.00     0.049 A 
ATOM     29  C   UNL     1      21.407   9.330   1.901  1.00  0.00     0.074 A 
ATOM     30  C   UNL     1      17.701  14.481   1.642  1.00  0.00     0.029 A 
ATOM     31  N   UNL     1      18.811  12.616   1.165  1.00  0.00    -0.354 N 
ATOM     32  N   UNL     1      20.608  10.360   1.757  1.00  0.00    -0.248 NA
ATOM     33  C   UNL     1      22.037   9.232   3.223  1.00  0.00     0.031 C 
ATOM     34  C   UNL     1      18.469  14.125   2.758  1.00  0.00     0.029 A 
ATOM     35  C   UNL     1      19.143  12.951   2.468  1.00  0.00     0.049 A 
ATOM     36  H   UNL     1      19.152  11.829   0.680  1.00  0.00     0.167 HD
ATOM     37  C   UNL     1      20.642  11.036   2.969  1.00  0.00     0.074 A 
ATOM     38  C   UNL     1      21.510  10.277   3.846  1.00  0.00     0.031 C 
ATOM     39  C   UNL     1      20.020  12.189   3.321  1.00  0.00     0.037 A 
BRANCH  26  40
ATOM     40  C   UNL     1      16.427  14.607  -1.095  1.00  0.00     0.058 A 
ATOM     41  C   UNL     1      15.048  14.374  -1.216  1.00  0.00     0.135 A 
ATOM     42  C   UNL     1      16.889  15.917  -1.303  1.00  0.00     0.135 A 
ATOM     43  F   UNL     1      14.553  13.138  -1.042  1.00  0.00    -0.206 F 
ATOM     44  C   UNL     1      14.162  15.397  -1.542  1.00  0.00     0.059 A 
ATOM     45  C   UNL     1      16.018  16.960  -1.609  1.00  0.00     0.059 A 
ATOM     46  F   UNL     1      18.198  16.196  -1.200  1.00  0.00    -0.206 F 
ATOM     47  C   UNL     1      14.657  16.688  -1.737  1.00  0.00     0.060 A 
BRANCH  47  48
ATOM     48  S   UNL     1      13.491  18.006  -2.143  1.00  0.00     0.124 S 
ATOM     49  O   UNL     1      13.164  17.687  -3.529  1.00  0.00    -0.237 OA
ATOM     50  O   UNL     1      12.422  17.787  -1.174  1.00  0.00    -0.237 OA
ATOM     51  O   UNL     1      14.272  19.223  -1.946  1.00  0.00    -0.744 OA
ENDBRANCH  47  48
ENDBRANCH  26  40
BRANCH  27  52
ATOM     52  C   UNL     1      22.703   7.171   1.240  1.00  0.00     0.058 A 
ATOM     53  C   UNL     1      22.362   6.161   2.150  1.00  0.00     0.135 A 
ATOM     54  C   UNL     1      23.964   7.103   0.627  1.00  0.00     0.135 A 
ATOM     55  F   UNL     1      21.167   6.183   2.761  1.00  0.00    -0.206 F 
ATOM     56  C   UNL     1      23.244   5.129   2.455  1.00  0.00     0.059 A 
ATOM     57  C   UNL     1      24.851   6.067   0.893  1.00  0.00     0.059 A 
ATOM     58  F   UNL     1      24.328   8.034  -0.269  1.00  0.00    -0.206 F 
ATOM     59  C   UNL     1      24.487   5.091   1.820  1.00  0.00     0.060 A 
BRANCH  59  60
ATOM     60  S   UNL     1      25.609   3.724   2.179  1.00  0.00     0.124 S 
ATOM     61  O   UNL     1      26.162   4.132   3.466  1.00  0.00    -0.237 OA
ATOM     62  O   UNL     1      24.705   2.579   2.207  1.00  0.00    -0.237 OA
ATOM     63  O   UNL     1      26.538   3.751   1.053  1.00  0.00    -0.744 OA
ENDBRANCH  59  60
ENDBRANCH  27  52
BRANCH  39  64
ATOM     64  C   UNL     1      20.262  12.684   4.718  1.00  0.00     0.058 A 
ATOM     65  C   UNL     1      21.492  13.252   5.089  1.00  0.00     0.135 A 
ATOM     66  C   UNL     1      19.259  12.590   5.694  1.00  0.00     0.135 A 
ATOM     67  F   UNL     1      22.486  13.357   4.193  1.00  0.00    -0.206 F 
ATOM     68  C   UNL     1      21.731  13.674   6.392  1.00  0.00     0.059 A 
ATOM     69  C   UNL     1      19.468  13.028   6.997  1.00  0.00     0.059 A 
ATOM     70  F   UNL     1      18.063  12.063   5.386  1.00  0.00    -0.206 F 
ATOM     71  C   UNL     1      20.715  13.551   7.341  1.00  0.00     0.060 A 
BRANCH  71  72
ATOM     72  S   UNL     1      21.036  14.095   9.032  1.00  0.00     0.124 S 
ATOM     73  O   UNL     1      21.837  12.990   9.548  1.00  0.00    -0.237 OA
ATOM     74  O   UNL     1      21.747  15.353   8.829  1.00  0.00    -0.237 OA
ATOM     75  O   UNL     1      19.699  14.225   9.604  1.00  0.00    -0.744 OA
ENDBRANCH  71  72
ENDBRANCH  39  64
ENDBRANCH  13  14
ENDBRANCH   6   8
ENDBRANCH   3   4
ENDBRANCH   2   3
ENDBRANCH   1   2
BRANCH   1  76
ATOM     76  C   UNL     1      13.392   4.811  -8.486  1.00  0.00     0.002 C 
BRANCH  76  77
ATOM     77  C   UNL     1      12.639   4.772  -7.152  1.00  0.00     0.021 C 
BRANCH  77  78
ATOM     78  C   UNL     1      11.190   5.240  -7.205  1.00  0.00     0.116 C 
BRANCH  78  79
ATOM     79  N   UNL     1      10.359   4.336  -7.978  1.00  0.00    -0.351 N 
ATOM     80  C   UNL     1       9.340   3.490  -7.704  1.00  0.00     0.279 C 
ATOM     81  H   UNL     1      10.594   4.339  -8.934  1.00  0.00     0.163 HD
ATOM     82  O   UNL     1       8.918   2.860  -8.687  1.00  0.00    -0.268 OA
BRANCH  80  83
ATOM     83  C   UNL     1       8.685   3.227  -6.329  1.00  0.00     0.283 C 
ATOM     84  C   UNL     1       8.723   4.248  -5.214  1.00  0.00     0.151 C 
ATOM     85  N   UNL     1       9.045   1.881  -5.798  1.00  0.00    -0.321 N 
ATOM     86  S   UNL     1       9.998   3.665  -4.076  1.00  0.00    -0.088 SA
ATOM     87  C   UNL     1      10.131   2.011  -4.823  1.00  0.00     0.274 C 
ATOM     88  H   UNL     1       9.349   1.283  -6.566  1.00  0.00     0.348 HD
ATOM     89  H   UNL     1       8.231   1.468  -5.344  1.00  0.00     0.348 HD
BRANCH  87  90
ATOM     90  C   UNL     1      11.519   1.706  -5.371  1.00  0.00     0.027 A 
ATOM     91  C   UNL     1      12.652   1.871  -4.545  1.00  0.00     0.011 A 
ATOM     92  C   UNL     1      11.728   1.232  -6.681  1.00  0.00     0.096 A 
ATOM     93  C   UNL     1      13.947   1.648  -5.024  1.00  0.00     0.008 A 
ATOM     94  C   UNL     1      13.031   1.033  -7.166  1.00  0.00     0.269 A 
ATOM     95  C   UNL     1      14.143   1.242  -6.341  1.00  0.00     0.085 A 
BRANCH  94  96
ATOM     96  N   UNL     1      13.237   0.674  -8.575  1.00  0.00     0.062 N 
ATOM     97  O   UNL     1      14.394   0.724  -9.018  1.00  0.00    -0.258 OA
ATOM     98  O   UNL     1      12.245   0.356  -9.245  1.00  0.00    -0.258 OA
ENDBRANCH  94  96
ENDBRANCH  87  90
ENDBRANCH  80  83
ENDBRANCH  78  79
ENDBRANCH  77  78
ENDBRANCH  76  77
ENDBRANCH   1  76
TORSDOF 18
