REMARK SMILES Cc1ccnc(C(=O)c2[nH]c3cc(F)ccc3c2CC(=O)NCCCCCCNC(=O)c2ccc(-c3c4nc(c(-c5c(F)cc(S(=O)(=O)[O-])cc5F)c5ccc([nH]5)c(-c5c(F)cc(S(=O)(=O)[O-])cc5F)c5nc(c(-c6c(F)cc(S(=O)(=O)[O-])cc6F)c6ccc3[nH]6)C=C5)C=C4)cc2)c1
REMARK SMILES IDX 25 1 24 2 23 3 22 4 20 5 21 6 19 8 18 9 9 10 10 11 11 12
REMARK SMILES IDX 17 14 12 15 16 16 13 17 15 18 14 19 7 20 8 21 6 22 1 23 2 24
REMARK SMILES IDX 3 25 98 26 4 27 5 28 26 29 27 30 28 31 29 32 30 33 31 35
REMARK SMILES IDX 32 36 33 37 97 38 34 39 96 40 35 41 36 42 37 43 90 44 38 45
REMARK SMILES IDX 95 46 89 47 91 48 39 49 94 50 88 51 87 52 40 54 74 55 53 56
REMARK SMILES IDX 73 57 54 58 57 59 72 60 92 61 55 62 56 63 71 65 93 66 58 67
REMARK SMILES IDX 41 68 42 69 51 70 43 71 44 72 50 73 52 74 45 75 46 76 47 77
REMARK SMILES IDX 48 78 49 79 75 80 76 81 85 82 77 83 78 84 84 85 86 86 79 87
REMARK SMILES IDX 80 88 81 89 82 90 83 91 59 92 60 93 69 94 61 95 62 96 68 97
REMARK SMILES IDX 70 98 63 99 64 100 65 101 66 102 67 103
REMARK H PARENT 22 7 10 13 29 34 91 53 57 64
REMARK Flexibility Score: inf
ROOT
ATOM      1  C   UNL     1       4.842  -6.870  -1.322  1.00  0.00     0.002 C 
ENDROOT
BRANCH   1   2
ATOM      2  C   UNL     1       3.501  -6.940  -0.583  1.00  0.00     0.021 C 
BRANCH   2   3
ATOM      3  C   UNL     1       3.595  -6.873   0.940  1.00  0.00     0.116 C 
BRANCH   3   4
ATOM      4  N   UNL     1       4.052  -5.583   1.420  1.00  0.00    -0.356 N 
ATOM      5  C   UNL     1       3.334  -4.565   1.979  1.00  0.00     0.224 C 
ATOM      6  O   UNL     1       3.947  -3.600   2.443  1.00  0.00    -0.275 OA
ATOM      7  H   UNL     1       5.018  -5.418   1.330  1.00  0.00     0.163 HD
BRANCH   5   8
ATOM      8  C   UNL     1       1.825  -4.672   2.130  1.00  0.00     0.138 C 
BRANCH   8   9
ATOM      9  C   UNL     1       1.054  -4.707   0.841  1.00  0.00    -0.002 A 
ATOM     10  C   UNL     1       1.053  -3.755  -0.174  1.00  0.00     0.093 A 
ATOM     11  N   UNL     1       0.243  -4.225  -1.182  1.00  0.00    -0.351 N 
ATOM     12  C   UNL     1      -0.373  -5.391  -0.806  1.00  0.00     0.049 A 
ATOM     13  H   UNL     1       0.122  -3.784  -2.054  1.00  0.00     0.167 HD
ATOM     14  C   UNL     1       0.110  -5.721   0.460  1.00  0.00     0.004 A 
ATOM     15  C   UNL     1      -1.305  -6.177  -1.493  1.00  0.00     0.066 A 
ATOM     16  C   UNL     1      -0.372  -6.899   1.075  1.00  0.00     0.013 A 
ATOM     17  C   UNL     1      -1.759  -7.329  -0.856  1.00  0.00     0.125 A 
ATOM     18  C   UNL     1      -1.309  -7.695   0.405  1.00  0.00     0.040 A 
ATOM     19  F   UNL     1      -2.659  -8.102  -1.477  1.00  0.00    -0.207 F 
BRANCH  10  20
ATOM     20  C   UNL     1       1.785  -2.504  -0.282  1.00  0.00     0.227 C 
ATOM     21  O   UNL     1       2.998  -2.489  -0.457  1.00  0.00    -0.285 OA
BRANCH  20  22
ATOM     22  C   UNL     1       0.993  -1.218  -0.236  1.00  0.00     0.113 A 
ATOM     23  C   UNL     1      -2.476   0.106   0.547  1.00  0.00     0.044 C 
ATOM     24  C   UNL     1      -1.036   0.026   0.137  1.00  0.00    -0.047 A 
ATOM     25  C   UNL     1      -0.348   1.177  -0.247  1.00  0.00     0.023 A 
ATOM     26  C   UNL     1      -0.345  -1.190   0.161  1.00  0.00     0.036 A 
ATOM     27  C   UNL     1       0.983   1.065  -0.612  1.00  0.00     0.112 A 
ATOM     28  N   UNL     1       1.661  -0.100  -0.626  1.00  0.00    -0.253 NA
ENDBRANCH  20  22
ENDBRANCH  10  20
ENDBRANCH   8   9
ENDBRANCH   5   8
ENDBRANCH   3   4
ENDBRANCH   2   3
ENDBRANCH   1   2
BRANCH   1  29
ATOM     29  C   UNL     1       5.854  -7.969  -0.983  1.00  0.00     0.002 C 
BRANCH  29  30
ATOM     30  C   UNL     1       5.351  -9.412  -1.105  1.00  0.00     0.021 C 
BRANCH  30  31
ATOM     31  C   UNL     1       4.788  -9.810  -2.471  1.00  0.00     0.116 C 
BRANCH  31  32
ATOM     32  N   UNL     1       5.787  -9.756  -3.523  1.00  0.00    -0.352 N 
ATOM     33  C   UNL     1       5.969 -10.599  -4.592  1.00  0.00     0.251 C 
ATOM     34  H   UNL     1       6.425  -9.009  -3.462  1.00  0.00     0.163 HD
ATOM     35  O   UNL     1       6.960 -10.468  -5.305  1.00  0.00    -0.269 OA
BRANCH  33  36
ATOM     36  C   UNL     1       4.997 -11.679  -4.880  1.00  0.00     0.039 A 
ATOM     37  C   UNL     1       5.488 -12.958  -5.165  1.00  0.00     0.014 A 
ATOM     38  C   UNL     1       3.621 -11.432  -4.931  1.00  0.00     0.014 A 
ATOM     39  C   UNL     1       4.603 -14.000  -5.453  1.00  0.00     0.010 A 
ATOM     40  C   UNL     1       2.735 -12.478  -5.205  1.00  0.00     0.010 A 
ATOM     41  C   UNL     1       3.220 -13.769  -5.464  1.00  0.00    -0.014 A 
BRANCH  41  42
ATOM     42  C   UNL     1       2.270 -14.871  -5.746  1.00  0.00     0.031 A 
ATOM     43  C   UNL     1       1.639 -15.002  -7.101  1.00  0.00     0.074 A 
ATOM     44  C   UNL     1       1.948 -15.739  -4.770  1.00  0.00     0.049 A 
ATOM     45  N   UNL     1       0.697 -15.820  -7.494  1.00  0.00    -0.248 NA
ATOM     46  C   UNL     1       2.121 -14.085  -8.144  1.00  0.00     0.031 C 
ATOM     47  C   UNL     1       2.483 -15.718  -3.408  1.00  0.00     0.029 A 
ATOM     48  N   UNL     1       1.083 -16.803  -4.775  1.00  0.00    -0.354 N 
ATOM     49  C   UNL     1       0.443 -15.495  -8.819  1.00  0.00     0.074 A 
ATOM     50  C   UNL     1       1.350 -14.420  -9.170  1.00  0.00     0.031 C 
ATOM     51  C   UNL     1       1.935 -16.725  -2.708  1.00  0.00     0.029 A 
ATOM     52  C   UNL     1       1.003 -17.451  -3.568  1.00  0.00     0.049 A 
ATOM     53  H   UNL     1       0.569 -17.076  -5.569  1.00  0.00     0.167 HD
ATOM     54  C   UNL     1      -0.476 -16.028  -9.659  1.00  0.00     0.037 A 
ATOM     55  C   UNL     1       0.257 -18.507  -3.193  1.00  0.00     0.037 A 
ATOM     56  C   UNL     1      -1.368 -17.105  -9.324  1.00  0.00     0.049 A 
ATOM     57  C   UNL     1      -0.674 -19.152  -4.176  1.00  0.00     0.074 A 
ATOM     58  C   UNL     1      -2.377 -17.666 -10.089  1.00  0.00     0.029 A 
ATOM     59  N   UNL     1      -1.340 -17.804  -8.128  1.00  0.00    -0.354 N 
ATOM     60  N   UNL     1      -0.946 -18.792  -5.406  1.00  0.00    -0.248 NA
ATOM     61  C   UNL     1      -1.396 -20.349  -3.720  1.00  0.00     0.031 C 
ATOM     62  C   UNL     1      -2.949 -18.717  -9.358  1.00  0.00     0.029 A 
ATOM     63  C   UNL     1      -2.293 -18.809  -8.142  1.00  0.00     0.049 A 
ATOM     64  H   UNL     1      -0.731 -17.614  -7.378  1.00  0.00     0.167 HD
ATOM     65  C   UNL     1      -1.881 -19.708  -5.869  1.00  0.00     0.074 A 
ATOM     66  C   UNL     1      -2.114 -20.652  -4.795  1.00  0.00     0.031 C 
ATOM     67  C   UNL     1      -2.503 -19.750  -7.073  1.00  0.00     0.037 A 
BRANCH  54  68
ATOM     68  C   UNL     1      -0.569 -15.414 -11.022  1.00  0.00     0.058 A 
ATOM     69  C   UNL     1       0.243 -15.855 -12.076  1.00  0.00     0.135 A 
ATOM     70  C   UNL     1      -1.455 -14.354 -11.265  1.00  0.00     0.135 A 
ATOM     71  F   UNL     1       1.118 -16.855 -11.881  1.00  0.00    -0.206 F 
ATOM     72  C   UNL     1       0.198 -15.248 -13.327  1.00  0.00     0.059 A 
ATOM     73  C   UNL     1      -1.520 -13.736 -12.508  1.00  0.00     0.059 A 
ATOM     74  F   UNL     1      -2.243 -13.891 -10.281  1.00  0.00    -0.206 F 
ATOM     75  C   UNL     1      -0.676 -14.178 -13.528  1.00  0.00     0.060 A 
BRANCH  75  76
ATOM     76  S   UNL     1      -0.723 -13.344 -15.129  1.00  0.00     0.124 S 
ATOM     77  O   UNL     1       0.196 -12.233 -14.902  1.00  0.00    -0.237 OA
ATOM     78  O   UNL     1      -0.254 -14.372 -16.053  1.00  0.00    -0.237 OA
ATOM     79  O   UNL     1      -2.130 -12.982 -15.265  1.00  0.00    -0.744 OA
ENDBRANCH  75  76
ENDBRANCH  54  68
BRANCH  55  80
ATOM     80  C   UNL     1       0.367 -19.014  -1.807  1.00  0.00     0.058 A 
ATOM     81  C   UNL     1       1.271 -20.035  -1.487  1.00  0.00     0.135 A 
ATOM     82  C   UNL     1      -0.389 -18.447  -0.773  1.00  0.00     0.135 A 
ATOM     83  F   UNL     1       2.013 -20.602  -2.451  1.00  0.00    -0.206 F 
ATOM     84  C   UNL     1       1.432 -20.476  -0.178  1.00  0.00     0.059 A 
ATOM     85  C   UNL     1      -0.243 -18.868   0.544  1.00  0.00     0.059 A 
ATOM     86  F   UNL     1      -1.258 -17.460  -1.039  1.00  0.00    -0.206 F 
ATOM     87  C   UNL     1       0.672 -19.883   0.831  1.00  0.00     0.060 A 
BRANCH  87  88
ATOM     88  S   UNL     1       0.927 -20.372   2.552  1.00  0.00     0.124 S 
ATOM     89  O   UNL     1      -0.158 -21.326   2.749  1.00  0.00    -0.237 OA
ATOM     90  O   UNL     1       2.274 -20.934   2.537  1.00  0.00    -0.237 OA
ATOM     91  O   UNL     1       0.797 -19.102   3.262  1.00  0.00    -0.744 OA
ENDBRANCH  87  88
ENDBRANCH  55  80
BRANCH  67  92
ATOM     92  C   UNL     1      -3.493 -20.853  -7.285  1.00  0.00     0.058 A 
ATOM     93  C   UNL     1      -4.840 -20.689  -6.929  1.00  0.00     0.135 A 
ATOM     94  C   UNL     1      -3.101 -22.072  -7.856  1.00  0.00     0.135 A 
ATOM     95  F   UNL     1      -5.257 -19.540  -6.376  1.00  0.00    -0.206 F 
ATOM     96  C   UNL     1      -5.770 -21.705  -7.126  1.00  0.00     0.059 A 
ATOM     97  C   UNL     1      -4.015 -23.101  -8.063  1.00  0.00     0.059 A 
ATOM     98  F   UNL     1      -1.821 -22.274  -8.206  1.00  0.00    -0.206 F 
ATOM     99  C   UNL     1      -5.345 -22.912  -7.685  1.00  0.00     0.060 A 
BRANCH  99 100
ATOM    100  S   UNL     1      -6.544 -24.235  -7.960  1.00  0.00     0.124 S 
ATOM    101  O   UNL     1      -6.450 -24.978  -6.708  1.00  0.00    -0.237 OA
ATOM    102  O   UNL     1      -7.792 -23.508  -8.171  1.00  0.00    -0.237 OA
ATOM    103  O   UNL     1      -6.017 -24.914  -9.140  1.00  0.00    -0.744 OA
ENDBRANCH  99 100
ENDBRANCH  67  92
ENDBRANCH  41  42
ENDBRANCH  33  36
ENDBRANCH  31  32
ENDBRANCH  30  31
ENDBRANCH  29  30
ENDBRANCH   1  29
TORSDOF 19
