REMARK SMILES CNC(=O)C[N@@H+]1CC[C@@H](C(=O)NCCCCCCNC(=O)c2ccc(-c3c4nc(c(-c5c(F)cc(S(=O)(=O)[O-])cc5F)c5ccc([nH]5)c(-c5c(F)cc(S(=O)(=O)[O-])cc5F)c5nc(c(-c6c(F)cc(S(=O)(=O)[O-])cc6F)c6ccc3[nH]6)C=C5)C=C4)cc2)[C@H]1C
REMARK SMILES IDX 16 1 15 2 14 3 13 4 12 5 10 6 11 7 9 9 6 10 7 11 88 12 8 14
REMARK SMILES IDX 89 15 5 16 3 17 1 18 2 19 4 21 17 22 18 23 19 24 20 25 21 27
REMARK SMILES IDX 22 28 23 29 87 30 24 31 86 32 25 33 26 34 27 35 80 36 28 37
REMARK SMILES IDX 85 38 79 39 81 40 29 41 84 42 78 43 77 44 30 46 64 47 43 48
REMARK SMILES IDX 63 49 44 50 47 51 62 52 82 53 45 54 46 55 61 57 83 58 48 59
REMARK SMILES IDX 31 60 32 61 41 62 33 63 34 64 40 65 42 66 35 67 36 68 37 69
REMARK SMILES IDX 38 70 39 71 65 72 66 73 75 74 67 75 68 76 74 77 76 78 69 79
REMARK SMILES IDX 70 80 71 81 72 82 73 83 49 84 50 85 59 86 51 87 52 88 58 89
REMARK SMILES IDX 60 90 53 91 54 92 55 93 56 94 57 95
REMARK H PARENT 12 8 6 13 2 20 19 26 81 45 47 56
REMARK Flexibility Score: inf
ROOT
ATOM      1  C   UNL     1       0.225  -4.079   2.365  1.00  0.00     0.002 C 
ENDROOT
BRANCH   1   2
ATOM      2  C   UNL     1      -0.099  -4.370   0.896  1.00  0.00     0.002 C 
BRANCH   2   3
ATOM      3  C   UNL     1      -0.184  -3.139  -0.008  1.00  0.00     0.021 C 
BRANCH   3   4
ATOM      4  C   UNL     1       1.143  -2.401  -0.212  1.00  0.00     0.116 C 
BRANCH   4   5
ATOM      5  N   UNL     1       1.875  -2.938  -1.341  1.00  0.00    -0.356 N 
ATOM      6  C   UNL     1       2.238  -2.376  -2.521  1.00  0.00     0.229 C 
ATOM      7  O   UNL     1       2.831  -3.111  -3.321  1.00  0.00    -0.275 OA
ATOM      8  H   UNL     1       2.158  -3.875  -1.233  1.00  0.00     0.163 HD
BRANCH   6   9
ATOM      9  C   UNL     1       2.016  -0.911  -2.885  1.00  0.00     0.142 C 
ATOM     10  N   UNL     1       0.641   0.685  -1.824  1.00  0.00    -0.324 N 
ATOM     11  C   UNL     1       1.964   1.301  -1.937  1.00  0.00     0.263 C 
ATOM     12  C   UNL     1       0.602  -0.301  -2.924  1.00  0.00     0.194 C 
ATOM     13  H   UNL     1       0.510   0.240  -0.916  1.00  0.00     0.348 HD
ATOM     14  C   UNL     1       2.841   0.062  -2.033  1.00  0.00     0.081 C 
ATOM     15  C   UNL     1      -0.588  -1.247  -2.892  1.00  0.00     0.076 C 
BRANCH  10  16
ATOM     16  C   UNL     1      -0.475   1.643  -1.829  1.00  0.00     0.363 C 
BRANCH  16  17
ATOM     17  C   UNL     1      -0.369   2.716  -0.735  1.00  0.00     0.274 C 
ATOM     18  C   UNL     1       0.145   1.083   1.130  1.00  0.00     0.143 C 
ATOM     19  N   UNL     1      -0.132   2.381   0.568  1.00  0.00    -0.354 N 
ATOM     20  H   UNL     1      -0.154   3.126   1.210  1.00  0.00     0.163 HD
ATOM     21  O   UNL     1      -0.549   3.907  -1.006  1.00  0.00    -0.269 OA
ENDBRANCH  16  17
ENDBRANCH  10  16
ENDBRANCH   6   9
ENDBRANCH   4   5
ENDBRANCH   3   4
ENDBRANCH   2   3
ENDBRANCH   1   2
BRANCH   1  22
ATOM     22  C   UNL     1      -0.705  -3.087   3.073  1.00  0.00     0.021 C 
BRANCH  22  23
ATOM     23  C   UNL     1      -2.196  -3.425   3.027  1.00  0.00     0.116 C 
BRANCH  23  24
ATOM     24  N   UNL     1      -2.485  -4.735   3.583  1.00  0.00    -0.352 N 
ATOM     25  C   UNL     1      -3.305  -5.102   4.621  1.00  0.00     0.251 C 
ATOM     26  H   UNL     1      -2.016  -5.482   3.145  1.00  0.00     0.163 HD
ATOM     27  O   UNL     1      -3.257  -6.254   5.045  1.00  0.00    -0.269 OA
BRANCH  25  28
ATOM     28  C   UNL     1      -4.229  -4.127   5.245  1.00  0.00     0.039 A 
ATOM     29  C   UNL     1      -4.359  -4.129   6.637  1.00  0.00     0.014 A 
ATOM     30  C   UNL     1      -4.999  -3.250   4.476  1.00  0.00     0.014 A 
ATOM     31  C   UNL     1      -5.213  -3.215   7.258  1.00  0.00     0.010 A 
ATOM     32  C   UNL     1      -5.805  -2.296   5.101  1.00  0.00     0.010 A 
ATOM     33  C   UNL     1      -5.920  -2.268   6.498  1.00  0.00    -0.014 A 
BRANCH  33  34
ATOM     34  C   UNL     1      -6.753  -1.231   7.164  1.00  0.00     0.031 A 
ATOM     35  C   UNL     1      -8.246  -1.205   6.980  1.00  0.00     0.074 A 
ATOM     36  C   UNL     1      -6.149  -0.281   7.906  1.00  0.00     0.049 A 
ATOM     37  N   UNL     1      -9.124  -0.370   7.477  1.00  0.00    -0.248 NA
ATOM     38  C   UNL     1      -8.829  -2.236   6.108  1.00  0.00     0.031 C 
ATOM     39  C   UNL     1      -4.703  -0.161   8.110  1.00  0.00     0.029 A 
ATOM     40  N   UNL     1      -6.671   0.769   8.620  1.00  0.00    -0.354 N 
ATOM     41  C   UNL     1     -10.357  -0.767   6.973  1.00  0.00     0.074 A 
ATOM     42  C   UNL     1     -10.109  -1.890   6.094  1.00  0.00     0.031 C 
ATOM     43  C   UNL     1      -4.457   0.886   8.914  1.00  0.00     0.029 A 
ATOM     44  C   UNL     1      -5.720   1.529   9.259  1.00  0.00     0.049 A 
ATOM     45  H   UNL     1      -7.636   0.959   8.671  1.00  0.00     0.167 HD
ATOM     46  C   UNL     1     -11.585  -0.256   7.235  1.00  0.00     0.037 A 
ATOM     47  C   UNL     1      -5.849   2.623  10.034  1.00  0.00     0.037 A 
ATOM     48  C   UNL     1     -11.828   0.848   8.130  1.00  0.00     0.049 A 
ATOM     49  C   UNL     1      -7.224   3.157  10.327  1.00  0.00     0.074 A 
ATOM     50  C   UNL     1     -13.042   1.392   8.515  1.00  0.00     0.029 A 
ATOM     51  N   UNL     1     -10.842   1.579   8.775  1.00  0.00    -0.354 N 
ATOM     52  N   UNL     1      -8.385   2.719   9.903  1.00  0.00    -0.248 NA
ATOM     53  C   UNL     1      -7.307   4.326  11.213  1.00  0.00     0.031 C 
ATOM     54  C   UNL     1     -12.787   2.479   9.359  1.00  0.00     0.029 A 
ATOM     55  C   UNL     1     -11.418   2.584   9.537  1.00  0.00     0.049 A 
ATOM     56  H   UNL     1      -9.875   1.410   8.703  1.00  0.00     0.167 HD
ATOM     57  C   UNL     1      -9.338   3.549  10.483  1.00  0.00     0.074 A 
ATOM     58  C   UNL     1      -8.618   4.498  11.307  1.00  0.00     0.031 C 
ATOM     59  C   UNL     1     -10.687   3.529  10.345  1.00  0.00     0.037 A 
BRANCH  46  60
ATOM     60  C   UNL     1     -12.767  -0.889   6.552  1.00  0.00     0.058 A 
ATOM     61  C   UNL     1     -13.224  -2.169   6.905  1.00  0.00     0.135 A 
ATOM     62  C   UNL     1     -13.482  -0.190   5.566  1.00  0.00     0.135 A 
ATOM     63  F   UNL     1     -12.571  -2.888   7.832  1.00  0.00    -0.206 F 
ATOM     64  C   UNL     1     -14.331  -2.744   6.289  1.00  0.00     0.059 A 
ATOM     65  C   UNL     1     -14.609  -0.734   4.954  1.00  0.00     0.059 A 
ATOM     66  F   UNL     1     -13.091   1.038   5.189  1.00  0.00    -0.206 F 
ATOM     67  C   UNL     1     -15.017  -2.018   5.314  1.00  0.00     0.060 A 
BRANCH  67  68
ATOM     68  S   UNL     1     -16.459  -2.773   4.532  1.00  0.00     0.124 S 
ATOM     69  O   UNL     1     -15.833  -3.767   3.666  1.00  0.00    -0.237 OA
ATOM     70  O   UNL     1     -17.194  -3.303   5.676  1.00  0.00    -0.237 OA
ATOM     71  O   UNL     1     -17.098  -1.655   3.844  1.00  0.00    -0.744 OA
ENDBRANCH  67  68
ENDBRANCH  46  60
BRANCH  47  72
ATOM     72  C   UNL     1      -4.640   3.274  10.605  1.00  0.00     0.058 A 
ATOM     73  C   UNL     1      -4.356   3.196  11.977  1.00  0.00     0.135 A 
ATOM     74  C   UNL     1      -3.737   3.974   9.790  1.00  0.00     0.135 A 
ATOM     75  F   UNL     1      -5.192   2.542  12.798  1.00  0.00    -0.206 F 
ATOM     76  C   UNL     1      -3.231   3.803  12.524  1.00  0.00     0.059 A 
ATOM     77  C   UNL     1      -2.592   4.568  10.309  1.00  0.00     0.059 A 
ATOM     78  F   UNL     1      -3.953   4.060   8.468  1.00  0.00    -0.206 F 
ATOM     79  C   UNL     1      -2.353   4.486  11.681  1.00  0.00     0.060 A 
BRANCH  79  80
ATOM     80  S   UNL     1      -0.867   5.226  12.391  1.00  0.00     0.124 S 
ATOM     81  O   UNL     1      -1.415   6.400  13.060  1.00  0.00    -0.237 OA
ATOM     82  O   UNL     1      -0.379   4.162  13.263  1.00  0.00    -0.237 OA
ATOM     83  O   UNL     1      -0.036   5.495  11.220  1.00  0.00    -0.744 OA
ENDBRANCH  79  80
ENDBRANCH  47  72
BRANCH  59  84
ATOM     84  C   UNL     1     -11.469   4.558  11.114  1.00  0.00     0.058 A 
ATOM     85  C   UNL     1     -11.454   5.915  10.752  1.00  0.00     0.135 A 
ATOM     86  C   UNL     1     -12.251   4.183  12.218  1.00  0.00     0.135 A 
ATOM     87  F   UNL     1     -10.717   6.327   9.708  1.00  0.00    -0.206 F 
ATOM     88  C   UNL     1     -12.156   6.869  11.480  1.00  0.00     0.059 A 
ATOM     89  C   UNL     1     -12.984   5.117  12.944  1.00  0.00     0.059 A 
ATOM     90  F   UNL     1     -12.311   2.898  12.599  1.00  0.00    -0.206 F 
ATOM     91  C   UNL     1     -12.914   6.461  12.579  1.00  0.00     0.060 A 
BRANCH  91  92
ATOM     92  S   UNL     1     -13.822   7.707  13.518  1.00  0.00     0.124 S 
ATOM     93  O   UNL     1     -12.750   8.334  14.284  1.00  0.00    -0.237 OA
ATOM     94  O   UNL     1     -14.412   8.528  12.464  1.00  0.00    -0.237 OA
ATOM     95  O   UNL     1     -14.773   6.920  14.296  1.00  0.00    -0.744 OA
ENDBRANCH  91  92
ENDBRANCH  59  84
ENDBRANCH  33  34
ENDBRANCH  25  28
ENDBRANCH  23  24
ENDBRANCH  22  23
ENDBRANCH   1  22
TORSDOF 18
