REMARK SMILES O=C(NCCCCCCNC(=O)c1ccc(S(=O)(=O)Cc2cnoc2)c(F)c1)c1ccc(-c2c3nc(c(-c4c(F)cc(S(=O)(=O)[O-])cc4F)c4ccc([nH]4)c(-c4c(F)cc(S(=O)(=O)[O-])cc4F)c4nc(c(-c5c(F)cc(S(=O)(=O)[O-])cc5F)c5ccc2[nH]5)C=C4)C=C3)cc1
REMARK SMILES IDX 6 1 5 2 4 3 3 4 1 5 2 6 29 8 30 9 94 10 31 11 93 12 32 13
REMARK SMILES IDX 33 14 34 15 87 16 35 17 92 18 86 19 88 20 36 21 91 22 85 23
REMARK SMILES IDX 84 24 37 26 71 27 50 28 70 29 51 30 54 31 69 32 89 33 52 34
REMARK SMILES IDX 53 35 68 37 90 38 55 39 38 40 39 41 48 42 40 43 41 44 47 45
REMARK SMILES IDX 49 46 42 47 43 48 44 49 45 50 46 51 72 52 73 53 82 54 74 55
REMARK SMILES IDX 75 56 81 57 83 58 76 59 77 60 78 61 79 62 80 63 56 64 57 65
REMARK SMILES IDX 66 66 58 67 59 68 65 69 67 70 60 71 61 72 62 73 63 74 64 75
REMARK SMILES IDX 7 76 8 77 9 78 10 79 11 80 12 82 13 83 14 84 28 85 15 86
REMARK SMILES IDX 26 87 16 88 27 89 17 90 18 91 19 92 20 93 21 94 22 95 25 96
REMARK SMILES IDX 23 97 24 98
REMARK H PARENT 3 7 88 25 54 36 10 81
REMARK Flexibility Score: inf
ROOT
ATOM      1  C   UNL     1       4.115   1.590  -3.739  1.00  0.00     0.002 C 
ENDROOT
BRANCH   1   2
ATOM      2  C   UNL     1       4.561   0.431  -2.847  1.00  0.00     0.021 C 
BRANCH   2   3
ATOM      3  C   UNL     1       4.363   0.644  -1.353  1.00  0.00     0.116 C 
BRANCH   3   4
ATOM      4  N   UNL     1       2.963   0.700  -0.966  1.00  0.00    -0.352 N 
ATOM      5  O   UNL     1       1.100   0.092   0.152  1.00  0.00    -0.269 OA
ATOM      6  C   UNL     1       2.321   0.027   0.049  1.00  0.00     0.251 C 
ATOM      7  H   UNL     1       2.397   1.300  -1.503  1.00  0.00     0.163 HD
BRANCH   6   8
ATOM      8  C   UNL     1       3.107  -0.798   0.996  1.00  0.00     0.039 A 
ATOM      9  C   UNL     1       4.299  -0.317   1.539  1.00  0.00     0.014 A 
ATOM     10  C   UNL     1       2.646  -2.073   1.342  1.00  0.00     0.014 A 
ATOM     11  C   UNL     1       5.099  -1.159   2.303  1.00  0.00     0.010 A 
ATOM     12  C   UNL     1       3.412  -2.888   2.186  1.00  0.00     0.010 A 
ATOM     13  C   UNL     1       4.659  -2.448   2.651  1.00  0.00    -0.014 A 
BRANCH  13  14
ATOM     14  C   UNL     1       5.503  -3.267   3.561  1.00  0.00     0.031 A 
ATOM     15  C   UNL     1       6.157  -4.541   3.099  1.00  0.00     0.074 A 
ATOM     16  C   UNL     1       5.740  -2.796   4.802  1.00  0.00     0.049 A 
ATOM     17  N   UNL     1       6.995  -5.311   3.745  1.00  0.00    -0.248 NA
ATOM     18  C   UNL     1       5.831  -5.018   1.745  1.00  0.00     0.031 C 
ATOM     19  C   UNL     1       5.146  -1.578   5.364  1.00  0.00     0.029 A 
ATOM     20  N   UNL     1       6.569  -3.246   5.797  1.00  0.00    -0.354 N 
ATOM     21  C   UNL     1       7.289  -6.365   2.888  1.00  0.00     0.074 A 
ATOM     22  C   UNL     1       6.522  -6.150   1.680  1.00  0.00     0.031 C 
ATOM     23  C   UNL     1       5.691  -1.335   6.564  1.00  0.00     0.029 A 
ATOM     24  C   UNL     1       6.625  -2.408   6.886  1.00  0.00     0.049 A 
ATOM     25  H   UNL     1       7.075  -4.088   5.737  1.00  0.00     0.167 HD
ATOM     26  C   UNL     1       8.130  -7.409   3.091  1.00  0.00     0.037 A 
ATOM     27  C   UNL     1       7.348  -2.487   8.018  1.00  0.00     0.037 A 
ATOM     28  C   UNL     1       8.907  -7.604   4.289  1.00  0.00     0.049 A 
ATOM     29  C   UNL     1       8.269  -3.655   8.213  1.00  0.00     0.074 A 
ATOM     30  C   UNL     1       9.800  -8.623   4.578  1.00  0.00     0.029 A 
ATOM     31  N   UNL     1       8.893  -6.765   5.393  1.00  0.00    -0.354 N 
ATOM     32  N   UNL     1       8.532  -4.639   7.387  1.00  0.00    -0.248 NA
ATOM     33  C   UNL     1       8.979  -3.733   9.496  1.00  0.00     0.031 C 
ATOM     34  C   UNL     1      10.302  -8.417   5.867  1.00  0.00     0.029 A 
ATOM     35  C   UNL     1       9.750  -7.250   6.368  1.00  0.00     0.049 A 
ATOM     36  H   UNL     1       8.354  -5.944   5.472  1.00  0.00     0.167 HD
ATOM     37  C   UNL     1       9.436  -5.457   8.053  1.00  0.00     0.074 A 
ATOM     38  C   UNL     1       9.699  -4.835   9.335  1.00  0.00     0.031 C 
ATOM     39  C   UNL     1       9.988  -6.625   7.644  1.00  0.00     0.037 A 
BRANCH  26  40
ATOM     40  C   UNL     1       8.273  -8.432   1.998  1.00  0.00     0.058 A 
ATOM     41  C   UNL     1       7.733  -9.719   2.150  1.00  0.00     0.135 A 
ATOM     42  C   UNL     1       9.038  -8.174   0.850  1.00  0.00     0.135 A 
ATOM     43  F   UNL     1       6.987 -10.017   3.226  1.00  0.00    -0.206 F 
ATOM     44  C   UNL     1       7.970 -10.723   1.217  1.00  0.00     0.059 A 
ATOM     45  C   UNL     1       9.274  -9.158  -0.106  1.00  0.00     0.059 A 
ATOM     46  F   UNL     1       9.558  -6.953   0.646  1.00  0.00    -0.206 F 
ATOM     47  C   UNL     1       8.751 -10.436   0.096  1.00  0.00     0.060 A 
BRANCH  47  48
ATOM     48  S   UNL     1       9.057 -11.751  -1.103  1.00  0.00     0.124 S 
ATOM     49  O   UNL     1       9.960 -12.627  -0.365  1.00  0.00    -0.237 OA
ATOM     50  O   UNL     1       7.713 -12.272  -1.336  1.00  0.00    -0.237 OA
ATOM     51  O   UNL     1       9.649 -11.044  -2.235  1.00  0.00    -0.744 OA
ENDBRANCH  47  48
ENDBRANCH  26  40
BRANCH  27  52
ATOM     52  C   UNL     1       7.228  -1.423   9.047  1.00  0.00     0.058 A 
ATOM     53  C   UNL     1       6.050  -1.265   9.793  1.00  0.00     0.135 A 
ATOM     54  C   UNL     1       8.278  -0.524   9.282  1.00  0.00     0.135 A 
ATOM     55  F   UNL     1       5.012  -2.093   9.597  1.00  0.00    -0.206 F 
ATOM     56  C   UNL     1       5.906  -0.237  10.717  1.00  0.00     0.059 A 
ATOM     57  C   UNL     1       8.169   0.497  10.221  1.00  0.00     0.059 A 
ATOM     58  F   UNL     1       9.428  -0.644   8.600  1.00  0.00    -0.206 F 
ATOM     59  C   UNL     1       6.971   0.642  10.921  1.00  0.00     0.060 A 
BRANCH  59  60
ATOM     60  S   UNL     1       6.771   1.968  12.129  1.00  0.00     0.124 S 
ATOM     61  O   UNL     1       5.924   2.903  11.395  1.00  0.00    -0.237 OA
ATOM     62  O   UNL     1       6.136   1.277  13.246  1.00  0.00    -0.237 OA
ATOM     63  O   UNL     1       8.141   2.413  12.367  1.00  0.00    -0.744 OA
ENDBRANCH  59  60
ENDBRANCH  27  52
BRANCH  39  64
ATOM     64  C   UNL     1      10.923  -7.308   8.599  1.00  0.00     0.058 A 
ATOM     65  C   UNL     1      12.307  -7.307   8.370  1.00  0.00     0.135 A 
ATOM     66  C   UNL     1      10.441  -7.990   9.727  1.00  0.00     0.135 A 
ATOM     67  F   UNL     1      12.818  -6.670   7.304  1.00  0.00    -0.206 F 
ATOM     68  C   UNL     1      13.184  -7.963   9.228  1.00  0.00     0.059 A 
ATOM     69  C   UNL     1      11.301  -8.634  10.610  1.00  0.00     0.059 A 
ATOM     70  F   UNL     1       9.125  -8.007   9.994  1.00  0.00    -0.206 F 
ATOM     71  C   UNL     1      12.671  -8.624  10.345  1.00  0.00     0.060 A 
BRANCH  71  72
ATOM     72  S   UNL     1      13.822  -9.432  11.477  1.00  0.00     0.124 S 
ATOM     73  O   UNL     1      14.177 -10.635  10.732  1.00  0.00    -0.237 OA
ATOM     74  O   UNL     1      14.879  -8.434  11.611  1.00  0.00    -0.237 OA
ATOM     75  O   UNL     1      13.020  -9.648  12.677  1.00  0.00    -0.744 OA
ENDBRANCH  71  72
ENDBRANCH  39  64
ENDBRANCH  13  14
ENDBRANCH   6   8
ENDBRANCH   3   4
ENDBRANCH   2   3
ENDBRANCH   1   2
BRANCH   1  76
ATOM     76  C   UNL     1       4.736   2.954  -3.423  1.00  0.00     0.002 C 
BRANCH  76  77
ATOM     77  C   UNL     1       6.265   2.992  -3.320  1.00  0.00     0.021 C 
BRANCH  77  78
ATOM     78  C   UNL     1       7.019   2.419  -4.519  1.00  0.00     0.116 C 
BRANCH  78  79
ATOM     79  N   UNL     1       6.740   3.155  -5.741  1.00  0.00    -0.352 N 
ATOM     80  C   UNL     1       7.612   3.820  -6.562  1.00  0.00     0.251 C 
ATOM     81  H   UNL     1       5.795   3.180  -6.016  1.00  0.00     0.163 HD
ATOM     82  O   UNL     1       7.212   4.520  -7.485  1.00  0.00    -0.269 OA
BRANCH  80  83
ATOM     83  C   UNL     1       9.059   3.703  -6.317  1.00  0.00     0.042 A 
ATOM     84  C   UNL     1       9.697   2.462  -6.424  1.00  0.00     0.015 A 
ATOM     85  C   UNL     1       9.780   4.852  -5.984  1.00  0.00     0.054 A 
ATOM     86  C   UNL     1      11.062   2.368  -6.156  1.00  0.00     0.024 A 
ATOM     87  C   UNL     1      11.138   4.745  -5.702  1.00  0.00     0.142 A 
ATOM     88  C   UNL     1      11.779   3.516  -5.787  1.00  0.00     0.103 A 
ATOM     89  F   UNL     1      11.791   5.849  -5.322  1.00  0.00    -0.206 F 
BRANCH  88  90
ATOM     90  S   UNL     1      13.494   3.335  -5.415  1.00  0.00     0.185 S 
ATOM     91  O   UNL     1      13.554   3.038  -3.997  1.00  0.00    -0.223 OA
ATOM     92  O   UNL     1      14.017   2.381  -6.382  1.00  0.00    -0.223 OA
BRANCH  90  93
ATOM     93  C   UNL     1      14.344   4.874  -5.684  1.00  0.00     0.183 C 
BRANCH  93  94
ATOM     94  C   UNL     1      14.189   5.504  -7.020  1.00  0.00     0.027 A 
ATOM     95  C   UNL     1      14.165   6.890  -7.303  1.00  0.00     0.162 A 
ATOM     96  C   UNL     1      14.074   4.933  -8.267  1.00  0.00     0.235 A 
ATOM     97  N   UNL     1      14.029   7.142  -8.605  1.00  0.00    -0.088 NA
ATOM     98  O   UNL     1      13.970   5.899  -9.212  1.00  0.00    -0.364 OA
ENDBRANCH  93  94
ENDBRANCH  90  93
ENDBRANCH  88  90
ENDBRANCH  80  83
ENDBRANCH  78  79
ENDBRANCH  77  78
ENDBRANCH  76  77
ENDBRANCH   1  76
TORSDOF 19
