REMARK SMILES CCOC(=O)c1c(NC(=O)[C@@H]2[C@@H](C(=O)NCCCCCCNC(=O)c3ccc(-c4c5nc(c(-c6c(F)cc(S(=O)(=O)[O-])cc6F)c6ccc([nH]6)c(-c6c(F)cc(S(=O)(=O)[O-])cc6F)c6nc(c(-c7c(F)cc(S(=O)(=O)[O-])cc7F)c7ccc4[nH]7)C=C6)C=C5)cc3)[C@@H]3C=C[C@H]2CC3)sc2c1CCC2
REMARK SMILES IDX 17 1 16 2 15 3 13 4 14 5 12 7 11 8 94 9 91 10 93 11 95 12
REMARK SMILES IDX 92 13 96 14 9 15 8 16 10 18 7 19 6 20 99 21 97 22 98 23
REMARK SMILES IDX 100 24 102 25 101 26 4 27 5 28 3 29 2 30 1 31 18 32 19 33
REMARK SMILES IDX 20 34 21 35 22 36 23 37 24 39 25 40 26 41 90 42 27 43 89 44
REMARK SMILES IDX 28 45 29 46 30 47 83 48 31 49 88 50 82 51 84 52 32 53 87 54
REMARK SMILES IDX 81 55 80 56 33 58 67 59 46 60 66 61 47 62 50 63 65 64 85 65
REMARK SMILES IDX 48 66 49 67 64 69 86 70 51 71 34 72 35 73 44 74 36 75 37 76
REMARK SMILES IDX 43 77 45 78 38 79 39 80 40 81 41 82 42 83 68 84 69 85 78 86
REMARK SMILES IDX 70 87 71 88 77 89 79 90 72 91 73 92 74 93 75 94 76 95 52 96
REMARK SMILES IDX 53 97 62 98 54 99 55 100 61 101 63 102 56 103 57 104 58 105
REMARK SMILES IDX 59 106 60 107
REMARK H PARENT 15 6 8 17 22 38 84 57 50 68
REMARK Flexibility Score: inf
ROOT
ATOM      1  C   UNL     1       0.614  -4.501  -2.661  1.00  0.00     0.021 C 
ENDROOT
BRANCH   1   2
ATOM      2  C   UNL     1       1.276  -5.855  -2.390  1.00  0.00     0.116 C 
BRANCH   2   3
ATOM      3  N   UNL     1       2.167  -6.246  -3.470  1.00  0.00    -0.356 N 
ATOM      4  C   UNL     1       3.521  -6.375  -3.534  1.00  0.00     0.224 C 
ATOM      5  O   UNL     1       3.994  -6.672  -4.634  1.00  0.00    -0.275 OA
ATOM      6  H   UNL     1       1.705  -6.458  -4.312  1.00  0.00     0.163 HD
BRANCH   4   7
ATOM      7  C   UNL     1       4.388  -6.253  -2.287  1.00  0.00     0.098 C 
ATOM      8  C   UNL     1       5.670  -5.380  -2.493  1.00  0.00     0.099 C 
ATOM      9  C   UNL     1       6.916  -6.167  -1.978  1.00  0.00     0.025 C 
ATOM     10  C   UNL     1       4.822  -7.697  -1.874  1.00  0.00     0.025 C 
ATOM     11  C   UNL     1       6.635  -6.772  -0.612  1.00  0.00    -0.027 C 
ATOM     12  C   UNL     1       7.103  -7.348  -2.954  1.00  0.00     0.009 C 
ATOM     13  C   UNL     1       5.551  -7.562  -0.554  1.00  0.00    -0.027 C 
ATOM     14  C   UNL     1       5.870  -8.277  -2.869  1.00  0.00     0.009 C 
BRANCH   8  15
ATOM     15  C   UNL     1       5.566  -4.033  -1.779  1.00  0.00     0.229 C 
ATOM     16  N   UNL     1       4.871  -2.975  -2.279  1.00  0.00    -0.317 N 
ATOM     17  H   UNL     1       4.838  -2.206  -1.665  1.00  0.00     0.170 HD
ATOM     18  O   UNL     1       6.045  -3.883  -0.649  1.00  0.00    -0.274 OA
BRANCH  16  19
ATOM     19  C   UNL     1       4.201  -2.754  -3.465  1.00  0.00     0.110 A 
ATOM     20  C   UNL     1       3.175  -1.827  -3.649  1.00  0.00     0.098 A 
ATOM     21  C   UNL     1       2.584  -2.007  -4.928  1.00  0.00    -0.017 A 
ATOM     22  S   UNL     1       4.610  -3.538  -4.921  1.00  0.00    -0.122 S 
ATOM     23  C   UNL     1       3.234  -2.963  -5.654  1.00  0.00     0.011 A 
ATOM     24  C   UNL     1       1.448  -1.445  -5.700  1.00  0.00     0.038 C 
ATOM     25  C   UNL     1       2.632  -3.277  -6.963  1.00  0.00     0.047 C 
ATOM     26  C   UNL     1       1.312  -2.451  -6.892  1.00  0.00     0.010 C 
BRANCH  20  27
ATOM     27  C   UNL     1       2.801  -0.923  -2.573  1.00  0.00     0.341 C 
ATOM     28  O   UNL     1       3.609  -0.474  -1.796  1.00  0.00    -0.246 OA
BRANCH  27  29
ATOM     29  O   UNL     1       1.445  -0.729  -2.504  1.00  0.00    -0.462 OA
BRANCH  29  30
ATOM     30  C   UNL     1       1.100   0.284  -1.563  1.00  0.00     0.230 C 
ATOM     31  C   UNL     1       1.060  -0.176  -0.122  1.00  0.00     0.049 C 
ENDBRANCH  29  30
ENDBRANCH  27  29
ENDBRANCH  20  27
ENDBRANCH  16  19
ENDBRANCH   8  15
ENDBRANCH   4   7
ENDBRANCH   2   3
ENDBRANCH   1   2
BRANCH   1  32
ATOM     32  C   UNL     1      -0.252  -4.434  -3.926  1.00  0.00     0.002 C 
BRANCH  32  33
ATOM     33  C   UNL     1      -1.456  -5.383  -3.976  1.00  0.00     0.002 C 
BRANCH  33  34
ATOM     34  C   UNL     1      -2.439  -5.293  -2.802  1.00  0.00     0.021 C 
BRANCH  34  35
ATOM     35  C   UNL     1      -3.142  -3.944  -2.655  1.00  0.00     0.116 C 
BRANCH  35  36
ATOM     36  N   UNL     1      -4.106  -3.687  -3.724  1.00  0.00    -0.352 N 
ATOM     37  C   UNL     1      -4.855  -2.546  -3.942  1.00  0.00     0.251 C 
ATOM     38  H   UNL     1      -4.238  -4.419  -4.369  1.00  0.00     0.163 HD
ATOM     39  O   UNL     1      -5.872  -2.593  -4.626  1.00  0.00    -0.269 OA
BRANCH  37  40
ATOM     40  C   UNL     1      -4.412  -1.268  -3.350  1.00  0.00     0.039 A 
ATOM     41  C   UNL     1      -5.308  -0.387  -2.738  1.00  0.00     0.014 A 
ATOM     42  C   UNL     1      -3.063  -0.951  -3.412  1.00  0.00     0.014 A 
ATOM     43  C   UNL     1      -4.817   0.749  -2.078  1.00  0.00     0.010 A 
ATOM     44  C   UNL     1      -2.582   0.128  -2.700  1.00  0.00     0.010 A 
ATOM     45  C   UNL     1      -3.435   0.994  -2.021  1.00  0.00    -0.014 A 
BRANCH  45  46
ATOM     46  C   UNL     1      -2.882   2.047  -1.146  1.00  0.00     0.031 A 
ATOM     47  C   UNL     1      -3.364   2.032   0.271  1.00  0.00     0.074 A 
ATOM     48  C   UNL     1      -1.840   2.863  -1.440  1.00  0.00     0.049 A 
ATOM     49  N   UNL     1      -4.085   2.923   0.869  1.00  0.00    -0.248 NA
ATOM     50  C   UNL     1      -3.066   0.856   1.103  1.00  0.00     0.031 C 
ATOM     51  C   UNL     1      -1.001   2.869  -2.643  1.00  0.00     0.029 A 
ATOM     52  N   UNL     1      -1.229   3.803  -0.652  1.00  0.00    -0.354 N 
ATOM     53  C   UNL     1      -4.153   2.539   2.207  1.00  0.00     0.074 A 
ATOM     54  C   UNL     1      -3.647   1.190   2.259  1.00  0.00     0.031 C 
ATOM     55  C   UNL     1       0.126   3.581  -2.409  1.00  0.00     0.029 A 
ATOM     56  C   UNL     1       0.011   4.239  -1.119  1.00  0.00     0.049 A 
ATOM     57  H   UNL     1      -1.633   4.144   0.179  1.00  0.00     0.167 HD
ATOM     58  C   UNL     1      -4.417   3.436   3.200  1.00  0.00     0.037 A 
ATOM     59  C   UNL     1       0.884   5.079  -0.499  1.00  0.00     0.037 A 
ATOM     60  C   UNL     1      -4.936   4.674   2.673  1.00  0.00     0.049 A 
ATOM     61  C   UNL     1       0.096   5.888   0.458  1.00  0.00     0.074 A 
ATOM     62  C   UNL     1      -6.000   5.024   1.862  1.00  0.00     0.029 A 
ATOM     63  N   UNL     1      -4.114   5.775   2.690  1.00  0.00    -0.354 N 
ATOM     64  N   UNL     1      -0.790   6.776   0.103  1.00  0.00    -0.248 NA
ATOM     65  C   UNL     1       0.027   5.456   1.844  1.00  0.00     0.031 C 
ATOM     66  C   UNL     1      -5.509   6.088   1.048  1.00  0.00     0.029 A 
ATOM     67  C   UNL     1      -4.202   6.357   1.452  1.00  0.00     0.049 A 
ATOM     68  H   UNL     1      -3.567   6.086   3.447  1.00  0.00     0.167 HD
ATOM     69  C   UNL     1      -1.779   6.687   1.067  1.00  0.00     0.074 A 
ATOM     70  C   UNL     1      -1.162   5.963   2.174  1.00  0.00     0.031 C 
ATOM     71  C   UNL     1      -3.082   6.960   0.765  1.00  0.00     0.037 A 
BRANCH  58  72
ATOM     72  C   UNL     1      -3.883   3.343   4.615  1.00  0.00     0.058 A 
ATOM     73  C   UNL     1      -4.385   4.214   5.607  1.00  0.00     0.135 A 
ATOM     74  C   UNL     1      -2.703   2.647   4.959  1.00  0.00     0.135 A 
ATOM     75  F   UNL     1      -5.497   4.933   5.385  1.00  0.00    -0.206 F 
ATOM     76  C   UNL     1      -3.719   4.440   6.813  1.00  0.00     0.059 A 
ATOM     77  C   UNL     1      -2.054   2.814   6.178  1.00  0.00     0.059 A 
ATOM     78  F   UNL     1      -2.067   1.853   4.089  1.00  0.00    -0.206 F 
ATOM     79  C   UNL     1      -2.541   3.749   7.078  1.00  0.00     0.060 A 
BRANCH  79  80
ATOM     80  S   UNL     1      -1.604   4.133   8.569  1.00  0.00     0.124 S 
ATOM     81  O   UNL     1      -1.043   5.434   8.226  1.00  0.00    -0.237 OA
ATOM     82  O   UNL     1      -2.645   4.134   9.593  1.00  0.00    -0.237 OA
ATOM     83  O   UNL     1      -0.650   3.032   8.655  1.00  0.00    -0.744 OA
ENDBRANCH  79  80
ENDBRANCH  58  72
BRANCH  59  84
ATOM     84  C   UNL     1       2.376   5.099  -0.497  1.00  0.00     0.058 A 
ATOM     85  C   UNL     1       3.112   6.173   0.030  1.00  0.00     0.135 A 
ATOM     86  C   UNL     1       3.108   3.925  -0.723  1.00  0.00     0.135 A 
ATOM     87  F   UNL     1       2.508   7.343   0.284  1.00  0.00    -0.206 F 
ATOM     88  C   UNL     1       4.465   6.052   0.380  1.00  0.00     0.059 A 
ATOM     89  C   UNL     1       4.451   3.769  -0.387  1.00  0.00     0.059 A 
ATOM     90  F   UNL     1       2.500   2.847  -1.207  1.00  0.00    -0.206 F 
ATOM     91  C   UNL     1       5.118   4.833   0.196  1.00  0.00     0.060 A 
BRANCH  91  92
ATOM     92  S   UNL     1       6.789   4.600   0.844  1.00  0.00     0.124 S 
ATOM     93  O   UNL     1       7.588   5.373  -0.101  1.00  0.00    -0.237 OA
ATOM     94  O   UNL     1       6.679   5.154   2.189  1.00  0.00    -0.237 OA
ATOM     95  O   UNL     1       6.977   3.153   0.785  1.00  0.00    -0.744 OA
ENDBRANCH  91  92
ENDBRANCH  59  84
BRANCH  71  96
ATOM     96  C   UNL     1      -3.380   7.728  -0.496  1.00  0.00     0.058 A 
ATOM     97  C   UNL     1      -3.071   7.294  -1.797  1.00  0.00     0.135 A 
ATOM     98  C   UNL     1      -4.125   8.913  -0.379  1.00  0.00     0.135 A 
ATOM     99  F   UNL     1      -2.459   6.120  -2.009  1.00  0.00    -0.206 F 
ATOM    100  C   UNL     1      -3.438   8.032  -2.924  1.00  0.00     0.059 A 
ATOM    101  C   UNL     1      -4.530   9.647  -1.489  1.00  0.00     0.059 A 
ATOM    102  F   UNL     1      -4.505   9.351   0.833  1.00  0.00    -0.206 F 
ATOM    103  C   UNL     1      -4.167   9.209  -2.760  1.00  0.00     0.060 A 
BRANCH 103 104
ATOM    104  S   UNL     1      -4.696  10.128  -4.222  1.00  0.00     0.124 S 
ATOM    105  O   UNL     1      -3.446  10.726  -4.678  1.00  0.00    -0.237 OA
ATOM    106  O   UNL     1      -5.247   9.079  -5.076  1.00  0.00    -0.237 OA
ATOM    107  O   UNL     1      -5.682  11.069  -3.695  1.00  0.00    -0.744 OA
ENDBRANCH 103 104
ENDBRANCH  71  96
ENDBRANCH  45  46
ENDBRANCH  37  40
ENDBRANCH  35  36
ENDBRANCH  34  35
ENDBRANCH  33  34
ENDBRANCH  32  33
ENDBRANCH   1  32
TORSDOF 21
