REMARK SMILES O=C(CC[N@@H+]1C[C@@H](c2ccccc2)[C@@H]2[C@H]1[C@H]1CC[N@H+]2CC1)NCCCCCCNC(=O)c1ccc(-c2c3nc(c(-c4c(F)cc(S(=O)(=O)[O-])cc4F)c4ccc([nH]4)c(-c4c(F)cc(S(=O)(=O)[O-])cc4F)c4nc(c(-c5c(F)cc(S(=O)(=O)[O-])cc5F)c5ccc2[nH]5)C=C4)C=C3)cc1
REMARK SMILES IDX 25 1 24 2 23 3 22 4 1 5 2 6 3 8 4 9 5 10 6 11 15 12 7 14
REMARK SMILES IDX 14 15 16 16 19 17 17 18 21 19 18 20 20 21 8 23 9 24 13 25
REMARK SMILES IDX 10 26 12 27 11 28 26 29 27 30 28 31 29 32 30 33 31 35 32 36
REMARK SMILES IDX 33 37 97 38 34 39 96 40 35 41 36 42 37 43 90 44 38 45 95 46
REMARK SMILES IDX 89 47 91 48 39 49 94 50 88 51 87 52 40 54 74 55 53 56 73 57
REMARK SMILES IDX 54 58 57 59 72 60 92 61 55 62 56 63 71 65 93 66 58 67 41 68
REMARK SMILES IDX 42 69 51 70 43 71 44 72 50 73 52 74 45 75 46 76 47 77 48 78
REMARK SMILES IDX 49 79 75 80 76 81 85 82 77 83 78 84 84 85 86 86 79 87 80 88
REMARK SMILES IDX 81 89 82 90 83 91 59 92 60 93 69 94 61 95 62 96 68 97 70 98
REMARK SMILES IDX 63 99 64 100 65 101 66 102 67 103
REMARK H PARENT 22 7 5 13 19 22 29 34 91 53 57 64
REMARK Flexibility Score: inf
ROOT
ATOM      1  C   UNL     1       2.046  -3.460   2.861  1.00  0.00     0.002 C 
ENDROOT
BRANCH   1   2
ATOM      2  C   UNL     1       0.802  -2.885   2.140  1.00  0.00     0.021 C 
BRANCH   2   3
ATOM      3  C   UNL     1       0.666  -1.367   1.872  1.00  0.00     0.116 C 
BRANCH   3   4
ATOM      4  N   UNL     1       1.724  -0.831   1.020  1.00  0.00    -0.356 N 
ATOM      5  O   UNL     1       0.470   0.374  -0.462  1.00  0.00    -0.275 OA
ATOM      6  C   UNL     1       1.577  -0.017  -0.094  1.00  0.00     0.225 C 
ATOM      7  H   UNL     1       2.646  -1.075   1.264  1.00  0.00     0.163 HD
BRANCH   6   8
ATOM      8  C   UNL     1       2.853   0.299  -0.956  1.00  0.00     0.161 C 
BRANCH   8   9
ATOM      9  C   UNL     1       3.736   1.570  -0.662  1.00  0.00     0.272 C 
BRANCH   9  10
ATOM     10  N   UNL     1       5.021   1.467   0.120  1.00  0.00    -0.326 N 
ATOM     11  C   UNL     1       6.275   1.140  -0.669  1.00  0.00     0.277 C 
ATOM     12  C   UNL     1       4.847   0.473   1.162  1.00  0.00     0.247 C 
ATOM     13  H   UNL     1       5.186   2.407   0.481  1.00  0.00     0.348 HD
ATOM     14  C   UNL     1       7.003  -0.228  -0.321  1.00  0.00     0.139 C 
ATOM     15  C   UNL     1       5.970  -0.911   0.596  1.00  0.00     0.256 C 
ATOM     16  C   UNL     1       5.030   0.756   2.912  1.00  0.00     0.065 C 
ATOM     17  N   UNL     1       6.332  -1.987   1.816  1.00  0.00    -0.327 N 
ATOM     18  C   UNL     1       6.248   0.213   2.511  1.00  0.00     0.071 C 
ATOM     19  C   UNL     1       5.505  -0.382   4.191  1.00  0.00     0.071 C 
ATOM     20  C   UNL     1       5.186  -1.392   2.257  1.00  0.00     0.263 C 
ATOM     21  C   UNL     1       6.639  -1.727   3.440  1.00  0.00     0.263 C 
ATOM     22  H   UNL     1       6.884  -2.768   1.461  1.00  0.00     0.348 HD
BRANCH  14  23
ATOM     23  C   UNL     1       8.396  -0.383   0.306  1.00  0.00    -0.033 A 
ATOM     24  C   UNL     1       9.031   0.598   1.078  1.00  0.00     0.004 A 
ATOM     25  C   UNL     1       8.912  -1.699   0.366  1.00  0.00     0.004 A 
ATOM     26  C   UNL     1       9.994   0.230   2.031  1.00  0.00     0.000 A 
ATOM     27  C   UNL     1       9.879  -2.061   1.305  1.00  0.00     0.000 A 
ATOM     28  C   UNL     1      10.391  -1.101   2.168  1.00  0.00     0.000 A 
ENDBRANCH  14  23
ENDBRANCH   9  10
ENDBRANCH   8   9
ENDBRANCH   6   8
ENDBRANCH   3   4
ENDBRANCH   2   3
ENDBRANCH   1   2
BRANCH   1  29
ATOM     29  C   UNL     1       2.517  -2.788   4.156  1.00  0.00     0.002 C 
BRANCH  29  30
ATOM     30  C   UNL     1       2.323  -3.503   5.486  1.00  0.00     0.021 C 
BRANCH  30  31
ATOM     31  C   UNL     1       3.187  -4.754   5.687  1.00  0.00     0.116 C 
BRANCH  31  32
ATOM     32  N   UNL     1       4.644  -4.556   5.687  1.00  0.00    -0.352 N 
ATOM     33  C   UNL     1       5.604  -5.223   6.432  1.00  0.00     0.251 C 
ATOM     34  H   UNL     1       4.982  -3.859   5.079  1.00  0.00     0.163 HD
ATOM     35  O   UNL     1       6.796  -4.941   6.333  1.00  0.00    -0.269 OA
BRANCH  33  36
ATOM     36  C   UNL     1       5.152  -6.244   7.398  1.00  0.00     0.039 A 
ATOM     37  C   UNL     1       5.497  -6.124   8.746  1.00  0.00     0.014 A 
ATOM     38  C   UNL     1       4.214  -7.187   6.986  1.00  0.00     0.014 A 
ATOM     39  C   UNL     1       4.769  -6.841   9.700  1.00  0.00     0.010 A 
ATOM     40  C   UNL     1       3.403  -7.781   7.938  1.00  0.00     0.010 A 
ATOM     41  C   UNL     1       3.656  -7.604   9.308  1.00  0.00    -0.014 A 
BRANCH  41  42
ATOM     42  C   UNL     1       2.728  -8.221  10.293  1.00  0.00     0.031 A 
ATOM     43  C   UNL     1       2.441  -9.699  10.212  1.00  0.00     0.074 A 
ATOM     44  C   UNL     1       2.056  -7.449  11.175  1.00  0.00     0.049 A 
ATOM     45  N   UNL     1       1.541 -10.404  10.845  1.00  0.00    -0.248 NA
ATOM     46  C   UNL     1       3.232 -10.474   9.239  1.00  0.00     0.031 C 
ATOM     47  C   UNL     1       2.164  -5.991  11.294  1.00  0.00     0.029 A 
ATOM     48  N   UNL     1       1.132  -7.784  12.134  1.00  0.00    -0.354 N 
ATOM     49  C   UNL     1       1.637 -11.689  10.323  1.00  0.00     0.074 A 
ATOM     50  C   UNL     1       2.615 -11.644   9.261  1.00  0.00     0.031 C 
ATOM     51  C   UNL     1       1.371  -5.566  12.292  1.00  0.00     0.029 A 
ATOM     52  C   UNL     1       0.669  -6.711  12.862  1.00  0.00     0.049 A 
ATOM     53  H   UNL     1       0.828  -8.708  12.287  1.00  0.00     0.167 HD
ATOM     54  C   UNL     1       1.009 -12.819  10.724  1.00  0.00     0.037 A 
ATOM     55  C   UNL     1      -0.216  -6.660  13.876  1.00  0.00     0.037 A 
ATOM     56  C   UNL     1       0.092 -12.873  11.830  1.00  0.00     0.049 A 
ATOM     57  C   UNL     1      -0.838  -7.944  14.361  1.00  0.00     0.074 A 
ATOM     58  C   UNL     1      -0.570 -13.970  12.350  1.00  0.00     0.029 A 
ATOM     59  N   UNL     1      -0.263 -11.782  12.608  1.00  0.00    -0.354 N 
ATOM     60  N   UNL     1      -0.704  -9.157  13.880  1.00  0.00    -0.248 NA
ATOM     61  C   UNL     1      -1.715  -7.857  15.537  1.00  0.00     0.031 C 
ATOM     62  C   UNL     1      -1.330 -13.542  13.443  1.00  0.00     0.029 A 
ATOM     63  C   UNL     1      -1.117 -12.184  13.620  1.00  0.00     0.049 A 
ATOM     64  H   UNL     1       0.046 -10.859  12.463  1.00  0.00     0.167 HD
ATOM     65  C   UNL     1      -1.449  -9.981  14.716  1.00  0.00     0.074 A 
ATOM     66  C   UNL     1      -2.023  -9.131  15.738  1.00  0.00     0.031 C 
ATOM     67  C   UNL     1      -1.645 -11.321  14.645  1.00  0.00     0.037 A 
BRANCH  54  68
ATOM     68  C   UNL     1       1.344 -14.088   9.993  1.00  0.00     0.058 A 
ATOM     69  C   UNL     1       2.612 -14.682  10.111  1.00  0.00     0.135 A 
ATOM     70  C   UNL     1       0.399 -14.720   9.169  1.00  0.00     0.135 A 
ATOM     71  F   UNL     1       3.560 -14.107  10.868  1.00  0.00    -0.206 F 
ATOM     72  C   UNL     1       2.945 -15.834   9.409  1.00  0.00     0.059 A 
ATOM     73  C   UNL     1       0.701 -15.892   8.481  1.00  0.00     0.059 A 
ATOM     74  F   UNL     1      -0.826 -14.194   9.018  1.00  0.00    -0.206 F 
ATOM     75  C   UNL     1       1.983 -16.431   8.594  1.00  0.00     0.060 A 
BRANCH  75  76
ATOM     76  S   UNL     1       2.432 -17.928   7.692  1.00  0.00     0.124 S 
ATOM     77  O   UNL     1       3.263 -17.383   6.623  1.00  0.00    -0.237 OA
ATOM     78  O   UNL     1       3.135 -18.706   8.706  1.00  0.00    -0.237 OA
ATOM     79  O   UNL     1       1.143 -18.469   7.272  1.00  0.00    -0.744 OA
ENDBRANCH  75  76
ENDBRANCH  54  68
BRANCH  55  80
ATOM     80  C   UNL     1      -0.537  -5.366  14.540  1.00  0.00     0.058 A 
ATOM     81  C   UNL     1      -0.093  -5.097  15.844  1.00  0.00     0.135 A 
ATOM     82  C   UNL     1      -1.312  -4.387  13.901  1.00  0.00     0.135 A 
ATOM     83  F   UNL     1       0.651  -6.002  16.498  1.00  0.00    -0.206 F 
ATOM     84  C   UNL     1      -0.437  -3.922  16.506  1.00  0.00     0.059 A 
ATOM     85  C   UNL     1      -1.649  -3.193  14.534  1.00  0.00     0.059 A 
ATOM     86  F   UNL     1      -1.742  -4.583  12.645  1.00  0.00    -0.206 F 
ATOM     87  C   UNL     1      -1.222  -2.978  15.844  1.00  0.00     0.060 A 
BRANCH  87  88
ATOM     88  S   UNL     1      -1.657  -1.451  16.706  1.00  0.00     0.124 S 
ATOM     89  O   UNL     1      -2.706  -1.912  17.607  1.00  0.00    -0.237 OA
ATOM     90  O   UNL     1      -0.393  -1.079  17.334  1.00  0.00    -0.237 OA
ATOM     91  O   UNL     1      -2.092  -0.571  15.625  1.00  0.00    -0.744 OA
ENDBRANCH  87  88
ENDBRANCH  55  80
BRANCH  67  92
ATOM     92  C   UNL     1      -2.457 -11.957  15.735  1.00  0.00     0.058 A 
ATOM     93  C   UNL     1      -3.851 -11.815  15.796  1.00  0.00     0.135 A 
ATOM     94  C   UNL     1      -1.832 -12.759  16.703  1.00  0.00     0.135 A 
ATOM     95  F   UNL     1      -4.494 -11.057  14.894  1.00  0.00    -0.206 F 
ATOM     96  C   UNL     1      -4.597 -12.425  16.798  1.00  0.00     0.059 A 
ATOM     97  C   UNL     1      -2.561 -13.398  17.700  1.00  0.00     0.059 A 
ATOM     98  F   UNL     1      -0.501 -12.935  16.679  1.00  0.00    -0.206 F 
ATOM     99  C   UNL     1      -3.942 -13.213  17.747  1.00  0.00     0.060 A 
BRANCH  99 100
ATOM    100  S   UNL     1      -4.922 -14.021  19.029  1.00  0.00     0.124 S 
ATOM    101  O   UNL     1      -5.192 -12.910  19.935  1.00  0.00    -0.237 OA
ATOM    102  O   UNL     1      -6.070 -14.521  18.280  1.00  0.00    -0.237 OA
ATOM    103  O   UNL     1      -4.023 -15.050  19.545  1.00  0.00    -0.744 OA
ENDBRANCH  99 100
ENDBRANCH  67  92
ENDBRANCH  41  42
ENDBRANCH  33  36
ENDBRANCH  31  32
ENDBRANCH  30  31
ENDBRANCH  29  30
ENDBRANCH   1  29
TORSDOF 19
