REMARK SMILES CC1=C(C#N)C(=O)N(C)C(=O)/C1=C\Nc1ccc(C(=O)NCCCCCCNC(=O)c2ccc(-c3c4nc(c(-c5c(F)cc(S(=O)(=O)[O-])cc5F)c5ccc([nH]5)c(-c5c(F)cc(S(=O)(=O)[O-])cc5F)c5nc(c(-c6c(F)cc(S(=O)(=O)[O-])cc6F)c6ccc3[nH]6)C=C5)C=C4)cc2)c(O)c1
REMARK SMILES IDX 24 1 23 2 22 3 21 4 19 5 20 6 18 8 15 9 16 10 99 11 17 12
REMARK SMILES IDX 97 13 14 14 13 16 1 17 2 18 3 19 12 20 6 21 10 22 7 23 8 24
REMARK SMILES IDX 11 25 9 26 4 27 5 28 98 29 25 31 26 32 27 33 28 34 29 35
REMARK SMILES IDX 30 37 31 38 32 39 96 40 33 41 95 42 34 43 35 44 36 45 89 46
REMARK SMILES IDX 37 47 94 48 88 49 90 50 38 51 93 52 87 53 86 54 39 56 73 57
REMARK SMILES IDX 52 58 72 59 53 60 56 61 71 62 91 63 54 64 55 65 70 67 92 68
REMARK SMILES IDX 57 69 40 70 41 71 50 72 42 73 43 74 49 75 51 76 44 77 45 78
REMARK SMILES IDX 46 79 47 80 48 81 74 82 75 83 84 84 76 85 77 86 83 87 85 88
REMARK SMILES IDX 78 89 79 90 80 91 81 92 82 93 58 94 59 95 68 96 60 97 61 98
REMARK SMILES IDX 67 99 69 100 62 101 63 102 64 103 65 104 66 105
REMARK H PARENT 21 7 14 15 98 30 28 36 90 55 56 66
REMARK Flexibility Score: inf
ROOT
ATOM      1  C   UNL     1       7.369   4.425   9.267  1.00  0.00     0.002 C 
ENDROOT
BRANCH   1   2
ATOM      2  C   UNL     1       6.163   4.079   8.390  1.00  0.00     0.021 C 
BRANCH   2   3
ATOM      3  C   UNL     1       6.291   4.415   6.909  1.00  0.00     0.116 C 
BRANCH   3   4
ATOM      4  N   UNL     1       7.377   3.735   6.226  1.00  0.00    -0.352 N 
ATOM      5  C   UNL     1       7.474   3.312   4.921  1.00  0.00     0.255 C 
ATOM      6  O   UNL     1       8.502   2.737   4.564  1.00  0.00    -0.269 OA
ATOM      7  H   UNL     1       8.166   3.547   6.784  1.00  0.00     0.163 HD
BRANCH   5   8
ATOM      8  C   UNL     1       6.358   3.466   3.950  1.00  0.00     0.081 A 
ATOM      9  C   UNL     1       4.161   3.459   2.162  1.00  0.00     0.042 A 
ATOM     10  C   UNL     1       5.055   2.388   2.190  1.00  0.00     0.027 A 
ATOM     11  C   UNL     1       4.410   4.550   3.003  1.00  0.00     0.073 A 
ATOM     12  C   UNL     1       6.142   2.390   3.074  1.00  0.00     0.020 A 
ATOM     13  C   UNL     1       5.525   4.579   3.840  1.00  0.00     0.130 A 
BRANCH   9  14
ATOM     14  N   UNL     1       3.006   3.489   1.376  1.00  0.00    -0.361 N 
ATOM     15  H   UNL     1       2.646   4.389   1.205  1.00  0.00     0.166 HD
BRANCH  14  16
ATOM     16  C   UNL     1       2.292   2.465   0.805  1.00  0.00     0.097 C 
ATOM     17  C   UNL     1       0.944   0.027  -0.107  1.00  0.00     0.047 C 
ATOM     18  C   UNL     1       0.473   1.406  -0.523  1.00  0.00    -0.013 C 
ATOM     19  C   UNL     1      -0.589   1.593  -1.337  1.00  0.00     0.121 C 
ATOM     20  C   UNL     1       1.208   2.560   0.002  1.00  0.00     0.060 C 
ATOM     21  C   UNL     1      -1.026   2.958  -1.739  1.00  0.00     0.271 C 
ATOM     22  C   UNL     1       0.746   3.954  -0.349  1.00  0.00     0.262 C 
ATOM     23  O   UNL     1      -1.974   3.094  -2.512  1.00  0.00    -0.268 OA
ATOM     24  N   UNL     1      -0.328   4.036  -1.219  1.00  0.00    -0.277 N 
ATOM     25  O   UNL     1       1.302   4.950   0.116  1.00  0.00    -0.269 OA
ATOM     26  C   UNL     1      -0.782   5.360  -1.618  1.00  0.00     0.157 C 
BRANCH  19  27
ATOM     27  C   UNL     1      -1.351   0.507  -1.858  1.00  0.00     0.105 C 
ATOM     28  N   UNL     1      -1.933  -0.419  -2.254  1.00  0.00    -0.192 NA
ENDBRANCH  19  27
ENDBRANCH  14  16
ENDBRANCH   9  14
BRANCH  13  29
ATOM     29  O   UNL     1       5.737   5.771   4.472  1.00  0.00    -0.507 OA
ATOM     30  H   UNL     1       6.466   5.871   5.051  1.00  0.00     0.293 HD
ENDBRANCH  13  29
ENDBRANCH   5   8
ENDBRANCH   3   4
ENDBRANCH   2   3
ENDBRANCH   1   2
BRANCH   1  31
ATOM     31  C   UNL     1       7.911   5.853   9.154  1.00  0.00     0.002 C 
BRANCH  31  32
ATOM     32  C   UNL     1       6.893   6.977   9.346  1.00  0.00     0.021 C 
BRANCH  32  33
ATOM     33  C   UNL     1       6.056   6.891  10.616  1.00  0.00     0.116 C 
BRANCH  33  34
ATOM     34  N   UNL     1       6.864   6.925  11.825  1.00  0.00    -0.352 N 
ATOM     35  C   UNL     1       6.744   7.751  12.917  1.00  0.00     0.251 C 
ATOM     36  H   UNL     1       7.596   6.268  11.867  1.00  0.00     0.163 HD
ATOM     37  O   UNL     1       7.605   7.759  13.790  1.00  0.00    -0.269 OA
BRANCH  35  38
ATOM     38  C   UNL     1       5.575   8.651  13.010  1.00  0.00     0.039 A 
ATOM     39  C   UNL     1       5.776  10.007  13.278  1.00  0.00     0.014 A 
ATOM     40  C   UNL     1       4.289   8.158  12.777  1.00  0.00     0.014 A 
ATOM     41  C   UNL     1       4.691  10.886  13.234  1.00  0.00     0.010 A 
ATOM     42  C   UNL     1       3.226   9.046  12.653  1.00  0.00     0.010 A 
ATOM     43  C   UNL     1       3.415  10.419  12.877  1.00  0.00    -0.014 A 
BRANCH  43  44
ATOM     44  C   UNL     1       2.254  11.335  12.729  1.00  0.00     0.031 A 
ATOM     45  C   UNL     1       1.046  11.147  13.608  1.00  0.00     0.074 A 
ATOM     46  C   UNL     1       2.243  12.260  11.748  1.00  0.00     0.049 A 
ATOM     47  N   UNL     1      -0.124  11.724  13.537  1.00  0.00    -0.248 NA
ATOM     48  C   UNL     1       1.163  10.156  14.691  1.00  0.00     0.031 C 
ATOM     49  C   UNL     1       3.342  12.518  10.815  1.00  0.00     0.029 A 
ATOM     50  N   UNL     1       1.263  13.138  11.353  1.00  0.00    -0.354 N 
ATOM     51  C   UNL     1      -0.889  11.152  14.546  1.00  0.00     0.074 A 
ATOM     52  C   UNL     1      -0.066  10.150  15.186  1.00  0.00     0.031 C 
ATOM     53  C   UNL     1       2.977  13.489   9.962  1.00  0.00     0.029 A 
ATOM     54  C   UNL     1       1.601  13.885  10.248  1.00  0.00     0.049 A 
ATOM     55  H   UNL     1       0.399  13.225  11.818  1.00  0.00     0.167 HD
ATOM     56  C   UNL     1      -2.157  11.448  14.914  1.00  0.00     0.037 A 
ATOM     57  C   UNL     1       0.876  14.764   9.526  1.00  0.00     0.037 A 
ATOM     58  C   UNL     1      -2.959  12.463  14.283  1.00  0.00     0.049 A 
ATOM     59  C   UNL     1      -0.545  15.053   9.936  1.00  0.00     0.074 A 
ATOM     60  C   UNL     1      -4.234  12.880  14.622  1.00  0.00     0.029 A 
ATOM     61  N   UNL     1      -2.571  13.213  13.183  1.00  0.00    -0.354 N 
ATOM     62  N   UNL     1      -1.234  14.546  10.932  1.00  0.00    -0.248 NA
ATOM     63  C   UNL     1      -1.290  16.032   9.131  1.00  0.00     0.031 C 
ATOM     64  C   UNL     1      -4.645  13.830  13.684  1.00  0.00     0.029 A 
ATOM     65  C   UNL     1      -3.596  14.066  12.810  1.00  0.00     0.049 A 
ATOM     66  H   UNL     1      -1.697  13.149  12.734  1.00  0.00     0.167 HD
ATOM     67  C   UNL     1      -2.475  15.174  10.895  1.00  0.00     0.074 A 
ATOM     68  C   UNL     1      -2.443  16.099   9.783  1.00  0.00     0.031 C 
ATOM     69  C   UNL     1      -3.542  15.002  11.714  1.00  0.00     0.037 A 
BRANCH  56  70
ATOM     70  C   UNL     1      -2.769  10.663  16.043  1.00  0.00     0.058 A 
ATOM     71  C   UNL     1      -2.328  10.801  17.369  1.00  0.00     0.135 A 
ATOM     72  C   UNL     1      -3.858   9.808  15.803  1.00  0.00     0.135 A 
ATOM     73  F   UNL     1      -1.280  11.591  17.655  1.00  0.00    -0.206 F 
ATOM     74  C   UNL     1      -2.930  10.106  18.412  1.00  0.00     0.059 A 
ATOM     75  C   UNL     1      -4.498   9.130  16.835  1.00  0.00     0.059 A 
ATOM     76  F   UNL     1      -4.319   9.635  14.554  1.00  0.00    -0.206 F 
ATOM     77  C   UNL     1      -4.020   9.278  18.136  1.00  0.00     0.060 A 
BRANCH  77  78
ATOM     78  S   UNL     1      -4.808   8.409  19.507  1.00  0.00     0.124 S 
ATOM     79  O   UNL     1      -3.777   7.442  19.871  1.00  0.00    -0.237 OA
ATOM     80  O   UNL     1      -5.034   9.486  20.466  1.00  0.00    -0.237 OA
ATOM     81  O   UNL     1      -6.012   7.844  18.906  1.00  0.00    -0.744 OA
ENDBRANCH  77  78
ENDBRANCH  56  70
BRANCH  57  82
ATOM     82  C   UNL     1       1.473  15.426   8.332  1.00  0.00     0.058 A 
ATOM     83  C   UNL     1       1.713  16.809   8.312  1.00  0.00     0.135 A 
ATOM     84  C   UNL     1       1.804  14.693   7.180  1.00  0.00     0.135 A 
ATOM     85  F   UNL     1       1.408  17.558   9.383  1.00  0.00    -0.206 F 
ATOM     86  C   UNL     1       2.233  17.445   7.189  1.00  0.00     0.059 A 
ATOM     87  C   UNL     1       2.357  15.301   6.057  1.00  0.00     0.059 A 
ATOM     88  F   UNL     1       1.610  13.366   7.148  1.00  0.00    -0.206 F 
ATOM     89  C   UNL     1       2.554  16.680   6.066  1.00  0.00     0.060 A 
BRANCH  89  90
ATOM     90  S   UNL     1       3.257  17.512   4.625  1.00  0.00     0.124 S 
ATOM     91  O   UNL     1       2.111  18.270   4.135  1.00  0.00    -0.237 OA
ATOM     92  O   UNL     1       4.334  18.295   5.221  1.00  0.00    -0.237 OA
ATOM     93  O   UNL     1       3.691  16.405   3.777  1.00  0.00    -0.744 OA
ENDBRANCH  89  90
ENDBRANCH  57  82
BRANCH  69  94
ATOM     94  C   UNL     1      -4.752  15.870  11.492  1.00  0.00     0.058 A 
ATOM     95  C   UNL     1      -5.613  15.684  10.401  1.00  0.00     0.135 A 
ATOM     96  C   UNL     1      -5.107  16.834  12.451  1.00  0.00     0.135 A 
ATOM     97  F   UNL     1      -5.316  14.784   9.450  1.00  0.00    -0.206 F 
ATOM     98  C   UNL     1      -6.782  16.427  10.265  1.00  0.00     0.059 A 
ATOM     99  C   UNL     1      -6.287  17.563  12.353  1.00  0.00     0.059 A 
ATOM    100  F   UNL     1      -4.322  17.047  13.520  1.00  0.00    -0.206 F 
ATOM    101  C   UNL     1      -7.117  17.354  11.254  1.00  0.00     0.060 A 
BRANCH 101 102
ATOM    102  S   UNL     1      -8.676  18.252  11.103  1.00  0.00     0.124 S 
ATOM    103  O   UNL     1      -8.403  19.132   9.971  1.00  0.00    -0.237 OA
ATOM    104  O   UNL     1      -9.630  17.176  10.854  1.00  0.00    -0.237 OA
ATOM    105  O   UNL     1      -8.813  18.918  12.395  1.00  0.00    -0.744 OA
ENDBRANCH 101 102
ENDBRANCH  69  94
ENDBRANCH  43  44
ENDBRANCH  35  38
ENDBRANCH  33  34
ENDBRANCH  32  33
ENDBRANCH  31  32
ENDBRANCH   1  31
TORSDOF 20
