REMARK SMILES Cc1ccc(C(=O)NC2(CC(=O)NCCCCCCNC(=O)c3ccc(-c4c5nc(c(-c6c(F)cc(S(=O)(=O)[O-])cc6F)c6ccc([nH]6)c(-c6c(F)cc(S(=O)(=O)[O-])cc6F)c6nc(c(-c7c(F)cc(S(=O)(=O)[O-])cc7F)c7ccc4[nH]7)C=C6)C=C5)cc3)CCC2)cc1
REMARK SMILES IDX 16 1 15 2 14 3 13 4 11 5 12 6 10 8 9 9 89 10 91 11 90 12
REMARK SMILES IDX 8 13 6 14 7 15 5 17 1 18 2 19 3 20 93 21 4 22 92 23 17 24
REMARK SMILES IDX 18 25 19 26 20 27 21 28 22 30 23 31 24 32 88 33 25 34 87 35
REMARK SMILES IDX 26 36 27 37 28 38 81 39 29 40 86 41 80 42 82 43 30 44 85 45
REMARK SMILES IDX 79 46 78 47 31 49 65 50 44 51 64 52 45 53 48 54 63 55 83 56
REMARK SMILES IDX 46 57 47 58 62 60 84 61 49 62 32 63 33 64 42 65 34 66 35 67
REMARK SMILES IDX 41 68 43 69 36 70 37 71 38 72 39 73 40 74 66 75 67 76 76 77
REMARK SMILES IDX 68 78 69 79 75 80 77 81 70 82 71 83 72 84 73 85 74 86 50 87
REMARK SMILES IDX 51 88 60 89 52 90 53 91 59 92 61 93 54 94 55 95 56 96 57 97
REMARK SMILES IDX 58 98
REMARK H PARENT 13 7 8 16 20 29 82 48 48 59
REMARK Flexibility Score: inf
ROOT
ATOM      1  C   UNL     1       0.621   0.018   3.520  1.00  0.00     0.002 C 
ENDROOT
BRANCH   1   2
ATOM      2  C   UNL     1      -0.412   1.019   3.046  1.00  0.00     0.021 C 
BRANCH   2   3
ATOM      3  C   UNL     1      -0.090   1.585   1.686  1.00  0.00     0.116 C 
BRANCH   3   4
ATOM      4  N   UNL     1      -0.389   0.562   0.425  1.00  0.00    -0.356 N 
ATOM      5  C   UNL     1      -1.291   0.602  -1.332  1.00  0.00     0.222 C 
ATOM      6  O   UNL     1      -1.149  -0.127  -2.351  1.00  0.00    -0.275 OA
ATOM      7  H   UNL     1      -0.005  -0.327   0.599  1.00  0.00     0.163 HD
BRANCH   5   8
ATOM      8  C   UNL     1      -2.661   1.843  -1.765  1.00  0.00     0.128 C 
BRANCH   8   9
ATOM      9  C   UNL     1      -3.732   2.540  -0.657  1.00  0.00     0.049 C 
ATOM     10  C   UNL     1      -4.446   3.871  -1.082  1.00  0.00     0.029 C 
ATOM     11  C   UNL     1      -3.617   3.381   0.814  1.00  0.00     0.029 C 
ATOM     12  C   UNL     1      -3.647   4.658   0.004  1.00  0.00     0.005 C 
BRANCH   9  13
ATOM     13  N   UNL     1      -4.528   1.415  -0.195  1.00  0.00    -0.346 N 
ATOM     14  C   UNL     1      -3.829   0.519   0.562  1.00  0.00     0.251 C 
ATOM     15  O   UNL     1      -4.351  -0.416   1.147  1.00  0.00    -0.269 OA
ATOM     16  H   UNL     1      -5.483   1.309  -0.408  1.00  0.00     0.164 HD
BRANCH  14  17
ATOM     17  C   UNL     1      -2.341   0.675   0.415  1.00  0.00     0.039 A 
ATOM     18  C   UNL     1       2.419   0.026  -1.130  1.00  0.00     0.044 C 
ATOM     19  C   UNL     1       0.921   0.237  -1.143  1.00  0.00    -0.051 A 
ATOM     20  C   UNL     1      -0.075  -1.201  -0.690  1.00  0.00     0.004 A 
ATOM     21  C   UNL     1       0.312   1.916  -0.928  1.00  0.00     0.004 A 
ATOM     22  C   UNL     1      -1.683  -0.985   0.077  1.00  0.00     0.014 A 
ATOM     23  C   UNL     1      -1.309   2.182  -0.115  1.00  0.00     0.014 A 
ENDBRANCH  14  17
ENDBRANCH   9  13
ENDBRANCH   8   9
ENDBRANCH   5   8
ENDBRANCH   3   4
ENDBRANCH   2   3
ENDBRANCH   1   2
BRANCH   1  24
ATOM     24  C   UNL     1       2.082   0.352   3.159  1.00  0.00     0.002 C 
BRANCH  24  25
ATOM     25  C   UNL     1       2.568   1.795   3.360  1.00  0.00     0.021 C 
BRANCH  25  26
ATOM     26  C   UNL     1       2.429   2.281   4.770  1.00  0.00     0.116 C 
BRANCH  26  27
ATOM     27  N   UNL     1       3.571   1.907   5.565  1.00  0.00    -0.352 N 
ATOM     28  C   UNL     1       4.016   2.632   6.655  1.00  0.00     0.251 C 
ATOM     29  H   UNL     1       4.061   1.089   5.319  1.00  0.00     0.163 HD
ATOM     30  O   UNL     1       5.174   2.981   6.824  1.00  0.00    -0.269 OA
BRANCH  28  31
ATOM     31  C   UNL     1       2.992   2.844   7.696  1.00  0.00     0.039 A 
ATOM     32  C   UNL     1       3.109   2.071   8.858  1.00  0.00     0.014 A 
ATOM     33  C   UNL     1       1.778   3.386   7.292  1.00  0.00     0.014 A 
ATOM     34  C   UNL     1       1.956   1.654   9.495  1.00  0.00     0.010 A 
ATOM     35  C   UNL     1       0.650   2.787   7.764  1.00  0.00     0.010 A 
ATOM     36  C   UNL     1       0.752   1.925   8.859  1.00  0.00    -0.014 A 
BRANCH  36  37
ATOM     37  C   UNL     1      -0.547   1.585   9.373  1.00  0.00     0.031 A 
ATOM     38  C   UNL     1      -1.141   2.668  10.187  1.00  0.00     0.074 A 
ATOM     39  C   UNL     1      -1.141   0.509   8.810  1.00  0.00     0.049 A 
ATOM     40  N   UNL     1      -2.142   2.530  10.964  1.00  0.00    -0.248 NA
ATOM     41  C   UNL     1      -0.601   4.038  10.233  1.00  0.00     0.031 C 
ATOM     42  C   UNL     1      -2.545   0.129   8.762  1.00  0.00     0.029 A 
ATOM     43  N   UNL     1      -0.480  -0.607   8.276  1.00  0.00    -0.354 N 
ATOM     44  C   UNL     1      -2.600   3.797  11.283  1.00  0.00     0.074 A 
ATOM     45  C   UNL     1      -1.532   4.689  10.935  1.00  0.00     0.031 C 
ATOM     46  C   UNL     1      -2.629  -1.202   8.559  1.00  0.00     0.029 A 
ATOM     47  C   UNL     1      -1.271  -1.731   8.586  1.00  0.00     0.049 A 
ATOM     48  H   UNL     1       0.371  -0.605   7.780  1.00  0.00     0.167 HD
ATOM     49  C   UNL     1      -3.911   3.912  11.633  1.00  0.00     0.037 A 
ATOM     50  C   UNL     1      -0.805  -2.622   9.517  1.00  0.00     0.037 A 
ATOM     51  C   UNL     1      -4.486   2.568  11.647  1.00  0.00     0.049 A 
ATOM     52  C   UNL     1      -1.599  -2.509  10.801  1.00  0.00     0.074 A 
ATOM     53  C   UNL     1      -5.150   1.846  10.671  1.00  0.00     0.029 A 
ATOM     54  N   UNL     1      -4.005   1.652  12.570  1.00  0.00    -0.354 N 
ATOM     55  N   UNL     1      -2.172  -1.406  11.209  1.00  0.00    -0.248 NA
ATOM     56  C   UNL     1      -1.918  -3.656  11.647  1.00  0.00     0.031 C 
ATOM     57  C   UNL     1      -4.976   0.467  10.971  1.00  0.00     0.029 A 
ATOM     58  C   UNL     1      -4.205   0.363  12.119  1.00  0.00     0.049 A 
ATOM     59  H   UNL     1      -3.581   1.888  13.427  1.00  0.00     0.167 HD
ATOM     60  C   UNL     1      -2.953  -1.681  12.298  1.00  0.00     0.074 A 
ATOM     61  C   UNL     1      -2.750  -3.098  12.542  1.00  0.00     0.031 C 
ATOM     62  C   UNL     1      -3.748  -0.759  12.918  1.00  0.00     0.037 A 
BRANCH  49  63
ATOM     63  C   UNL     1      -4.766   5.159  11.706  1.00  0.00     0.058 A 
ATOM     64  C   UNL     1      -6.173   5.011  11.749  1.00  0.00     0.135 A 
ATOM     65  C   UNL     1      -4.321   6.497  11.707  1.00  0.00     0.135 A 
ATOM     66  F   UNL     1      -6.754   3.804  11.788  1.00  0.00    -0.206 F 
ATOM     67  C   UNL     1      -7.060   6.083  11.750  1.00  0.00     0.059 A 
ATOM     68  C   UNL     1      -5.196   7.594  11.704  1.00  0.00     0.059 A 
ATOM     69  F   UNL     1      -3.023   6.813  11.732  1.00  0.00    -0.206 F 
ATOM     70  C   UNL     1      -6.566   7.376  11.721  1.00  0.00     0.060 A 
BRANCH  70  71
ATOM     71  S   UNL     1      -7.748   8.733  11.733  1.00  0.00     0.124 S 
ATOM     72  O   UNL     1      -8.483   8.505  10.492  1.00  0.00    -0.237 OA
ATOM     73  O   UNL     1      -8.489   8.483  12.965  1.00  0.00    -0.237 OA
ATOM     74  O   UNL     1      -6.902   9.923  11.744  1.00  0.00    -0.744 OA
ENDBRANCH  70  71
ENDBRANCH  49  63
BRANCH  50  75
ATOM     75  C   UNL     1       0.675  -2.828   9.377  1.00  0.00     0.058 A 
ATOM     76  C   UNL     1       1.111  -3.446   8.183  1.00  0.00     0.135 A 
ATOM     77  C   UNL     1       1.598  -2.009  10.043  1.00  0.00     0.135 A 
ATOM     78  F   UNL     1       0.286  -4.275   7.521  1.00  0.00    -0.206 F 
ATOM     79  C   UNL     1       2.311  -3.099   7.567  1.00  0.00     0.059 A 
ATOM     80  C   UNL     1       2.819  -1.664   9.450  1.00  0.00     0.059 A 
ATOM     81  F   UNL     1       1.263  -1.405  11.192  1.00  0.00    -0.206 F 
ATOM     82  C   UNL     1       3.127  -2.151   8.179  1.00  0.00     0.060 A 
BRANCH  82  83
ATOM     83  S   UNL     1       4.501  -1.461   7.225  1.00  0.00     0.124 S 
ATOM     84  O   UNL     1       5.326  -2.639   6.984  1.00  0.00    -0.237 OA
ATOM     85  O   UNL     1       3.818  -0.911   6.053  1.00  0.00    -0.237 OA
ATOM     86  O   UNL     1       5.068  -0.464   8.123  1.00  0.00    -0.744 OA
ENDBRANCH  82  83
ENDBRANCH  50  75
BRANCH  62  87
ATOM     87  C   UNL     1      -4.247  -0.889  14.333  1.00  0.00     0.058 A 
ATOM     88  C   UNL     1      -3.599  -1.670  15.303  1.00  0.00     0.135 A 
ATOM     89  C   UNL     1      -5.315  -0.086  14.806  1.00  0.00     0.135 A 
ATOM     90  F   UNL     1      -2.478  -2.352  15.027  1.00  0.00    -0.206 F 
ATOM     91  C   UNL     1      -4.059  -1.757  16.611  1.00  0.00     0.059 A 
ATOM     92  C   UNL     1      -5.728  -0.084  16.130  1.00  0.00     0.059 A 
ATOM     93  F   UNL     1      -5.996   0.742  13.999  1.00  0.00    -0.206 F 
ATOM     94  C   UNL     1      -5.130  -0.967  17.011  1.00  0.00     0.060 A 
BRANCH  94  95
ATOM     95  S   UNL     1      -5.741  -1.116  18.691  1.00  0.00     0.124 S 
ATOM     96  O   UNL     1      -6.529  -2.341  18.595  1.00  0.00    -0.237 OA
ATOM     97  O   UNL     1      -4.509  -1.215  19.466  1.00  0.00    -0.237 OA
ATOM     98  O   UNL     1      -6.503   0.112  18.887  1.00  0.00    -0.744 OA
ENDBRANCH  94  95
ENDBRANCH  62  87
ENDBRANCH  36  37
ENDBRANCH  28  31
ENDBRANCH  26  27
ENDBRANCH  25  26
ENDBRANCH  24  25
ENDBRANCH   1  24
TORSDOF 19
