REMARK SMILES Cc1ccccc1NC(=S)NN1C(=O)CS[C@H]1c1ccccc1C(=O)NCCCCCCNC(=O)c1ccc(-c2c3nc(c(-c4c(F)cc(S(=O)(=O)[O-])cc4F)c4ccc([nH]4)c(-c4c(F)cc(S(=O)(=O)[O-])cc4F)c4nc(c(-c5c(F)cc(S(=O)(=O)[O-])cc5F)c5ccc2[nH]5)C=C4)C=C3)cc1
REMARK SMILES IDX 28 1 27 2 26 3 24 4 25 5 23 7 18 8 19 9 20 10 22 11 21 12
REMARK SMILES IDX 17 13 12 14 13 15 14 16 15 17 16 18 11 19 9 21 10 22 8 23
REMARK SMILES IDX 7 25 1 26 2 27 3 28 4 29 6 30 5 31 29 32 30 33 31 34 32 35
REMARK SMILES IDX 33 36 34 37 35 39 36 40 37 41 101 42 38 43 100 44 39 45
REMARK SMILES IDX 40 46 41 47 94 48 42 49 99 50 93 51 95 52 43 53 98 54 92 55
REMARK SMILES IDX 91 56 44 58 78 59 57 60 77 61 58 62 61 63 76 64 96 65 59 66
REMARK SMILES IDX 60 67 75 69 97 70 62 71 45 72 46 73 55 74 47 75 48 76 54 77
REMARK SMILES IDX 56 78 49 79 50 80 51 81 52 82 53 83 79 84 80 85 89 86 81 87
REMARK SMILES IDX 82 88 88 89 90 90 83 91 84 92 85 93 86 94 87 95 63 96 64 97
REMARK SMILES IDX 73 98 65 99 66 100 72 101 74 102 67 103 68 104 69 105 70 106
REMARK SMILES IDX 71 107
REMARK H PARENT 26 6 11 20 8 24 33 38 95 57 61 68
REMARK Flexibility Score: inf
ROOT
ATOM      1  C   UNL     1      -0.420   1.788  -1.802  1.00  0.00     0.021 C 
ENDROOT
BRANCH   1   2
ATOM      2  C   UNL     1      -0.452   3.268  -1.262  1.00  0.00     0.116 C 
BRANCH   2   3
ATOM      3  N   UNL     1      -1.471   4.284  -1.726  1.00  0.00    -0.352 N 
ATOM      4  C   UNL     1      -1.763   5.452  -0.966  1.00  0.00     0.251 C 
ATOM      5  O   UNL     1      -0.890   6.322  -0.898  1.00  0.00    -0.269 OA
ATOM      6  H   UNL     1      -1.945   4.134  -2.576  1.00  0.00     0.163 HD
BRANCH   4   7
ATOM      7  C   UNL     1      -3.176   5.831  -0.417  1.00  0.00     0.046 A 
ATOM      8  C   UNL     1      -4.205   5.004   0.086  1.00  0.00    -0.001 A 
ATOM      9  C   UNL     1      -5.503   5.536   0.371  1.00  0.00     0.007 A 
ATOM     10  C   UNL     1      -5.789   6.881   0.258  1.00  0.00     0.000 A 
ATOM     11  C   UNL     1      -3.484   7.214  -0.430  1.00  0.00     0.014 A 
ATOM     12  C   UNL     1      -4.761   7.728  -0.108  1.00  0.00     0.001 A 
BRANCH   8  13
ATOM     13  C   UNL     1      -4.135   3.534   0.043  1.00  0.00     0.197 C 
ATOM     14  N   UNL     1      -2.876   2.862   0.134  1.00  0.00    -0.236 N 
ATOM     15  C   UNL     1      -3.332   1.659  -0.509  1.00  0.00     0.252 C 
ATOM     16  O   UNL     1      -3.328   1.487  -1.730  1.00  0.00    -0.272 OA
ATOM     17  C   UNL     1      -4.404   0.991   0.330  1.00  0.00     0.174 C 
ATOM     18  S   UNL     1      -5.214   2.452   1.071  1.00  0.00    -0.120 SA
BRANCH  14  19
ATOM     19  N   UNL     1      -2.209   2.912   1.600  1.00  0.00    -0.270 N 
ATOM     20  H   UNL     1      -2.788   2.673   2.360  1.00  0.00     0.191 HD
BRANCH  19  21
ATOM     21  C   UNL     1      -0.882   3.263   1.899  1.00  0.00     0.189 C 
ATOM     22  S   UNL     1      -0.610   4.738   2.666  1.00  0.00    -0.039 S 
BRANCH  21  23
ATOM     23  N   UNL     1       0.236   2.464   1.703  1.00  0.00    -0.331 N 
ATOM     24  H   UNL     1       1.063   2.815   2.105  1.00  0.00     0.169 HD
BRANCH  23  25
ATOM     25  C   UNL     1       0.391   1.235   1.029  1.00  0.00     0.043 A 
ATOM     26  C   UNL     1       3.320   0.953   0.913  1.00  0.00     0.046 C 
ATOM     27  C   UNL     1       1.953   0.429   0.607  1.00  0.00    -0.028 A 
ATOM     28  C   UNL     1       1.958  -0.950  -0.577  1.00  0.00     0.005 A 
ATOM     29  C   UNL     1       0.410  -1.572  -1.262  1.00  0.00     0.000 A 
ATOM     30  C   UNL     1      -1.108   0.554   0.381  1.00  0.00     0.026 A 
ATOM     31  C   UNL     1      -1.124  -0.763  -0.827  1.00  0.00     0.002 A 
ENDBRANCH  23  25
ENDBRANCH  21  23
ENDBRANCH  19  21
ENDBRANCH  14  19
ENDBRANCH   8  13
ENDBRANCH   4   7
ENDBRANCH   2   3
ENDBRANCH   1   2
BRANCH   1  32
ATOM     32  C   UNL     1       0.506   0.534  -0.954  1.00  0.00     0.002 C 
BRANCH  32  33
ATOM     33  C   UNL     1       0.292  -0.900   0.712  1.00  0.00     0.002 C 
BRANCH  33  34
ATOM     34  C   UNL     1      -0.833  -2.175   1.215  1.00  0.00     0.021 C 
BRANCH  34  35
ATOM     35  C   UNL     1      -1.372  -3.380   0.426  1.00  0.00     0.116 C 
BRANCH  35  36
ATOM     36  N   UNL     1      -0.491  -4.492   0.113  1.00  0.00    -0.352 N 
ATOM     37  C   UNL     1      -1.033  -5.653  -0.450  1.00  0.00     0.251 C 
ATOM     38  H   UNL     1       0.474  -4.430   0.295  1.00  0.00     0.163 HD
ATOM     39  O   UNL     1      -1.660  -6.522   0.141  1.00  0.00    -0.269 OA
BRANCH  37  40
ATOM     40  C   UNL     1      -1.136  -5.554  -1.916  1.00  0.00     0.039 A 
ATOM     41  C   UNL     1      -0.251  -6.144  -2.819  1.00  0.00     0.014 A 
ATOM     42  C   UNL     1      -2.048  -4.578  -2.308  1.00  0.00     0.014 A 
ATOM     43  C   UNL     1      -0.199  -5.622  -4.106  1.00  0.00     0.010 A 
ATOM     44  C   UNL     1      -1.816  -3.901  -3.459  1.00  0.00     0.010 A 
ATOM     45  C   UNL     1      -0.912  -4.449  -4.363  1.00  0.00    -0.014 A 
BRANCH  45  46
ATOM     46  C   UNL     1      -1.078  -3.846  -5.663  1.00  0.00     0.031 A 
ATOM     47  C   UNL     1      -2.149  -4.501  -6.445  1.00  0.00     0.074 A 
ATOM     48  C   UNL     1      -0.427  -2.678  -5.856  1.00  0.00     0.049 A 
ATOM     49  N   UNL     1      -2.136  -4.717  -7.707  1.00  0.00    -0.248 NA
ATOM     50  C   UNL     1      -3.320  -5.137  -5.805  1.00  0.00     0.031 C 
ATOM     51  C   UNL     1      -0.550  -1.667  -6.897  1.00  0.00     0.029 A 
ATOM     52  N   UNL     1       0.715  -2.268  -5.142  1.00  0.00    -0.354 N 
ATOM     53  C   UNL     1      -3.449  -5.008  -8.045  1.00  0.00     0.074 A 
ATOM     54  C   UNL     1      -4.048  -5.525  -6.853  1.00  0.00     0.031 C 
ATOM     55  C   UNL     1       0.636  -1.032  -7.013  1.00  0.00     0.029 A 
ATOM     56  C   UNL     1       1.567  -1.685  -6.099  1.00  0.00     0.049 A 
ATOM     57  H   UNL     1       0.883  -2.369  -4.177  1.00  0.00     0.167 HD
ATOM     58  C   UNL     1      -3.958  -4.460  -9.184  1.00  0.00     0.037 A 
ATOM     59  C   UNL     1       2.681  -2.381  -6.476  1.00  0.00     0.037 A 
ATOM     60  C   UNL     1      -2.915  -3.626  -9.785  1.00  0.00     0.049 A 
ATOM     61  C   UNL     1       2.544  -2.887  -7.892  1.00  0.00     0.074 A 
ATOM     62  C   UNL     1      -2.669  -2.264  -9.735  1.00  0.00     0.029 A 
ATOM     63  N   UNL     1      -1.720  -4.224 -10.152  1.00  0.00    -0.354 N 
ATOM     64  N   UNL     1       1.410  -3.201  -8.463  1.00  0.00    -0.248 NA
ATOM     65  C   UNL     1       3.675  -2.934  -8.807  1.00  0.00     0.031 C 
ATOM     66  C   UNL     1      -1.300  -2.057 -10.068  1.00  0.00     0.029 A 
ATOM     67  C   UNL     1      -0.713  -3.293 -10.284  1.00  0.00     0.049 A 
ATOM     68  H   UNL     1      -1.605  -5.191 -10.299  1.00  0.00     0.167 HD
ATOM     69  C   UNL     1       1.625  -3.430  -9.801  1.00  0.00     0.074 A 
ATOM     70  C   UNL     1       3.054  -3.227  -9.960  1.00  0.00     0.031 C 
ATOM     71  C   UNL     1       0.619  -3.728 -10.684  1.00  0.00     0.037 A 
BRANCH  58  72
ATOM     72  C   UNL     1      -5.418  -4.386  -9.592  1.00  0.00     0.058 A 
ATOM     73  C   UNL     1      -5.824  -3.438 -10.560  1.00  0.00     0.135 A 
ATOM     74  C   UNL     1      -6.461  -5.213  -9.119  1.00  0.00     0.135 A 
ATOM     75  F   UNL     1      -4.947  -2.609 -11.143  1.00  0.00    -0.206 F 
ATOM     76  C   UNL     1      -7.141  -3.296 -10.993  1.00  0.00     0.059 A 
ATOM     77  C   UNL     1      -7.798  -5.071  -9.520  1.00  0.00     0.059 A 
ATOM     78  F   UNL     1      -6.230  -6.233  -8.284  1.00  0.00    -0.206 F 
ATOM     79  C   UNL     1      -8.127  -4.113 -10.467  1.00  0.00     0.060 A 
BRANCH  79  80
ATOM     80  S   UNL     1      -9.810  -3.927 -11.083  1.00  0.00     0.124 S 
ATOM     81  O   UNL     1     -10.100  -2.533 -10.761  1.00  0.00    -0.237 OA
ATOM     82  O   UNL     1      -9.650  -4.230 -12.501  1.00  0.00    -0.237 OA
ATOM     83  O   UNL     1     -10.567  -4.911 -10.315  1.00  0.00    -0.744 OA
ENDBRANCH  79  80
ENDBRANCH  58  72
BRANCH  59  84
ATOM     84  C   UNL     1       3.309  -3.104  -5.327  1.00  0.00     0.058 A 
ATOM     85  C   UNL     1       3.841  -2.327  -4.276  1.00  0.00     0.135 A 
ATOM     86  C   UNL     1       3.021  -4.444  -5.040  1.00  0.00     0.135 A 
ATOM     87  F   UNL     1       4.144  -1.034  -4.484  1.00  0.00    -0.206 F 
ATOM     88  C   UNL     1       3.951  -2.815  -2.977  1.00  0.00     0.059 A 
ATOM     89  C   UNL     1       3.099  -4.943  -3.736  1.00  0.00     0.059 A 
ATOM     90  F   UNL     1       2.542  -5.253  -5.996  1.00  0.00    -0.206 F 
ATOM     91  C   UNL     1       3.500  -4.102  -2.701  1.00  0.00     0.060 A 
BRANCH  91  92
ATOM     92  S   UNL     1       3.374  -4.655  -0.984  1.00  0.00     0.124 S 
ATOM     93  O   UNL     1       4.534  -4.024  -0.362  1.00  0.00    -0.237 OA
ATOM     94  O   UNL     1       2.078  -4.108  -0.599  1.00  0.00    -0.237 OA
ATOM     95  O   UNL     1       3.425  -6.107  -1.094  1.00  0.00    -0.744 OA
ENDBRANCH  91  92
ENDBRANCH  59  84
BRANCH  71  96
ATOM     96  C   UNL     1       0.773  -4.399 -12.045  1.00  0.00     0.058 A 
ATOM     97  C   UNL     1       1.970  -4.938 -12.540  1.00  0.00     0.135 A 
ATOM     98  C   UNL     1      -0.362  -4.646 -12.872  1.00  0.00     0.135 A 
ATOM     99  F   UNL     1       3.103  -4.947 -11.831  1.00  0.00    -0.206 F 
ATOM    100  C   UNL     1       2.060  -5.560 -13.783  1.00  0.00     0.059 A 
ATOM    101  C   UNL     1      -0.313  -5.360 -14.062  1.00  0.00     0.059 A 
ATOM    102  F   UNL     1      -1.594  -4.221 -12.563  1.00  0.00    -0.206 F 
ATOM    103  C   UNL     1       0.913  -5.774 -14.534  1.00  0.00     0.060 A 
BRANCH 103 104
ATOM    104  S   UNL     1       1.051  -6.615 -16.109  1.00  0.00     0.124 S 
ATOM    105  O   UNL     1       1.706  -5.595 -16.922  1.00  0.00    -0.237 OA
ATOM    106  O   UNL     1       1.870  -7.774 -15.767  1.00  0.00    -0.237 OA
ATOM    107  O   UNL     1      -0.332  -6.913 -16.464  1.00  0.00    -0.744 OA
ENDBRANCH 103 104
ENDBRANCH  71  96
ENDBRANCH  45  46
ENDBRANCH  37  40
ENDBRANCH  35  36
ENDBRANCH  34  35
ENDBRANCH  33  34
ENDBRANCH  32  33
ENDBRANCH   1  32
TORSDOF 21
