REMARK SMILES C/C(=C/c1cccc(OCC(=O)NCCCCCCNC(=O)c2ccc(-c3c4nc(c(-c5c(F)cc(S(=O)(=O)[O-])cc5F)c5ccc([nH]5)c(-c5c(F)cc(S(=O)(=O)[O-])cc5F)c5nc(c(-c6c(F)cc(S(=O)(=O)[O-])cc6F)c6ccc3[nH]6)C=C5)C=C4)cc2)c1)c1nc2sccc2c(=O)[nH]1
REMARK SMILES IDX 16 1 15 2 14 3 13 4 11 5 12 6 10 8 9 9 8 10 4 11 5 12 89 13
REMARK SMILES IDX 6 14 7 15 3 16 1 17 2 18 90 19 91 20 99 21 92 22 97 23 93 25
REMARK SMILES IDX 96 26 98 27 94 28 95 29 17 30 18 31 19 32 20 33 21 34 22 36
REMARK SMILES IDX 23 37 24 38 88 39 25 40 87 41 26 42 27 43 28 44 81 45 29 46
REMARK SMILES IDX 86 47 80 48 82 49 30 50 85 51 79 52 78 53 31 55 65 56 44 57
REMARK SMILES IDX 64 58 45 59 48 60 63 61 83 62 46 63 47 64 62 66 84 67 49 68
REMARK SMILES IDX 32 69 33 70 42 71 34 72 35 73 41 74 43 75 36 76 37 77 38 78
REMARK SMILES IDX 39 79 40 80 66 81 67 82 76 83 68 84 69 85 75 86 77 87 70 88
REMARK SMILES IDX 71 89 72 90 73 91 74 92 50 93 51 94 60 95 52 96 53 97 59 98
REMARK SMILES IDX 61 99 54 100 55 101 56 102 57 103 58 104
REMARK H PARENT 13 7 99 24 20 35 82 54 48 65
REMARK Flexibility Score: inf
ROOT
ATOM      1  C   UNL     1      -0.843  -4.434   6.606  1.00  0.00     0.002 C 
ENDROOT
BRANCH   1   2
ATOM      2  C   UNL     1      -0.655  -3.156   7.428  1.00  0.00     0.021 C 
BRANCH   2   3
ATOM      3  C   UNL     1       0.783  -2.801   7.805  1.00  0.00     0.116 C 
BRANCH   3   4
ATOM      4  N   UNL     1       1.653  -2.585   6.665  1.00  0.00    -0.353 N 
ATOM      5  C   UNL     1       2.213  -1.413   6.243  1.00  0.00     0.257 C 
ATOM      6  O   UNL     1       3.109  -1.444   5.398  1.00  0.00    -0.271 OA
ATOM      7  H   UNL     1       1.866  -3.382   6.128  1.00  0.00     0.163 HD
BRANCH   5   8
ATOM      8  C   UNL     1       1.768  -0.085   6.856  1.00  0.00     0.329 C 
BRANCH   8   9
ATOM      9  O   UNL     1       0.372   0.140   6.939  1.00  0.00    -0.484 OA
BRANCH   9  10
ATOM     10  C   UNL     1      -0.320   0.412   5.793  1.00  0.00     0.120 A 
ATOM     11  C   UNL     1      -0.655   0.747   3.410  1.00  0.00    -0.022 A 
ATOM     12  C   UNL     1      -2.014   0.989   3.638  1.00  0.00     0.008 A 
ATOM     13  C   UNL     1       0.194   0.468   4.495  1.00  0.00     0.054 A 
ATOM     14  C   UNL     1      -2.528   0.933   4.931  1.00  0.00     0.004 A 
ATOM     15  C   UNL     1      -1.682   0.644   6.000  1.00  0.00     0.046 A 
BRANCH  11  16
ATOM     16  C   UNL     1      -0.146   0.830   2.033  1.00  0.00     0.015 C 
ATOM     17  C   UNL     1       1.047   0.065  -0.029  1.00  0.00     0.048 C 
ATOM     18  C   UNL     1       0.502  -0.134   1.352  1.00  0.00    -0.008 C 
BRANCH  18  19
ATOM     19  C   UNL     1       0.761  -1.479   1.935  1.00  0.00     0.137 A 
ATOM     20  N   UNL     1       1.966  -1.941   2.075  1.00  0.00    -0.219 NA
ATOM     21  N   UNL     1      -0.381  -2.178   2.260  1.00  0.00    -0.306 N 
ATOM     22  C   UNL     1       2.032  -3.166   2.661  1.00  0.00     0.131 A 
ATOM     23  C   UNL     1      -0.367  -3.447   2.792  1.00  0.00     0.259 A 
ATOM     24  H   UNL     1      -1.253  -1.747   2.104  1.00  0.00     0.171 HD
ATOM     25  S   UNL     1       3.522  -3.909   3.043  1.00  0.00    -0.124 S 
ATOM     26  C   UNL     1       0.966  -3.954   3.037  1.00  0.00     0.077 A 
ATOM     27  O   UNL     1      -1.392  -4.071   3.026  1.00  0.00    -0.269 OA
ATOM     28  C   UNL     1       2.741  -5.259   3.755  1.00  0.00     0.068 A 
ATOM     29  C   UNL     1       1.371  -5.176   3.649  1.00  0.00     0.028 A 
ENDBRANCH  18  19
ENDBRANCH  11  16
ENDBRANCH   9  10
ENDBRANCH   8   9
ENDBRANCH   5   8
ENDBRANCH   3   4
ENDBRANCH   2   3
ENDBRANCH   1   2
BRANCH   1  30
ATOM     30  C   UNL     1      -0.117  -5.688   7.099  1.00  0.00     0.002 C 
BRANCH  30  31
ATOM     31  C   UNL     1      -0.456  -6.131   8.522  1.00  0.00     0.021 C 
BRANCH  31  32
ATOM     32  C   UNL     1      -1.912  -6.523   8.751  1.00  0.00     0.116 C 
BRANCH  32  33
ATOM     33  N   UNL     1      -2.312  -7.706   8.004  1.00  0.00    -0.352 N 
ATOM     34  C   UNL     1      -3.081  -8.768   8.420  1.00  0.00     0.251 C 
ATOM     35  H   UNL     1      -1.988  -7.753   7.075  1.00  0.00     0.163 HD
ATOM     36  O   UNL     1      -3.227  -9.747   7.694  1.00  0.00    -0.269 OA
BRANCH  34  37
ATOM     37  C   UNL     1      -3.702  -8.740   9.764  1.00  0.00     0.039 A 
ATOM     38  C   UNL     1      -3.579  -9.859  10.592  1.00  0.00     0.014 A 
ATOM     39  C   UNL     1      -4.378  -7.603  10.216  1.00  0.00     0.014 A 
ATOM     40  C   UNL     1      -4.064  -9.809  11.901  1.00  0.00     0.010 A 
ATOM     41  C   UNL     1      -4.798  -7.530  11.542  1.00  0.00     0.010 A 
ATOM     42  C   UNL     1      -4.641  -8.629  12.400  1.00  0.00    -0.014 A 
BRANCH  42  43
ATOM     43  C   UNL     1      -5.077  -8.519  13.817  1.00  0.00     0.031 A 
ATOM     44  C   UNL     1      -6.529  -8.304  14.146  1.00  0.00     0.074 A 
ATOM     45  C   UNL     1      -4.155  -8.536  14.801  1.00  0.00     0.049 A 
ATOM     46  N   UNL     1      -7.090  -8.102  15.310  1.00  0.00    -0.248 NA
ATOM     47  C   UNL     1      -7.469  -8.283  13.015  1.00  0.00     0.031 C 
ATOM     48  C   UNL     1      -2.710  -8.678  14.606  1.00  0.00     0.029 A 
ATOM     49  N   UNL     1      -4.295  -8.417  16.161  1.00  0.00    -0.354 N 
ATOM     50  C   UNL     1      -8.442  -7.910  15.051  1.00  0.00     0.074 A 
ATOM     51  C   UNL     1      -8.609  -7.972  13.615  1.00  0.00     0.031 C 
ATOM     52  C   UNL     1      -2.100  -8.660  15.803  1.00  0.00     0.029 A 
ATOM     53  C   UNL     1      -3.103  -8.472  16.846  1.00  0.00     0.049 A 
ATOM     54  H   UNL     1      -5.166  -8.303  16.605  1.00  0.00     0.167 HD
ATOM     55  C   UNL     1      -9.456  -7.723  15.930  1.00  0.00     0.037 A 
ATOM     56  C   UNL     1      -2.847  -8.378  18.166  1.00  0.00     0.037 A 
ATOM     57  C   UNL     1      -9.290  -7.699  17.360  1.00  0.00     0.049 A 
ATOM     58  C   UNL     1      -3.993  -8.199  19.125  1.00  0.00     0.074 A 
ATOM     59  C   UNL     1     -10.262  -7.580  18.338  1.00  0.00     0.029 A 
ATOM     60  N   UNL     1      -8.073  -7.800  18.017  1.00  0.00    -0.354 N 
ATOM     61  N   UNL     1      -5.273  -8.082  18.865  1.00  0.00    -0.248 NA
ATOM     62  C   UNL     1      -3.661  -8.148  20.556  1.00  0.00     0.031 C 
ATOM     63  C   UNL     1      -9.629  -7.578  19.586  1.00  0.00     0.029 A 
ATOM     64  C   UNL     1      -8.267  -7.734  19.387  1.00  0.00     0.049 A 
ATOM     65  H   UNL     1      -7.199  -7.903  17.575  1.00  0.00     0.167 HD
ATOM     66  C   UNL     1      -5.902  -7.968  20.100  1.00  0.00     0.074 A 
ATOM     67  C   UNL     1      -4.863  -8.042  21.106  1.00  0.00     0.031 C 
ATOM     68  C   UNL     1      -7.221  -7.818  20.375  1.00  0.00     0.037 A 
BRANCH  55  69
ATOM     69  C   UNL     1     -10.838  -7.542  15.366  1.00  0.00     0.058 A 
ATOM     70  C   UNL     1     -11.536  -8.608  14.775  1.00  0.00     0.135 A 
ATOM     71  C   UNL     1     -11.483  -6.297  15.437  1.00  0.00     0.135 A 
ATOM     72  F   UNL     1     -10.960  -9.816  14.668  1.00  0.00    -0.206 F 
ATOM     73  C   UNL     1     -12.810  -8.439  14.244  1.00  0.00     0.059 A 
ATOM     74  C   UNL     1     -12.769  -6.111  14.936  1.00  0.00     0.059 A 
ATOM     75  F   UNL     1     -10.862  -5.244  15.992  1.00  0.00    -0.206 F 
ATOM     76  C   UNL     1     -13.417  -7.184  14.326  1.00  0.00     0.060 A 
BRANCH  76  77
ATOM     77  S   UNL     1     -15.069  -6.978  13.629  1.00  0.00     0.124 S 
ATOM     78  O   UNL     1     -14.778  -6.945  12.198  1.00  0.00    -0.237 OA
ATOM     79  O   UNL     1     -15.763  -8.170  14.106  1.00  0.00    -0.237 OA
ATOM     80  O   UNL     1     -15.526  -5.717  14.205  1.00  0.00    -0.744 OA
ENDBRANCH  76  77
ENDBRANCH  55  69
BRANCH  56  81
ATOM     81  C   UNL     1      -1.449  -8.485  18.661  1.00  0.00     0.058 A 
ATOM     82  C   UNL     1      -1.014  -9.630  19.343  1.00  0.00     0.135 A 
ATOM     83  C   UNL     1      -0.519  -7.455  18.450  1.00  0.00     0.135 A 
ATOM     84  F   UNL     1      -1.869 -10.638  19.573  1.00  0.00    -0.206 F 
ATOM     85  C   UNL     1       0.290  -9.748  19.813  1.00  0.00     0.059 A 
ATOM     86  C   UNL     1       0.797  -7.559  18.891  1.00  0.00     0.059 A 
ATOM     87  F   UNL     1      -0.882  -6.346  17.787  1.00  0.00    -0.206 F 
ATOM     88  C   UNL     1       1.189  -8.706  19.581  1.00  0.00     0.060 A 
BRANCH  88  89
ATOM     89  S   UNL     1       2.894  -8.888  20.149  1.00  0.00     0.124 S 
ATOM     90  O   UNL     1       2.750  -8.668  21.583  1.00  0.00    -0.237 OA
ATOM     91  O   UNL     1       3.211 -10.253  19.740  1.00  0.00    -0.237 OA
ATOM     92  O   UNL     1       3.603  -7.843  19.417  1.00  0.00    -0.744 OA
ENDBRANCH  88  89
ENDBRANCH  56  81
BRANCH  68  93
ATOM     93  C   UNL     1      -7.621  -7.754  21.822  1.00  0.00     0.058 A 
ATOM     94  C   UNL     1      -7.388  -6.610  22.600  1.00  0.00     0.135 A 
ATOM     95  C   UNL     1      -8.292  -8.832  22.421  1.00  0.00     0.135 A 
ATOM     96  F   UNL     1      -6.745  -5.556  22.075  1.00  0.00    -0.206 F 
ATOM     97  C   UNL     1      -7.789  -6.544  23.930  1.00  0.00     0.059 A 
ATOM     98  C   UNL     1      -8.723  -8.779  23.743  1.00  0.00     0.059 A 
ATOM     99  F   UNL     1      -8.548  -9.946  21.716  1.00  0.00    -0.206 F 
ATOM    100  C   UNL     1      -8.456  -7.634  24.493  1.00  0.00     0.060 A 
BRANCH 100 101
ATOM    101  S   UNL     1      -9.004  -7.524  26.210  1.00  0.00     0.124 S 
ATOM    102  O   UNL     1      -7.751  -7.725  26.930  1.00  0.00    -0.237 OA
ATOM    103  O   UNL     1      -9.565  -6.178  26.276  1.00  0.00    -0.237 OA
ATOM    104  O   UNL     1      -9.976  -8.607  26.325  1.00  0.00    -0.744 OA
ENDBRANCH 100 101
ENDBRANCH  68  93
ENDBRANCH  42  43
ENDBRANCH  34  37
ENDBRANCH  32  33
ENDBRANCH  31  32
ENDBRANCH  30  31
ENDBRANCH   1  30
TORSDOF 20
