REMARK SMILES O=C(C[C@H](NC(=O)[C@]12C[C@H]3C[C@H](C[C@H](C3)C1)C2)c1cccc([N+](=O)[O-])c1)NCCCCCCNC(=O)c1ccc(-c2c3nc(c(-c4c(F)cc(S(=O)(=O)[O-])cc4F)c4ccc([nH]4)c(-c4c(F)cc(S(=O)(=O)[O-])cc4F)c4nc(c(-c5c(F)cc(S(=O)(=O)[O-])cc5F)c5ccc2[nH]5)C=C4)C=C3)cc1
REMARK SMILES IDX 30 1 29 2 28 3 27 4 1 5 2 6 3 8 4 9 18 10 19 11 26 12 20 13
REMARK SMILES IDX 22 14 21 15 23 16 24 17 25 18 5 19 6 20 7 22 8 23 9 24 16 25
REMARK SMILES IDX 17 26 10 27 14 28 12 29 11 30 15 31 13 32 31 33 32 34 33 35
REMARK SMILES IDX 34 36 35 37 36 39 37 40 38 41 102 42 39 43 101 44 40 45
REMARK SMILES IDX 41 46 42 47 95 48 43 49 100 50 94 51 96 52 44 53 99 54 93 55
REMARK SMILES IDX 92 56 45 58 79 59 58 60 78 61 59 62 62 63 77 64 97 65 60 66
REMARK SMILES IDX 61 67 76 69 98 70 63 71 46 72 47 73 56 74 48 75 49 76 55 77
REMARK SMILES IDX 57 78 50 79 51 80 52 81 53 82 54 83 80 84 81 85 90 86 82 87
REMARK SMILES IDX 83 88 89 89 91 90 84 91 85 92 86 93 87 94 88 95 64 96 65 97
REMARK SMILES IDX 74 98 66 99 67 100 73 101 75 102 68 103 69 104 70 105 71 106
REMARK SMILES IDX 72 107
REMARK H PARENT 27 7 5 21 34 38 96 57 62 68
REMARK Flexibility Score: inf
ROOT
ATOM      1  C   UNL     1       2.573  -3.466  -4.685  1.00  0.00     0.002 C 
ENDROOT
BRANCH   1   2
ATOM      2  C   UNL     1       2.824  -1.958  -4.766  1.00  0.00     0.021 C 
BRANCH   2   3
ATOM      3  C   UNL     1       2.393  -1.189  -3.517  1.00  0.00     0.116 C 
BRANCH   3   4
ATOM      4  N   UNL     1       2.842  -1.766  -2.262  1.00  0.00    -0.356 N 
ATOM      5  O   UNL     1       5.050  -1.807  -2.847  1.00  0.00    -0.275 OA
ATOM      6  C   UNL     1       4.174  -1.928  -1.991  1.00  0.00     0.222 C 
ATOM      7  H   UNL     1       2.176  -2.046  -1.593  1.00  0.00     0.163 HD
BRANCH   6   8
ATOM      8  C   UNL     1       4.580  -2.263  -0.580  1.00  0.00     0.129 C 
BRANCH   8   9
ATOM      9  C   UNL     1       3.661  -1.954   0.613  1.00  0.00     0.122 C 
BRANCH   9  10
ATOM     10  C   UNL     1       4.247  -2.615   1.871  1.00  0.00    -0.018 A 
ATOM     11  C   UNL     1       4.303  -4.024   1.937  1.00  0.00     0.006 A 
ATOM     12  C   UNL     1       4.806  -1.885   2.931  1.00  0.00     0.091 A 
ATOM     13  C   UNL     1       4.935  -4.683   2.994  1.00  0.00     0.007 A 
ATOM     14  C   UNL     1       5.453  -2.551   3.985  1.00  0.00     0.269 A 
ATOM     15  C   UNL     1       5.523  -3.948   4.019  1.00  0.00     0.085 A 
BRANCH  14  16
ATOM     16  N   UNL     1       6.101  -1.771   5.047  1.00  0.00     0.062 N 
ATOM     17  O   UNL     1       6.510  -2.384   6.044  1.00  0.00    -0.258 OA
ATOM     18  O   UNL     1       6.215  -0.549   4.878  1.00  0.00    -0.258 OA
ENDBRANCH  14  16
ENDBRANCH   9  10
BRANCH   9  19
ATOM     19  N   UNL     1       3.123  -0.601   0.887  1.00  0.00    -0.348 N 
ATOM     20  C   UNL     1       3.497   0.707   0.955  1.00  0.00     0.226 C 
ATOM     21  H   UNL     1       2.162  -0.672   1.090  1.00  0.00     0.164 HD
ATOM     22  O   UNL     1       2.695   1.438   1.550  1.00  0.00    -0.274 OA
BRANCH  20  23
ATOM     23  C   UNL     1       4.753   1.310   0.313  1.00  0.00     0.050 C 
ATOM     24  C   UNL     1       6.035   0.669   0.868  1.00  0.00     0.020 C 
ATOM     25  C   UNL     1       4.904   2.843   0.577  1.00  0.00     0.020 C 
ATOM     26  C   UNL     1       4.604   1.211  -1.210  1.00  0.00     0.020 C 
ATOM     27  C   UNL     1       7.269   1.162   0.107  1.00  0.00    -0.010 C 
ATOM     28  C   UNL     1       6.155   3.400  -0.159  1.00  0.00    -0.010 C 
ATOM     29  C   UNL     1       5.870   1.654  -1.938  1.00  0.00    -0.010 C 
ATOM     30  C   UNL     1       7.081   0.879  -1.393  1.00  0.00     0.007 C 
ATOM     31  C   UNL     1       7.413   2.672   0.343  1.00  0.00     0.007 C 
ATOM     32  C   UNL     1       6.043   3.153  -1.676  1.00  0.00     0.007 C 
ENDBRANCH  20  23
ENDBRANCH   9  19
ENDBRANCH   8   9
ENDBRANCH   6   8
ENDBRANCH   3   4
ENDBRANCH   2   3
ENDBRANCH   1   2
BRANCH   1  33
ATOM     33  C   UNL     1       1.115  -3.846  -4.426  1.00  0.00     0.002 C 
BRANCH  33  34
ATOM     34  C   UNL     1       0.130  -3.311  -5.466  1.00  0.00     0.021 C 
BRANCH  34  35
ATOM     35  C   UNL     1       0.462  -3.705  -6.900  1.00  0.00     0.116 C 
BRANCH  35  36
ATOM     36  N   UNL     1       0.448  -5.150  -7.080  1.00  0.00    -0.352 N 
ATOM     37  C   UNL     1      -0.274  -5.894  -7.979  1.00  0.00     0.251 C 
ATOM     38  H   UNL     1       1.035  -5.661  -6.477  1.00  0.00     0.163 HD
ATOM     39  O   UNL     1      -0.348  -7.114  -7.858  1.00  0.00    -0.269 OA
BRANCH  37  40
ATOM     40  C   UNL     1      -0.977  -5.204  -9.078  1.00  0.00     0.039 A 
ATOM     41  C   UNL     1      -2.315  -5.511  -9.329  1.00  0.00     0.014 A 
ATOM     42  C   UNL     1      -0.318  -4.225  -9.829  1.00  0.00     0.014 A 
ATOM     43  C   UNL     1      -3.013  -4.785 -10.295  1.00  0.00     0.010 A 
ATOM     44  C   UNL     1      -1.037  -3.452 -10.733  1.00  0.00     0.010 A 
ATOM     45  C   UNL     1      -2.392  -3.724 -10.975  1.00  0.00    -0.014 A 
BRANCH  45  46
ATOM     46  C   UNL     1      -3.147  -2.874 -11.930  1.00  0.00     0.031 A 
ATOM     47  C   UNL     1      -2.749  -2.829 -13.379  1.00  0.00     0.074 A 
ATOM     48  C   UNL     1      -4.141  -2.087 -11.474  1.00  0.00     0.049 A 
ATOM     49  N   UNL     1      -3.238  -2.096 -14.346  1.00  0.00    -0.248 NA
ATOM     50  C   UNL     1      -1.637  -3.700 -13.789  1.00  0.00     0.031 C 
ATOM     51  C   UNL     1      -4.578  -2.002 -10.078  1.00  0.00     0.029 A 
ATOM     52  N   UNL     1      -4.952  -1.196 -12.129  1.00  0.00    -0.354 N 
ATOM     53  C   UNL     1      -2.490  -2.411 -15.474  1.00  0.00     0.074 A 
ATOM     54  C   UNL     1      -1.476  -3.355 -15.057  1.00  0.00     0.031 C 
ATOM     55  C   UNL     1      -5.583  -1.119  -9.985  1.00  0.00     0.029 A 
ATOM     56  C   UNL     1      -5.835  -0.542 -11.302  1.00  0.00     0.049 A 
ATOM     57  H   UNL     1      -4.907  -1.039 -13.100  1.00  0.00     0.167 HD
ATOM     58  C   UNL     1      -2.651  -1.973 -16.746  1.00  0.00     0.037 A 
ATOM     59  C   UNL     1      -6.733   0.427 -11.568  1.00  0.00     0.037 A 
ATOM     60  C   UNL     1      -3.668  -1.037 -17.149  1.00  0.00     0.049 A 
ATOM     61  C   UNL     1      -6.886   0.911 -12.984  1.00  0.00     0.074 A 
ATOM     62  C   UNL     1      -3.953  -0.571 -18.421  1.00  0.00     0.029 A 
ATOM     63  N   UNL     1      -4.560  -0.413 -16.287  1.00  0.00    -0.354 N 
ATOM     64  N   UNL     1      -6.225   0.543 -14.056  1.00  0.00    -0.248 NA
ATOM     65  C   UNL     1      -7.910   1.935 -13.230  1.00  0.00     0.031 C 
ATOM     66  C   UNL     1      -4.977   0.377 -18.319  1.00  0.00     0.029 A 
ATOM     67  C   UNL     1      -5.374   0.457 -16.994  1.00  0.00     0.049 A 
ATOM     68  H   UNL     1      -4.606  -0.566 -15.316  1.00  0.00     0.167 HD
ATOM     69  C   UNL     1      -6.764   1.277 -15.107  1.00  0.00     0.074 A 
ATOM     70  C   UNL     1      -7.818   2.096 -14.543  1.00  0.00     0.031 C 
ATOM     71  C   UNL     1      -6.418   1.272 -16.418  1.00  0.00     0.037 A 
BRANCH  58  72
ATOM     72  C   UNL     1      -1.698  -2.498 -17.787  1.00  0.00     0.058 A 
ATOM     73  C   UNL     1      -1.708  -3.845 -18.186  1.00  0.00     0.135 A 
ATOM     74  C   UNL     1      -0.770  -1.643 -18.404  1.00  0.00     0.135 A 
ATOM     75  F   UNL     1      -2.565  -4.712 -17.623  1.00  0.00    -0.206 F 
ATOM     76  C   UNL     1      -0.804  -4.335 -19.123  1.00  0.00     0.059 A 
ATOM     77  C   UNL     1       0.122  -2.104 -19.369  1.00  0.00     0.059 A 
ATOM     78  F   UNL     1      -0.716  -0.345 -18.065  1.00  0.00    -0.206 F 
ATOM     79  C   UNL     1       0.111  -3.456 -19.706  1.00  0.00     0.060 A 
BRANCH  79  80
ATOM     80  S   UNL     1       1.289  -4.112 -20.906  1.00  0.00     0.124 S 
ATOM     81  O   UNL     1       2.184  -4.878 -20.044  1.00  0.00    -0.237 OA
ATOM     82  O   UNL     1       0.432  -4.898 -21.787  1.00  0.00    -0.237 OA
ATOM     83  O   UNL     1       1.869  -2.914 -21.504  1.00  0.00    -0.744 OA
ENDBRANCH  79  80
ENDBRANCH  58  72
BRANCH  59  84
ATOM     84  C   UNL     1      -7.552   0.993 -10.463  1.00  0.00     0.058 A 
ATOM     85  C   UNL     1      -8.926   0.730 -10.368  1.00  0.00     0.135 A 
ATOM     86  C   UNL     1      -6.966   1.777  -9.456  1.00  0.00     0.135 A 
ATOM     87  F   UNL     1      -9.535  -0.008 -11.309  1.00  0.00    -0.206 F 
ATOM     88  C   UNL     1      -9.693   1.227  -9.318  1.00  0.00     0.059 A 
ATOM     89  C   UNL     1      -7.705   2.262  -8.382  1.00  0.00     0.059 A 
ATOM     90  F   UNL     1      -5.651   2.044  -9.491  1.00  0.00    -0.206 F 
ATOM     91  C   UNL     1      -9.070   1.986  -8.325  1.00  0.00     0.060 A 
BRANCH  91  92
ATOM     92  S   UNL     1     -10.060   2.564  -6.929  1.00  0.00     0.124 S 
ATOM     93  O   UNL     1     -10.875   3.599  -7.555  1.00  0.00    -0.237 OA
ATOM     94  O   UNL     1     -10.763   1.349  -6.530  1.00  0.00    -0.237 OA
ATOM     95  O   UNL     1      -9.056   3.038  -5.980  1.00  0.00    -0.744 OA
ENDBRANCH  91  92
ENDBRANCH  59  84
BRANCH  71  96
ATOM     96  C   UNL     1      -7.197   2.165 -17.346  1.00  0.00     0.058 A 
ATOM     97  C   UNL     1      -7.046   3.560 -17.327  1.00  0.00     0.135 A 
ATOM     98  C   UNL     1      -8.057   1.611 -18.309  1.00  0.00     0.135 A 
ATOM     99  F   UNL     1      -6.244   4.141 -16.422  1.00  0.00    -0.206 F 
ATOM    100  C   UNL     1      -7.734   4.377 -18.219  1.00  0.00     0.059 A 
ATOM    101  C   UNL     1      -8.731   2.407 -19.230  1.00  0.00     0.059 A 
ATOM    102  F   UNL     1      -8.232   0.282 -18.376  1.00  0.00    -0.206 F 
ATOM    103  C   UNL     1      -8.570   3.790 -19.171  1.00  0.00     0.060 A 
BRANCH 103 104
ATOM    104  S   UNL     1      -9.420   4.860 -20.352  1.00  0.00     0.124 S 
ATOM    105  O   UNL     1     -10.421   5.497 -19.503  1.00  0.00    -0.237 OA
ATOM    106  O   UNL     1      -8.341   5.725 -20.820  1.00  0.00    -0.237 OA
ATOM    107  O   UNL     1      -9.942   3.925 -21.344  1.00  0.00    -0.744 OA
ENDBRANCH 103 104
ENDBRANCH  71  96
ENDBRANCH  45  46
ENDBRANCH  37  40
ENDBRANCH  35  36
ENDBRANCH  34  35
ENDBRANCH  33  34
ENDBRANCH   1  33
TORSDOF 21
