REMARK SMILES O=C(C[C@H]1C[C@H]2CC[C@@H](C1)N2C(=O)NCCC1CC1)NCCCCCCNC(=O)c1ccc(-c2c3nc(c(-c4c(F)cc(S(=O)(=O)[O-])cc4F)c4ccc([nH]4)c(-c4c(F)cc(S(=O)(=O)[O-])cc4F)c4nc(c(-c5c(F)cc(S(=O)(=O)[O-])cc5F)c5ccc2[nH]5)C=C4)C=C3)cc1
REMARK SMILES IDX 22 1 21 2 20 3 1 4 2 5 3 7 4 8 5 9 10 10 6 11 9 12 7 13
REMARK SMILES IDX 11 14 8 15 12 16 13 17 14 18 15 20 16 21 17 22 18 23 19 24
REMARK SMILES IDX 23 25 24 26 25 27 26 28 27 29 28 30 29 32 30 33 31 34 95 35
REMARK SMILES IDX 32 36 94 37 33 38 34 39 35 40 88 41 36 42 93 43 87 44 89 45
REMARK SMILES IDX 37 46 92 47 86 48 85 49 38 51 72 52 51 53 71 54 52 55 55 56
REMARK SMILES IDX 70 57 90 58 53 59 54 60 69 62 91 63 56 64 39 65 40 66 49 67
REMARK SMILES IDX 41 68 42 69 48 70 50 71 43 72 44 73 45 74 46 75 47 76 73 77
REMARK SMILES IDX 74 78 83 79 75 80 76 81 82 82 84 83 77 84 78 85 79 86 80 87
REMARK SMILES IDX 81 88 57 89 58 90 67 91 59 92 60 93 66 94 68 95 61 96 62 97
REMARK SMILES IDX 63 98 64 99 65 100
REMARK H PARENT 20 6 14 19 27 31 89 50 55 61
REMARK Flexibility Score: inf
ROOT
ATOM      1  C   UNL     1       2.526   1.368  -3.168  1.00  0.00     0.021 C 
ENDROOT
BRANCH   1   2
ATOM      2  C   UNL     1       1.899   0.024  -2.789  1.00  0.00     0.116 C 
BRANCH   2   3
ATOM      3  N   UNL     1       2.424  -0.470  -1.532  1.00  0.00    -0.356 N 
ATOM      4  O   UNL     1       0.385  -0.726  -0.554  1.00  0.00    -0.275 OA
ATOM      5  C   UNL     1       1.613  -0.709  -0.462  1.00  0.00     0.220 C 
ATOM      6  H   UNL     1       3.391  -0.637  -1.448  1.00  0.00     0.163 HD
BRANCH   5   7
ATOM      7  C   UNL     1       2.250  -0.815   0.911  1.00  0.00     0.103 C 
BRANCH   7   8
ATOM      8  C   UNL     1       3.753  -1.076   1.147  1.00  0.00     0.002 C 
ATOM      9  C   UNL     1       4.754  -0.004   0.641  1.00  0.00     0.029 C 
ATOM     10  C   UNL     1       3.994  -1.327   2.667  1.00  0.00     0.029 C 
ATOM     11  C   UNL     1       5.086   1.115   1.643  1.00  0.00     0.087 C 
ATOM     12  C   UNL     1       4.347  -0.058   3.478  1.00  0.00     0.087 C 
ATOM     13  C   UNL     1       3.833   1.874   2.090  1.00  0.00     0.027 C 
ATOM     14  N   UNL     1       5.542   0.516   2.891  1.00  0.00    -0.319 N 
ATOM     15  C   UNL     1       3.353   1.101   3.329  1.00  0.00     0.027 C 
BRANCH  14  16
ATOM     16  C   UNL     1       6.775   0.803   3.370  1.00  0.00     0.317 C 
ATOM     17  O   UNL     1       7.580   1.472   2.712  1.00  0.00    -0.249 OA
ATOM     18  N   UNL     1       7.217   0.425   4.578  1.00  0.00    -0.338 N 
ATOM     19  H   UNL     1       8.035   0.913   4.826  1.00  0.00     0.165 HD
BRANCH  18  20
ATOM     20  C   UNL     1       6.825  -0.505   5.622  1.00  0.00     0.118 C 
BRANCH  20  21
ATOM     21  C   UNL     1       7.554  -1.843   5.487  1.00  0.00     0.025 C 
BRANCH  21  22
ATOM     22  C   UNL     1       8.930  -1.791   6.090  1.00  0.00    -0.009 C 
ATOM     23  C   UNL     1      10.054  -2.585   5.479  1.00  0.00     0.004 C 
ATOM     24  C   UNL     1      10.066  -1.085   5.398  1.00  0.00     0.004 C 
ENDBRANCH  21  22
ENDBRANCH  20  21
ENDBRANCH  18  20
ENDBRANCH  14  16
ENDBRANCH   7   8
ENDBRANCH   5   7
ENDBRANCH   2   3
ENDBRANCH   1   2
BRANCH   1  25
ATOM     25  C   UNL     1       4.045   1.345  -3.377  1.00  0.00     0.002 C 
BRANCH  25  26
ATOM     26  C   UNL     1       4.564   0.254  -4.316  1.00  0.00     0.002 C 
BRANCH  26  27
ATOM     27  C   UNL     1       3.916   0.226  -5.700  1.00  0.00     0.021 C 
BRANCH  27  28
ATOM     28  C   UNL     1       4.062   1.515  -6.499  1.00  0.00     0.116 C 
BRANCH  28  29
ATOM     29  N   UNL     1       5.444   1.786  -6.859  1.00  0.00    -0.352 N 
ATOM     30  C   UNL     1       5.990   2.011  -8.101  1.00  0.00     0.251 C 
ATOM     31  H   UNL     1       6.079   1.811  -6.107  1.00  0.00     0.163 HD
ATOM     32  O   UNL     1       7.207   2.037  -8.238  1.00  0.00    -0.269 OA
BRANCH  30  33
ATOM     33  C   UNL     1       5.103   2.196  -9.273  1.00  0.00     0.039 A 
ATOM     34  C   UNL     1       5.412   1.535 -10.464  1.00  0.00     0.014 A 
ATOM     35  C   UNL     1       3.969   3.010  -9.197  1.00  0.00     0.014 A 
ATOM     36  C   UNL     1       4.549   1.640 -11.558  1.00  0.00     0.010 A 
ATOM     37  C   UNL     1       3.071   3.049 -10.260  1.00  0.00     0.010 A 
ATOM     38  C   UNL     1       3.351   2.366 -11.454  1.00  0.00    -0.014 A 
BRANCH  38  39
ATOM     39  C   UNL     1       2.378   2.417 -12.578  1.00  0.00     0.031 A 
ATOM     40  C   UNL     1       2.048   3.729 -13.237  1.00  0.00     0.074 A 
ATOM     41  C   UNL     1       1.748   1.290 -12.966  1.00  0.00     0.049 A 
ATOM     42  N   UNL     1       1.183   3.982 -14.186  1.00  0.00    -0.248 NA
ATOM     43  C   UNL     1       2.767   4.918 -12.750  1.00  0.00     0.031 C 
ATOM     44  C   UNL     1       1.948  -0.036 -12.377  1.00  0.00     0.029 A 
ATOM     45  N   UNL     1       0.805   1.078 -13.941  1.00  0.00    -0.354 N 
ATOM     46  C   UNL     1       1.247   5.354 -14.403  1.00  0.00     0.074 A 
ATOM     47  C   UNL     1       2.192   5.888 -13.446  1.00  0.00     0.031 C 
ATOM     48  C   UNL     1       1.172  -0.925 -13.018  1.00  0.00     0.029 A 
ATOM     49  C   UNL     1       0.387  -0.229 -14.033  1.00  0.00     0.049 A 
ATOM     50  H   UNL     1       0.460   1.795 -14.520  1.00  0.00     0.167 HD
ATOM     51  C   UNL     1       0.597   6.097 -15.331  1.00  0.00     0.037 A 
ATOM     52  C   UNL     1      -0.531  -0.803 -14.835  1.00  0.00     0.037 A 
ATOM     53  C   UNL     1      -0.332   5.556 -16.290  1.00  0.00     0.049 A 
ATOM     54  C   UNL     1      -1.257   0.047 -15.844  1.00  0.00     0.074 A 
ATOM     55  C   UNL     1      -1.006   6.219 -17.301  1.00  0.00     0.029 A 
ATOM     56  N   UNL     1      -0.723   4.226 -16.355  1.00  0.00    -0.354 N 
ATOM     57  N   UNL     1      -1.139   1.333 -16.075  1.00  0.00    -0.248 NA
ATOM     58  C   UNL     1      -2.235  -0.631 -16.704  1.00  0.00     0.031 C 
ATOM     59  C   UNL     1      -1.844   5.301 -17.943  1.00  0.00     0.029 A 
ATOM     60  C   UNL     1      -1.646   4.053 -17.374  1.00  0.00     0.049 A 
ATOM     61  H   UNL     1      -0.392   3.511 -15.765  1.00  0.00     0.167 HD
ATOM     62  C   UNL     1      -2.005   1.611 -17.127  1.00  0.00     0.074 A 
ATOM     63  C   UNL     1      -2.631   0.357 -17.494  1.00  0.00     0.031 C 
ATOM     64  C   UNL     1      -2.258   2.797 -17.735  1.00  0.00     0.037 A 
BRANCH  51  65
ATOM     65  C   UNL     1       0.868   7.578 -15.355  1.00  0.00     0.058 A 
ATOM     66  C   UNL     1       2.110   8.095 -15.759  1.00  0.00     0.135 A 
ATOM     67  C   UNL     1      -0.137   8.496 -15.008  1.00  0.00     0.135 A 
ATOM     68  F   UNL     1       3.113   7.265 -16.089  1.00  0.00    -0.206 F 
ATOM     69  C   UNL     1       2.356   9.463 -15.788  1.00  0.00     0.059 A 
ATOM     70  C   UNL     1       0.076   9.870 -15.060  1.00  0.00     0.059 A 
ATOM     71  F   UNL     1      -1.345   8.060 -14.615  1.00  0.00    -0.206 F 
ATOM     72  C   UNL     1       1.332  10.344 -15.437  1.00  0.00     0.060 A 
BRANCH  72  73
ATOM     73  S   UNL     1       1.667  12.117 -15.486  1.00  0.00     0.124 S 
ATOM     74  O   UNL     1       2.557  12.277 -14.340  1.00  0.00    -0.237 OA
ATOM     75  O   UNL     1       2.287  12.280 -16.797  1.00  0.00    -0.237 OA
ATOM     76  O   UNL     1       0.345  12.719 -15.341  1.00  0.00    -0.744 OA
ENDBRANCH  72  73
ENDBRANCH  51  65
BRANCH  52  77
ATOM     77  C   UNL     1      -0.802  -2.263 -14.730  1.00  0.00     0.058 A 
ATOM     78  C   UNL     1      -0.423  -3.143 -15.755  1.00  0.00     0.135 A 
ATOM     79  C   UNL     1      -1.430  -2.809 -13.600  1.00  0.00     0.135 A 
ATOM     80  F   UNL     1       0.174  -2.669 -16.859  1.00  0.00    -0.206 F 
ATOM     81  C   UNL     1      -0.670  -4.509 -15.672  1.00  0.00     0.059 A 
ATOM     82  C   UNL     1      -1.663  -4.176 -13.481  1.00  0.00     0.059 A 
ATOM     83  F   UNL     1      -1.799  -2.013 -12.584  1.00  0.00    -0.206 F 
ATOM     84  C   UNL     1      -1.287  -5.017 -14.527  1.00  0.00     0.060 A 
BRANCH  84  85
ATOM     85  S   UNL     1      -1.556  -6.799 -14.408  1.00  0.00     0.124 S 
ATOM     86  O   UNL     1      -2.624  -7.001 -15.380  1.00  0.00    -0.237 OA
ATOM     87  O   UNL     1      -0.248  -7.330 -14.777  1.00  0.00    -0.237 OA
ATOM     88  O   UNL     1      -1.930  -6.989 -13.010  1.00  0.00    -0.744 OA
ENDBRANCH  84  85
ENDBRANCH  52  77
BRANCH  64  89
ATOM     89  C   UNL     1      -3.224   2.796 -18.889  1.00  0.00     0.058 A 
ATOM     90  C   UNL     1      -4.602   2.611 -18.703  1.00  0.00     0.135 A 
ATOM     91  C   UNL     1      -2.767   3.039 -20.195  1.00  0.00     0.135 A 
ATOM     92  F   UNL     1      -5.092   2.369 -17.476  1.00  0.00    -0.206 F 
ATOM     93  C   UNL     1      -5.491   2.643 -19.773  1.00  0.00     0.059 A 
ATOM     94  C   UNL     1      -3.641   3.106 -21.276  1.00  0.00     0.059 A 
ATOM     95  F   UNL     1      -1.459   3.233 -20.430  1.00  0.00    -0.206 F 
ATOM     96  C   UNL     1      -5.001   2.895 -21.056  1.00  0.00     0.060 A 
BRANCH  96  97
ATOM     97  S   UNL     1      -6.171   2.969 -22.429  1.00  0.00     0.124 S 
ATOM     98  O   UNL     1      -6.533   1.564 -22.584  1.00  0.00    -0.237 OA
ATOM     99  O   UNL     1      -7.217   3.839 -21.900  1.00  0.00    -0.237 OA
ATOM    100  O   UNL     1      -5.382   3.538 -23.518  1.00  0.00    -0.744 OA
ENDBRANCH  96  97
ENDBRANCH  64  89
ENDBRANCH  38  39
ENDBRANCH  30  33
ENDBRANCH  28  29
ENDBRANCH  27  28
ENDBRANCH  26  27
ENDBRANCH  25  26
ENDBRANCH   1  25
TORSDOF 21
