REMARK SMILES CC(C)[C@@H](NC(=O)N[C@H]1CCS(=O)(=O)C1)C(=O)NCCCCCCNC(=O)c1ccc(-c2c3nc(c(-c4c(F)cc(S(=O)(=O)[O-])cc4F)c4ccc([nH]4)c(-c4c(F)cc(S(=O)(=O)[O-])cc4F)c4nc(c(-c5c(F)cc(S(=O)(=O)[O-])cc5F)c5ccc2[nH]5)C=C4)C=C3)cc1
REMARK SMILES IDX 22 1 21 2 20 3 19 4 18 5 16 6 17 7 4 9 2 10 1 11 3 12 5 13
REMARK SMILES IDX 6 14 7 16 8 17 9 19 10 20 15 21 11 22 12 23 13 24 14 25
REMARK SMILES IDX 23 26 24 27 25 28 26 29 27 31 28 32 29 33 93 34 30 35 92 36
REMARK SMILES IDX 31 37 32 38 33 39 86 40 34 41 91 42 85 43 87 44 35 45 90 46
REMARK SMILES IDX 84 47 83 48 36 50 70 51 49 52 69 53 50 54 53 55 68 56 88 57
REMARK SMILES IDX 51 58 52 59 67 61 89 62 54 63 37 64 38 65 47 66 39 67 40 68
REMARK SMILES IDX 46 69 48 70 41 71 42 72 43 73 44 74 45 75 71 76 72 77 81 78
REMARK SMILES IDX 73 79 74 80 80 81 82 82 75 83 76 84 77 85 78 86 79 87 55 88
REMARK SMILES IDX 56 89 65 90 57 91 58 92 64 93 66 94 59 95 60 96 61 97 62 98
REMARK SMILES IDX 63 99
REMARK H PARENT 18 8 5 15 8 18 25 30 87 49 53 60
REMARK Flexibility Score: inf
ROOT
ATOM      1  C   UNL     1       0.155  -2.064   4.989  1.00  0.00     0.002 C 
ENDROOT
BRANCH   1   2
ATOM      2  C   UNL     1      -0.684  -2.740   3.900  1.00  0.00     0.002 C 
BRANCH   2   3
ATOM      3  C   UNL     1      -2.182  -2.840   4.208  1.00  0.00     0.021 C 
BRANCH   3   4
ATOM      4  C   UNL     1      -2.868  -1.486   4.300  1.00  0.00     0.116 C 
BRANCH   4   5
ATOM      5  N   UNL     1      -2.987  -0.894   2.984  1.00  0.00    -0.354 N 
ATOM      6  C   UNL     1      -3.848   0.055   2.540  1.00  0.00     0.242 C 
ATOM      7  O   UNL     1      -3.782   0.373   1.349  1.00  0.00    -0.273 OA
ATOM      8  H   UNL     1      -2.349  -1.229   2.313  1.00  0.00     0.163 HD
BRANCH   6   9
ATOM      9  C   UNL     1      -4.957   0.635   3.435  1.00  0.00     0.175 C 
BRANCH   9  10
ATOM     10  C   UNL     1      -6.132  -0.390   3.497  1.00  0.00     0.015 C 
ATOM     11  C   UNL     1      -7.381   0.202   4.154  1.00  0.00     0.010 C 
ATOM     12  C   UNL     1      -6.515  -0.932   2.110  1.00  0.00     0.010 C 
ENDBRANCH   9  10
BRANCH   9  13
ATOM     13  N   UNL     1      -4.455   0.971   4.773  1.00  0.00    -0.326 N 
ATOM     14  C   UNL     1      -3.485   1.759   5.248  1.00  0.00     0.315 C 
ATOM     15  H   UNL     1      -4.947   0.507   5.488  1.00  0.00     0.166 HD
ATOM     16  O   UNL     1      -3.358   1.827   6.472  1.00  0.00    -0.249 OA
ATOM     17  N   UNL     1      -2.600   2.430   4.503  1.00  0.00    -0.334 N 
ATOM     18  H   UNL     1      -1.844   2.772   5.033  1.00  0.00     0.165 HD
BRANCH  17  19
ATOM     19  C   UNL     1      -2.493   2.772   3.095  1.00  0.00     0.099 C 
ATOM     20  C   UNL     1      -2.376   4.288   2.897  1.00  0.00     0.042 C 
ATOM     21  C   UNL     1      -1.251   2.192   2.412  1.00  0.00     0.161 C 
ATOM     22  C   UNL     1      -2.208   4.461   1.393  1.00  0.00     0.139 C 
ATOM     23  S   UNL     1      -1.087   3.155   0.912  1.00  0.00     0.152 S 
ATOM     24  O   UNL     1      -1.664   2.436  -0.203  1.00  0.00    -0.229 OA
ATOM     25  O   UNL     1       0.253   3.702   0.858  1.00  0.00    -0.229 OA
ENDBRANCH  17  19
ENDBRANCH   9  13
ENDBRANCH   6   9
ENDBRANCH   4   5
ENDBRANCH   3   4
ENDBRANCH   2   3
ENDBRANCH   1   2
BRANCH   1  26
ATOM     26  C   UNL     1       0.006  -2.660   6.391  1.00  0.00     0.021 C 
BRANCH  26  27
ATOM     27  C   UNL     1       0.132  -4.177   6.461  1.00  0.00     0.116 C 
BRANCH  27  28
ATOM     28  N   UNL     1       1.394  -4.669   5.939  1.00  0.00    -0.352 N 
ATOM     29  C   UNL     1       2.081  -5.792   6.329  1.00  0.00     0.251 C 
ATOM     30  H   UNL     1       1.806  -4.135   5.221  1.00  0.00     0.163 HD
ATOM     31  O   UNL     1       3.188  -6.043   5.867  1.00  0.00    -0.269 OA
BRANCH  29  32
ATOM     32  C   UNL     1       1.474  -6.669   7.350  1.00  0.00     0.039 A 
ATOM     33  C   UNL     1       2.200  -6.953   8.508  1.00  0.00     0.014 A 
ATOM     34  C   UNL     1       0.172  -7.152   7.187  1.00  0.00     0.014 A 
ATOM     35  C   UNL     1       1.598  -7.685   9.531  1.00  0.00     0.010 A 
ATOM     36  C   UNL     1      -0.447  -7.826   8.234  1.00  0.00     0.010 A 
ATOM     37  C   UNL     1       0.262  -8.102   9.414  1.00  0.00    -0.014 A 
BRANCH  37  38
ATOM     38  C   UNL     1      -0.407  -8.838  10.515  1.00  0.00     0.031 A 
ATOM     39  C   UNL     1      -0.836 -10.264  10.310  1.00  0.00     0.074 A 
ATOM     40  C   UNL     1      -0.674  -8.206  11.674  1.00  0.00     0.049 A 
ATOM     41  N   UNL     1      -1.476 -11.059  11.128  1.00  0.00    -0.248 NA
ATOM     42  C   UNL     1      -0.531 -10.868   9.003  1.00  0.00     0.031 C 
ATOM     43  C   UNL     1      -0.353  -6.807  11.968  1.00  0.00     0.029 A 
ATOM     44  N   UNL     1      -1.284  -8.652  12.818  1.00  0.00    -0.354 N 
ATOM     45  C   UNL     1      -1.662 -12.247  10.433  1.00  0.00     0.074 A 
ATOM     46  C   UNL     1      -1.114 -12.053   9.108  1.00  0.00     0.031 C 
ATOM     47  C   UNL     1      -0.751  -6.517  13.218  1.00  0.00     0.029 A 
ATOM     48  C   UNL     1      -1.381  -7.697  13.803  1.00  0.00     0.049 A 
ATOM     49  H   UNL     1      -1.621  -9.571  12.925  1.00  0.00     0.167 HD
ATOM     50  C   UNL     1      -2.217 -13.403  10.867  1.00  0.00     0.037 A 
ATOM     51  C   UNL     1      -1.918  -7.766  15.036  1.00  0.00     0.037 A 
ATOM     52  C   UNL     1      -2.731 -13.598  12.197  1.00  0.00     0.049 A 
ATOM     53  C   UNL     1      -2.512  -9.067  15.504  1.00  0.00     0.074 A 
ATOM     54  C   UNL     1      -3.257 -14.749  12.757  1.00  0.00     0.029 A 
ATOM     55  N   UNL     1      -2.783 -12.617  13.177  1.00  0.00    -0.354 N 
ATOM     56  N   UNL     1      -2.620 -10.202  14.855  1.00  0.00    -0.248 NA
ATOM     57  C   UNL     1      -3.048  -9.101  16.871  1.00  0.00     0.031 C 
ATOM     58  C   UNL     1      -3.659 -14.454  14.064  1.00  0.00     0.029 A 
ATOM     59  C   UNL     1      -3.346 -13.131  14.333  1.00  0.00     0.049 A 
ATOM     60  H   UNL     1      -2.466 -11.691  13.066  1.00  0.00     0.167 HD
ATOM     61  C   UNL     1      -3.213 -11.092  15.744  1.00  0.00     0.074 A 
ATOM     62  C   UNL     1      -3.430 -10.366  16.978  1.00  0.00     0.031 C 
ATOM     63  C   UNL     1      -3.546 -12.393  15.555  1.00  0.00     0.037 A 
BRANCH  50  64
ATOM     64  C   UNL     1      -2.290 -14.548   9.895  1.00  0.00     0.058 A 
ATOM     65  C   UNL     1      -1.139 -15.241   9.487  1.00  0.00     0.135 A 
ATOM     66  C   UNL     1      -3.526 -14.973   9.383  1.00  0.00     0.135 A 
ATOM     67  F   UNL     1       0.070 -14.865   9.933  1.00  0.00    -0.206 F 
ATOM     68  C   UNL     1      -1.207 -16.295   8.582  1.00  0.00     0.059 A 
ATOM     69  C   UNL     1      -3.621 -16.043   8.498  1.00  0.00     0.059 A 
ATOM     70  F   UNL     1      -4.658 -14.345   9.738  1.00  0.00    -0.206 F 
ATOM     71  C   UNL     1      -2.453 -16.688   8.091  1.00  0.00     0.060 A 
BRANCH  71  72
ATOM     72  S   UNL     1      -2.526 -18.058   6.918  1.00  0.00     0.124 S 
ATOM     73  O   UNL     1      -2.025 -17.424   5.701  1.00  0.00    -0.237 OA
ATOM     74  O   UNL     1      -1.639 -19.042   7.530  1.00  0.00    -0.237 OA
ATOM     75  O   UNL     1      -3.940 -18.417   6.902  1.00  0.00    -0.744 OA
ENDBRANCH  71  72
ENDBRANCH  50  64
BRANCH  51  76
ATOM     76  C   UNL     1      -1.893  -6.573  15.923  1.00  0.00     0.058 A 
ATOM     77  C   UNL     1      -1.046  -6.524  17.041  1.00  0.00     0.135 A 
ATOM     78  C   UNL     1      -2.697  -5.453  15.662  1.00  0.00     0.135 A 
ATOM     79  F   UNL     1      -0.262  -7.573  17.334  1.00  0.00    -0.206 F 
ATOM     80  C   UNL     1      -1.008  -5.414  17.879  1.00  0.00     0.059 A 
ATOM     81  C   UNL     1      -2.660  -4.322  16.472  1.00  0.00     0.059 A 
ATOM     82  F   UNL     1      -3.510  -5.444  14.595  1.00  0.00    -0.206 F 
ATOM     83  C   UNL     1      -1.819  -4.316  17.584  1.00  0.00     0.060 A 
BRANCH  83  84
ATOM     84  S   UNL     1      -1.725  -2.860  18.648  1.00  0.00     0.124 S 
ATOM     85  O   UNL     1      -2.450  -3.312  19.830  1.00  0.00    -0.237 OA
ATOM     86  O   UNL     1      -0.285  -2.688  18.808  1.00  0.00    -0.237 OA
ATOM     87  O   UNL     1      -2.387  -1.826  17.858  1.00  0.00    -0.744 OA
ENDBRANCH  83  84
ENDBRANCH  51  76
BRANCH  63  88
ATOM     88  C   UNL     1      -4.151 -13.127  16.718  1.00  0.00     0.058 A 
ATOM     89  C   UNL     1      -5.475 -12.900  17.123  1.00  0.00     0.135 A 
ATOM     90  C   UNL     1      -3.414 -14.109  17.399  1.00  0.00     0.135 A 
ATOM     91  F   UNL     1      -6.220 -11.967  16.509  1.00  0.00    -0.206 F 
ATOM     92  C   UNL     1      -6.043 -13.609  18.177  1.00  0.00     0.059 A 
ATOM     93  C   UNL     1      -3.969 -14.847  18.439  1.00  0.00     0.059 A 
ATOM     94  F   UNL     1      -2.146 -14.371  17.043  1.00  0.00    -0.206 F 
ATOM     95  C   UNL     1      -5.282 -14.582  18.828  1.00  0.00     0.060 A 
BRANCH  95  96
ATOM     96  S   UNL     1      -6.041 -15.523  20.168  1.00  0.00     0.124 S 
ATOM     97  O   UNL     1      -6.032 -14.547  21.253  1.00  0.00    -0.237 OA
ATOM     98  O   UNL     1      -7.354 -15.848  19.619  1.00  0.00    -0.237 OA
ATOM     99  O   UNL     1      -5.141 -16.659  20.338  1.00  0.00    -0.744 OA
ENDBRANCH  95  96
ENDBRANCH  63  88
ENDBRANCH  37  38
ENDBRANCH  29  32
ENDBRANCH  27  28
ENDBRANCH  26  27
ENDBRANCH   1  26
TORSDOF 19
