REMARK SMILES CC(=O)Oc1ccc2oc(N)c([C@@H]3[NH2+][C@@H](C(=O)NCCCCCCNC(=O)c4ccc(-c5c6nc(c(-c7c(F)cc(S(=O)(=O)[O-])cc7F)c7ccc([nH]7)c(-c7c(F)cc(S(=O)(=O)[O-])cc7F)c7nc(c(-c8c(F)cc(S(=O)(=O)[O-])cc8F)c8ccc5[nH]8)C=C7)C=C6)cc4)C(C)(C)S3)c(=O)c2c1
REMARK SMILES IDX 21 1 20 2 19 3 18 4 16 5 17 6 15 8 13 9 14 10 97 11 94 14
REMARK SMILES IDX 95 15 96 16 12 17 5 18 6 19 101 20 7 21 100 22 8 23 98 24
REMARK SMILES IDX 9 25 99 26 10 27 4 28 2 29 1 30 3 31 11 32 22 35 23 36 24 37
REMARK SMILES IDX 25 38 26 39 27 41 28 42 29 43 93 44 30 45 92 46 31 47 32 48
REMARK SMILES IDX 33 49 86 50 34 51 91 52 85 53 87 54 35 55 90 56 84 57 83 58
REMARK SMILES IDX 36 60 70 61 49 62 69 63 50 64 53 65 68 66 88 67 51 68 52 69
REMARK SMILES IDX 67 71 89 72 54 73 37 74 38 75 47 76 39 77 40 78 46 79 48 80
REMARK SMILES IDX 41 81 42 82 43 83 44 84 45 85 71 86 72 87 81 88 73 89 74 90
REMARK SMILES IDX 80 91 82 92 75 93 76 94 77 95 78 96 79 97 55 98 56 99 65 100
REMARK SMILES IDX 57 101 58 102 64 103 66 104 59 105 60 106 61 107 62 108
REMARK SMILES IDX 63 109
REMARK H PARENT 18 7 14 12 14 13 11 33 11 34 25 40 87 59 53 70
REMARK Flexibility Score: inf
ROOT
ATOM      1  C   UNL     1      -0.924  14.440   2.546  1.00  0.00     0.002 C 
ENDROOT
BRANCH   1   2
ATOM      2  C   UNL     1      -0.543  13.248   3.428  1.00  0.00     0.021 C 
BRANCH   2   3
ATOM      3  C   UNL     1       0.315  12.188   2.735  1.00  0.00     0.116 C 
BRANCH   3   4
ATOM      4  N   UNL     1       1.681  12.647   2.619  1.00  0.00    -0.351 N 
ATOM      5  C   UNL     1       2.841  12.264   3.208  1.00  0.00     0.279 C 
ATOM      6  O   UNL     1       3.794  13.044   3.062  1.00  0.00    -0.268 OA
ATOM      7  H   UNL     1       1.792  13.390   1.983  1.00  0.00     0.163 HD
BRANCH   5   8
ATOM      8  C   UNL     1       3.038  10.983   4.041  1.00  0.00     0.289 C 
ATOM      9  C   UNL     1       2.755   8.630   4.318  1.00  0.00     0.284 C 
ATOM     10  N   UNL     1       2.507   9.756   3.397  1.00  0.00    -0.320 N 
ATOM     11  S   UNL     1       2.761   9.285   6.031  1.00  0.00    -0.081 SA
ATOM     12  H   UNL     1       1.506   9.856   3.229  1.00  0.00     0.348 HD
ATOM     13  H   UNL     1       2.965   9.594   2.499  1.00  0.00     0.348 HD
ATOM     14  C   UNL     1       2.647  11.047   5.530  1.00  0.00     0.077 C 
ATOM     15  C   UNL     1       1.232  11.496   5.879  1.00  0.00     0.030 C 
ATOM     16  C   UNL     1       3.642  11.885   6.342  1.00  0.00     0.030 C 
BRANCH   9  17
ATOM     17  C   UNL     1       3.995   7.822   3.991  1.00  0.00     0.128 A 
ATOM     18  C   UNL     1       5.741   3.388   2.754  1.00  0.00     0.131 A 
ATOM     19  C   UNL     1       7.030   3.852   3.027  1.00  0.00     0.051 A 
ATOM     20  C   UNL     1       4.642   4.248   2.788  1.00  0.00     0.063 A 
ATOM     21  C   UNL     1       7.213   5.177   3.406  1.00  0.00     0.052 A 
ATOM     22  C   UNL     1       4.839   5.577   3.174  1.00  0.00     0.069 A 
ATOM     23  C   UNL     1       6.111   6.027   3.494  1.00  0.00     0.140 A 
ATOM     24  C   UNL     1       3.725   6.532   3.282  1.00  0.00     0.205 A 
ATOM     25  O   UNL     1       6.351   7.300   3.914  1.00  0.00    -0.440 OA
ATOM     26  O   UNL     1       2.617   6.231   2.854  1.00  0.00    -0.288 OA
ATOM     27  C   UNL     1       5.285   8.085   4.308  1.00  0.00     0.205 A 
BRANCH  18  28
ATOM     28  O   UNL     1       5.522   2.059   2.362  1.00  0.00    -0.427 OA
BRANCH  28  29
ATOM     29  C   UNL     1       6.033   1.074   3.205  1.00  0.00     0.308 C 
ATOM     30  C   UNL     1       5.827  -0.267   2.569  1.00  0.00     0.139 C 
ATOM     31  O   UNL     1       6.585   1.242   4.285  1.00  0.00    -0.252 OA
ENDBRANCH  28  29
ENDBRANCH  18  28
BRANCH  27  32
ATOM     32  N   UNL     1       5.713   9.135   5.065  1.00  0.00    -0.369 N 
ATOM     33  H   UNL     1       6.673   9.251   5.248  1.00  0.00     0.159 HD
ATOM     34  H   UNL     1       5.061   9.777   5.430  1.00  0.00     0.159 HD
ENDBRANCH  27  32
ENDBRANCH   9  17
ENDBRANCH   5   8
ENDBRANCH   3   4
ENDBRANCH   2   3
ENDBRANCH   1   2
BRANCH   1  35
ATOM     35  C   UNL     1      -1.797  14.104   1.336  1.00  0.00     0.002 C 
BRANCH  35  36
ATOM     36  C   UNL     1      -3.036  13.262   1.641  1.00  0.00     0.021 C 
BRANCH  36  37
ATOM     37  C   UNL     1      -3.931  13.803   2.750  1.00  0.00     0.116 C 
BRANCH  37  38
ATOM     38  N   UNL     1      -4.487  15.111   2.446  1.00  0.00    -0.352 N 
ATOM     39  C   UNL     1      -5.795  15.530   2.542  1.00  0.00     0.251 C 
ATOM     40  H   UNL     1      -3.843  15.786   2.130  1.00  0.00     0.163 HD
ATOM     41  O   UNL     1      -6.131  16.631   2.131  1.00  0.00    -0.269 OA
BRANCH  39  42
ATOM     42  C   UNL     1      -6.793  14.602   3.116  1.00  0.00     0.039 A 
ATOM     43  C   UNL     1      -6.542  13.969   4.335  1.00  0.00     0.014 A 
ATOM     44  C   UNL     1      -7.945  14.306   2.385  1.00  0.00     0.014 A 
ATOM     45  C   UNL     1      -7.357  12.918   4.739  1.00  0.00     0.010 A 
ATOM     46  C   UNL     1      -8.807  13.304   2.838  1.00  0.00     0.010 A 
ATOM     47  C   UNL     1      -8.491  12.564   3.988  1.00  0.00    -0.014 A 
BRANCH  47  48
ATOM     48  C   UNL     1      -9.315  11.403   4.416  1.00  0.00     0.031 A 
ATOM     49  C   UNL     1      -9.413  10.170   3.557  1.00  0.00     0.074 A 
ATOM     50  C   UNL     1      -9.931  11.441   5.612  1.00  0.00     0.049 A 
ATOM     51  N   UNL     1     -10.060   9.056   3.787  1.00  0.00    -0.248 NA
ATOM     52  C   UNL     1      -8.698  10.191   2.271  1.00  0.00     0.031 C 
ATOM     53  C   UNL     1      -9.903  12.577   6.535  1.00  0.00     0.029 A 
ATOM     54  N   UNL     1     -10.677  10.496   6.269  1.00  0.00    -0.354 N 
ATOM     55  C   UNL     1      -9.851   8.254   2.670  1.00  0.00     0.074 A 
ATOM     56  C   UNL     1      -9.041   9.022   1.749  1.00  0.00     0.031 C 
ATOM     57  C   UNL     1     -10.549  12.243   7.661  1.00  0.00     0.029 A 
ATOM     58  C   UNL     1     -11.092  10.896   7.516  1.00  0.00     0.049 A 
ATOM     59  H   UNL     1     -10.894   9.617   5.884  1.00  0.00     0.167 HD
ATOM     60  C   UNL     1     -10.284   6.991   2.439  1.00  0.00     0.037 A 
ATOM     61  C   UNL     1     -11.836  10.258   8.440  1.00  0.00     0.037 A 
ATOM     62  C   UNL     1     -11.070   6.223   3.371  1.00  0.00     0.049 A 
ATOM     63  C   UNL     1     -12.336   8.874   8.149  1.00  0.00     0.074 A 
ATOM     64  C   UNL     1     -11.520   4.920   3.249  1.00  0.00     0.029 A 
ATOM     65  N   UNL     1     -11.528   6.690   4.595  1.00  0.00    -0.354 N 
ATOM     66  N   UNL     1     -12.114   8.125   7.095  1.00  0.00    -0.248 NA
ATOM     67  C   UNL     1     -13.200   8.253   9.161  1.00  0.00     0.031 C 
ATOM     68  C   UNL     1     -12.288   4.615   4.378  1.00  0.00     0.029 A 
ATOM     69  C   UNL     1     -12.283   5.713   5.224  1.00  0.00     0.049 A 
ATOM     70  H   UNL     1     -11.345   7.585   4.962  1.00  0.00     0.167 HD
ATOM     71  C   UNL     1     -12.815   6.946   7.312  1.00  0.00     0.074 A 
ATOM     72  C   UNL     1     -13.448   7.071   8.611  1.00  0.00     0.031 C 
ATOM     73  C   UNL     1     -12.929   5.862   6.506  1.00  0.00     0.037 A 
BRANCH  60  74
ATOM     74  C   UNL     1      -9.932   6.368   1.115  1.00  0.00     0.058 A 
ATOM     75  C   UNL     1      -8.622   5.964   0.812  1.00  0.00     0.135 A 
ATOM     76  C   UNL     1     -10.921   6.163   0.140  1.00  0.00     0.135 A 
ATOM     77  F   UNL     1      -7.634   6.148   1.702  1.00  0.00    -0.206 F 
ATOM     78  C   UNL     1      -8.297   5.417  -0.426  1.00  0.00     0.059 A 
ATOM     79  C   UNL     1     -10.624   5.595  -1.096  1.00  0.00     0.059 A 
ATOM     80  F   UNL     1     -12.191   6.527   0.378  1.00  0.00    -0.206 F 
ATOM     81  C   UNL     1      -9.305   5.244  -1.377  1.00  0.00     0.060 A 
BRANCH  81  82
ATOM     82  S   UNL     1      -8.860   4.565  -2.990  1.00  0.00     0.124 S 
ATOM     83  O   UNL     1      -8.148   5.689  -3.591  1.00  0.00    -0.237 OA
ATOM     84  O   UNL     1      -8.038   3.415  -2.630  1.00  0.00    -0.237 OA
ATOM     85  O   UNL     1     -10.150   4.246  -3.593  1.00  0.00    -0.744 OA
ENDBRANCH  81  82
ENDBRANCH  60  74
BRANCH  61  86
ATOM     86  C   UNL     1     -12.134  10.943   9.723  1.00  0.00     0.058 A 
ATOM     87  C   UNL     1     -11.490  10.562  10.907  1.00  0.00     0.135 A 
ATOM     88  C   UNL     1     -12.993  12.053   9.768  1.00  0.00     0.135 A 
ATOM     89  F   UNL     1     -10.667   9.502  10.913  1.00  0.00    -0.206 F 
ATOM     90  C   UNL     1     -11.668  11.272  12.090  1.00  0.00     0.059 A 
ATOM     91  C   UNL     1     -13.169  12.792  10.933  1.00  0.00     0.059 A 
ATOM     92  F   UNL     1     -13.621  12.463   8.655  1.00  0.00    -0.206 F 
ATOM     93  C   UNL     1     -12.497  12.396  12.088  1.00  0.00     0.060 A 
BRANCH  93  94
ATOM     94  S   UNL     1     -12.623  13.377  13.599  1.00  0.00     0.124 S 
ATOM     95  O   UNL     1     -13.407  12.498  14.458  1.00  0.00    -0.237 OA
ATOM     96  O   UNL     1     -11.220  13.547  13.969  1.00  0.00    -0.237 OA
ATOM     97  O   UNL     1     -13.297  14.594  13.155  1.00  0.00    -0.744 OA
ENDBRANCH  93  94
ENDBRANCH  61  86
BRANCH  73  98
ATOM     98  C   UNL     1     -13.789   4.729   6.989  1.00  0.00     0.058 A 
ATOM     99  C   UNL     1     -15.189   4.820   6.968  1.00  0.00     0.135 A 
ATOM    100  C   UNL     1     -13.215   3.519   7.410  1.00  0.00     0.135 A 
ATOM    101  F   UNL     1     -15.787   5.960   6.584  1.00  0.00    -0.206 F 
ATOM    102  C   UNL     1     -15.992   3.753   7.355  1.00  0.00     0.059 A 
ATOM    103  C   UNL     1     -13.999   2.430   7.780  1.00  0.00     0.059 A 
ATOM    104  F   UNL     1     -11.881   3.378   7.441  1.00  0.00    -0.206 F 
ATOM    105  C   UNL     1     -15.388   2.559   7.754  1.00  0.00     0.060 A 
BRANCH 105 106
ATOM    106  S   UNL     1     -16.444   1.166   8.205  1.00  0.00     0.124 S 
ATOM    107  O   UNL     1     -16.979   1.606   9.489  1.00  0.00    -0.237 OA
ATOM    108  O   UNL     1     -17.398   1.129   7.101  1.00  0.00    -0.237 OA
ATOM    109  O   UNL     1     -15.517   0.040   8.263  1.00  0.00    -0.744 OA
ENDBRANCH 105 106
ENDBRANCH  73  98
ENDBRANCH  47  48
ENDBRANCH  39  42
ENDBRANCH  37  38
ENDBRANCH  36  37
ENDBRANCH  35  36
ENDBRANCH   1  35
TORSDOF 20
