REMARK SMILES Cc1cc(C)c(NS(=O)(=O)c2cccc3cc(C)cnc23)c(C(=O)NCCCCCCNC(=O)c2ccc(-c3c4nc(c(-c5c(F)cc(S(=O)(=O)[O-])cc5F)c5ccc([nH]5)c(-c5c(F)cc(S(=O)(=O)[O-])cc5F)c5nc(c(-c6c(F)cc(S(=O)(=O)[O-])cc6F)c6ccc3[nH]6)C=C5)C=C4)cc2)c1
REMARK SMILES IDX 28 1 27 2 26 3 25 4 23 5 24 6 22 8 1 9 2 10 3 11 101 12 4 13
REMARK SMILES IDX 5 14 6 15 7 16 8 18 9 19 10 20 11 21 12 22 21 23 13 24 15 25
REMARK SMILES IDX 20 26 14 27 16 28 19 29 17 30 18 31 29 32 30 33 31 34 32 35
REMARK SMILES IDX 33 36 34 38 35 39 36 40 100 41 37 42 99 43 38 44 39 45 40 46
REMARK SMILES IDX 93 47 41 48 98 49 92 50 94 51 42 52 97 53 91 54 90 55 43 57
REMARK SMILES IDX 77 58 56 59 76 60 57 61 60 62 75 63 95 64 58 65 59 66 74 68
REMARK SMILES IDX 96 69 61 70 44 71 45 72 54 73 46 74 47 75 53 76 55 77 48 78
REMARK SMILES IDX 49 79 50 80 51 81 52 82 78 83 79 84 88 85 80 86 81 87 87 88
REMARK SMILES IDX 89 89 82 90 83 91 84 92 85 93 86 94 62 95 63 96 72 97 64 98
REMARK SMILES IDX 65 99 71 100 73 101 66 102 67 103 68 104 69 105 70 106
REMARK H PARENT 25 7 7 17 32 37 94 56 60 67
REMARK Flexibility Score: inf
ROOT
ATOM      1  C   UNL     1       3.502  -5.456   1.127  1.00  0.00     0.002 C 
ENDROOT
BRANCH   1   2
ATOM      2  C   UNL     1       3.124  -3.982   0.943  1.00  0.00     0.021 C 
BRANCH   2   3
ATOM      3  C   UNL     1       2.198  -3.772  -0.258  1.00  0.00     0.116 C 
BRANCH   3   4
ATOM      4  N   UNL     1       0.819  -3.942   0.178  1.00  0.00    -0.352 N 
ATOM      5  C   UNL     1      -0.176  -3.045   0.494  1.00  0.00     0.253 C 
ATOM      6  O   UNL     1      -1.214  -3.485   0.989  1.00  0.00    -0.269 OA
ATOM      7  H   UNL     1       0.545  -4.884   0.263  1.00  0.00     0.163 HD
BRANCH   5   8
ATOM      8  C   UNL     1      -0.085  -1.601   0.123  1.00  0.00     0.064 A 
ATOM      9  C   UNL     1       2.721   0.814  -0.625  1.00  0.00     0.044 C 
ATOM     10  C   UNL     1       1.349   0.211  -0.578  1.00  0.00    -0.050 A 
ATOM     11  C   UNL     1       0.289   0.706  -1.345  1.00  0.00     0.009 A 
ATOM     12  C   UNL     1       1.144  -0.944   0.168  1.00  0.00     0.019 A 
ATOM     13  C   UNL     1      -1.003   0.134  -1.281  1.00  0.00    -0.026 A 
ATOM     14  C   UNL     1      -2.059   0.682  -2.199  1.00  0.00     0.046 C 
ATOM     15  C   UNL     1      -1.224  -0.943  -0.407  1.00  0.00     0.065 A 
BRANCH  15  16
ATOM     16  N   UNL     1      -2.517  -1.495  -0.094  1.00  0.00    -0.278 N 
ATOM     17  H   UNL     1      -2.591  -2.475  -0.151  1.00  0.00     0.180 HD
BRANCH  16  18
ATOM     18  S   UNL     1      -3.915  -0.678   0.356  1.00  0.00     0.264 S 
ATOM     19  O   UNL     1      -4.761  -0.758  -0.825  1.00  0.00    -0.201 OA
ATOM     20  O   UNL     1      -4.383  -1.296   1.582  1.00  0.00    -0.201 OA
BRANCH  18  21
ATOM     21  C   UNL     1      -3.765   1.056   0.701  1.00  0.00     0.114 A 
ATOM     22  C   UNL     1      -4.859   1.835   0.253  1.00  0.00     0.024 A 
ATOM     23  C   UNL     1      -2.597   1.647   1.167  1.00  0.00     0.091 A 
ATOM     24  C   UNL     1      -4.750   3.211   0.134  1.00  0.00     0.002 A 
ATOM     25  C   UNL     1      -2.463   3.036   0.909  1.00  0.00     0.002 A 
ATOM     26  N   UNL     1      -1.600   0.972   1.778  1.00  0.00    -0.255 NA
ATOM     27  C   UNL     1      -3.531   3.804   0.414  1.00  0.00     0.010 A 
ATOM     28  C   UNL     1      -1.212   3.635   1.083  1.00  0.00     0.015 A 
ATOM     29  C   UNL     1      -0.415   1.600   1.976  1.00  0.00     0.115 A 
ATOM     30  C   UNL     1      -0.141   2.890   1.561  1.00  0.00    -0.032 A 
ATOM     31  C   UNL     1       1.243   3.452   1.558  1.00  0.00     0.046 C 
ENDBRANCH  18  21
ENDBRANCH  16  18
ENDBRANCH  15  16
ENDBRANCH   5   8
ENDBRANCH   3   4
ENDBRANCH   2   3
ENDBRANCH   1   2
BRANCH   1  32
ATOM     32  C   UNL     1       4.383  -6.018   0.005  1.00  0.00     0.002 C 
BRANCH  32  33
ATOM     33  C   UNL     1       5.703  -5.271  -0.205  1.00  0.00     0.021 C 
BRANCH  33  34
ATOM     34  C   UNL     1       6.615  -5.271   1.016  1.00  0.00     0.116 C 
BRANCH  34  35
ATOM     35  N   UNL     1       7.014  -6.623   1.378  1.00  0.00    -0.352 N 
ATOM     36  C   UNL     1       8.273  -7.156   1.456  1.00  0.00     0.251 C 
ATOM     37  H   UNL     1       6.278  -7.239   1.596  1.00  0.00     0.163 HD
ATOM     38  O   UNL     1       8.423  -8.378   1.503  1.00  0.00    -0.269 OA
BRANCH  36  39
ATOM     39  C   UNL     1       9.444  -6.260   1.479  1.00  0.00     0.039 A 
ATOM     40  C   UNL     1      10.563  -6.576   0.706  1.00  0.00     0.014 A 
ATOM     41  C   UNL     1       9.435  -5.109   2.274  1.00  0.00     0.014 A 
ATOM     42  C   UNL     1      11.656  -5.709   0.693  1.00  0.00     0.010 A 
ATOM     43  C   UNL     1      10.492  -4.209   2.199  1.00  0.00     0.010 A 
ATOM     44  C   UNL     1      11.617  -4.505   1.416  1.00  0.00    -0.014 A 
BRANCH  44  45
ATOM     45  C   UNL     1      12.748  -3.544   1.371  1.00  0.00     0.031 A 
ATOM     46  C   UNL     1      13.519  -3.227   2.623  1.00  0.00     0.074 A 
ATOM     47  C   UNL     1      13.036  -2.913   0.217  1.00  0.00     0.049 A 
ATOM     48  N   UNL     1      14.498  -2.378   2.797  1.00  0.00    -0.248 NA
ATOM     49  C   UNL     1      13.118  -3.938   3.848  1.00  0.00     0.031 C 
ATOM     50  C   UNL     1      12.326  -3.102  -1.050  1.00  0.00     0.029 A 
ATOM     51  N   UNL     1      13.996  -1.979  -0.079  1.00  0.00    -0.354 N 
ATOM     52  C   UNL     1      14.822  -2.443   4.147  1.00  0.00     0.074 A 
ATOM     53  C   UNL     1      13.895  -3.370   4.758  1.00  0.00     0.031 C 
ATOM     54  C   UNL     1      12.893  -2.332  -1.992  1.00  0.00     0.029 A 
ATOM     55  C   UNL     1      13.977  -1.562  -1.389  1.00  0.00     0.049 A 
ATOM     56  H   UNL     1      14.639  -1.639   0.585  1.00  0.00     0.167 HD
ATOM     57  C   UNL     1      15.817  -1.808   4.811  1.00  0.00     0.037 A 
ATOM     58  C   UNL     1      14.741  -0.657  -2.030  1.00  0.00     0.037 A 
ATOM     59  C   UNL     1      16.745  -0.900   4.188  1.00  0.00     0.049 A 
ATOM     60  C   UNL     1      15.832   0.046  -1.270  1.00  0.00     0.074 A 
ATOM     61  C   UNL     1      17.824  -0.248   4.756  1.00  0.00     0.029 A 
ATOM     62  N   UNL     1      16.699  -0.509   2.856  1.00  0.00    -0.354 N 
ATOM     63  N   UNL     1      16.169  -0.078  -0.008  1.00  0.00    -0.248 NA
ATOM     64  C   UNL     1      16.651   1.006  -2.021  1.00  0.00     0.031 C 
ATOM     65  C   UNL     1      18.396   0.580   3.784  1.00  0.00     0.029 A 
ATOM     66  C   UNL     1      17.712   0.398   2.593  1.00  0.00     0.049 A 
ATOM     67  H   UNL     1      16.042  -0.829   2.196  1.00  0.00     0.167 HD
ATOM     68  C   UNL     1      17.257   0.768   0.180  1.00  0.00     0.074 A 
ATOM     69  C   UNL     1      17.528   1.388  -1.102  1.00  0.00     0.031 C 
ATOM     70  C   UNL     1      17.969   1.007   1.310  1.00  0.00     0.037 A 
BRANCH  57  71
ATOM     71  C   UNL     1      15.947  -2.070   6.288  1.00  0.00     0.058 A 
ATOM     72  C   UNL     1      16.344  -3.322   6.787  1.00  0.00     0.135 A 
ATOM     73  C   UNL     1      15.688  -1.051   7.219  1.00  0.00     0.135 A 
ATOM     74  F   UNL     1      16.592  -4.338   5.945  1.00  0.00    -0.206 F 
ATOM     75  C   UNL     1      16.438  -3.566   8.153  1.00  0.00     0.059 A 
ATOM     76  C   UNL     1      15.808  -1.263   8.590  1.00  0.00     0.059 A 
ATOM     77  F   UNL     1      15.306   0.166   6.801  1.00  0.00    -0.206 F 
ATOM     78  C   UNL     1      16.166  -2.530   9.047  1.00  0.00     0.060 A 
BRANCH  78  79
ATOM     79  S   UNL     1      16.280  -2.867  10.817  1.00  0.00     0.124 S 
ATOM     80  O   UNL     1      15.101  -3.702  11.030  1.00  0.00    -0.237 OA
ATOM     81  O   UNL     1      17.566  -3.549  10.922  1.00  0.00    -0.237 OA
ATOM     82  O   UNL     1      16.226  -1.540  11.421  1.00  0.00    -0.744 OA
ENDBRANCH  78  79
ENDBRANCH  57  71
BRANCH  58  83
ATOM     83  C   UNL     1      14.513  -0.390  -3.475  1.00  0.00     0.058 A 
ATOM     84  C   UNL     1      15.441  -0.806  -4.441  1.00  0.00     0.135 A 
ATOM     85  C   UNL     1      13.351   0.258  -3.923  1.00  0.00     0.135 A 
ATOM     86  F   UNL     1      16.571  -1.424  -4.063  1.00  0.00    -0.206 F 
ATOM     87  C   UNL     1      15.232  -0.582  -5.798  1.00  0.00     0.059 A 
ATOM     88  C   UNL     1      13.106   0.470  -5.276  1.00  0.00     0.059 A 
ATOM     89  F   UNL     1      12.423   0.662  -3.041  1.00  0.00    -0.206 F 
ATOM     90  C   UNL     1      14.057   0.052  -6.206  1.00  0.00     0.060 A 
BRANCH  90  91
ATOM     91  S   UNL     1      13.767   0.281  -7.973  1.00  0.00     0.124 S 
ATOM     92  O   UNL     1      14.739   1.318  -8.299  1.00  0.00    -0.237 OA
ATOM     93  O   UNL     1      14.048  -1.050  -8.504  1.00  0.00    -0.237 OA
ATOM     94  O   UNL     1      12.366   0.688  -8.033  1.00  0.00    -0.744 OA
ENDBRANCH  90  91
ENDBRANCH  58  83
BRANCH  70  95
ATOM     95  C   UNL     1      19.131   1.958   1.208  1.00  0.00     0.058 A 
ATOM     96  C   UNL     1      18.945   3.339   1.043  1.00  0.00     0.135 A 
ATOM     97  C   UNL     1      20.448   1.484   1.331  1.00  0.00     0.135 A 
ATOM     98  F   UNL     1      17.707   3.844   0.913  1.00  0.00    -0.206 F 
ATOM     99  C   UNL     1      20.024   4.215   0.979  1.00  0.00     0.059 A 
ATOM    100  C   UNL     1      21.540   2.345   1.302  1.00  0.00     0.059 A 
ATOM    101  F   UNL     1      20.682   0.173   1.501  1.00  0.00    -0.206 F 
ATOM    102  C   UNL     1      21.318   3.708   1.113  1.00  0.00     0.060 A 
BRANCH 102 103
ATOM    103  S   UNL     1      22.706   4.861   1.062  1.00  0.00     0.124 S 
ATOM    104  O   UNL     1      22.739   5.219  -0.351  1.00  0.00    -0.237 OA
ATOM    105  O   UNL     1      22.270   5.914   1.974  1.00  0.00    -0.237 OA
ATOM    106  O   UNL     1      23.832   4.059   1.534  1.00  0.00    -0.744 OA
ENDBRANCH 102 103
ENDBRANCH  70  95
ENDBRANCH  44  45
ENDBRANCH  36  39
ENDBRANCH  34  35
ENDBRANCH  33  34
ENDBRANCH  32  33
ENDBRANCH   1  32
TORSDOF 19
