REMARK SMILES [NH3+][C@@H](C(=O)NCCCCCCNC(=O)c1ccc(-c2c3nc(c(-c4c(F)cc(S(=O)(=O)[O-])cc4F)c4ccc([nH]4)c(-c4c(F)cc(S(=O)(=O)[O-])cc4F)c4nc(c(-c5c(F)cc(S(=O)(=O)[O-])cc5F)c5ccc2[nH]5)C=C4)C=C3)cc1)[C@@H](O)c1cccs1
REMARK SMILES IDX 9 1 8 2 7 3 6 4 5 5 3 6 4 7 2 9 1 10 81 14 82 15 83 17 84 18
REMARK SMILES IDX 87 19 85 20 86 21 10 22 11 23 12 24 13 25 14 27 15 28 16 29
REMARK SMILES IDX 80 30 17 31 79 32 18 33 19 34 20 35 73 36 21 37 78 38 72 39
REMARK SMILES IDX 74 40 22 41 77 42 71 43 70 44 23 46 57 47 36 48 56 49 37 50
REMARK SMILES IDX 40 51 55 52 75 53 38 54 39 55 54 57 76 58 41 59 24 60 25 61
REMARK SMILES IDX 34 62 26 63 27 64 33 65 35 66 28 67 29 68 30 69 31 70 32 71
REMARK SMILES IDX 58 72 59 73 68 74 60 75 61 76 67 77 69 78 62 79 63 80 64 81
REMARK SMILES IDX 65 82 66 83 42 84 43 85 52 86 44 87 45 88 51 89 53 90 46 91
REMARK SMILES IDX 47 92 48 93 49 94 50 95
REMARK H PARENT 5 8 1 11 1 12 1 13 82 16 12 26 74 45 40 56
REMARK Flexibility Score: inf
ROOT
ATOM      1  C   UNL     1       5.965   0.573  -3.237  1.00  0.00     0.002 C 
ENDROOT
BRANCH   1   2
ATOM      2  C   UNL     1       5.028  -0.523  -2.721  1.00  0.00     0.002 C 
BRANCH   2   3
ATOM      3  C   UNL     1       4.270  -0.172  -1.432  1.00  0.00     0.021 C 
BRANCH   3   4
ATOM      4  C   UNL     1       3.388   1.073  -1.554  1.00  0.00     0.116 C 
BRANCH   4   5
ATOM      5  N   UNL     1       2.325   0.828  -2.510  1.00  0.00    -0.351 N 
ATOM      6  C   UNL     1       1.009   0.551  -2.280  1.00  0.00     0.281 C 
ATOM      7  O   UNL     1       0.361   0.025  -3.187  1.00  0.00    -0.268 OA
ATOM      8  H   UNL     1       2.590   0.866  -3.457  1.00  0.00     0.163 HD
BRANCH   6   9
ATOM      9  C   UNL     1       0.409   0.857  -0.899  1.00  0.00     0.305 C 
BRANCH   9  10
ATOM     10  N   UNL     1       0.698  -0.265   0.048  1.00  0.00    -0.345 N 
ATOM     11  H   UNL     1       1.707  -0.393   0.126  1.00  0.00     0.345 HD
ATOM     12  H   UNL     1       0.272  -1.123  -0.302  1.00  0.00     0.345 HD
ATOM     13  H   UNL     1       0.311  -0.043   0.965  1.00  0.00     0.345 HD
ENDBRANCH   9  10
BRANCH   9  14
ATOM     14  C   UNL     1      -1.123   1.049  -1.016  1.00  0.00     0.222 C 
BRANCH  14  15
ATOM     15  O   UNL     1      -1.680   1.279   0.286  1.00  0.00    -0.381 OA
ATOM     16  H   UNL     1      -1.316   2.100   0.653  1.00  0.00     0.211 HD
ENDBRANCH  14  15
BRANCH  14  17
ATOM     17  C   UNL     1      -1.523   2.201  -1.901  1.00  0.00     0.040 A 
ATOM     18  C   UNL     1      -2.173   2.120  -3.120  1.00  0.00     0.018 A 
ATOM     19  S   UNL     1      -1.139   3.828  -1.514  1.00  0.00    -0.146 S 
ATOM     20  C   UNL     1      -2.330   3.388  -3.745  1.00  0.00     0.012 A 
ATOM     21  C   UNL     1      -1.808   4.404  -2.978  1.00  0.00     0.065 A 
ENDBRANCH  14  17
ENDBRANCH   9  14
ENDBRANCH   6   9
ENDBRANCH   4   5
ENDBRANCH   3   4
ENDBRANCH   2   3
ENDBRANCH   1   2
BRANCH   1  22
ATOM     22  C   UNL     1       7.019   1.042  -2.232  1.00  0.00     0.021 C 
BRANCH  22  23
ATOM     23  C   UNL     1       7.948  -0.059  -1.731  1.00  0.00     0.116 C 
BRANCH  23  24
ATOM     24  N   UNL     1       8.760  -0.616  -2.801  1.00  0.00    -0.352 N 
ATOM     25  C   UNL     1      10.120  -0.785  -2.855  1.00  0.00     0.251 C 
ATOM     26  H   UNL     1       8.264  -0.914  -3.598  1.00  0.00     0.163 HD
ATOM     27  O   UNL     1      10.657  -1.088  -3.921  1.00  0.00    -0.269 OA
BRANCH  25  28
ATOM     28  C   UNL     1      10.939  -0.585  -1.641  1.00  0.00     0.039 A 
ATOM     29  C   UNL     1      12.132   0.136  -1.740  1.00  0.00     0.014 A 
ATOM     30  C   UNL     1      10.536  -1.110  -0.410  1.00  0.00     0.014 A 
ATOM     31  C   UNL     1      12.893   0.374  -0.593  1.00  0.00     0.010 A 
ATOM     32  C   UNL     1      11.256  -0.808   0.743  1.00  0.00     0.010 A 
ATOM     33  C   UNL     1      12.446  -0.070   0.663  1.00  0.00    -0.014 A 
BRANCH  33  34
ATOM     34  C   UNL     1      13.215   0.226   1.900  1.00  0.00     0.031 A 
ATOM     35  C   UNL     1      13.806  -0.897   2.710  1.00  0.00     0.074 A 
ATOM     36  C   UNL     1      13.332   1.500   2.323  1.00  0.00     0.049 A 
ATOM     37  N   UNL     1      14.462  -0.843   3.841  1.00  0.00    -0.248 NA
ATOM     38  C   UNL     1      13.614  -2.262   2.195  1.00  0.00     0.031 C 
ATOM     39  C   UNL     1      12.762   2.671   1.651  1.00  0.00     0.029 A 
ATOM     40  N   UNL     1      13.964   2.026   3.423  1.00  0.00    -0.354 N 
ATOM     41  C   UNL     1      14.749  -2.161   4.177  1.00  0.00     0.074 A 
ATOM     42  C   UNL     1      14.147  -2.995   3.160  1.00  0.00     0.031 C 
ATOM     43  C   UNL     1      13.091   3.776   2.339  1.00  0.00     0.029 A 
ATOM     44  C   UNL     1      13.860   3.394   3.518  1.00  0.00     0.049 A 
ATOM     45  H   UNL     1      14.446   1.475   4.081  1.00  0.00     0.167 HD
ATOM     46  C   UNL     1      15.469  -2.631   5.224  1.00  0.00     0.037 A 
ATOM     47  C   UNL     1      14.327   4.244   4.454  1.00  0.00     0.037 A 
ATOM     48  C   UNL     1      16.085  -1.792   6.219  1.00  0.00     0.049 A 
ATOM     49  C   UNL     1      15.122   3.697   5.609  1.00  0.00     0.074 A 
ATOM     50  C   UNL     1      16.881  -2.168   7.287  1.00  0.00     0.029 A 
ATOM     51  N   UNL     1      15.972  -0.410   6.273  1.00  0.00    -0.354 N 
ATOM     52  N   UNL     1      15.438   2.452   5.877  1.00  0.00    -0.248 NA
ATOM     53  C   UNL     1      15.631   4.670   6.585  1.00  0.00     0.031 C 
ATOM     54  C   UNL     1      17.210  -1.018   8.013  1.00  0.00     0.029 A 
ATOM     55  C   UNL     1      16.666   0.080   7.367  1.00  0.00     0.049 A 
ATOM     56  H   UNL     1      15.473   0.141   5.628  1.00  0.00     0.167 HD
ATOM     57  C   UNL     1      16.208   2.495   7.034  1.00  0.00     0.074 A 
ATOM     58  C   UNL     1      16.319   3.890   7.408  1.00  0.00     0.031 C 
ATOM     59  C   UNL     1      16.774   1.473   7.723  1.00  0.00     0.037 A 
BRANCH  46  60
ATOM     60  C   UNL     1      15.634  -4.123   5.344  1.00  0.00     0.058 A 
ATOM     61  C   UNL     1      16.419  -4.854   4.437  1.00  0.00     0.135 A 
ATOM     62  C   UNL     1      15.029  -4.826   6.398  1.00  0.00     0.135 A 
ATOM     63  F   UNL     1      17.009  -4.237   3.402  1.00  0.00    -0.206 F 
ATOM     64  C   UNL     1      16.571  -6.232   4.552  1.00  0.00     0.059 A 
ATOM     65  C   UNL     1      15.193  -6.200   6.550  1.00  0.00     0.059 A 
ATOM     66  F   UNL     1      14.268  -4.179   7.294  1.00  0.00    -0.206 F 
ATOM     67  C   UNL     1      15.953  -6.897   5.612  1.00  0.00     0.060 A 
BRANCH  67  68
ATOM     68  S   UNL     1      16.163  -8.685   5.748  1.00  0.00     0.124 S 
ATOM     69  O   UNL     1      15.331  -9.159   4.646  1.00  0.00    -0.237 OA
ATOM     70  O   UNL     1      17.603  -8.844   5.568  1.00  0.00    -0.237 OA
ATOM     71  O   UNL     1      15.664  -8.986   7.085  1.00  0.00    -0.744 OA
ENDBRANCH  67  68
ENDBRANCH  46  60
BRANCH  47  72
ATOM     72  C   UNL     1      14.076   5.704   4.323  1.00  0.00     0.058 A 
ATOM     73  C   UNL     1      15.120   6.593   4.027  1.00  0.00     0.135 A 
ATOM     74  C   UNL     1      12.788   6.239   4.480  1.00  0.00     0.135 A 
ATOM     75  F   UNL     1      16.370   6.131   3.874  1.00  0.00    -0.206 F 
ATOM     76  C   UNL     1      14.902   7.962   3.909  1.00  0.00     0.059 A 
ATOM     77  C   UNL     1      12.539   7.601   4.340  1.00  0.00     0.059 A 
ATOM     78  F   UNL     1      11.750   5.430   4.746  1.00  0.00    -0.206 F 
ATOM     79  C   UNL     1      13.606   8.456   4.065  1.00  0.00     0.060 A 
BRANCH  79  80
ATOM     80  S   UNL     1      13.326  10.229   3.864  1.00  0.00     0.124 S 
ATOM     81  O   UNL     1      13.919  10.761   5.085  1.00  0.00    -0.237 OA
ATOM     82  O   UNL     1      14.045  10.514   2.626  1.00  0.00    -0.237 OA
ATOM     83  O   UNL     1      11.872  10.330   3.772  1.00  0.00    -0.744 OA
ENDBRANCH  79  80
ENDBRANCH  47  72
BRANCH  59  84
ATOM     84  C   UNL     1      17.598   1.825   8.932  1.00  0.00     0.058 A 
ATOM     85  C   UNL     1      17.011   2.282  10.122  1.00  0.00     0.135 A 
ATOM     86  C   UNL     1      18.993   1.657   8.912  1.00  0.00     0.135 A 
ATOM     87  F   UNL     1      15.683   2.466  10.193  1.00  0.00    -0.206 F 
ATOM     88  C   UNL     1      17.779   2.587  11.241  1.00  0.00     0.059 A 
ATOM     89  C   UNL     1      19.777   1.927  10.028  1.00  0.00     0.059 A 
ATOM     90  F   UNL     1      19.605   1.212   7.803  1.00  0.00    -0.206 F 
ATOM     91  C   UNL     1      19.163   2.405  11.184  1.00  0.00     0.060 A 
BRANCH  91  92
ATOM     92  S   UNL     1      20.145   2.777  12.652  1.00  0.00     0.124 S 
ATOM     93  O   UNL     1      20.124   4.236  12.657  1.00  0.00    -0.237 OA
ATOM     94  O   UNL     1      19.380   2.129  13.713  1.00  0.00    -0.237 OA
ATOM     95  O   UNL     1      21.439   2.169  12.359  1.00  0.00    -0.744 OA
ENDBRANCH  91  92
ENDBRANCH  59  84
ENDBRANCH  33  34
ENDBRANCH  25  28
ENDBRANCH  23  24
ENDBRANCH  22  23
ENDBRANCH   1  22
TORSDOF 20
