REMARK SMILES O=C(NCCCCCCNC(=O)c1cccc(COc2ccccc2C=C2C(=O)c3ccccc3C2=O)c1)c1ccc(-c2c3nc(c(-c4c(F)cc(S(=O)(=O)[O-])cc4F)c4ccc([nH]4)c(-c4c(F)cc(S(=O)(=O)[O-])cc4F)c4nc(c(-c5c(F)cc(S(=O)(=O)[O-])cc5F)c5ccc2[nH]5)C=C4)C=C3)cc1
REMARK SMILES IDX 7 1 6 2 5 3 4 4 3 5 1 6 2 7 39 9 40 10 104 11 41 12 103 13
REMARK SMILES IDX 42 14 43 15 44 16 97 17 45 18 102 19 96 20 98 21 46 22
REMARK SMILES IDX 101 23 95 24 94 25 47 27 81 28 60 29 80 30 61 31 64 32 79 33
REMARK SMILES IDX 99 34 62 35 63 36 78 38 100 39 65 40 48 41 49 42 58 43 50 44
REMARK SMILES IDX 51 45 57 46 59 47 52 48 53 49 54 50 55 51 56 52 82 53 83 54
REMARK SMILES IDX 92 55 84 56 85 57 91 58 93 59 86 60 87 61 88 62 89 63 90 64
REMARK SMILES IDX 66 65 67 66 76 67 68 68 69 69 75 70 77 71 70 72 71 73 72 74
REMARK SMILES IDX 73 75 74 76 8 77 9 78 10 79 11 80 12 82 13 83 14 84 38 85
REMARK SMILES IDX 15 86 17 87 16 88 18 89 19 90 20 91 21 92 25 93 22 94 24 95
REMARK SMILES IDX 23 96 26 97 27 98 28 99 36 100 29 101 30 102 35 103 37 104
REMARK SMILES IDX 31 105 34 106 32 107 33 108
REMARK H PARENT 3 8 98 26 64 37 10 81
REMARK Flexibility Score: inf
ROOT
ATOM      1  C   UNL     1       4.707  -2.763   3.166  1.00  0.00     0.002 C 
ENDROOT
BRANCH   1   2
ATOM      2  C   UNL     1       4.140  -1.366   3.437  1.00  0.00     0.002 C 
BRANCH   2   3
ATOM      3  C   UNL     1       4.586  -0.280   2.457  1.00  0.00     0.021 C 
BRANCH   3   4
ATOM      4  C   UNL     1       4.364  -0.618   0.988  1.00  0.00     0.116 C 
BRANCH   4   5
ATOM      5  N   UNL     1       2.958  -0.797   0.678  1.00  0.00    -0.352 N 
ATOM      6  O   UNL     1       0.982  -0.281  -0.273  1.00  0.00    -0.269 OA
ATOM      7  C   UNL     1       2.202  -0.153  -0.267  1.00  0.00     0.251 C 
ATOM      8  H   UNL     1       2.484  -1.471   1.218  1.00  0.00     0.163 HD
BRANCH   7   9
ATOM      9  C   UNL     1       2.870   0.711  -1.261  1.00  0.00     0.039 A 
ATOM     10  C   UNL     1       3.998   0.259  -1.956  1.00  0.00     0.014 A 
ATOM     11  C   UNL     1       2.352   1.984  -1.503  1.00  0.00     0.014 A 
ATOM     12  C   UNL     1       4.667   1.118  -2.823  1.00  0.00     0.010 A 
ATOM     13  C   UNL     1       2.985   2.819  -2.424  1.00  0.00     0.010 A 
ATOM     14  C   UNL     1       4.154   2.398  -3.079  1.00  0.00    -0.014 A 
BRANCH  14  15
ATOM     15  C   UNL     1       4.792   3.274  -4.091  1.00  0.00     0.031 A 
ATOM     16  C   UNL     1       5.421   4.576  -3.692  1.00  0.00     0.074 A 
ATOM     17  C   UNL     1       4.744   2.908  -5.385  1.00  0.00     0.049 A 
ATOM     18  N   UNL     1       5.916   5.519  -4.451  1.00  0.00    -0.248 NA
ATOM     19  C   UNL     1       5.492   4.862  -2.251  1.00  0.00     0.031 C 
ATOM     20  C   UNL     1       4.148   1.667  -5.886  1.00  0.00     0.029 A 
ATOM     21  N   UNL     1       5.177   3.549  -6.516  1.00  0.00    -0.354 N 
ATOM     22  C   UNL     1       6.332   6.524  -3.586  1.00  0.00     0.074 A 
ATOM     23  C   UNL     1       6.015   6.081  -2.244  1.00  0.00     0.031 C 
ATOM     24  C   UNL     1       4.247   1.639  -7.222  1.00  0.00     0.029 A 
ATOM     25  C   UNL     1       4.857   2.885  -7.676  1.00  0.00     0.049 A 
ATOM     26  H   UNL     1       5.669   4.402  -6.500  1.00  0.00     0.167 HD
ATOM     27  C   UNL     1       6.922   7.706  -3.890  1.00  0.00     0.037 A 
ATOM     28  C   UNL     1       4.997   3.252  -8.964  1.00  0.00     0.037 A 
ATOM     29  C   UNL     1       7.229   8.129  -5.232  1.00  0.00     0.049 A 
ATOM     30  C   UNL     1       5.628   4.574  -9.281  1.00  0.00     0.074 A 
ATOM     31  C   UNL     1       7.865   9.286  -5.646  1.00  0.00     0.029 A 
ATOM     32  N   UNL     1       6.908   7.417  -6.381  1.00  0.00    -0.354 N 
ATOM     33  N   UNL     1       6.057   5.496  -8.453  1.00  0.00    -0.248 NA
ATOM     34  C   UNL     1       5.797   4.910 -10.700  1.00  0.00     0.031 C 
ATOM     35  C   UNL     1       7.884   9.297  -7.045  1.00  0.00     0.029 A 
ATOM     36  C   UNL     1       7.310   8.122  -7.504  1.00  0.00     0.049 A 
ATOM     37  H   UNL     1       6.460   6.540  -6.395  1.00  0.00     0.167 HD
ATOM     38  C   UNL     1       6.570   6.513  -9.249  1.00  0.00     0.074 A 
ATOM     39  C   UNL     1       6.396   6.092 -10.625  1.00  0.00     0.031 C 
ATOM     40  C   UNL     1       7.138   7.684  -8.869  1.00  0.00     0.037 A 
BRANCH  27  41
ATOM     41  C   UNL     1       7.234   8.637  -2.750  1.00  0.00     0.058 A 
ATOM     42  C   UNL     1       8.243   8.356  -1.815  1.00  0.00     0.135 A 
ATOM     43  C   UNL     1       6.508   9.829  -2.588  1.00  0.00     0.135 A 
ATOM     44  F   UNL     1       8.963   7.227  -1.915  1.00  0.00    -0.206 F 
ATOM     45  C   UNL     1       8.487   9.196  -0.733  1.00  0.00     0.059 A 
ATOM     46  C   UNL     1       6.753  10.698  -1.528  1.00  0.00     0.059 A 
ATOM     47  F   UNL     1       5.536  10.152  -3.455  1.00  0.00    -0.206 F 
ATOM     48  C   UNL     1       7.728  10.359  -0.591  1.00  0.00     0.060 A 
BRANCH  48  49
ATOM     49  S   UNL     1       8.018  11.411   0.847  1.00  0.00     0.124 S 
ATOM     50  O   UNL     1       7.383  10.632   1.907  1.00  0.00    -0.237 OA
ATOM     51  O   UNL     1       9.474  11.479   0.899  1.00  0.00    -0.237 OA
ATOM     52  O   UNL     1       7.346  12.658   0.497  1.00  0.00    -0.744 OA
ENDBRANCH  48  49
ENDBRANCH  27  41
BRANCH  28  53
ATOM     53  C   UNL     1       4.508   2.336 -10.026  1.00  0.00     0.058 A 
ATOM     54  C   UNL     1       5.402   1.580 -10.795  1.00  0.00     0.135 A 
ATOM     55  C   UNL     1       3.133   2.121 -10.215  1.00  0.00     0.135 A 
ATOM     56  F   UNL     1       6.725   1.754 -10.650  1.00  0.00    -0.206 F 
ATOM     57  C   UNL     1       4.952   0.632 -11.708  1.00  0.00     0.059 A 
ATOM     58  C   UNL     1       2.659   1.162 -11.104  1.00  0.00     0.059 A 
ATOM     59  F   UNL     1       2.239   2.806  -9.486  1.00  0.00    -0.206 F 
ATOM     60  C   UNL     1       3.578   0.421 -11.845  1.00  0.00     0.060 A 
BRANCH  60  61
ATOM     61  S   UNL     1       3.010  -0.889 -12.952  1.00  0.00     0.124 S 
ATOM     62  O   UNL     1       3.258  -0.295 -14.261  1.00  0.00    -0.237 OA
ATOM     63  O   UNL     1       3.880  -2.001 -12.581  1.00  0.00    -0.237 OA
ATOM     64  O   UNL     1       1.607  -1.052 -12.587  1.00  0.00    -0.744 OA
ENDBRANCH  60  61
ENDBRANCH  28  53
BRANCH  40  65
ATOM     65  C   UNL     1       7.657   8.590  -9.950  1.00  0.00     0.058 A 
ATOM     66  C   UNL     1       6.797   9.377 -10.729  1.00  0.00     0.135 A 
ATOM     67  C   UNL     1       9.040   8.746 -10.133  1.00  0.00     0.135 A 
ATOM     68  F   UNL     1       5.466   9.255 -10.600  1.00  0.00    -0.206 F 
ATOM     69  C   UNL     1       7.291  10.294 -11.651  1.00  0.00     0.059 A 
ATOM     70  C   UNL     1       9.557   9.672 -11.033  1.00  0.00     0.059 A 
ATOM     71  F   UNL     1       9.904   8.017  -9.408  1.00  0.00    -0.206 F 
ATOM     72  C   UNL     1       8.674  10.443 -11.787  1.00  0.00     0.060 A 
BRANCH  72  73
ATOM     73  S   UNL     1       9.303  11.698 -12.923  1.00  0.00     0.124 S 
ATOM     74  O   UNL     1       9.045  11.079 -14.218  1.00  0.00    -0.237 OA
ATOM     75  O   UNL     1       8.476  12.856 -12.597  1.00  0.00    -0.237 OA
ATOM     76  O   UNL     1      10.710  11.816 -12.552  1.00  0.00    -0.744 OA
ENDBRANCH  72  73
ENDBRANCH  40  65
ENDBRANCH  14  15
ENDBRANCH   7   9
ENDBRANCH   4   5
ENDBRANCH   3   4
ENDBRANCH   2   3
ENDBRANCH   1   2
BRANCH   1  77
ATOM     77  C   UNL     1       6.227  -2.825   2.981  1.00  0.00     0.021 C 
BRANCH  77  78
ATOM     78  C   UNL     1       7.019  -2.219   4.134  1.00  0.00     0.116 C 
BRANCH  78  79
ATOM     79  N   UNL     1       6.832  -3.001   5.342  1.00  0.00    -0.352 N 
ATOM     80  C   UNL     1       7.767  -3.759   5.990  1.00  0.00     0.251 C 
ATOM     81  H   UNL     1       5.931  -2.983   5.739  1.00  0.00     0.163 HD
ATOM     82  O   UNL     1       7.447  -4.573   6.850  1.00  0.00    -0.269 OA
BRANCH  80  83
ATOM     83  C   UNL     1       9.186  -3.529   5.680  1.00  0.00     0.040 A 
ATOM     84  C   UNL     1       9.994  -4.579   5.246  1.00  0.00     0.014 A 
ATOM     85  C   UNL     1       9.723  -2.265   5.938  1.00  0.00     0.021 A 
ATOM     86  C   UNL     1      11.351  -4.349   5.029  1.00  0.00     0.001 A 
ATOM     87  C   UNL     1      11.090  -2.046   5.768  1.00  0.00    -0.010 A 
ATOM     88  C   UNL     1      11.896  -3.089   5.284  1.00  0.00     0.007 A 
BRANCH  87  89
ATOM     89  C   UNL     1      11.712  -0.780   6.292  1.00  0.00     0.265 C 
BRANCH  89  90
ATOM     90  O   UNL     1      12.478  -1.152   7.445  1.00  0.00    -0.488 OA
BRANCH  90  91
ATOM     91  C   UNL     1      11.888  -0.782   8.627  1.00  0.00     0.127 A 
ATOM     92  C   UNL     1      12.145   0.518   9.082  1.00  0.00     0.047 A 
ATOM     93  C   UNL     1      11.206  -1.713   9.434  1.00  0.00     0.017 A 
ATOM     94  C   UNL     1      11.747   0.904  10.360  1.00  0.00     0.004 A 
ATOM     95  C   UNL     1      10.880  -1.315  10.741  1.00  0.00     0.012 A 
ATOM     96  C   UNL     1      11.131  -0.019  11.196  1.00  0.00     0.001 A 
BRANCH  93  97
ATOM     97  C   UNL     1      10.925  -3.100   9.005  1.00  0.00     0.028 C 
ATOM     98  C   UNL     1       9.819  -3.824   9.258  1.00  0.00     0.071 C 
ATOM     99  C   UNL     1       8.566  -3.445   9.975  1.00  0.00     0.197 C 
ATOM    100  C   UNL     1       9.728  -5.279   8.923  1.00  0.00     0.197 C 
ATOM    101  O   UNL     1       8.174  -2.353  10.334  1.00  0.00    -0.288 OA
ATOM    102  C   UNL     1       7.853  -4.701  10.213  1.00  0.00     0.034 A 
ATOM    103  C   UNL     1       8.502  -5.756   9.582  1.00  0.00     0.034 A 
ATOM    104  O   UNL     1      10.534  -5.969   8.331  1.00  0.00    -0.288 OA
ATOM    105  C   UNL     1       6.731  -4.897  11.001  1.00  0.00     0.013 A 
ATOM    106  C   UNL     1       8.033  -7.054   9.691  1.00  0.00     0.013 A 
ATOM    107  C   UNL     1       6.259  -6.204  11.141  1.00  0.00     0.001 A 
ATOM    108  C   UNL     1       6.899  -7.272  10.483  1.00  0.00     0.001 A 
ENDBRANCH  93  97
ENDBRANCH  90  91
ENDBRANCH  89  90
ENDBRANCH  87  89
ENDBRANCH  80  83
ENDBRANCH  78  79
ENDBRANCH  77  78
ENDBRANCH   1  77
TORSDOF 20
