REMARK SMILES Cc1nc(C)c(C(=O)N[C@@H](CCS(C)(=O)=O)C(=O)NCCCCCCNC(=O)c2ccc(-c3c4nc(c(-c5c(F)cc(S(=O)(=O)[O-])cc5F)c5ccc([nH]5)c(-c5c(F)cc(S(=O)(=O)[O-])cc5F)c5nc(c(-c6c(F)cc(S(=O)(=O)[O-])cc6F)c6ccc3[nH]6)C=C5)C=C4)cc2)s1
REMARK SMILES IDX 22 1 21 2 20 3 19 4 17 5 18 6 10 8 9 9 7 10 8 11 6 13 1 14
REMARK SMILES IDX 2 15 3 16 95 17 4 18 5 19 11 20 12 21 13 22 14 23 15 24
REMARK SMILES IDX 16 25 23 26 24 27 25 28 26 29 27 30 28 32 29 33 30 34 94 35
REMARK SMILES IDX 31 36 93 37 32 38 33 39 34 40 87 41 35 42 92 43 86 44 88 45
REMARK SMILES IDX 36 46 91 47 85 48 84 49 37 51 71 52 50 53 70 54 51 55 54 56
REMARK SMILES IDX 69 57 89 58 52 59 53 60 68 62 90 63 55 64 38 65 39 66 48 67
REMARK SMILES IDX 40 68 41 69 47 70 49 71 42 72 43 73 44 74 45 75 46 76 72 77
REMARK SMILES IDX 73 78 82 79 74 80 75 81 81 82 83 83 76 84 77 85 78 86 79 87
REMARK SMILES IDX 80 88 56 89 57 90 66 91 58 92 59 93 65 94 67 95 60 96 61 97
REMARK SMILES IDX 62 98 63 99 64 100
REMARK H PARENT 19 7 9 12 26 31 88 50 54 61
REMARK Flexibility Score: inf
ROOT
ATOM      1  C   UNL     1      -1.451  -8.119  -2.741  1.00  0.00     0.002 C 
ENDROOT
BRANCH   1   2
ATOM      2  C   UNL     1      -2.156  -7.066  -1.876  1.00  0.00     0.021 C 
BRANCH   2   3
ATOM      3  C   UNL     1      -1.252  -6.235  -0.971  1.00  0.00     0.116 C 
BRANCH   3   4
ATOM      4  N   UNL     1      -0.280  -5.445  -1.699  1.00  0.00    -0.354 N 
ATOM      5  C   UNL     1       0.650  -4.548  -1.274  1.00  0.00     0.242 C 
ATOM      6  O   UNL     1       1.563  -4.253  -2.054  1.00  0.00    -0.273 OA
ATOM      7  H   UNL     1      -0.294  -5.582  -2.674  1.00  0.00     0.163 HD
BRANCH   5   8
ATOM      8  C   UNL     1       0.665  -3.952   0.146  1.00  0.00     0.172 C 
BRANCH   8   9
ATOM      9  N   UNL     1      -0.646  -3.475   0.586  1.00  0.00    -0.339 N 
ATOM     10  C   UNL     1      -1.303  -2.267   0.437  1.00  0.00     0.263 C 
ATOM     11  O   UNL     1      -2.527  -2.373   0.576  1.00  0.00    -0.268 OA
ATOM     12  H   UNL     1      -1.163  -4.146   1.088  1.00  0.00     0.164 HD
BRANCH  10  13
ATOM     13  C   UNL     1      -0.671  -0.967   0.199  1.00  0.00     0.115 A 
ATOM     14  C   UNL     1       1.955   1.919  -0.048  1.00  0.00     0.079 C 
ATOM     15  C   UNL     1       0.792   0.992  -0.006  1.00  0.00     0.091 A 
ATOM     16  N   UNL     1      -0.457   1.365  -0.129  1.00  0.00    -0.246 NA
ATOM     17  S   UNL     1       1.018  -0.669   0.274  1.00  0.00    -0.113 S 
ATOM     18  C   UNL     1      -1.305   0.267   0.007  1.00  0.00     0.061 A 
ATOM     19  C   UNL     1      -2.762   0.585  -0.018  1.00  0.00     0.068 C 
ENDBRANCH  10  13
ENDBRANCH   8   9
BRANCH   8  20
ATOM     20  C   UNL     1       1.450  -4.684   1.256  1.00  0.00     0.051 C 
BRANCH  20  21
ATOM     21  C   UNL     1       1.280  -6.174   1.510  1.00  0.00     0.139 C 
BRANCH  21  22
ATOM     22  S   UNL     1       2.242  -7.286   0.480  1.00  0.00     0.147 S 
ATOM     23  C   UNL     1       3.937  -6.800   0.669  1.00  0.00     0.158 C 
ATOM     24  O   UNL     1       2.106  -8.613   1.055  1.00  0.00    -0.229 OA
ATOM     25  O   UNL     1       1.909  -7.067  -0.906  1.00  0.00    -0.229 OA
ENDBRANCH  21  22
ENDBRANCH  20  21
ENDBRANCH   8  20
ENDBRANCH   5   8
ENDBRANCH   3   4
ENDBRANCH   2   3
ENDBRANCH   1   2
BRANCH   1  26
ATOM     26  C   UNL     1      -0.588  -9.155  -2.015  1.00  0.00     0.002 C 
BRANCH  26  27
ATOM     27  C   UNL     1      -1.240  -9.897  -0.851  1.00  0.00     0.021 C 
BRANCH  27  28
ATOM     28  C   UNL     1      -2.564 -10.568  -1.181  1.00  0.00     0.116 C 
BRANCH  28  29
ATOM     29  N   UNL     1      -2.460 -11.519  -2.275  1.00  0.00    -0.352 N 
ATOM     30  C   UNL     1      -3.014 -12.769  -2.389  1.00  0.00     0.251 C 
ATOM     31  H   UNL     1      -1.917 -11.225  -3.041  1.00  0.00     0.163 HD
ATOM     32  O   UNL     1      -2.710 -13.491  -3.334  1.00  0.00    -0.269 OA
BRANCH  30  33
ATOM     33  C   UNL     1      -3.954 -13.252  -1.355  1.00  0.00     0.039 A 
ATOM     34  C   UNL     1      -3.824 -14.562  -0.888  1.00  0.00     0.014 A 
ATOM     35  C   UNL     1      -4.953 -12.420  -0.842  1.00  0.00     0.014 A 
ATOM     36  C   UNL     1      -4.667 -15.020   0.126  1.00  0.00     0.010 A 
ATOM     37  C   UNL     1      -5.728 -12.847   0.231  1.00  0.00     0.010 A 
ATOM     38  C   UNL     1      -5.606 -14.157   0.715  1.00  0.00    -0.014 A 
BRANCH  38  39
ATOM     39  C   UNL     1      -6.485 -14.618   1.819  1.00  0.00     0.031 A 
ATOM     40  C   UNL     1      -7.979 -14.649   1.628  1.00  0.00     0.074 A 
ATOM     41  C   UNL     1      -5.943 -14.966   3.003  1.00  0.00     0.049 A 
ATOM     42  N   UNL     1      -8.913 -14.982   2.481  1.00  0.00    -0.248 NA
ATOM     43  C   UNL     1      -8.493 -14.223   0.316  1.00  0.00     0.031 C 
ATOM     44  C   UNL     1      -4.514 -14.928   3.322  1.00  0.00     0.029 A 
ATOM     45  N   UNL     1      -6.528 -15.417   4.159  1.00  0.00    -0.354 N 
ATOM     46  C   UNL     1     -10.119 -14.795   1.814  1.00  0.00     0.074 A 
ATOM     47  C   UNL     1      -9.802 -14.259   0.510  1.00  0.00     0.031 C 
ATOM     48  C   UNL     1      -4.331 -15.367   4.578  1.00  0.00     0.029 A 
ATOM     49  C   UNL     1      -5.630 -15.679   5.167  1.00  0.00     0.049 A 
ATOM     50  H   UNL     1      -7.499 -15.540   4.258  1.00  0.00     0.167 HD
ATOM     51  C   UNL     1     -11.374 -15.074   2.240  1.00  0.00     0.037 A 
ATOM     52  C   UNL     1      -5.831 -16.116   6.426  1.00  0.00     0.037 A 
ATOM     53  C   UNL     1     -11.677 -15.629   3.533  1.00  0.00     0.049 A 
ATOM     54  C   UNL     1      -7.236 -16.416   6.876  1.00  0.00     0.074 A 
ATOM     55  C   UNL     1     -12.909 -15.996   4.045  1.00  0.00     0.029 A 
ATOM     56  N   UNL     1     -10.739 -15.897   4.520  1.00  0.00    -0.354 N 
ATOM     57  N   UNL     1      -8.360 -16.293   6.210  1.00  0.00    -0.248 NA
ATOM     58  C   UNL     1      -7.400 -16.924   8.245  1.00  0.00     0.031 C 
ATOM     59  C   UNL     1     -12.723 -16.434   5.360  1.00  0.00     0.029 A 
ATOM     60  C   UNL     1     -11.367 -16.404   5.646  1.00  0.00     0.049 A 
ATOM     61  H   UNL     1      -9.770 -15.749   4.433  1.00  0.00     0.167 HD
ATOM     62  C   UNL     1      -9.360 -16.741   7.066  1.00  0.00     0.074 A 
ATOM     63  C   UNL     1      -8.705 -17.149   8.293  1.00  0.00     0.031 C 
ATOM     64  C   UNL     1     -10.699 -16.813   6.856  1.00  0.00     0.037 A 
BRANCH  51  65
ATOM     65  C   UNL     1     -12.513 -14.785   1.298  1.00  0.00     0.058 A 
ATOM     66  C   UNL     1     -12.703 -15.524   0.118  1.00  0.00     0.135 A 
ATOM     67  C   UNL     1     -13.449 -13.781   1.595  1.00  0.00     0.135 A 
ATOM     68  F   UNL     1     -11.831 -16.485  -0.227  1.00  0.00    -0.206 F 
ATOM     69  C   UNL     1     -13.761 -15.259  -0.746  1.00  0.00     0.059 A 
ATOM     70  C   UNL     1     -14.534 -13.521   0.762  1.00  0.00     0.059 A 
ATOM     71  F   UNL     1     -13.317 -13.042   2.707  1.00  0.00    -0.206 F 
ATOM     72  C   UNL     1     -14.673 -14.257  -0.414  1.00  0.00     0.060 A 
BRANCH  72  73
ATOM     73  S   UNL     1     -16.047 -13.936  -1.540  1.00  0.00     0.124 S 
ATOM     74  O   UNL     1     -15.360 -13.310  -2.666  1.00  0.00    -0.237 OA
ATOM     75  O   UNL     1     -16.569 -15.277  -1.783  1.00  0.00    -0.237 OA
ATOM     76  O   UNL     1     -16.920 -13.055  -0.771  1.00  0.00    -0.744 OA
ENDBRANCH  72  73
ENDBRANCH  51  65
BRANCH  52  77
ATOM     77  C   UNL     1      -4.673 -16.321   7.338  1.00  0.00     0.058 A 
ATOM     78  C   UNL     1      -4.289 -17.608   7.745  1.00  0.00     0.135 A 
ATOM     79  C   UNL     1      -3.924 -15.235   7.819  1.00  0.00     0.135 A 
ATOM     80  F   UNL     1      -4.975 -18.679   7.318  1.00  0.00    -0.206 F 
ATOM     81  C   UNL     1      -3.220 -17.811   8.613  1.00  0.00     0.059 A 
ATOM     82  C   UNL     1      -2.833 -15.415   8.663  1.00  0.00     0.059 A 
ATOM     83  F   UNL     1      -4.237 -13.984   7.447  1.00  0.00    -0.206 F 
ATOM     84  C   UNL     1      -2.497 -16.706   9.065  1.00  0.00     0.060 A 
BRANCH  84  85
ATOM     85  S   UNL     1      -1.089 -16.984  10.162  1.00  0.00     0.124 S 
ATOM     86  O   UNL     1      -1.753 -17.374  11.400  1.00  0.00    -0.237 OA
ATOM     87  O   UNL     1      -0.362 -18.041   9.466  1.00  0.00    -0.237 OA
ATOM     88  O   UNL     1      -0.421 -15.685  10.186  1.00  0.00    -0.744 OA
ENDBRANCH  84  85
ENDBRANCH  52  77
BRANCH  64  89
ATOM     89  C   UNL     1     -11.542 -17.399   7.957  1.00  0.00     0.058 A 
ATOM     90  C   UNL     1     -11.762 -16.722   9.167  1.00  0.00     0.135 A 
ATOM     91  C   UNL     1     -12.171 -18.642   7.779  1.00  0.00     0.135 A 
ATOM     92  F   UNL     1     -11.182 -15.533   9.391  1.00  0.00    -0.206 F 
ATOM     93  C   UNL     1     -12.547 -17.273  10.174  1.00  0.00     0.059 A 
ATOM     94  C   UNL     1     -12.988 -19.196   8.759  1.00  0.00     0.059 A 
ATOM     95  F   UNL     1     -12.006 -19.327   6.635  1.00  0.00    -0.206 F 
ATOM     96  C   UNL     1     -13.156 -18.511   9.960  1.00  0.00     0.060 A 
BRANCH  96  97
ATOM     97  S   UNL     1     -14.187 -19.206  11.269  1.00  0.00     0.124 S 
ATOM     98  O   UNL     1     -13.185 -19.607  12.251  1.00  0.00    -0.237 OA
ATOM     99  O   UNL     1     -15.023 -18.069  11.644  1.00  0.00    -0.237 OA
ATOM    100  O   UNL     1     -14.889 -20.300  10.606  1.00  0.00    -0.744 OA
ENDBRANCH  96  97
ENDBRANCH  64  89
ENDBRANCH  38  39
ENDBRANCH  30  33
ENDBRANCH  28  29
ENDBRANCH  27  28
ENDBRANCH  26  27
ENDBRANCH   1  26
TORSDOF 21
