REMARK SMILES COc1cc(/N=N/c2ccccc2)ccc1NC(=O)[C@H]1CC=CC[C@@H]1C(=O)NCCCCCCNC(=O)c1ccc(-c2c3nc(c(-c4c(F)cc(S(=O)(=O)[O-])cc4F)c4ccc([nH]4)c(-c4c(F)cc(S(=O)(=O)[O-])cc4F)c4nc(c(-c5c(F)cc(S(=O)(=O)[O-])cc5F)c5ccc2[nH]5)C=C4)C=C3)cc1
REMARK SMILES IDX 31 1 30 2 29 3 28 4 26 5 27 6 25 8 20 9 21 10 22 11 24 12
REMARK SMILES IDX 23 13 18 14 17 15 19 17 16 18 3 19 4 20 5 21 15 22 14 23
REMARK SMILES IDX 2 24 1 25 6 26 7 27 8 28 9 29 13 30 10 31 12 32 11 33 32 34
REMARK SMILES IDX 33 35 34 36 35 37 36 38 37 40 38 41 39 42 103 43 40 44
REMARK SMILES IDX 102 45 41 46 42 47 43 48 96 49 44 50 101 51 95 52 97 53
REMARK SMILES IDX 45 54 100 55 94 56 93 57 46 59 80 60 59 61 79 62 60 63 63 64
REMARK SMILES IDX 78 65 98 66 61 67 62 68 77 70 99 71 64 72 47 73 48 74 57 75
REMARK SMILES IDX 49 76 50 77 56 78 58 79 51 80 52 81 53 82 54 83 55 84 81 85
REMARK SMILES IDX 82 86 91 87 83 88 84 89 90 90 92 91 85 92 86 93 87 94 88 95
REMARK SMILES IDX 89 96 65 97 66 98 75 99 67 100 68 101 74 102 76 103 69 104
REMARK SMILES IDX 70 105 71 106 72 107 73 108
REMARK H PARENT 28 7 17 16 35 39 97 58 63 69
REMARK Flexibility Score: inf
ROOT
ATOM      1  C   UNL     1       9.751   0.368   7.393  1.00  0.00     0.002 C 
ENDROOT
BRANCH   1   2
ATOM      2  C   UNL     1       9.448  -0.298   6.047  1.00  0.00     0.021 C 
BRANCH   2   3
ATOM      3  C   UNL     1       7.999  -0.223   5.591  1.00  0.00     0.116 C 
BRANCH   3   4
ATOM      4  N   UNL     1       7.527   1.133   5.465  1.00  0.00    -0.356 N 
ATOM      5  C   UNL     1       6.560   1.650   4.668  1.00  0.00     0.224 C 
ATOM      6  O   UNL     1       6.415   2.876   4.726  1.00  0.00    -0.275 OA
ATOM      7  H   UNL     1       7.977   1.786   6.049  1.00  0.00     0.163 HD
BRANCH   5   8
ATOM      8  C   UNL     1       5.777   0.785   3.669  1.00  0.00     0.095 C 
ATOM      9  C   UNL     1       4.627   1.654   3.064  1.00  0.00     0.095 C 
ATOM     10  C   UNL     1       3.567   1.924   4.167  1.00  0.00     0.041 C 
ATOM     11  C   UNL     1       3.303   0.802   5.121  1.00  0.00    -0.030 C 
ATOM     12  C   UNL     1       5.173  -0.532   4.206  1.00  0.00     0.041 C 
ATOM     13  C   UNL     1       4.009  -0.331   5.120  1.00  0.00    -0.030 C 
BRANCH   9  14
ATOM     14  C   UNL     1       4.143   1.018   1.749  1.00  0.00     0.228 C 
ATOM     15  N   UNL     1       2.990   1.361   1.108  1.00  0.00    -0.323 N 
ATOM     16  H   UNL     1       2.769   0.785   0.341  1.00  0.00     0.170 HD
ATOM     17  O   UNL     1       4.818   0.148   1.181  1.00  0.00    -0.274 OA
BRANCH  15  18
ATOM     18  C   UNL     1       2.062   2.385   1.341  1.00  0.00     0.083 A 
ATOM     19  C   UNL     1       0.673   2.186   1.229  1.00  0.00     0.144 A 
ATOM     20  C   UNL     1      -0.191   3.167   1.762  1.00  0.00     0.079 A 
ATOM     21  C   UNL     1       0.290   4.344   2.345  1.00  0.00     0.090 A 
ATOM     22  C   UNL     1       2.534   3.632   1.773  1.00  0.00     0.032 A 
ATOM     23  C   UNL     1       1.663   4.590   2.285  1.00  0.00     0.033 A 
BRANCH  19  24
ATOM     24  O   UNL     1      -0.026   1.103   0.769  1.00  0.00    -0.494 OA
ATOM     25  C   UNL     1       0.588   0.131  -0.060  1.00  0.00     0.278 C 
ENDBRANCH  19  24
BRANCH  21  26
ATOM     26  N   UNL     1      -0.599   5.270   2.933  1.00  0.00    -0.150 NA
ATOM     27  N   UNL     1      -0.146   5.663   4.034  1.00  0.00    -0.151 NA
BRANCH  27  28
ATOM     28  C   UNL     1      -0.890   6.732   4.557  1.00  0.00     0.086 A 
ATOM     29  C   UNL     1      -0.263   7.973   4.734  1.00  0.00     0.030 A 
ATOM     30  C   UNL     1      -2.213   6.578   4.982  1.00  0.00     0.030 A 
ATOM     31  C   UNL     1      -0.949   9.046   5.306  1.00  0.00     0.002 A 
ATOM     32  C   UNL     1      -2.903   7.650   5.555  1.00  0.00     0.002 A 
ATOM     33  C   UNL     1      -2.271   8.883   5.715  1.00  0.00     0.000 A 
ENDBRANCH  27  28
ENDBRANCH  21  26
ENDBRANCH  15  18
ENDBRANCH   9  14
ENDBRANCH   5   8
ENDBRANCH   3   4
ENDBRANCH   2   3
ENDBRANCH   1   2
BRANCH   1  34
ATOM     34  C   UNL     1       8.874  -0.063   8.572  1.00  0.00     0.002 C 
BRANCH  34  35
ATOM     35  C   UNL     1       8.791  -1.569   8.824  1.00  0.00     0.021 C 
BRANCH  35  36
ATOM     36  C   UNL     1      10.129  -2.294   8.887  1.00  0.00     0.116 C 
BRANCH  36  37
ATOM     37  N   UNL     1      11.000  -1.778   9.929  1.00  0.00    -0.352 N 
ATOM     38  C   UNL     1      11.718  -2.470  10.874  1.00  0.00     0.251 C 
ATOM     39  H   UNL     1      11.087  -0.798   9.962  1.00  0.00     0.163 HD
ATOM     40  O   UNL     1      12.292  -1.868  11.772  1.00  0.00    -0.269 OA
BRANCH  38  41
ATOM     41  C   UNL     1      11.761  -3.948  10.817  1.00  0.00     0.039 A 
ATOM     42  C   UNL     1      11.538  -4.671  11.990  1.00  0.00     0.014 A 
ATOM     43  C   UNL     1      12.002  -4.617   9.612  1.00  0.00     0.014 A 
ATOM     44  C   UNL     1      11.498  -6.066  11.943  1.00  0.00     0.010 A 
ATOM     45  C   UNL     1      11.884  -6.003   9.554  1.00  0.00     0.010 A 
ATOM     46  C   UNL     1      11.634  -6.743  10.719  1.00  0.00    -0.014 A 
BRANCH  46  47
ATOM     47  C   UNL     1      11.523  -8.223  10.645  1.00  0.00     0.031 A 
ATOM     48  C   UNL     1      12.702  -9.047  10.200  1.00  0.00     0.074 A 
ATOM     49  C   UNL     1      10.349  -8.820  10.935  1.00  0.00     0.049 A 
ATOM     50  N   UNL     1      12.779 -10.338  10.004  1.00  0.00    -0.248 NA
ATOM     51  C   UNL     1      13.953  -8.324   9.917  1.00  0.00     0.031 C 
ATOM     52  C   UNL     1       9.122  -8.126  11.335  1.00  0.00     0.029 A 
ATOM     53  N   UNL     1       9.989 -10.145  10.928  1.00  0.00    -0.354 N 
ATOM     54  C   UNL     1      14.081 -10.581   9.582  1.00  0.00     0.074 A 
ATOM     55  C   UNL     1      14.740  -9.298   9.484  1.00  0.00     0.031 C 
ATOM     56  C   UNL     1       8.152  -9.030  11.550  1.00  0.00     0.029 A 
ATOM     57  C   UNL     1       8.672 -10.363  11.263  1.00  0.00     0.049 A 
ATOM     58  H   UNL     1      10.614 -10.871  10.705  1.00  0.00     0.167 HD
ATOM     59  C   UNL     1      14.682 -11.768   9.331  1.00  0.00     0.037 A 
ATOM     60  C   UNL     1       7.959 -11.506  11.316  1.00  0.00     0.037 A 
ATOM     61  C   UNL     1      14.025 -13.045   9.443  1.00  0.00     0.049 A 
ATOM     62  C   UNL     1       8.646 -12.810  11.000  1.00  0.00     0.074 A 
ATOM     63  C   UNL     1      14.555 -14.306   9.231  1.00  0.00     0.029 A 
ATOM     64  N   UNL     1      12.698 -13.225   9.805  1.00  0.00    -0.354 N 
ATOM     65  N   UNL     1       9.892 -13.023  10.650  1.00  0.00    -0.248 NA
ATOM     66  C   UNL     1       7.833 -14.031  11.095  1.00  0.00     0.031 C 
ATOM     67  C   UNL     1      13.538 -15.246   9.423  1.00  0.00     0.029 A 
ATOM     68  C   UNL     1      12.389 -14.575   9.809  1.00  0.00     0.049 A 
ATOM     69  H   UNL     1      12.069 -12.501  10.025  1.00  0.00     0.167 HD
ATOM     70  C   UNL     1      10.019 -14.402  10.517  1.00  0.00     0.074 A 
ATOM     71  C   UNL     1       8.730 -14.973  10.840  1.00  0.00     0.031 C 
ATOM     72  C   UNL     1      11.105 -15.130  10.156  1.00  0.00     0.037 A 
BRANCH  59  73
ATOM     73  C   UNL     1      16.133 -11.752   8.935  1.00  0.00     0.058 A 
ATOM     74  C   UNL     1      17.138 -11.424   9.860  1.00  0.00     0.135 A 
ATOM     75  C   UNL     1      16.533 -12.136   7.644  1.00  0.00     0.135 A 
ATOM     76  F   UNL     1      16.812 -11.031  11.101  1.00  0.00    -0.206 F 
ATOM     77  C   UNL     1      18.485 -11.467   9.517  1.00  0.00     0.059 A 
ATOM     78  C   UNL     1      17.876 -12.214   7.288  1.00  0.00     0.059 A 
ATOM     79  F   UNL     1      15.614 -12.456   6.719  1.00  0.00    -0.206 F 
ATOM     80  C   UNL     1      18.845 -11.871   8.231  1.00  0.00     0.060 A 
BRANCH  80  81
ATOM     81  S   UNL     1      20.600 -11.961   7.820  1.00  0.00     0.124 S 
ATOM     82  O   UNL     1      20.965 -10.547   7.788  1.00  0.00    -0.237 OA
ATOM     83  O   UNL     1      21.141 -12.729   8.936  1.00  0.00    -0.237 OA
ATOM     84  O   UNL     1      20.614 -12.640   6.528  1.00  0.00    -0.744 OA
ENDBRANCH  80  81
ENDBRANCH  59  73
BRANCH  60  85
ATOM     85  C   UNL     1       6.513 -11.478  11.670  1.00  0.00     0.058 A 
ATOM     86  C   UNL     1       6.041 -12.066  12.854  1.00  0.00     0.135 A 
ATOM     87  C   UNL     1       5.567 -10.897  10.811  1.00  0.00     0.135 A 
ATOM     88  F   UNL     1       6.904 -12.637  13.709  1.00  0.00    -0.206 F 
ATOM     89  C   UNL     1       4.683 -12.119  13.153  1.00  0.00     0.059 A 
ATOM     90  C   UNL     1       4.207 -10.907  11.104  1.00  0.00     0.059 A 
ATOM     91  F   UNL     1       5.964 -10.302   9.675  1.00  0.00    -0.206 F 
ATOM     92  C   UNL     1       3.772 -11.541  12.266  1.00  0.00     0.060 A 
BRANCH  92  93
ATOM     93  S   UNL     1       2.011 -11.619  12.658  1.00  0.00     0.124 S 
ATOM     94  O   UNL     1       1.717 -13.024  12.401  1.00  0.00    -0.237 OA
ATOM     95  O   UNL     1       1.989 -11.206  14.057  1.00  0.00    -0.237 OA
ATOM     96  O   UNL     1       1.419 -10.668  11.722  1.00  0.00    -0.744 OA
ENDBRANCH  92  93
ENDBRANCH  60  85
BRANCH  72  97
ATOM     97  C   UNL     1      10.963 -16.628  10.140  1.00  0.00     0.058 A 
ATOM     98  C   UNL     1      10.206 -17.291   9.163  1.00  0.00     0.135 A 
ATOM     99  C   UNL     1      11.640 -17.412  11.089  1.00  0.00     0.135 A 
ATOM    100  F   UNL     1       9.535 -16.589   8.236  1.00  0.00    -0.206 F 
ATOM    101  C   UNL     1      10.102 -18.678   9.142  1.00  0.00     0.059 A 
ATOM    102  C   UNL     1      11.577 -18.802  11.068  1.00  0.00     0.059 A 
ATOM    103  F   UNL     1      12.388 -16.829  12.040  1.00  0.00    -0.206 F 
ATOM    104  C   UNL     1      10.794 -19.425  10.098  1.00  0.00     0.060 A 
BRANCH 104 105
ATOM    105  S   UNL     1      10.678 -21.225  10.036  1.00  0.00     0.124 S 
ATOM    106  O   UNL     1       9.314 -21.449  10.504  1.00  0.00    -0.237 OA
ATOM    107  O   UNL     1      10.918 -21.505   8.624  1.00  0.00    -0.237 OA
ATOM    108  O   UNL     1      11.733 -21.666  10.944  1.00  0.00    -0.744 OA
ENDBRANCH 104 105
ENDBRANCH  72  97
ENDBRANCH  46  47
ENDBRANCH  38  41
ENDBRANCH  36  37
ENDBRANCH  35  36
ENDBRANCH  34  35
ENDBRANCH   1  34
TORSDOF 21
