REMARK SMILES CNC(=O)[C@H](C)S(=O)(=O)c1cc(C(=O)NCCCCCCNC(=O)c2ccc(-c3c4nc(c(-c5c(F)cc(S(=O)(=O)[O-])cc5F)c5ccc([nH]5)c(-c5c(F)cc(S(=O)(=O)[O-])cc5F)c5nc(c(-c6c(F)cc(S(=O)(=O)[O-])cc6F)c6ccc3[nH]6)C=C5)C=C4)cc2)c(C)cc1C
REMARK SMILES IDX 18 1 17 2 16 3 15 4 13 5 14 6 12 8 10 9 11 10 94 11 93 12
REMARK SMILES IDX 95 13 91 14 92 15 7 16 8 17 9 18 5 19 6 20 3 21 1 22 2 23
REMARK SMILES IDX 4 25 19 26 20 27 21 28 22 29 23 30 24 32 25 33 26 34 90 35
REMARK SMILES IDX 27 36 89 37 28 38 29 39 30 40 83 41 31 42 88 43 82 44 84 45
REMARK SMILES IDX 32 46 87 47 81 48 80 49 33 51 67 52 46 53 66 54 47 55 50 56
REMARK SMILES IDX 65 57 85 58 48 59 49 60 64 62 86 63 51 64 34 65 35 66 44 67
REMARK SMILES IDX 36 68 37 69 43 70 45 71 38 72 39 73 40 74 41 75 42 76 68 77
REMARK SMILES IDX 69 78 78 79 70 80 71 81 77 82 79 83 72 84 73 85 74 86 75 87
REMARK SMILES IDX 76 88 52 89 53 90 62 91 54 92 55 93 61 94 63 95 56 96 57 97
REMARK SMILES IDX 58 98 59 99 60 100
REMARK H PARENT 15 7 2 24 22 31 84 50 50 61
REMARK Flexibility Score: inf
ROOT
ATOM      1  C   UNL     1       1.824  -6.283   5.622  1.00  0.00     0.002 C 
ENDROOT
BRANCH   1   2
ATOM      2  C   UNL     1       1.585  -4.948   4.917  1.00  0.00     0.021 C 
BRANCH   2   3
ATOM      3  C   UNL     1       2.032  -4.917   3.451  1.00  0.00     0.116 C 
BRANCH   3   4
ATOM      4  N   UNL     1       0.895  -5.149   2.595  1.00  0.00    -0.352 N 
ATOM      5  C   UNL     1       0.011  -4.365   1.915  1.00  0.00     0.251 C 
ATOM      6  O   UNL     1      -0.895  -4.997   1.358  1.00  0.00    -0.269 OA
ATOM      7  H   UNL     1       0.713  -6.108   2.470  1.00  0.00     0.163 HD
BRANCH   5   8
ATOM      8  C   UNL     1       0.043  -2.873   1.714  1.00  0.00     0.044 A 
ATOM      9  C   UNL     1      -0.796  -1.149   0.112  1.00  0.00     0.071 A 
ATOM     10  C   UNL     1      -0.555  -2.490   0.483  1.00  0.00     0.034 A 
ATOM     11  C   UNL     1      -0.485  -0.133   1.016  1.00  0.00    -0.032 A 
ATOM     12  C   UNL     1       0.195  -0.497   2.189  1.00  0.00     0.009 A 
ATOM     13  C   UNL     1      -0.801   1.329   0.886  1.00  0.00     0.046 C 
ATOM     14  C   UNL     1       0.441  -1.836   2.575  1.00  0.00    -0.038 A 
ATOM     15  C   UNL     1       1.045  -1.968   3.937  1.00  0.00     0.045 C 
BRANCH   9  16
ATOM     16  S   UNL     1      -1.622  -0.877  -1.453  1.00  0.00     0.190 S 
ATOM     17  O   UNL     1      -2.742   0.003  -1.171  1.00  0.00    -0.223 OA
ATOM     18  O   UNL     1      -1.907  -2.189  -2.012  1.00  0.00    -0.223 OA
BRANCH  16  19
ATOM     19  C   UNL     1      -0.558  -0.055  -2.588  1.00  0.00     0.199 C 
ATOM     20  C   UNL     1      -0.086   1.340  -2.241  1.00  0.00     0.036 C 
BRANCH  19  21
ATOM     21  C   UNL     1       0.508  -0.931  -3.194  1.00  0.00     0.238 C 
ATOM     22  C   UNL     1       2.144  -1.161  -1.224  1.00  0.00     0.142 C 
ATOM     23  N   UNL     1       1.650  -1.312  -2.570  1.00  0.00    -0.358 N 
ATOM     24  H   UNL     1       2.273  -1.792  -3.162  1.00  0.00     0.163 HD
ATOM     25  O   UNL     1       0.419  -1.260  -4.384  1.00  0.00    -0.274 OA
ENDBRANCH  19  21
ENDBRANCH  16  19
ENDBRANCH   9  16
ENDBRANCH   5   8
ENDBRANCH   3   4
ENDBRANCH   2   3
ENDBRANCH   1   2
BRANCH   1  26
ATOM     26  C   UNL     1       3.301  -6.629   5.826  1.00  0.00     0.002 C 
BRANCH  26  27
ATOM     27  C   UNL     1       4.122  -5.557   6.550  1.00  0.00     0.021 C 
BRANCH  27  28
ATOM     28  C   UNL     1       3.590  -5.177   7.928  1.00  0.00     0.116 C 
BRANCH  28  29
ATOM     29  N   UNL     1       3.585  -6.319   8.825  1.00  0.00    -0.352 N 
ATOM     30  C   UNL     1       4.294  -6.516   9.982  1.00  0.00     0.251 C 
ATOM     31  H   UNL     1       2.988  -7.058   8.566  1.00  0.00     0.163 HD
ATOM     32  O   UNL     1       4.403  -7.647  10.446  1.00  0.00    -0.269 OA
BRANCH  30  33
ATOM     33  C   UNL     1       4.915  -5.364  10.672  1.00  0.00     0.039 A 
ATOM     34  C   UNL     1       6.173  -5.521  11.258  1.00  0.00     0.014 A 
ATOM     35  C   UNL     1       4.231  -4.151  10.792  1.00  0.00     0.014 A 
ATOM     36  C   UNL     1       6.750  -4.454  11.950  1.00  0.00     0.010 A 
ATOM     37  C   UNL     1       4.843  -3.064  11.408  1.00  0.00     0.010 A 
ATOM     38  C   UNL     1       6.093  -3.215  12.024  1.00  0.00    -0.014 A 
BRANCH  38  39
ATOM     39  C   UNL     1       6.669  -2.088  12.800  1.00  0.00     0.031 A 
ATOM     40  C   UNL     1       5.944  -1.569  14.015  1.00  0.00     0.074 A 
ATOM     41  C   UNL     1       7.818  -1.512  12.396  1.00  0.00     0.049 A 
ATOM     42  N   UNL     1       6.259  -0.575  14.805  1.00  0.00    -0.248 NA
ATOM     43  C   UNL     1       4.680  -2.236  14.371  1.00  0.00     0.031 C 
ATOM     44  C   UNL     1       8.585  -1.896  11.209  1.00  0.00     0.029 A 
ATOM     45  N   UNL     1       8.540  -0.480  12.938  1.00  0.00    -0.354 N 
ATOM     46  C   UNL     1       5.230  -0.491  15.738  1.00  0.00     0.074 A 
ATOM     47  C   UNL     1       4.249  -1.489  15.376  1.00  0.00     0.031 C 
ATOM     48  C   UNL     1       9.684  -1.129  11.129  1.00  0.00     0.029 A 
ATOM     49  C   UNL     1       9.684  -0.179  12.238  1.00  0.00     0.049 A 
ATOM     50  H   UNL     1       8.264   0.001  13.752  1.00  0.00     0.167 HD
ATOM     51  C   UNL     1       5.127   0.323  16.816  1.00  0.00     0.037 A 
ATOM     52  C   UNL     1      10.627   0.755  12.467  1.00  0.00     0.037 A 
ATOM     53  C   UNL     1       6.124   1.293  17.185  1.00  0.00     0.049 A 
ATOM     54  C   UNL     1      10.500   1.635  13.682  1.00  0.00     0.074 A 
ATOM     55  C   UNL     1       6.141   2.138  18.281  1.00  0.00     0.029 A 
ATOM     56  N   UNL     1       7.285   1.546  16.469  1.00  0.00    -0.354 N 
ATOM     57  N   UNL     1       9.546   1.668  14.582  1.00  0.00    -0.248 NA
ATOM     58  C   UNL     1      11.587   2.592  13.922  1.00  0.00     0.031 C 
ATOM     59  C   UNL     1       7.291   2.930  18.204  1.00  0.00     0.029 A 
ATOM     60  C   UNL     1       8.021   2.539  17.093  1.00  0.00     0.049 A 
ATOM     61  H   UNL     1       7.548   1.086  15.639  1.00  0.00     0.167 HD
ATOM     62  C   UNL     1       9.938   2.619  15.518  1.00  0.00     0.074 A 
ATOM     63  C   UNL     1      11.220   3.131  15.077  1.00  0.00     0.031 C 
ATOM     64  C   UNL     1       9.301   3.028  16.645  1.00  0.00     0.037 A 
BRANCH  51  65
ATOM     65  C   UNL     1       3.895   0.192  17.673  1.00  0.00     0.058 A 
ATOM     66  C   UNL     1       3.655  -0.951  18.454  1.00  0.00     0.135 A 
ATOM     67  C   UNL     1       2.953   1.231  17.733  1.00  0.00     0.135 A 
ATOM     68  F   UNL     1       4.512  -1.984  18.424  1.00  0.00    -0.206 F 
ATOM     69  C   UNL     1       2.510  -1.074  19.235  1.00  0.00     0.059 A 
ATOM     70  C   UNL     1       1.816   1.144  18.533  1.00  0.00     0.059 A 
ATOM     71  F   UNL     1       3.128   2.347  17.007  1.00  0.00    -0.206 F 
ATOM     72  C   UNL     1       1.596  -0.020  19.268  1.00  0.00     0.060 A 
BRANCH  72  73
ATOM     73  S   UNL     1       0.117  -0.194  20.288  1.00  0.00     0.124 S 
ATOM     74  O   UNL     1      -0.656  -1.162  19.516  1.00  0.00    -0.237 OA
ATOM     75  O   UNL     1       0.664  -0.682  21.550  1.00  0.00    -0.237 OA
ATOM     76  O   UNL     1      -0.431   1.158  20.326  1.00  0.00    -0.744 OA
ENDBRANCH  72  73
ENDBRANCH  51  65
BRANCH  52  77
ATOM     77  C   UNL     1      11.791   0.878  11.550  1.00  0.00     0.058 A 
ATOM     78  C   UNL     1      13.081   0.510  11.963  1.00  0.00     0.135 A 
ATOM     79  C   UNL     1      11.639   1.358  10.239  1.00  0.00     0.135 A 
ATOM     80  F   UNL     1      13.279   0.048  13.207  1.00  0.00    -0.206 F 
ATOM     81  C   UNL     1      14.181   0.634  11.121  1.00  0.00     0.059 A 
ATOM     82  C   UNL     1      12.719   1.465   9.369  1.00  0.00     0.059 A 
ATOM     83  F   UNL     1      10.424   1.704   9.787  1.00  0.00    -0.206 F 
ATOM     84  C   UNL     1      13.989   1.112   9.824  1.00  0.00     0.060 A 
BRANCH  84  85
ATOM     85  S   UNL     1      15.416   1.230   8.724  1.00  0.00     0.124 S 
ATOM     86  O   UNL     1      16.128   2.370   9.289  1.00  0.00    -0.237 OA
ATOM     87  O   UNL     1      16.049  -0.073   8.904  1.00  0.00    -0.237 OA
ATOM     88  O   UNL     1      14.812   1.448   7.413  1.00  0.00    -0.744 OA
ENDBRANCH  84  85
ENDBRANCH  52  77
BRANCH  64  89
ATOM     89  C   UNL     1      10.009   4.035  17.510  1.00  0.00     0.058 A 
ATOM     90  C   UNL     1      10.184   5.369  17.112  1.00  0.00     0.135 A 
ATOM     91  C   UNL     1      10.504   3.656  18.769  1.00  0.00     0.135 A 
ATOM     92  F   UNL     1       9.732   5.784  15.918  1.00  0.00    -0.206 F 
ATOM     93  C   UNL     1      10.865   6.281  17.912  1.00  0.00     0.059 A 
ATOM     94  C   UNL     1      11.158   4.559  19.599  1.00  0.00     0.059 A 
ATOM     95  F   UNL     1      10.350   2.396  19.206  1.00  0.00    -0.206 F 
ATOM     96  C   UNL     1      11.353   5.865  19.152  1.00  0.00     0.060 A 
BRANCH  96  97
ATOM     97  S   UNL     1      12.240   7.055  20.179  1.00  0.00     0.124 S 
ATOM     98  O   UNL     1      13.519   7.146  19.482  1.00  0.00    -0.237 OA
ATOM     99  O   UNL     1      11.388   8.237  20.096  1.00  0.00    -0.237 OA
ATOM    100  O   UNL     1      12.282   6.410  21.488  1.00  0.00    -0.744 OA
ENDBRANCH  96  97
ENDBRANCH  64  89
ENDBRANCH  38  39
ENDBRANCH  30  33
ENDBRANCH  28  29
ENDBRANCH  27  28
ENDBRANCH  26  27
ENDBRANCH   1  26
TORSDOF 19
