REMARK SMILES COC(=O)c1ccc(C)c2c1[C@H]1C=CC[C@H]1[C@@H](c1ccc(C(=O)NCCCCCCNC(=O)c3ccc(-c4c5nc(c(-c6c(F)cc(S(=O)(=O)[O-])cc6F)c6ccc([nH]6)c(-c6c(F)cc(S(=O)(=O)[O-])cc6F)c6nc(c(-c7c(F)cc(S(=O)(=O)[O-])cc7F)c7ccc4[nH]7)C=C6)C=C5)cc3)cc1)N2
REMARK SMILES IDX 27 1 26 2 25 3 24 4 22 5 23 6 21 8 18 9 19 10 101 11 20 12
REMARK SMILES IDX 100 13 17 14 5 15 6 16 11 17 7 18 10 19 12 20 8 21 102 22
REMARK SMILES IDX 13 23 16 24 9 25 14 27 15 28 3 29 4 30 2 31 1 32 28 33 29 34
REMARK SMILES IDX 30 35 31 36 32 37 33 39 34 40 35 41 99 42 36 43 98 44 37 45
REMARK SMILES IDX 38 46 39 47 92 48 40 49 97 50 91 51 93 52 41 53 96 54 90 55
REMARK SMILES IDX 89 56 42 58 76 59 55 60 75 61 56 62 59 63 74 64 94 65 57 66
REMARK SMILES IDX 58 67 73 69 95 70 60 71 43 72 44 73 53 74 45 75 46 76 52 77
REMARK SMILES IDX 54 78 47 79 48 80 49 81 50 82 51 83 77 84 78 85 87 86 79 87
REMARK SMILES IDX 80 88 86 89 88 90 81 91 82 92 83 93 84 94 85 95 61 96 62 97
REMARK SMILES IDX 71 98 63 99 64 100 70 101 72 102 65 103 66 104 67 105 68 106
REMARK SMILES IDX 69 107
REMARK H PARENT 24 7 102 26 31 38 93 57 59 68
REMARK Flexibility Score: inf
ROOT
ATOM      1  C   UNL     1       8.367  -9.664  -0.227  1.00  0.00     0.002 C 
ENDROOT
BRANCH   1   2
ATOM      2  C   UNL     1       7.590  -8.939  -1.335  1.00  0.00     0.021 C 
BRANCH   2   3
ATOM      3  C   UNL     1       6.208  -9.554  -1.560  1.00  0.00     0.116 C 
BRANCH   3   4
ATOM      4  N   UNL     1       5.298  -9.043  -0.564  1.00  0.00    -0.352 N 
ATOM      5  C   UNL     1       4.384  -8.031  -0.585  1.00  0.00     0.251 C 
ATOM      6  O   UNL     1       3.813  -7.780   0.479  1.00  0.00    -0.269 OA
ATOM      7  H   UNL     1       5.346  -9.517   0.298  1.00  0.00     0.163 HD
BRANCH   5   8
ATOM      8  C   UNL     1       4.017  -7.264  -1.809  1.00  0.00     0.039 A 
ATOM      9  C   UNL     1       3.109  -5.670  -3.986  1.00  0.00    -0.025 A 
ATOM     10  C   UNL     1       2.349  -5.819  -2.817  1.00  0.00     0.006 A 
ATOM     11  C   UNL     1       4.314  -6.378  -4.059  1.00  0.00     0.006 A 
ATOM     12  C   UNL     1       2.789  -6.603  -1.753  1.00  0.00     0.014 A 
ATOM     13  C   UNL     1       4.784  -7.119  -2.967  1.00  0.00     0.014 A 
BRANCH   9  14
ATOM     14  C   UNL     1       2.759  -4.683  -5.104  1.00  0.00     0.114 C 
ATOM     15  C   UNL     1       0.137  -2.217  -2.838  1.00  0.00     0.065 A 
ATOM     16  C   UNL     1      -1.169  -2.673  -2.631  1.00  0.00     0.016 A 
ATOM     17  C   UNL     1       0.989  -2.862  -3.760  1.00  0.00    -0.003 A 
ATOM     18  C   UNL     1      -1.651  -3.755  -3.360  1.00  0.00     0.006 A 
ATOM     19  C   UNL     1       0.480  -3.944  -4.527  1.00  0.00     0.042 A 
ATOM     20  C   UNL     1       2.440  -2.438  -3.910  1.00  0.00     0.050 C 
ATOM     21  C   UNL     1      -0.843  -4.398  -4.311  1.00  0.00    -0.028 A 
ATOM     22  N   UNL     1       1.330  -4.655  -5.364  1.00  0.00    -0.377 N 
ATOM     23  C   UNL     1       3.310  -2.598  -2.682  1.00  0.00    -0.023 C 
ATOM     24  C   UNL     1       3.259  -3.229  -4.952  1.00  0.00     0.031 C 
ATOM     25  C   UNL     1      -1.440  -5.596  -5.006  1.00  0.00     0.046 C 
ATOM     26  H   UNL     1       0.962  -5.142  -6.137  1.00  0.00     0.161 HD
ATOM     27  C   UNL     1       4.562  -2.950  -3.001  1.00  0.00    -0.030 C 
ATOM     28  C   UNL     1       4.717  -3.103  -4.479  1.00  0.00     0.034 C 
BRANCH  15  29
ATOM     29  C   UNL     1       0.584  -1.024  -2.079  1.00  0.00     0.338 C 
ATOM     30  O   UNL     1       1.132  -0.057  -2.574  1.00  0.00    -0.246 OA
BRANCH  29  31
ATOM     31  O   UNL     1       0.315  -1.210  -0.760  1.00  0.00    -0.465 OA
ATOM     32  C   UNL     1       0.783  -0.148   0.071  1.00  0.00     0.282 C 
ENDBRANCH  29  31
ENDBRANCH  15  29
ENDBRANCH   9  14
ENDBRANCH   5   8
ENDBRANCH   3   4
ENDBRANCH   2   3
ENDBRANCH   1   2
BRANCH   1  33
ATOM     33  C   UNL     1       8.588 -11.159  -0.497  1.00  0.00     0.002 C 
BRANCH  33  34
ATOM     34  C   UNL     1       9.194 -11.455  -1.871  1.00  0.00     0.021 C 
BRANCH  34  35
ATOM     35  C   UNL     1      10.567 -10.823  -2.054  1.00  0.00     0.116 C 
BRANCH  35  36
ATOM     36  N   UNL     1      11.529 -11.415  -1.137  1.00  0.00    -0.352 N 
ATOM     37  C   UNL     1      12.583 -12.235  -1.446  1.00  0.00     0.251 C 
ATOM     38  H   UNL     1      11.409 -11.202  -0.183  1.00  0.00     0.163 HD
ATOM     39  O   UNL     1      13.136 -12.910  -0.586  1.00  0.00    -0.269 OA
BRANCH  37  40
ATOM     40  C   UNL     1      13.026 -12.280  -2.849  1.00  0.00     0.039 A 
ATOM     41  C   UNL     1      13.122 -13.508  -3.502  1.00  0.00     0.014 A 
ATOM     42  C   UNL     1      13.281 -11.079  -3.523  1.00  0.00     0.014 A 
ATOM     43  C   UNL     1      13.452 -13.529  -4.855  1.00  0.00     0.010 A 
ATOM     44  C   UNL     1      13.535 -11.100  -4.886  1.00  0.00     0.010 A 
ATOM     45  C   UNL     1      13.649 -12.326  -5.556  1.00  0.00    -0.014 A 
BRANCH  45  46
ATOM     46  C   UNL     1      14.057 -12.347  -6.978  1.00  0.00     0.031 A 
ATOM     47  C   UNL     1      15.444 -11.900  -7.346  1.00  0.00     0.074 A 
ATOM     48  C   UNL     1      13.190 -12.757  -7.924  1.00  0.00     0.049 A 
ATOM     49  N   UNL     1      16.016 -11.881  -8.520  1.00  0.00    -0.248 NA
ATOM     50  C   UNL     1      16.297 -11.389  -6.256  1.00  0.00     0.031 C 
ATOM     51  C   UNL     1      11.804 -13.163  -7.681  1.00  0.00     0.029 A 
ATOM     52  N   UNL     1      13.346 -12.901  -9.279  1.00  0.00    -0.354 N 
ATOM     53  C   UNL     1      17.290 -11.370  -8.308  1.00  0.00     0.074 A 
ATOM     54  C   UNL     1      17.388 -11.022  -6.910  1.00  0.00     0.031 C 
ATOM     55  C   UNL     1      11.246 -13.534  -8.846  1.00  0.00     0.029 A 
ATOM     56  C   UNL     1      12.224 -13.372  -9.919  1.00  0.00     0.049 A 
ATOM     57  H   UNL     1      14.184 -12.688  -9.749  1.00  0.00     0.167 HD
ATOM     58  C   UNL     1      18.300 -11.240  -9.196  1.00  0.00     0.037 A 
ATOM     59  C   UNL     1      12.013 -13.643 -11.222  1.00  0.00     0.037 A 
ATOM     60  C   UNL     1      18.202 -11.619 -10.578  1.00  0.00     0.049 A 
ATOM     61  C   UNL     1      13.150 -13.466 -12.196  1.00  0.00     0.074 A 
ATOM     62  C   UNL     1      19.191 -11.595 -11.543  1.00  0.00     0.029 A 
ATOM     63  N   UNL     1      17.048 -12.083 -11.191  1.00  0.00    -0.354 N 
ATOM     64  N   UNL     1      14.383 -13.081 -11.960  1.00  0.00    -0.248 NA
ATOM     65  C   UNL     1      12.876 -13.762 -13.610  1.00  0.00     0.031 C 
ATOM     66  C   UNL     1      18.620 -11.986 -12.756  1.00  0.00     0.029 A 
ATOM     67  C   UNL     1      17.290 -12.309 -12.534  1.00  0.00     0.049 A 
ATOM     68  H   UNL     1      16.186 -12.230 -10.739  1.00  0.00     0.167 HD
ATOM     69  C   UNL     1      15.032 -13.104 -13.190  1.00  0.00     0.074 A 
ATOM     70  C   UNL     1      14.064 -13.561 -14.164  1.00  0.00     0.031 C 
ATOM     71  C   UNL     1      16.312 -12.772 -13.487  1.00  0.00     0.037 A 
BRANCH  58  72
ATOM     72  C   UNL     1      19.608 -10.691  -8.705  1.00  0.00     0.058 A 
ATOM     73  C   UNL     1      20.453 -11.444  -7.875  1.00  0.00     0.135 A 
ATOM     74  C   UNL     1      20.062  -9.435  -9.139  1.00  0.00     0.135 A 
ATOM     75  F   UNL     1      20.056 -12.641  -7.413  1.00  0.00    -0.206 F 
ATOM     76  C   UNL     1      21.703 -10.972  -7.492  1.00  0.00     0.059 A 
ATOM     77  C   UNL     1      21.320  -8.955  -8.791  1.00  0.00     0.059 A 
ATOM     78  F   UNL     1      19.287  -8.672  -9.926  1.00  0.00    -0.206 F 
ATOM     79  C   UNL     1      22.133  -9.732  -7.966  1.00  0.00     0.060 A 
BRANCH  79  80
ATOM     80  S   UNL     1      23.782  -9.165  -7.504  1.00  0.00     0.124 S 
ATOM     81  O   UNL     1      23.622  -8.935  -6.071  1.00  0.00    -0.237 OA
ATOM     82  O   UNL     1      24.614 -10.306  -7.874  1.00  0.00    -0.237 OA
ATOM     83  O   UNL     1      23.970  -7.965  -8.312  1.00  0.00    -0.744 OA
ENDBRANCH  79  80
ENDBRANCH  58  72
BRANCH  59  84
ATOM     84  C   UNL     1      10.680 -14.122 -11.680  1.00  0.00     0.058 A 
ATOM     85  C   UNL     1      10.501 -15.428 -12.160  1.00  0.00     0.135 A 
ATOM     86  C   UNL     1       9.556 -13.281 -11.645  1.00  0.00     0.135 A 
ATOM     87  F   UNL     1      11.544 -16.270 -12.220  1.00  0.00    -0.206 F 
ATOM     88  C   UNL     1       9.262 -15.878 -12.607  1.00  0.00     0.059 A 
ATOM     89  C   UNL     1       8.301 -13.716 -12.061  1.00  0.00     0.059 A 
ATOM     90  F   UNL     1       9.667 -12.027 -11.181  1.00  0.00    -0.206 F 
ATOM     91  C   UNL     1       8.166 -15.014 -12.551  1.00  0.00     0.060 A 
BRANCH  91  92
ATOM     92  S   UNL     1       6.557 -15.620 -13.103  1.00  0.00     0.124 S 
ATOM     93  O   UNL     1       6.770 -15.755 -14.540  1.00  0.00    -0.237 OA
ATOM     94  O   UNL     1       6.430 -16.867 -12.355  1.00  0.00    -0.237 OA
ATOM     95  O   UNL     1       5.641 -14.558 -12.698  1.00  0.00    -0.744 OA
ENDBRANCH  91  92
ENDBRANCH  59  84
BRANCH  71  96
ATOM     96  C   UNL     1      16.758 -12.877 -14.918  1.00  0.00     0.058 A 
ATOM     97  C   UNL     1      16.351 -11.937 -15.876  1.00  0.00     0.135 A 
ATOM     98  C   UNL     1      17.704 -13.841 -15.302  1.00  0.00     0.135 A 
ATOM     99  F   UNL     1      15.443 -10.999 -15.560  1.00  0.00    -0.206 F 
ATOM    100  C   UNL     1      16.871 -11.945 -17.165  1.00  0.00     0.059 A 
ATOM    101  C   UNL     1      18.259 -13.850 -16.578  1.00  0.00     0.059 A 
ATOM    102  F   UNL     1      18.135 -14.756 -14.418  1.00  0.00    -0.206 F 
ATOM    103  C   UNL     1      17.837 -12.896 -17.502  1.00  0.00     0.060 A 
BRANCH 103 104
ATOM    104  S   UNL     1      18.562 -12.833 -19.153  1.00  0.00     0.124 S 
ATOM    105  O   UNL     1      17.431 -13.225 -19.988  1.00  0.00    -0.237 OA
ATOM    106  O   UNL     1      18.974 -11.437 -19.256  1.00  0.00    -0.237 OA
ATOM    107  O   UNL     1      19.654 -13.800 -19.083  1.00  0.00    -0.744 OA
ENDBRANCH 103 104
ENDBRANCH  71  96
ENDBRANCH  45  46
ENDBRANCH  37  40
ENDBRANCH  35  36
ENDBRANCH  34  35
ENDBRANCH  33  34
ENDBRANCH   1  33
TORSDOF 19
