REMARK SMILES Cc1n[nH]c2c1[C@@]1(C(=O)N([C@@H](C)C(=O)NCCCCCCNC(=O)c3ccc(-c4c5nc(c(-c6c(F)cc(S(=O)(=O)[O-])cc6F)c6ccc([nH]6)c(-c6c(F)cc(S(=O)(=O)[O-])cc6F)c6nc(c(-c7c(F)cc(S(=O)(=O)[O-])cc7F)c7ccc4[nH]7)C=C6)C=C5)cc3)c3ccccc31)C(C#N)=C(N)O2
REMARK SMILES IDX 19 1 18 2 17 3 16 4 15 5 13 6 14 7 11 9 12 10 10 11 1 12
REMARK SMILES IDX 2 13 3 14 6 15 4 16 5 17 7 18 102 20 8 21 96 22 97 23 100 24
REMARK SMILES IDX 9 25 91 26 95 27 92 28 94 29 93 30 98 31 99 32 101 33 20 36
REMARK SMILES IDX 21 37 22 38 23 39 24 41 25 42 26 43 90 44 27 45 89 46 28 47
REMARK SMILES IDX 29 48 30 49 83 50 31 51 88 52 82 53 84 54 32 55 87 56 81 57
REMARK SMILES IDX 80 58 33 60 67 61 46 62 66 63 47 64 50 65 65 66 85 67 48 68
REMARK SMILES IDX 49 69 64 71 86 72 51 73 34 74 35 75 44 76 36 77 37 78 43 79
REMARK SMILES IDX 45 80 38 81 39 82 40 83 41 84 42 85 68 86 69 87 78 88 70 89
REMARK SMILES IDX 71 90 77 91 79 92 72 93 73 94 74 95 75 96 76 97 52 98 53 99
REMARK SMILES IDX 62 100 54 101 55 102 61 103 63 104 56 105 57 106 58 107
REMARK SMILES IDX 59 108 60 109
REMARK H PARENT 15 8 4 19 101 34 101 35 22 40 84 59 50 70
REMARK Flexibility Score: inf
ROOT
ATOM      1  C   UNL     1       0.348   5.143  -5.676  1.00  0.00     0.002 C 
ENDROOT
BRANCH   1   2
ATOM      2  C   UNL     1       1.596   5.204  -4.787  1.00  0.00     0.002 C 
BRANCH   2   3
ATOM      3  C   UNL     1       1.713   4.028  -3.825  1.00  0.00     0.021 C 
BRANCH   3   4
ATOM      4  C   UNL     1       1.976   2.686  -4.516  1.00  0.00     0.116 C 
BRANCH   4   5
ATOM      5  N   UNL     1       3.399   2.417  -4.589  1.00  0.00    -0.354 N 
ATOM      6  C   UNL     1       4.228   1.651  -3.833  1.00  0.00     0.242 C 
ATOM      7  O   UNL     1       5.434   1.715  -4.112  1.00  0.00    -0.273 OA
ATOM      8  H   UNL     1       3.853   2.880  -5.330  1.00  0.00     0.163 HD
BRANCH   6   9
ATOM      9  C   UNL     1       3.775   0.745  -2.660  1.00  0.00     0.176 C 
ATOM     10  C   UNL     1       2.759  -0.331  -3.030  1.00  0.00     0.042 C 
BRANCH   9  11
ATOM     11  N   UNL     1       3.480   1.460  -1.417  1.00  0.00    -0.298 N 
ATOM     12  C   UNL     1       0.699  -0.048   0.604  1.00  0.00     0.069 C 
ATOM     13  C   UNL     1       0.473   1.295   1.199  1.00  0.00     0.068 A 
ATOM     14  N   UNL     1      -0.639   1.534   1.913  1.00  0.00    -0.177 NA
ATOM     15  C   UNL     1       1.237   2.477   1.028  1.00  0.00     0.063 A 
ATOM     16  N   UNL     1      -0.645   2.872   2.081  1.00  0.00    -0.246 N 
ATOM     17  C   UNL     1       0.458   3.470   1.564  1.00  0.00     0.222 A 
ATOM     18  C   UNL     1       2.432   2.837   0.220  1.00  0.00     0.149 C 
ATOM     19  H   UNL     1      -1.371   3.362   2.530  1.00  0.00     0.193 HD
ATOM     20  O   UNL     1       0.640   4.783   1.490  1.00  0.00    -0.422 OA
ATOM     21  C   UNL     1       2.302   2.165  -1.161  1.00  0.00     0.248 C 
ATOM     22  C   UNL     1       3.648   2.148   0.779  1.00  0.00     0.002 A 
ATOM     23  C   UNL     1       2.584   4.356   0.108  1.00  0.00     0.114 C 
ATOM     24  C   UNL     1       1.729   5.225   0.718  1.00  0.00     0.208 C 
ATOM     25  O   UNL     1       1.284   2.168  -1.833  1.00  0.00    -0.273 OA
ATOM     26  C   UNL     1       4.260   1.398  -0.241  1.00  0.00     0.050 A 
ATOM     27  C   UNL     1       4.201   2.223   2.050  1.00  0.00     0.008 A 
ATOM     28  C   UNL     1       5.426   0.694   0.000  1.00  0.00     0.027 A 
ATOM     29  C   UNL     1       5.369   1.504   2.302  1.00  0.00     0.001 A 
ATOM     30  C   UNL     1       5.973   0.745   1.287  1.00  0.00     0.002 A 
BRANCH  23  31
ATOM     31  C   UNL     1       3.687   4.864  -0.632  1.00  0.00     0.102 C 
ATOM     32  N   UNL     1       4.590   5.303  -1.227  1.00  0.00    -0.193 NA
ENDBRANCH  23  31
BRANCH  24  33
ATOM     33  N   UNL     1       1.818   6.586   0.663  1.00  0.00    -0.369 N 
ATOM     34  H   UNL     1       2.542   7.012   0.150  1.00  0.00     0.159 HD
ATOM     35  H   UNL     1       1.157   7.142   1.137  1.00  0.00     0.159 HD
ENDBRANCH  24  33
ENDBRANCH   9  11
ENDBRANCH   6   9
ENDBRANCH   4   5
ENDBRANCH   3   4
ENDBRANCH   2   3
ENDBRANCH   1   2
BRANCH   1  36
ATOM     36  C   UNL     1      -0.988   5.058  -4.919  1.00  0.00     0.021 C 
BRANCH  36  37
ATOM     37  C   UNL     1      -1.177   6.165  -3.882  1.00  0.00     0.116 C 
BRANCH  37  38
ATOM     38  N   UNL     1      -1.030   7.493  -4.440  1.00  0.00    -0.352 N 
ATOM     39  C   UNL     1      -1.858   8.372  -5.072  1.00  0.00     0.251 C 
ATOM     40  H   UNL     1      -0.115   7.844  -4.338  1.00  0.00     0.163 HD
ATOM     41  O   UNL     1      -1.354   9.450  -5.399  1.00  0.00    -0.269 OA
BRANCH  39  42
ATOM     42  C   UNL     1      -3.261   8.086  -5.463  1.00  0.00     0.039 A 
ATOM     43  C   UNL     1      -3.981   6.939  -5.127  1.00  0.00     0.014 A 
ATOM     44  C   UNL     1      -3.848   9.026  -6.329  1.00  0.00     0.014 A 
ATOM     45  C   UNL     1      -5.142   6.625  -5.813  1.00  0.00     0.010 A 
ATOM     46  C   UNL     1      -5.044   8.751  -6.964  1.00  0.00     0.010 A 
ATOM     47  C   UNL     1      -5.615   7.499  -6.789  1.00  0.00    -0.014 A 
BRANCH  47  48
ATOM     48  C   UNL     1      -6.744   7.084  -7.603  1.00  0.00     0.031 A 
ATOM     49  C   UNL     1      -7.979   6.788  -6.828  1.00  0.00     0.074 A 
ATOM     50  C   UNL     1      -6.665   7.058  -8.950  1.00  0.00     0.049 A 
ATOM     51  N   UNL     1      -8.574   5.649  -6.692  1.00  0.00    -0.248 NA
ATOM     52  C   UNL     1      -8.507   7.842  -5.947  1.00  0.00     0.031 C 
ATOM     53  C   UNL     1      -5.574   7.510  -9.821  1.00  0.00     0.029 A 
ATOM     54  N   UNL     1      -7.635   6.712  -9.839  1.00  0.00    -0.354 N 
ATOM     55  C   UNL     1      -9.685   5.890  -5.887  1.00  0.00     0.074 A 
ATOM     56  C   UNL     1      -9.498   7.201  -5.323  1.00  0.00     0.031 C 
ATOM     57  C   UNL     1      -6.040   7.664 -11.081  1.00  0.00     0.029 A 
ATOM     58  C   UNL     1      -7.407   7.189 -11.133  1.00  0.00     0.049 A 
ATOM     59  H   UNL     1      -8.424   6.176  -9.594  1.00  0.00     0.167 HD
ATOM     60  C   UNL     1     -10.777   5.077  -5.912  1.00  0.00     0.037 A 
ATOM     61  C   UNL     1      -8.366   7.293 -12.092  1.00  0.00     0.037 A 
ATOM     62  C   UNL     1     -10.480   3.813  -6.533  1.00  0.00     0.049 A 
ATOM     63  C   UNL     1      -9.415   6.290 -11.724  1.00  0.00     0.074 A 
ATOM     64  C   UNL     1      -9.613   2.780  -6.236  1.00  0.00     0.029 A 
ATOM     65  N   UNL     1     -10.810   3.655  -7.859  1.00  0.00    -0.354 N 
ATOM     66  N   UNL     1      -9.181   5.000 -11.697  1.00  0.00    -0.248 NA
ATOM     67  C   UNL     1     -10.500   6.744 -10.861  1.00  0.00     0.031 C 
ATOM     68  C   UNL     1      -9.064   2.394  -7.494  1.00  0.00     0.029 A 
ATOM     69  C   UNL     1      -9.698   3.144  -8.485  1.00  0.00     0.049 A 
ATOM     70  H   UNL     1     -11.676   3.865  -8.278  1.00  0.00     0.167 HD
ATOM     71  C   UNL     1      -9.787   4.548 -10.530  1.00  0.00     0.074 A 
ATOM     72  C   UNL     1     -10.609   5.670 -10.071  1.00  0.00     0.031 C 
ATOM     73  C   UNL     1      -9.352   3.437  -9.860  1.00  0.00     0.037 A 
BRANCH  60  74
ATOM     74  C   UNL     1     -12.190   5.551  -5.696  1.00  0.00     0.058 A 
ATOM     75  C   UNL     1     -13.222   4.610  -5.515  1.00  0.00     0.135 A 
ATOM     76  C   UNL     1     -12.604   6.877  -5.950  1.00  0.00     0.135 A 
ATOM     77  F   UNL     1     -12.937   3.320  -5.274  1.00  0.00    -0.206 F 
ATOM     78  C   UNL     1     -14.569   4.950  -5.647  1.00  0.00     0.059 A 
ATOM     79  C   UNL     1     -13.941   7.247  -6.037  1.00  0.00     0.059 A 
ATOM     80  F   UNL     1     -11.732   7.855  -6.226  1.00  0.00    -0.206 F 
ATOM     81  C   UNL     1     -14.916   6.270  -5.924  1.00  0.00     0.060 A 
BRANCH  81  82
ATOM     82  S   UNL     1     -16.646   6.685  -6.205  1.00  0.00     0.124 S 
ATOM     83  O   UNL     1     -16.935   5.933  -7.421  1.00  0.00    -0.237 OA
ATOM     84  O   UNL     1     -17.274   6.192  -4.984  1.00  0.00    -0.237 OA
ATOM     85  O   UNL     1     -16.625   8.137  -6.352  1.00  0.00    -0.744 OA
ENDBRANCH  81  82
ENDBRANCH  60  74
BRANCH  61  86
ATOM     86  C   UNL     1      -8.626   8.523 -12.905  1.00  0.00     0.058 A 
ATOM     87  C   UNL     1      -9.499   8.530 -14.008  1.00  0.00     0.135 A 
ATOM     88  C   UNL     1      -8.193   9.793 -12.464  1.00  0.00     0.135 A 
ATOM     89  F   UNL     1      -9.991   7.375 -14.484  1.00  0.00    -0.206 F 
ATOM     90  C   UNL     1      -9.931   9.721 -14.618  1.00  0.00     0.059 A 
ATOM     91  C   UNL     1      -8.599  10.986 -13.058  1.00  0.00     0.059 A 
ATOM     92  F   UNL     1      -7.421   9.927 -11.377  1.00  0.00    -0.206 F 
ATOM     93  C   UNL     1      -9.486  10.948 -14.123  1.00  0.00     0.060 A 
BRANCH  93  94
ATOM     94  S   UNL     1     -10.136  12.497 -14.799  1.00  0.00     0.124 S 
ATOM     95  O   UNL     1      -9.633  12.468 -16.169  1.00  0.00    -0.237 OA
ATOM     96  O   UNL     1     -11.575  12.320 -14.643  1.00  0.00    -0.237 OA
ATOM     97  O   UNL     1      -9.540  13.519 -13.942  1.00  0.00    -0.744 OA
ENDBRANCH  93  94
ENDBRANCH  61  86
BRANCH  73  98
ATOM     98  C   UNL     1      -8.285   2.565 -10.475  1.00  0.00     0.058 A 
ATOM     99  C   UNL     1      -6.964   2.982 -10.727  1.00  0.00     0.135 A 
ATOM    100  C   UNL     1      -8.550   1.194 -10.613  1.00  0.00     0.135 A 
ATOM    101  F   UNL     1      -6.592   4.250 -10.508  1.00  0.00    -0.206 F 
ATOM    102  C   UNL     1      -5.968   2.088 -11.134  1.00  0.00     0.059 A 
ATOM    103  C   UNL     1      -7.568   0.280 -10.986  1.00  0.00     0.059 A 
ATOM    104  F   UNL     1      -9.769   0.715 -10.316  1.00  0.00    -0.206 F 
ATOM    105  C   UNL     1      -6.281   0.736 -11.259  1.00  0.00     0.060 A 
BRANCH 105 106
ATOM    106  S   UNL     1      -4.987  -0.431 -11.736  1.00  0.00     0.124 S 
ATOM    107  O   UNL     1      -4.692  -0.021 -13.104  1.00  0.00    -0.237 OA
ATOM    108  O   UNL     1      -3.940  -0.162 -10.754  1.00  0.00    -0.237 OA
ATOM    109  O   UNL     1      -5.634  -1.734 -11.602  1.00  0.00    -0.744 OA
ENDBRANCH 105 106
ENDBRANCH  73  98
ENDBRANCH  47  48
ENDBRANCH  39  42
ENDBRANCH  37  38
ENDBRANCH  36  37
ENDBRANCH   1  36
TORSDOF 19
