REMARK SMILES O=C(NCCCCCCNC(=O)c1c(C2CC2)nn(-c2ccc(Cl)c(F)c2)c1Cl)c1ccc(-c2c3nc(c(-c4c(F)cc(S(=O)(=O)[O-])cc4F)c4ccc([nH]4)c(-c4c(F)cc(S(=O)(=O)[O-])cc4F)c4nc(c(-c5c(F)cc(S(=O)(=O)[O-])cc5F)c5ccc2[nH]5)C=C4)C=C3)cc1
REMARK SMILES IDX 5 1 4 2 3 3 1 4 2 5 30 7 31 8 95 9 32 10 94 11 33 12 34 13
REMARK SMILES IDX 35 14 88 15 36 16 93 17 87 18 89 19 37 20 92 21 86 22 85 23
REMARK SMILES IDX 38 25 72 26 51 27 71 28 52 29 55 30 70 31 90 32 53 33 54 34
REMARK SMILES IDX 69 36 91 37 56 38 39 39 40 40 49 41 41 42 42 43 48 44 50 45
REMARK SMILES IDX 43 46 44 47 45 48 46 49 47 50 73 51 74 52 83 53 75 54 76 55
REMARK SMILES IDX 82 56 84 57 77 58 78 59 79 60 80 61 81 62 57 63 58 64 67 65
REMARK SMILES IDX 59 66 60 67 66 68 68 69 61 70 62 71 63 72 64 73 65 74 6 75
REMARK SMILES IDX 7 76 8 77 9 78 10 79 11 80 12 82 13 83 14 84 28 85 18 86
REMARK SMILES IDX 19 87 29 88 15 89 16 90 17 91 20 92 21 93 27 94 22 95 25 96
REMARK SMILES IDX 23 97 26 98 24 99
REMARK H PARENT 3 6 89 24 55 35 10 81
REMARK Flexibility Score: inf
ROOT
ATOM      1  C   UNL     1       4.795   0.531  -2.317  1.00  0.00     0.021 C 
ENDROOT
BRANCH   1   2
ATOM      2  C   UNL     1       4.631   0.905  -0.843  1.00  0.00     0.116 C 
BRANCH   2   3
ATOM      3  N   UNL     1       3.265   1.180  -0.452  1.00  0.00    -0.352 N 
ATOM      4  O   UNL     1       1.175   1.038   0.228  1.00  0.00    -0.269 OA
ATOM      5  C   UNL     1       2.183   0.413  -0.116  1.00  0.00     0.251 C 
ATOM      6  H   UNL     1       3.068   2.144  -0.421  1.00  0.00     0.163 HD
BRANCH   5   7
ATOM      7  C   UNL     1       2.132  -1.079  -0.149  1.00  0.00     0.039 A 
ATOM      8  C   UNL     1       3.203  -1.929  -0.425  1.00  0.00     0.014 A 
ATOM      9  C   UNL     1       0.881  -1.666   0.123  1.00  0.00     0.014 A 
ATOM     10  C   UNL     1       3.029  -3.314  -0.470  1.00  0.00     0.010 A 
ATOM     11  C   UNL     1       0.707  -3.052   0.102  1.00  0.00     0.010 A 
ATOM     12  C   UNL     1       1.780  -3.883  -0.217  1.00  0.00    -0.014 A 
BRANCH  12  13
ATOM     13  C   UNL     1       1.675  -5.347  -0.247  1.00  0.00     0.031 A 
ATOM     14  C   UNL     1       2.401  -6.124   0.804  1.00  0.00     0.074 A 
ATOM     15  C   UNL     1       0.825  -6.027  -1.044  1.00  0.00     0.049 A 
ATOM     16  N   UNL     1       3.223  -7.118   0.660  1.00  0.00    -0.248 NA
ATOM     17  C   UNL     1       2.153  -5.752   2.206  1.00  0.00     0.031 C 
ATOM     18  C   UNL     1      -0.241  -5.470  -1.878  1.00  0.00     0.029 A 
ATOM     19  N   UNL     1       0.657  -7.381  -1.169  1.00  0.00    -0.354 N 
ATOM     20  C   UNL     1       3.448  -7.620   1.941  1.00  0.00     0.074 A 
ATOM     21  C   UNL     1       2.830  -6.696   2.860  1.00  0.00     0.031 C 
ATOM     22  C   UNL     1      -1.079  -6.466  -2.236  1.00  0.00     0.029 A 
ATOM     23  C   UNL     1      -0.539  -7.735  -1.768  1.00  0.00     0.049 A 
ATOM     24  H   UNL     1       1.322  -8.038  -0.862  1.00  0.00     0.167 HD
ATOM     25  C   UNL     1       3.979  -8.849   2.181  1.00  0.00     0.037 A 
ATOM     26  C   UNL     1      -1.103  -8.963  -1.818  1.00  0.00     0.037 A 
ATOM     27  C   UNL     1       4.628  -9.427   1.039  1.00  0.00     0.049 A 
ATOM     28  C   UNL     1      -0.066  -9.997  -1.591  1.00  0.00     0.074 A 
ATOM     29  C   UNL     1       5.705  -9.102   0.242  1.00  0.00     0.029 A 
ATOM     30  N   UNL     1       4.007 -10.484   0.425  1.00  0.00    -0.354 N 
ATOM     31  N   UNL     1       0.906 -10.277  -2.415  1.00  0.00    -0.248 NA
ATOM     32  C   UNL     1       0.028 -10.633  -0.282  1.00  0.00     0.031 C 
ATOM     33  C   UNL     1       5.468  -9.735  -1.013  1.00  0.00     0.029 A 
ATOM     34  C   UNL     1       4.231 -10.372  -0.924  1.00  0.00     0.049 A 
ATOM     35  H   UNL     1       3.493 -11.195   0.871  1.00  0.00     0.167 HD
ATOM     36  C   UNL     1       1.904 -10.811  -1.619  1.00  0.00     0.074 A 
ATOM     37  C   UNL     1       1.250 -11.160  -0.370  1.00  0.00     0.031 C 
ATOM     38  C   UNL     1       3.220 -10.635  -1.927  1.00  0.00     0.037 A 
BRANCH  25  39
ATOM     39  C   UNL     1       3.659  -9.681   3.399  1.00  0.00     0.058 A 
ATOM     40  C   UNL     1       4.521 -10.723   3.791  1.00  0.00     0.135 A 
ATOM     41  C   UNL     1       2.387  -9.665   4.013  1.00  0.00     0.135 A 
ATOM     42  F   UNL     1       5.742 -10.839   3.245  1.00  0.00    -0.206 F 
ATOM     43  C   UNL     1       4.133 -11.711   4.697  1.00  0.00     0.059 A 
ATOM     44  C   UNL     1       1.995 -10.614   4.952  1.00  0.00     0.059 A 
ATOM     45  F   UNL     1       1.450  -8.777   3.651  1.00  0.00    -0.206 F 
ATOM     46  C   UNL     1       2.858 -11.658   5.256  1.00  0.00     0.060 A 
BRANCH  46  47
ATOM     47  S   UNL     1       2.305 -12.986   6.345  1.00  0.00     0.124 S 
ATOM     48  O   UNL     1       1.854 -13.980   5.378  1.00  0.00    -0.237 OA
ATOM     49  O   UNL     1       3.520 -13.318   7.082  1.00  0.00    -0.237 OA
ATOM     50  O   UNL     1       1.258 -12.346   7.136  1.00  0.00    -0.744 OA
ENDBRANCH  46  47
ENDBRANCH  25  39
BRANCH  26  51
ATOM     51  C   UNL     1      -2.550  -9.286  -1.849  1.00  0.00     0.058 A 
ATOM     52  C   UNL     1      -3.015 -10.532  -2.299  1.00  0.00     0.135 A 
ATOM     53  C   UNL     1      -3.498  -8.455  -1.217  1.00  0.00     0.135 A 
ATOM     54  F   UNL     1      -2.170 -11.404  -2.869  1.00  0.00    -0.206 F 
ATOM     55  C   UNL     1      -4.341 -10.935  -2.125  1.00  0.00     0.059 A 
ATOM     56  C   UNL     1      -4.829  -8.825  -1.052  1.00  0.00     0.059 A 
ATOM     57  F   UNL     1      -3.136  -7.286  -0.667  1.00  0.00    -0.206 F 
ATOM     58  C   UNL     1      -5.241 -10.076  -1.494  1.00  0.00     0.060 A 
BRANCH  58  59
ATOM     59  S   UNL     1      -6.924 -10.641  -1.164  1.00  0.00     0.124 S 
ATOM     60  O   UNL     1      -7.486 -10.710  -2.508  1.00  0.00    -0.237 OA
ATOM     61  O   UNL     1      -6.694 -11.920  -0.501  1.00  0.00    -0.237 OA
ATOM     62  O   UNL     1      -7.473  -9.591  -0.311  1.00  0.00    -0.744 OA
ENDBRANCH  58  59
ENDBRANCH  26  51
BRANCH  38  63
ATOM     63  C   UNL     1       3.576 -10.338  -3.354  1.00  0.00     0.058 A 
ATOM     64  C   UNL     1       3.251  -9.135  -3.999  1.00  0.00     0.135 A 
ATOM     65  C   UNL     1       4.397 -11.243  -4.046  1.00  0.00     0.135 A 
ATOM     66  F   UNL     1       2.557  -8.181  -3.361  1.00  0.00    -0.206 F 
ATOM     67  C   UNL     1       3.691  -8.857  -5.292  1.00  0.00     0.059 A 
ATOM     68  C   UNL     1       4.871 -10.973  -5.328  1.00  0.00     0.059 A 
ATOM     69  F   UNL     1       4.793 -12.382  -3.454  1.00  0.00    -0.206 F 
ATOM     70  C   UNL     1       4.503  -9.781  -5.949  1.00  0.00     0.060 A 
BRANCH  70  71
ATOM     71  S   UNL     1       5.172  -9.367  -7.576  1.00  0.00     0.124 S 
ATOM     72  O   UNL     1       4.069  -9.726  -8.460  1.00  0.00    -0.237 OA
ATOM     73  O   UNL     1       5.452  -7.938  -7.459  1.00  0.00    -0.237 OA
ATOM     74  O   UNL     1       6.358 -10.215  -7.677  1.00  0.00    -0.744 OA
ENDBRANCH  70  71
ENDBRANCH  38  63
ENDBRANCH  12  13
ENDBRANCH   5   7
ENDBRANCH   2   3
ENDBRANCH   1   2
BRANCH   1  75
ATOM     75  C   UNL     1       4.244   1.550  -3.321  1.00  0.00     0.002 C 
BRANCH  75  76
ATOM     76  C   UNL     1       4.713   2.998  -3.145  1.00  0.00     0.002 C 
BRANCH  76  77
ATOM     77  C   UNL     1       6.228   3.212  -3.087  1.00  0.00     0.021 C 
BRANCH  77  78
ATOM     78  C   UNL     1       7.000   2.764  -4.325  1.00  0.00     0.116 C 
BRANCH  78  79
ATOM     79  N   UNL     1       6.699   3.574  -5.495  1.00  0.00    -0.352 N 
ATOM     80  C   UNL     1       7.555   4.043  -6.461  1.00  0.00     0.256 C 
ATOM     81  H   UNL     1       5.753   3.819  -5.610  1.00  0.00     0.163 HD
ATOM     82  O   UNL     1       7.096   4.687  -7.408  1.00  0.00    -0.269 OA
BRANCH  80  83
ATOM     83  C   UNL     1       8.960   3.748  -6.338  1.00  0.00     0.100 A 
ATOM     84  C   UNL     1      10.083   4.582  -6.127  1.00  0.00     0.080 A 
ATOM     85  C   UNL     1       9.518   2.490  -6.464  1.00  0.00     0.145 A 
ATOM     86  N   UNL     1      11.208   3.880  -5.942  1.00  0.00    -0.170 NA
ATOM     87  N   UNL     1      10.856   2.586  -6.153  1.00  0.00    -0.221 N 
ATOM     88  Cl  UNL     1       8.743   0.994  -6.753  1.00  0.00    -0.061 Cl
BRANCH  84  89
ATOM     89  C   UNL     1      10.186   6.100  -6.025  1.00  0.00     0.041 C 
ATOM     90  C   UNL     1       9.159   7.041  -6.606  1.00  0.00     0.011 C 
ATOM     91  C   UNL     1       9.240   6.862  -5.127  1.00  0.00     0.011 C 
ENDBRANCH  84  89
BRANCH  87  92
ATOM     92  C   UNL     1      11.830   1.572  -5.951  1.00  0.00     0.069 A 
ATOM     93  C   UNL     1      12.751   1.731  -4.900  1.00  0.00     0.030 A 
ATOM     94  C   UNL     1      11.886   0.432  -6.757  1.00  0.00     0.069 A 
ATOM     95  C   UNL     1      13.677   0.723  -4.618  1.00  0.00     0.026 A 
ATOM     96  C   UNL     1      12.839  -0.549  -6.488  1.00  0.00     0.143 A 
ATOM     97  C   UNL     1      13.720  -0.420  -5.415  1.00  0.00     0.076 A 
ATOM     98  F   UNL     1      12.898  -1.619  -7.294  1.00  0.00    -0.205 F 
ATOM     99  Cl  UNL     1      14.873  -1.649  -5.068  1.00  0.00    -0.081 Cl
ENDBRANCH  87  92
ENDBRANCH  80  83
ENDBRANCH  78  79
ENDBRANCH  77  78
ENDBRANCH  76  77
ENDBRANCH  75  76
ENDBRANCH   1  75
TORSDOF 18
