REMARK SMILES CCCc1cc(OC(F)(F)F)cc2c1O[C@@H](C(F)(F)F)C(C(=O)NCCCCCCNC(=O)c1ccc(-c3c4nc(c(-c5c(F)cc(S(=O)(=O)[O-])cc5F)c5ccc([nH]5)c(-c5c(F)cc(S(=O)(=O)[O-])cc5F)c5nc(c(-c6c(F)cc(S(=O)(=O)[O-])cc6F)c6ccc3[nH]6)C=C5)C=C4)cc1)=C2
REMARK SMILES IDX 28 1 27 2 26 3 25 4 24 5 22 6 23 7 21 9 4 10 5 11 14 12 6 13
REMARK SMILES IDX 13 14 15 15 12 16 100 17 16 18 3 19 2 20 1 21 7 22 8 23 9 24
REMARK SMILES IDX 10 25 11 26 17 27 18 28 19 29 20 30 29 31 30 32 31 33 32 34
REMARK SMILES IDX 33 36 34 37 35 38 99 39 36 40 98 41 37 42 38 43 39 44 92 45
REMARK SMILES IDX 40 46 97 47 91 48 93 49 41 50 96 51 90 52 89 53 42 55 76 56
REMARK SMILES IDX 55 57 75 58 56 59 59 60 74 61 94 62 57 63 58 64 73 66 95 67
REMARK SMILES IDX 60 68 43 69 44 70 53 71 45 72 46 73 52 74 54 75 47 76 48 77
REMARK SMILES IDX 49 78 50 79 51 80 77 81 78 82 87 83 79 84 80 85 86 86 88 87
REMARK SMILES IDX 81 88 82 89 83 90 84 91 85 92 61 93 62 94 71 95 63 96 64 97
REMARK SMILES IDX 70 98 72 99 65 100 66 101 67 102 68 103 69 104
REMARK H PARENT 24 8 31 35 93 54 59 65
REMARK Flexibility Score: inf
ROOT
ATOM      1  C   UNL     1       2.804 -11.646  -0.511  1.00  0.00     0.002 C 
ENDROOT
BRANCH   1   2
ATOM      2  C   UNL     1       1.843 -11.018  -1.527  1.00  0.00     0.002 C 
BRANCH   2   3
ATOM      3  C   UNL     1       1.427  -9.575  -1.206  1.00  0.00     0.021 C 
BRANCH   3   4
ATOM      4  C   UNL     1       2.599  -8.586  -1.251  1.00  0.00     0.116 C 
BRANCH   4   5
ATOM      5  N   UNL     1       2.900  -8.260  -2.636  1.00  0.00    -0.352 N 
ATOM      6  C   UNL     1       2.485  -7.261  -3.455  1.00  0.00     0.251 C 
ATOM      7  O   UNL     1       2.729  -7.360  -4.655  1.00  0.00    -0.270 OA
ATOM      8  H   UNL     1       3.529  -8.886  -3.062  1.00  0.00     0.163 HD
BRANCH   6   9
ATOM      9  C   UNL     1       1.832  -6.025  -2.950  1.00  0.00     0.067 C 
ATOM     10  C   UNL     1       0.471  -2.327  -1.456  1.00  0.00    -0.002 A 
ATOM     11  C   UNL     1      -0.464  -2.336  -0.406  1.00  0.00     0.054 A 
ATOM     12  C   UNL     1       0.904  -3.563  -1.973  1.00  0.00     0.131 A 
ATOM     13  C   UNL     1      -0.901  -3.532   0.167  1.00  0.00     0.130 A 
ATOM     14  C   UNL     1       0.432  -4.764  -1.444  1.00  0.00     0.021 A 
ATOM     15  O   UNL     1       1.856  -3.533  -2.955  1.00  0.00    -0.475 OA
ATOM     16  C   UNL     1      -0.460  -4.743  -0.368  1.00  0.00     0.058 A 
ATOM     17  C   UNL     1       0.950  -6.031  -1.940  1.00  0.00     0.025 C 
ATOM     18  C   UNL     1       2.085  -4.742  -3.734  1.00  0.00     0.314 C 
BRANCH  10  19
ATOM     19  C   UNL     1       1.007  -1.042  -2.062  1.00  0.00     0.039 C 
BRANCH  19  20
ATOM     20  C   UNL     1       0.692   0.289  -1.365  1.00  0.00     0.001 C 
ATOM     21  C   UNL     1       1.413   0.464  -0.034  1.00  0.00     0.004 C 
ENDBRANCH  19  20
ENDBRANCH  10  19
BRANCH  13  22
ATOM     22  O   UNL     1      -1.733  -3.658   1.242  1.00  0.00    -0.406 OA
BRANCH  22  23
ATOM     23  C   UNL     1      -2.085  -2.479   1.949  1.00  0.00     0.573 C 
ATOM     24  F   UNL     1      -0.990  -1.796   2.348  1.00  0.00    -0.132 F 
ATOM     25  F   UNL     1      -2.857  -1.679   1.183  1.00  0.00    -0.132 F 
ATOM     26  F   UNL     1      -2.791  -2.822   3.047  1.00  0.00    -0.132 F 
ENDBRANCH  22  23
ENDBRANCH  13  22
BRANCH  18  27
ATOM     27  C   UNL     1       3.467  -4.584  -4.409  1.00  0.00     0.429 C 
ATOM     28  F   UNL     1       3.541  -5.202  -5.610  1.00  0.00    -0.167 F 
ATOM     29  F   UNL     1       3.728  -3.272  -4.670  1.00  0.00    -0.167 F 
ATOM     30  F   UNL     1       4.481  -5.033  -3.635  1.00  0.00    -0.167 F 
ENDBRANCH  18  27
ENDBRANCH   6   9
ENDBRANCH   4   5
ENDBRANCH   3   4
ENDBRANCH   2   3
ENDBRANCH   1   2
BRANCH   1  31
ATOM     31  C   UNL     1       2.305 -11.636   0.937  1.00  0.00     0.021 C 
BRANCH  31  32
ATOM     32  C   UNL     1       1.010 -12.412   1.159  1.00  0.00     0.116 C 
BRANCH  32  33
ATOM     33  N   UNL     1       1.191 -13.832   0.903  1.00  0.00    -0.352 N 
ATOM     34  C   UNL     1       0.968 -14.898   1.739  1.00  0.00     0.251 C 
ATOM     35  H   UNL     1       1.520 -14.062   0.004  1.00  0.00     0.163 HD
ATOM     36  O   UNL     1       1.411 -16.005   1.450  1.00  0.00    -0.269 OA
BRANCH  34  37
ATOM     37  C   UNL     1       0.199 -14.706   2.987  1.00  0.00     0.039 A 
ATOM     38  C   UNL     1       0.651 -15.311   4.162  1.00  0.00     0.014 A 
ATOM     39  C   UNL     1      -0.978 -13.951   2.992  1.00  0.00     0.014 A 
ATOM     40  C   UNL     1      -0.054 -15.121   5.352  1.00  0.00     0.010 A 
ATOM     41  C   UNL     1      -1.641 -13.707   4.191  1.00  0.00     0.010 A 
ATOM     42  C   UNL     1      -1.192 -14.297   5.382  1.00  0.00    -0.014 A 
BRANCH  42  43
ATOM     43  C   UNL     1      -1.925 -14.049   6.649  1.00  0.00     0.031 A 
ATOM     44  C   UNL     1      -3.346 -14.522   6.806  1.00  0.00     0.074 A 
ATOM     45  C   UNL     1      -1.331 -13.347   7.634  1.00  0.00     0.049 A 
ATOM     46  N   UNL     1      -4.165 -14.353   7.811  1.00  0.00    -0.248 NA
ATOM     47  C   UNL     1      -3.932 -15.258   5.673  1.00  0.00     0.031 C 
ATOM     48  C   UNL     1       0.022 -12.789   7.576  1.00  0.00     0.029 A 
ATOM     49  N   UNL     1      -1.791 -12.972   8.871  1.00  0.00    -0.354 N 
ATOM     50  C   UNL     1      -5.364 -14.945   7.428  1.00  0.00     0.074 A 
ATOM     51  C   UNL     1      -5.181 -15.434   6.080  1.00  0.00     0.031 C 
ATOM     52  C   UNL     1       0.288 -12.159   8.732  1.00  0.00     0.029 A 
ATOM     53  C   UNL     1      -0.884 -12.238   9.599  1.00  0.00     0.049 A 
ATOM     54  H   UNL     1      -2.687 -13.206   9.207  1.00  0.00     0.167 HD
ATOM     55  C   UNL     1      -6.504 -15.087   8.145  1.00  0.00     0.037 A 
ATOM     56  C   UNL     1      -0.987 -11.684  10.823  1.00  0.00     0.037 A 
ATOM     57  C   UNL     1      -6.667 -14.624   9.499  1.00  0.00     0.049 A 
ATOM     58  C   UNL     1      -2.258 -11.872  11.606  1.00  0.00     0.074 A 
ATOM     59  C   UNL     1      -7.758 -14.781  10.336  1.00  0.00     0.029 A 
ATOM     60  N   UNL     1      -5.714 -13.914  10.214  1.00  0.00    -0.354 N 
ATOM     61  N   UNL     1      -3.356 -12.499  11.255  1.00  0.00    -0.248 NA
ATOM     62  C   UNL     1      -2.302 -11.287  12.953  1.00  0.00     0.031 C 
ATOM     63  C   UNL     1      -7.482 -14.127  11.541  1.00  0.00     0.029 A 
ATOM     64  C   UNL     1      -6.200 -13.607  11.474  1.00  0.00     0.049 A 
ATOM     65  H   UNL     1      -4.824 -13.665   9.876  1.00  0.00     0.167 HD
ATOM     66  C   UNL     1      -4.211 -12.406  12.348  1.00  0.00     0.074 A 
ATOM     67  C   UNL     1      -3.498 -11.675  13.375  1.00  0.00     0.031 C 
ATOM     68  C   UNL     1      -5.473 -12.883  12.488  1.00  0.00     0.037 A 
BRANCH  55  69
ATOM     69  C   UNL     1      -7.667 -15.775   7.483  1.00  0.00     0.058 A 
ATOM     70  C   UNL     1      -7.654 -17.153   7.215  1.00  0.00     0.135 A 
ATOM     71  C   UNL     1      -8.829 -15.056   7.155  1.00  0.00     0.135 A 
ATOM     72  F   UNL     1      -6.565 -17.886   7.494  1.00  0.00    -0.206 F 
ATOM     73  C   UNL     1      -8.740 -17.790   6.623  1.00  0.00     0.059 A 
ATOM     74  C   UNL     1      -9.938 -15.678   6.588  1.00  0.00     0.059 A 
ATOM     75  F   UNL     1      -8.896 -13.736   7.388  1.00  0.00    -0.206 F 
ATOM     76  C   UNL     1      -9.879 -17.044   6.314  1.00  0.00     0.060 A 
BRANCH  76  77
ATOM     77  S   UNL     1     -11.284 -17.889   5.559  1.00  0.00     0.124 S 
ATOM     78  O   UNL     1     -10.789 -18.124   4.206  1.00  0.00    -0.237 OA
ATOM     79  O   UNL     1     -11.423 -19.074   6.398  1.00  0.00    -0.237 OA
ATOM     80  O   UNL     1     -12.366 -16.915   5.670  1.00  0.00    -0.744 OA
ENDBRANCH  76  77
ENDBRANCH  55  69
BRANCH  56  81
ATOM     81  C   UNL     1       0.154 -10.917  11.389  1.00  0.00     0.058 A 
ATOM     82  C   UNL     1       0.904 -11.421  12.462  1.00  0.00     0.135 A 
ATOM     83  C   UNL     1       0.525  -9.670  10.863  1.00  0.00     0.135 A 
ATOM     84  F   UNL     1       0.586 -12.607  13.004  1.00  0.00    -0.206 F 
ATOM     85  C   UNL     1       1.968 -10.709  13.007  1.00  0.00     0.059 A 
ATOM     86  C   UNL     1       1.601  -8.951  11.373  1.00  0.00     0.059 A 
ATOM     87  F   UNL     1      -0.147  -9.152   9.823  1.00  0.00    -0.206 F 
ATOM     88  C   UNL     1       2.309  -9.474  12.454  1.00  0.00     0.060 A 
BRANCH  88  89
ATOM     89  S   UNL     1       3.719  -8.577  13.139  1.00  0.00     0.124 S 
ATOM     90  O   UNL     1       3.172  -8.089  14.399  1.00  0.00    -0.237 OA
ATOM     91  O   UNL     1       4.729  -9.626  13.244  1.00  0.00    -0.237 OA
ATOM     92  O   UNL     1       3.989  -7.558  12.130  1.00  0.00    -0.744 OA
ENDBRANCH  88  89
ENDBRANCH  56  81
BRANCH  68  93
ATOM     93  C   UNL     1      -6.154 -12.659  13.810  1.00  0.00     0.058 A 
ATOM     94  C   UNL     1      -6.617 -11.392  14.197  1.00  0.00     0.135 A 
ATOM     95  C   UNL     1      -6.387 -13.737  14.679  1.00  0.00     0.135 A 
ATOM     96  F   UNL     1      -6.413 -10.327  13.405  1.00  0.00    -0.206 F 
ATOM     97  C   UNL     1      -7.265 -11.197  15.412  1.00  0.00     0.059 A 
ATOM     98  C   UNL     1      -7.059 -13.570  15.886  1.00  0.00     0.059 A 
ATOM     99  F   UNL     1      -5.975 -14.972  14.352  1.00  0.00    -0.206 F 
ATOM    100  C   UNL     1      -7.482 -12.292  16.250  1.00  0.00     0.060 A 
BRANCH 100 101
ATOM    101  S   UNL     1      -8.350 -12.030  17.811  1.00  0.00     0.124 S 
ATOM    102  O   UNL     1      -7.322 -11.375  18.612  1.00  0.00    -0.237 OA
ATOM    103  O   UNL     1      -9.472 -11.189  17.407  1.00  0.00    -0.237 OA
ATOM    104  O   UNL     1      -8.708 -13.382  18.231  1.00  0.00    -0.744 OA
ENDBRANCH 100 101
ENDBRANCH  68  93
ENDBRANCH  42  43
ENDBRANCH  34  37
ENDBRANCH  32  33
ENDBRANCH  31  32
ENDBRANCH   1  31
TORSDOF 21
