REMARK SMILES O=C(NCCCCCCNC(=O)c1ccc(-c2c3nc(c(-c4c(F)cc(S(=O)(=O)[O-])cc4F)c4ccc([nH]4)c(-c4c(F)cc(S(=O)(=O)[O-])cc4F)c4nc(c(-c5c(F)cc(S(=O)(=O)[O-])cc5F)c5ccc2[nH]5)C=C4)C=C3)cc1)c1ccc(NC(=O)c2cc(F)cc(Br)c2)cc1
REMARK SMILES IDX 7 1 6 2 5 3 4 4 3 5 1 6 2 7 79 9 80 10 95 11 81 12 94 13
REMARK SMILES IDX 82 14 83 15 84 16 85 18 86 19 87 20 93 21 88 22 91 23 89 24
REMARK SMILES IDX 90 25 92 26 8 27 9 28 10 29 11 30 12 32 13 33 14 34 78 35
REMARK SMILES IDX 15 36 77 37 16 38 17 39 18 40 71 41 19 42 76 43 70 44 72 45
REMARK SMILES IDX 20 46 75 47 69 48 68 49 21 51 55 52 34 53 54 54 35 55 38 56
REMARK SMILES IDX 53 57 73 58 36 59 37 60 52 62 74 63 39 64 22 65 23 66 32 67
REMARK SMILES IDX 24 68 25 69 31 70 33 71 26 72 27 73 28 74 29 75 30 76 56 77
REMARK SMILES IDX 57 78 66 79 58 80 59 81 65 82 67 83 60 84 61 85 62 86 63 87
REMARK SMILES IDX 64 88 40 89 41 90 50 91 42 92 43 93 49 94 51 95 44 96 45 97
REMARK SMILES IDX 46 98 47 99 48 100
REMARK H PARENT 3 8 83 17 10 31 72 50 38 61
REMARK Flexibility Score: inf
ROOT
ATOM      1  C   UNL     1       4.712  -0.853  -4.409  1.00  0.00     0.002 C 
ENDROOT
BRANCH   1   2
ATOM      2  C   UNL     1       4.153  -2.042  -3.622  1.00  0.00     0.002 C 
BRANCH   2   3
ATOM      3  C   UNL     1       4.581  -2.143  -2.159  1.00  0.00     0.021 C 
BRANCH   3   4
ATOM      4  C   UNL     1       4.289  -0.919  -1.304  1.00  0.00     0.116 C 
BRANCH   4   5
ATOM      5  N   UNL     1       2.869  -0.689  -1.078  1.00  0.00    -0.352 N 
ATOM      6  O   UNL     1       1.008  -0.265   0.140  1.00  0.00    -0.269 OA
ATOM      7  C   UNL     1       2.234  -0.306   0.083  1.00  0.00     0.251 C 
ATOM      8  H   UNL     1       2.285  -0.826  -1.859  1.00  0.00     0.163 HD
BRANCH   7   9
ATOM      9  C   UNL     1       3.035   0.037   1.281  1.00  0.00     0.039 A 
ATOM     10  C   UNL     1       4.183   0.811   1.161  1.00  0.00     0.016 A 
ATOM     11  C   UNL     1       2.661  -0.443   2.538  1.00  0.00     0.016 A 
ATOM     12  C   UNL     1       5.025   0.983   2.255  1.00  0.00     0.027 A 
ATOM     13  C   UNL     1       3.469  -0.180   3.655  1.00  0.00     0.027 A 
ATOM     14  C   UNL     1       4.663   0.544   3.526  1.00  0.00     0.041 A 
BRANCH  14  15
ATOM     15  N   UNL     1       5.421   0.770   4.694  1.00  0.00    -0.322 N 
ATOM     16  C   UNL     1       6.543   1.532   4.956  1.00  0.00     0.255 C 
ATOM     17  H   UNL     1       5.082   0.287   5.481  1.00  0.00     0.170 HD
ATOM     18  O   UNL     1       7.088   1.469   6.056  1.00  0.00    -0.269 OA
BRANCH  16  19
ATOM     19  C   UNL     1       7.111   2.443   3.950  1.00  0.00     0.044 A 
ATOM     20  C   UNL     1       8.376   2.154   3.431  1.00  0.00     0.053 A 
ATOM     21  C   UNL     1       6.357   3.514   3.450  1.00  0.00     0.029 A 
ATOM     22  C   UNL     1       8.838   2.891   2.348  1.00  0.00     0.125 A 
ATOM     23  C   UNL     1       6.836   4.221   2.346  1.00  0.00     0.021 A 
ATOM     24  F   UNL     1      10.019   2.579   1.801  1.00  0.00    -0.207 F 
ATOM     25  C   UNL     1       8.072   3.908   1.784  1.00  0.00     0.055 A 
ATOM     26  Br  UNL     1       5.745   5.536   1.539  1.00  0.00    -0.051 Br
ENDBRANCH  16  19
ENDBRANCH  14  15
ENDBRANCH   7   9
ENDBRANCH   4   5
ENDBRANCH   3   4
ENDBRANCH   2   3
ENDBRANCH   1   2
BRANCH   1  27
ATOM     27  C   UNL     1       6.232  -0.666  -4.376  1.00  0.00     0.021 C 
BRANCH  27  28
ATOM     28  C   UNL     1       7.069  -1.887  -4.746  1.00  0.00     0.116 C 
BRANCH  28  29
ATOM     29  N   UNL     1       6.765  -2.406  -6.067  1.00  0.00    -0.352 N 
ATOM     30  C   UNL     1       7.616  -2.795  -7.072  1.00  0.00     0.251 C 
ATOM     31  H   UNL     1       5.806  -2.492  -6.273  1.00  0.00     0.163 HD
ATOM     32  O   UNL     1       7.156  -3.104  -8.168  1.00  0.00    -0.269 OA
BRANCH  30  33
ATOM     33  C   UNL     1       9.081  -2.815  -6.854  1.00  0.00     0.039 A 
ATOM     34  C   UNL     1       9.910  -2.281  -7.845  1.00  0.00     0.014 A 
ATOM     35  C   UNL     1       9.642  -3.369  -5.700  1.00  0.00     0.014 A 
ATOM     36  C   UNL     1      11.294  -2.246  -7.653  1.00  0.00     0.010 A 
ATOM     37  C   UNL     1      11.018  -3.283  -5.484  1.00  0.00     0.010 A 
ATOM     38  C   UNL     1      11.857  -2.719  -6.457  1.00  0.00    -0.014 A 
BRANCH  38  39
ATOM     39  C   UNL     1      13.318  -2.618  -6.205  1.00  0.00     0.031 A 
ATOM     40  C   UNL     1      14.157  -3.861  -6.088  1.00  0.00     0.074 A 
ATOM     41  C   UNL     1      13.877  -1.407  -6.015  1.00  0.00     0.049 A 
ATOM     42  N   UNL     1      15.428  -3.973  -5.798  1.00  0.00    -0.248 NA
ATOM     43  C   UNL     1      13.474  -5.146  -6.301  1.00  0.00     0.031 C 
ATOM     44  C   UNL     1      13.162  -0.130  -6.057  1.00  0.00     0.029 A 
ATOM     45  N   UNL     1      15.174  -1.052  -5.737  1.00  0.00    -0.354 N 
ATOM     46  C   UNL     1      15.693  -5.337  -5.771  1.00  0.00     0.074 A 
ATOM     47  C   UNL     1      14.442  -6.014  -6.042  1.00  0.00     0.031 C 
ATOM     48  C   UNL     1      14.031   0.868  -5.830  1.00  0.00     0.029 A 
ATOM     49  C   UNL     1      15.357   0.303  -5.596  1.00  0.00     0.049 A 
ATOM     50  H   UNL     1      15.904  -1.707  -5.647  1.00  0.00     0.167 HD
ATOM     51  C   UNL     1      16.872  -5.967  -5.555  1.00  0.00     0.037 A 
ATOM     52  C   UNL     1      16.465   1.012  -5.305  1.00  0.00     0.037 A 
ATOM     53  C   UNL     1      18.122  -5.290  -5.325  1.00  0.00     0.049 A 
ATOM     54  C   UNL     1      17.769   0.293  -5.101  1.00  0.00     0.074 A 
ATOM     55  C   UNL     1      19.383  -5.841  -5.170  1.00  0.00     0.029 A 
ATOM     56  N   UNL     1      18.273  -3.915  -5.222  1.00  0.00    -0.354 N 
ATOM     57  N   UNL     1      18.011  -0.996  -5.133  1.00  0.00    -0.248 NA
ATOM     58  C   UNL     1      18.951   1.121  -4.826  1.00  0.00     0.031 C 
ATOM     59  C   UNL     1      20.291  -4.801  -4.940  1.00  0.00     0.029 A 
ATOM     60  C   UNL     1      19.601  -3.600  -4.989  1.00  0.00     0.049 A 
ATOM     61  H   UNL     1      17.542  -3.260  -5.301  1.00  0.00     0.167 HD
ATOM     62  C   UNL     1      19.375  -1.132  -4.904  1.00  0.00     0.074 A 
ATOM     63  C   UNL     1      19.908   0.206  -4.743  1.00  0.00     0.031 C 
ATOM     64  C   UNL     1      20.118  -2.263  -4.835  1.00  0.00     0.037 A 
BRANCH  51  65
ATOM     65  C   UNL     1      16.870  -7.470  -5.560  1.00  0.00     0.058 A 
ATOM     66  C   UNL     1      16.735  -8.201  -6.750  1.00  0.00     0.135 A 
ATOM     67  C   UNL     1      17.046  -8.186  -4.365  1.00  0.00     0.135 A 
ATOM     68  F   UNL     1      16.549  -7.565  -7.917  1.00  0.00    -0.206 F 
ATOM     69  C   UNL     1      16.748  -9.592  -6.753  1.00  0.00     0.059 A 
ATOM     70  C   UNL     1      17.086  -9.578  -4.348  1.00  0.00     0.059 A 
ATOM     71  F   UNL     1      17.180  -7.535  -3.199  1.00  0.00    -0.206 F 
ATOM     72  C   UNL     1      16.922 -10.272  -5.546  1.00  0.00     0.060 A 
BRANCH  72  73
ATOM     73  S   UNL     1      16.943 -12.077  -5.564  1.00  0.00     0.124 S 
ATOM     74  O   UNL     1      15.524 -12.382  -5.720  1.00  0.00    -0.237 OA
ATOM     75  O   UNL     1      17.784 -12.370  -6.720  1.00  0.00    -0.237 OA
ATOM     76  O   UNL     1      17.521 -12.423  -4.269  1.00  0.00    -0.744 OA
ENDBRANCH  72  73
ENDBRANCH  51  65
BRANCH  52  77
ATOM     77  C   UNL     1      16.389   2.493  -5.223  1.00  0.00     0.058 A 
ATOM     78  C   UNL     1      16.910   3.296  -6.247  1.00  0.00     0.135 A 
ATOM     79  C   UNL     1      15.761   3.131  -4.143  1.00  0.00     0.135 A 
ATOM     80  F   UNL     1      17.526   2.729  -7.296  1.00  0.00    -0.206 F 
ATOM     81  C   UNL     1      16.815   4.683  -6.205  1.00  0.00     0.059 A 
ATOM     82  C   UNL     1      15.635   4.516  -4.087  1.00  0.00     0.059 A 
ATOM     83  F   UNL     1      15.232   2.404  -3.147  1.00  0.00    -0.206 F 
ATOM     84  C   UNL     1      16.170   5.284  -5.122  1.00  0.00     0.060 A 
BRANCH  84  85
ATOM     85  S   UNL     1      15.981   7.080  -5.112  1.00  0.00     0.124 S 
ATOM     86  O   UNL     1      17.323   7.515  -4.745  1.00  0.00    -0.237 OA
ATOM     87  O   UNL     1      15.573   7.354  -6.487  1.00  0.00    -0.237 OA
ATOM     88  O   UNL     1      14.946   7.301  -4.106  1.00  0.00    -0.744 OA
ENDBRANCH  84  85
ENDBRANCH  52  77
BRANCH  64  89
ATOM     89  C   UNL     1      21.593  -2.108  -4.598  1.00  0.00     0.058 A 
ATOM     90  C   UNL     1      22.103  -1.787  -3.331  1.00  0.00     0.135 A 
ATOM     91  C   UNL     1      22.509  -2.336  -5.638  1.00  0.00     0.135 A 
ATOM     92  F   UNL     1      21.268  -1.554  -2.306  1.00  0.00    -0.206 F 
ATOM     93  C   UNL     1      23.472  -1.681  -3.106  1.00  0.00     0.059 A 
ATOM     94  C   UNL     1      23.882  -2.256  -5.430  1.00  0.00     0.059 A 
ATOM     95  F   UNL     1      22.070  -2.654  -6.866  1.00  0.00    -0.206 F 
ATOM     96  C   UNL     1      24.354  -1.917  -4.162  1.00  0.00     0.060 A 
BRANCH  96  97
ATOM     97  S   UNL     1      26.129  -1.814  -3.852  1.00  0.00     0.124 S 
ATOM     98  O   UNL     1      26.339  -0.370  -3.826  1.00  0.00    -0.237 OA
ATOM     99  O   UNL     1      26.266  -2.497  -2.569  1.00  0.00    -0.237 OA
ATOM    100  O   UNL     1      26.713  -2.514  -4.992  1.00  0.00    -0.744 OA
ENDBRANCH  96  97
ENDBRANCH  64  89
ENDBRANCH  38  39
ENDBRANCH  30  33
ENDBRANCH  28  29
ENDBRANCH  27  28
ENDBRANCH   1  27
TORSDOF 18
