REMARK SMILES Cc1cc(CS(=O)(=O)N[C@@H]2C=C[C@H](C(=O)NCCCCCCNC(=O)c3ccc(-c4c5nc(c(-c6c(F)cc(S(=O)(=O)[O-])cc6F)c6ccc([nH]6)c(-c6c(F)cc(S(=O)(=O)[O-])cc6F)c6nc(c(-c7c(F)cc(S(=O)(=O)[O-])cc7F)c7ccc4[nH]7)C=C6)C=C5)cc3)C2)no1
REMARK SMILES IDX 19 1 18 2 17 3 16 4 14 5 15 6 13 8 10 9 11 10 92 11 12 12
REMARK SMILES IDX 9 13 6 15 7 16 8 17 5 18 4 19 1 20 2 21 3 22 94 23 93 24
REMARK SMILES IDX 20 25 21 26 22 27 23 28 24 29 25 31 26 32 27 33 91 34 28 35
REMARK SMILES IDX 90 36 29 37 30 38 31 39 84 40 32 41 89 42 83 43 85 44 33 45
REMARK SMILES IDX 88 46 82 47 81 48 34 50 68 51 47 52 67 53 48 54 51 55 66 56
REMARK SMILES IDX 86 57 49 58 50 59 65 61 87 62 52 63 35 64 36 65 45 66 37 67
REMARK SMILES IDX 38 68 44 69 46 70 39 71 40 72 41 73 42 74 43 75 69 76 70 77
REMARK SMILES IDX 79 78 71 79 72 80 78 81 80 82 73 83 74 84 75 85 76 86 77 87
REMARK SMILES IDX 53 88 54 89 63 90 55 91 56 92 62 93 64 94 57 95 58 96 59 97
REMARK SMILES IDX 60 98 61 99
REMARK H PARENT 16 7 9 14 23 30 85 49 51 60
REMARK Flexibility Score: inf
ROOT
ATOM      1  C   UNL     1       3.517   3.888   3.510  1.00  0.00     0.002 C 
ENDROOT
BRANCH   1   2
ATOM      2  C   UNL     1       2.086   3.556   3.947  1.00  0.00     0.021 C 
BRANCH   2   3
ATOM      3  C   UNL     1       1.496   2.348   3.219  1.00  0.00     0.116 C 
BRANCH   3   4
ATOM      4  N   UNL     1       2.086   1.113   3.708  1.00  0.00    -0.356 N 
ATOM      5  C   UNL     1       1.641   0.096   4.487  1.00  0.00     0.226 C 
ATOM      6  O   UNL     1       2.487  -0.745   4.818  1.00  0.00    -0.274 OA
ATOM      7  H   UNL     1       3.015   0.986   3.406  1.00  0.00     0.163 HD
BRANCH   5   8
ATOM      8  C   UNL     1       0.182  -0.122   4.907  1.00  0.00     0.103 C 
ATOM      9  C   UNL     1      -1.546  -0.787   3.259  1.00  0.00     0.093 C 
ATOM     10  C   UNL     1      -1.656   0.635   3.690  1.00  0.00    -0.011 C 
ATOM     11  C   UNL     1      -0.399  -1.321   4.122  1.00  0.00     0.042 C 
ATOM     12  C   UNL     1      -0.798   0.964   4.656  1.00  0.00    -0.016 C 
BRANCH   9  13
ATOM     13  N   UNL     1      -1.260  -0.796   1.826  1.00  0.00    -0.208 NA
ATOM     14  H   UNL     1      -1.308   0.171   1.502  1.00  0.00     0.141 HD
BRANCH  13  15
ATOM     15  S   UNL     1      -2.257  -1.710   0.820  1.00  0.00     0.218 S 
ATOM     16  O   UNL     1      -2.531  -2.959   1.490  1.00  0.00    -0.212 OA
ATOM     17  O   UNL     1      -1.558  -1.722  -0.453  1.00  0.00    -0.212 OA
BRANCH  15  18
ATOM     18  C   UNL     1      -3.767  -0.725   0.594  1.00  0.00     0.213 C 
BRANCH  18  19
ATOM     19  C   UNL     1      -4.467  -0.375   1.853  1.00  0.00     0.100 A 
ATOM     20  C   UNL     1      -5.256   1.501   4.891  1.00  0.00     0.091 C 
ATOM     21  C   UNL     1      -5.105   0.669   3.683  1.00  0.00     0.133 A 
ATOM     22  C   UNL     1      -4.696   0.916   2.394  1.00  0.00     0.073 A 
ATOM     23  O   UNL     1      -5.306  -0.666   3.837  1.00  0.00    -0.361 OA
ATOM     24  N   UNL     1      -4.948  -1.320   2.671  1.00  0.00    -0.084 NA
ENDBRANCH  18  19
ENDBRANCH  15  18
ENDBRANCH  13  15
ENDBRANCH   9  13
ENDBRANCH   5   8
ENDBRANCH   3   4
ENDBRANCH   2   3
ENDBRANCH   1   2
BRANCH   1  25
ATOM     25  C   UNL     1       3.680   4.159   2.009  1.00  0.00     0.002 C 
BRANCH  25  26
ATOM     26  C   UNL     1       2.752   5.239   1.446  1.00  0.00     0.021 C 
BRANCH  26  27
ATOM     27  C   UNL     1       2.918   6.607   2.096  1.00  0.00     0.116 C 
BRANCH  27  28
ATOM     28  N   UNL     1       4.257   7.137   1.895  1.00  0.00    -0.352 N 
ATOM     29  C   UNL     1       4.644   8.323   1.324  1.00  0.00     0.251 C 
ATOM     30  H   UNL     1       4.991   6.563   2.214  1.00  0.00     0.163 HD
ATOM     31  O   UNL     1       5.819   8.502   1.020  1.00  0.00    -0.269 OA
BRANCH  29  32
ATOM     32  C   UNL     1       3.638   9.374   1.068  1.00  0.00     0.039 A 
ATOM     33  C   UNL     1       3.664  10.056  -0.150  1.00  0.00     0.014 A 
ATOM     34  C   UNL     1       2.677   9.690   2.033  1.00  0.00     0.014 A 
ATOM     35  C   UNL     1       2.691  11.019  -0.421  1.00  0.00     0.010 A 
ATOM     36  C   UNL     1       1.663  10.593   1.730  1.00  0.00     0.010 A 
ATOM     37  C   UNL     1       1.663  11.273   0.503  1.00  0.00    -0.014 A 
BRANCH  37  38
ATOM     38  C   UNL     1       0.583  12.247   0.203  1.00  0.00     0.031 A 
ATOM     39  C   UNL     1       0.416  13.477   1.053  1.00  0.00     0.074 A 
ATOM     40  C   UNL     1      -0.285  11.989  -0.795  1.00  0.00     0.049 A 
ATOM     41  N   UNL     1      -0.502  14.407   0.988  1.00  0.00    -0.248 NA
ATOM     42  C   UNL     1       1.391  13.672   2.138  1.00  0.00     0.031 C 
ATOM     43  C   UNL     1      -0.257  10.803  -1.654  1.00  0.00     0.029 A 
ATOM     44  N   UNL     1      -1.367  12.701  -1.248  1.00  0.00    -0.354 N 
ATOM     45  C   UNL     1      -0.221  15.290   2.024  1.00  0.00     0.074 A 
ATOM     46  C   UNL     1       0.914  14.751   2.741  1.00  0.00     0.031 C 
ATOM     47  C   UNL     1      -1.263  10.878  -2.540  1.00  0.00     0.029 A 
ATOM     48  C   UNL     1      -2.032  12.092  -2.287  1.00  0.00     0.049 A 
ATOM     49  H   UNL     1      -1.642  13.565  -0.866  1.00  0.00     0.167 HD
ATOM     50  C   UNL     1      -0.838  16.456   2.335  1.00  0.00     0.037 A 
ATOM     51  C   UNL     1      -3.143  12.463  -2.953  1.00  0.00     0.037 A 
ATOM     52  C   UNL     1      -1.959  16.990   1.605  1.00  0.00     0.049 A 
ATOM     53  C   UNL     1      -3.817  13.757  -2.587  1.00  0.00     0.074 A 
ATOM     54  C   UNL     1      -2.621  18.189   1.803  1.00  0.00     0.029 A 
ATOM     55  N   UNL     1      -2.591  16.356   0.544  1.00  0.00    -0.354 N 
ATOM     56  N   UNL     1      -3.496  14.617  -1.649  1.00  0.00    -0.248 NA
ATOM     57  C   UNL     1      -4.998  14.138  -3.373  1.00  0.00     0.031 C 
ATOM     58  C   UNL     1      -3.687  18.254   0.899  1.00  0.00     0.029 A 
ATOM     59  C   UNL     1      -3.652  17.125   0.095  1.00  0.00     0.049 A 
ATOM     60  H   UNL     1      -2.324  15.487   0.166  1.00  0.00     0.167 HD
ATOM     61  C   UNL     1      -4.418  15.652  -1.750  1.00  0.00     0.074 A 
ATOM     62  C   UNL     1      -5.301  15.317  -2.848  1.00  0.00     0.031 C 
ATOM     63  C   UNL     1      -4.523  16.779  -1.001  1.00  0.00     0.037 A 
BRANCH  50  64
ATOM     64  C   UNL     1      -0.315  17.227   3.518  1.00  0.00     0.058 A 
ATOM     65  C   UNL     1       0.950  17.839   3.503  1.00  0.00     0.135 A 
ATOM     66  C   UNL     1      -1.096  17.376   4.676  1.00  0.00     0.135 A 
ATOM     67  F   UNL     1       1.746  17.720   2.428  1.00  0.00    -0.206 F 
ATOM     68  C   UNL     1       1.437  18.533   4.606  1.00  0.00     0.059 A 
ATOM     69  C   UNL     1      -0.642  18.095   5.778  1.00  0.00     0.059 A 
ATOM     70  F   UNL     1      -2.314  16.815   4.747  1.00  0.00    -0.206 F 
ATOM     71  C   UNL     1       0.634  18.653   5.740  1.00  0.00     0.060 A 
BRANCH  71  72
ATOM     72  S   UNL     1       1.287  19.545   7.167  1.00  0.00     0.124 S 
ATOM     73  O   UNL     1       2.292  18.608   7.660  1.00  0.00    -0.237 OA
ATOM     74  O   UNL     1       1.804  20.767   6.560  1.00  0.00    -0.237 OA
ATOM     75  O   UNL     1       0.119  19.719   8.024  1.00  0.00    -0.744 OA
ENDBRANCH  71  72
ENDBRANCH  50  64
BRANCH  51  76
ATOM     76  C   UNL     1      -3.678  11.595  -4.037  1.00  0.00     0.058 A 
ATOM     77  C   UNL     1      -3.615  11.990  -5.381  1.00  0.00     0.135 A 
ATOM     78  C   UNL     1      -4.239  10.340  -3.751  1.00  0.00     0.135 A 
ATOM     79  F   UNL     1      -3.093  13.183  -5.706  1.00  0.00    -0.206 F 
ATOM     80  C   UNL     1      -4.100  11.180  -6.403  1.00  0.00     0.059 A 
ATOM     81  C   UNL     1      -4.704   9.500  -4.757  1.00  0.00     0.059 A 
ATOM     82  F   UNL     1      -4.306   9.906  -2.482  1.00  0.00    -0.206 F 
ATOM     83  C   UNL     1      -4.638   9.933  -6.080  1.00  0.00     0.060 A 
BRANCH  83  84
ATOM     84  S   UNL     1      -5.212   8.863  -7.417  1.00  0.00     0.124 S 
ATOM     85  O   UNL     1      -6.424   9.552  -7.844  1.00  0.00    -0.237 OA
ATOM     86  O   UNL     1      -4.088   8.909  -8.347  1.00  0.00    -0.237 OA
ATOM     87  O   UNL     1      -5.415   7.578  -6.754  1.00  0.00    -0.744 OA
ENDBRANCH  83  84
ENDBRANCH  51  76
BRANCH  63  88
ATOM     88  C   UNL     1      -5.613  17.753  -1.362  1.00  0.00     0.058 A 
ATOM     89  C   UNL     1      -6.967  17.474  -1.119  1.00  0.00     0.135 A 
ATOM     90  C   UNL     1      -5.290  19.006  -1.909  1.00  0.00     0.135 A 
ATOM     91  F   UNL     1      -7.331  16.289  -0.604  1.00  0.00    -0.206 F 
ATOM     92  C   UNL     1      -7.964  18.393  -1.427  1.00  0.00     0.059 A 
ATOM     93  C   UNL     1      -6.269  19.953  -2.196  1.00  0.00     0.059 A 
ATOM     94  F   UNL     1      -4.010  19.329  -2.153  1.00  0.00    -0.206 F 
ATOM     95  C   UNL     1      -7.605  19.632  -1.962  1.00  0.00     0.060 A 
BRANCH  95  96
ATOM     96  S   UNL     1      -8.907  20.829  -2.323  1.00  0.00     0.124 S 
ATOM     97  O   UNL     1      -9.536  20.233  -3.498  1.00  0.00    -0.237 OA
ATOM     98  O   UNL     1      -9.700  20.804  -1.098  1.00  0.00    -0.237 OA
ATOM     99  O   UNL     1      -8.174  22.068  -2.564  1.00  0.00    -0.744 OA
ENDBRANCH  95  96
ENDBRANCH  63  88
ENDBRANCH  37  38
ENDBRANCH  29  32
ENDBRANCH  27  28
ENDBRANCH  26  27
ENDBRANCH  25  26
ENDBRANCH   1  25
TORSDOF 20
