REMARK SMILES CC(C)C[C@H](C)NS(=O)(=O)c1cc(C(=O)NCCCCCCNC(=O)c2ccc(-c3c4nc(c(-c5c(F)cc(S(=O)(=O)[O-])cc5F)c5ccc([nH]5)c(-c5c(F)cc(S(=O)(=O)[O-])cc5F)c5nc(c(-c6c(F)cc(S(=O)(=O)[O-])cc6F)c6ccc3[nH]6)C=C5)C=C4)cc2)ccc1Cl
REMARK SMILES IDX 18 1 17 2 16 3 14 4 15 5 13 7 11 8 12 9 94 10 93 11 95 12
REMARK SMILES IDX 92 13 8 14 9 15 10 16 7 17 5 19 6 20 4 21 2 22 1 23 3 24
REMARK SMILES IDX 19 25 20 26 21 27 22 28 23 29 24 30 25 32 26 33 27 34 91 35
REMARK SMILES IDX 28 36 90 37 29 38 30 39 31 40 84 41 32 42 89 43 83 44 85 45
REMARK SMILES IDX 33 46 88 47 82 48 81 49 34 51 68 52 47 53 67 54 48 55 51 56
REMARK SMILES IDX 66 57 86 58 49 59 50 60 65 62 87 63 52 64 35 65 36 66 45 67
REMARK SMILES IDX 37 68 38 69 44 70 46 71 39 72 40 73 41 74 42 75 43 76 69 77
REMARK SMILES IDX 70 78 79 79 71 80 72 81 78 82 80 83 73 84 74 85 75 86 76 87
REMARK SMILES IDX 77 88 53 89 54 90 63 91 55 92 56 93 62 94 64 95 57 96 58 97
REMARK SMILES IDX 59 98 60 99 61 100
REMARK H PARENT 16 6 7 18 23 31 85 50 51 61
REMARK Flexibility Score: inf
ROOT
ATOM      1  C   UNL     1      -1.928   6.676   3.978  1.00  0.00     0.021 C 
ENDROOT
BRANCH   1   2
ATOM      2  C   UNL     1      -1.284   6.328   2.637  1.00  0.00     0.116 C 
BRANCH   2   3
ATOM      3  N   UNL     1      -0.882   4.935   2.547  1.00  0.00    -0.352 N 
ATOM      4  C   UNL     1      -1.235   3.901   1.718  1.00  0.00     0.251 C 
ATOM      5  O   UNL     1      -0.761   2.789   1.964  1.00  0.00    -0.269 OA
ATOM      6  H   UNL     1      -0.214   4.679   3.224  1.00  0.00     0.163 HD
BRANCH   4   7
ATOM      7  C   UNL     1      -2.151   4.021   0.544  1.00  0.00     0.041 A 
ATOM      8  C   UNL     1      -3.530   2.819  -1.090  1.00  0.00     0.101 A 
ATOM      9  C   UNL     1      -2.766   2.838   0.090  1.00  0.00     0.037 A 
ATOM     10  C   UNL     1      -3.806   4.014  -1.751  1.00  0.00     0.061 A 
ATOM     11  C   UNL     1      -3.198   5.192  -1.307  1.00  0.00     0.023 A 
ATOM     12  Cl  UNL     1      -4.884   4.156  -3.090  1.00  0.00    -0.083 Cl
ATOM     13  C   UNL     1      -2.328   5.181  -0.209  1.00  0.00     0.015 A 
BRANCH   8  14
ATOM     14  S   UNL     1      -3.994   1.268  -1.808  1.00  0.00     0.242 S 
ATOM     15  O   UNL     1      -3.820   1.319  -3.244  1.00  0.00    -0.207 OA
ATOM     16  O   UNL     1      -5.255   0.890  -1.214  1.00  0.00    -0.207 OA
BRANCH  14  17
ATOM     17  N   UNL     1      -2.895   0.141  -1.246  1.00  0.00    -0.208 NA
ATOM     18  H   UNL     1      -3.052   0.107  -0.239  1.00  0.00     0.141 HD
BRANCH  17  19
ATOM     19  C   UNL     1      -1.429   0.155  -1.396  1.00  0.00     0.067 C 
ATOM     20  C   UNL     1      -0.929  -1.202  -0.876  1.00  0.00     0.025 C 
BRANCH  19  21
ATOM     21  C   UNL     1      -0.927   0.362  -2.834  1.00  0.00     0.022 C 
BRANCH  21  22
ATOM     22  C   UNL     1      -0.671   1.828  -3.253  1.00  0.00    -0.016 C 
ATOM     23  C   UNL     1       0.419   2.507  -2.420  1.00  0.00     0.007 C 
ATOM     24  C   UNL     1      -0.281   1.877  -4.734  1.00  0.00     0.007 C 
ENDBRANCH  21  22
ENDBRANCH  19  21
ENDBRANCH  17  19
ENDBRANCH  14  17
ENDBRANCH   8  14
ENDBRANCH   4   7
ENDBRANCH   2   3
ENDBRANCH   1   2
BRANCH   1  25
ATOM     25  C   UNL     1      -0.979   6.789   5.174  1.00  0.00     0.002 C 
BRANCH  25  26
ATOM     26  C   UNL     1       0.165   7.801   5.045  1.00  0.00     0.002 C 
BRANCH  26  27
ATOM     27  C   UNL     1      -0.220   9.210   4.585  1.00  0.00     0.021 C 
BRANCH  27  28
ATOM     28  C   UNL     1      -1.262   9.928   5.440  1.00  0.00     0.116 C 
BRANCH  28  29
ATOM     29  N   UNL     1      -0.801  10.168   6.798  1.00  0.00    -0.352 N 
ATOM     30  C   UNL     1      -0.685  11.349   7.492  1.00  0.00     0.251 C 
ATOM     31  H   UNL     1      -0.532   9.363   7.296  1.00  0.00     0.163 HD
ATOM     32  O   UNL     1      -0.112  11.361   8.579  1.00  0.00    -0.269 OA
BRANCH  30  33
ATOM     33  C   UNL     1      -1.222  12.608   6.928  1.00  0.00     0.039 A 
ATOM     34  C   UNL     1      -0.425  13.756   6.963  1.00  0.00     0.014 A 
ATOM     35  C   UNL     1      -2.505  12.664   6.375  1.00  0.00     0.014 A 
ATOM     36  C   UNL     1      -0.880  14.937   6.370  1.00  0.00     0.010 A 
ATOM     37  C   UNL     1      -2.935  13.827   5.736  1.00  0.00     0.010 A 
ATOM     38  C   UNL     1      -2.120  14.970   5.713  1.00  0.00    -0.014 A 
BRANCH  38  39
ATOM     39  C   UNL     1      -2.556  16.166   4.946  1.00  0.00     0.031 A 
ATOM     40  C   UNL     1      -3.764  16.952   5.373  1.00  0.00     0.074 A 
ATOM     41  C   UNL     1      -1.905  16.492   3.811  1.00  0.00     0.049 A 
ATOM     42  N   UNL     1      -4.344  17.961   4.775  1.00  0.00    -0.248 NA
ATOM     43  C   UNL     1      -4.418  16.537   6.623  1.00  0.00     0.031 C 
ATOM     44  C   UNL     1      -0.744  15.781   3.271  1.00  0.00     0.029 A 
ATOM     45  N   UNL     1      -2.136  17.490   2.897  1.00  0.00    -0.354 N 
ATOM     46  C   UNL     1      -5.435  18.297   5.568  1.00  0.00     0.074 A 
ATOM     47  C   UNL     1      -5.460  17.357   6.669  1.00  0.00     0.031 C 
ATOM     48  C   UNL     1      -0.358  16.371   2.128  1.00  0.00     0.029 A 
ATOM     49  C   UNL     1      -1.268  17.473   1.830  1.00  0.00     0.049 A 
ATOM     50  H   UNL     1      -2.854  18.155   2.996  1.00  0.00     0.167 HD
ATOM     51  C   UNL     1      -6.322  19.308   5.402  1.00  0.00     0.037 A 
ATOM     52  C   UNL     1      -1.220  18.242   0.725  1.00  0.00     0.037 A 
ATOM     53  C   UNL     1      -6.281  20.250   4.313  1.00  0.00     0.049 A 
ATOM     54  C   UNL     1      -2.236  19.335   0.546  1.00  0.00     0.074 A 
ATOM     55  C   UNL     1      -7.089  21.353   4.098  1.00  0.00     0.029 A 
ATOM     56  N   UNL     1      -5.392  20.195   3.249  1.00  0.00    -0.354 N 
ATOM     57  N   UNL     1      -3.217  19.684   1.344  1.00  0.00    -0.248 NA
ATOM     58  C   UNL     1      -2.145  20.134  -0.683  1.00  0.00     0.031 C 
ATOM     59  C   UNL     1      -6.721  21.935   2.881  1.00  0.00     0.029 A 
ATOM     60  C   UNL     1      -5.655  21.221   2.357  1.00  0.00     0.049 A 
ATOM     61  H   UNL     1      -4.678  19.524   3.144  1.00  0.00     0.167 HD
ATOM     62  C   UNL     1      -3.855  20.748   0.718  1.00  0.00     0.074 A 
ATOM     63  C   UNL     1      -3.137  21.000  -0.515  1.00  0.00     0.031 C 
ATOM     64  C   UNL     1      -4.940  21.451   1.126  1.00  0.00     0.037 A 
BRANCH  51  65
ATOM     65  C   UNL     1      -7.418  19.450   6.423  1.00  0.00     0.058 A 
ATOM     66  C   UNL     1      -7.155  19.902   7.726  1.00  0.00     0.135 A 
ATOM     67  C   UNL     1      -8.752  19.170   6.084  1.00  0.00     0.135 A 
ATOM     68  F   UNL     1      -5.897  20.173   8.107  1.00  0.00    -0.206 F 
ATOM     69  C   UNL     1      -8.171  20.043   8.666  1.00  0.00     0.059 A 
ATOM     70  C   UNL     1      -9.787  19.328   7.001  1.00  0.00     0.059 A 
ATOM     71  F   UNL     1      -9.059  18.736   4.851  1.00  0.00    -0.206 F 
ATOM     72  C   UNL     1      -9.485  19.751   8.294  1.00  0.00     0.060 A 
BRANCH  72  73
ATOM     73  S   UNL     1     -10.790  19.937   9.527  1.00  0.00     0.124 S 
ATOM     74  O   UNL     1     -10.544  18.784  10.386  1.00  0.00    -0.237 OA
ATOM     75  O   UNL     1     -10.486  21.239  10.112  1.00  0.00    -0.237 OA
ATOM     76  O   UNL     1     -12.016  19.880   8.736  1.00  0.00    -0.744 OA
ENDBRANCH  72  73
ENDBRANCH  51  65
BRANCH  52  77
ATOM     77  C   UNL     1      -0.171  17.998  -0.299  1.00  0.00     0.058 A 
ATOM     78  C   UNL     1       0.891  18.897  -0.471  1.00  0.00     0.135 A 
ATOM     79  C   UNL     1      -0.194  16.850  -1.107  1.00  0.00     0.135 A 
ATOM     80  F   UNL     1       0.951  20.013   0.272  1.00  0.00    -0.206 F 
ATOM     81  C   UNL     1       1.892  18.671  -1.410  1.00  0.00     0.059 A 
ATOM     82  C   UNL     1       0.807  16.591  -2.037  1.00  0.00     0.059 A 
ATOM     83  F   UNL     1      -1.181  15.951  -0.971  1.00  0.00    -0.206 F 
ATOM     84  C   UNL     1       1.844  17.512  -2.186  1.00  0.00     0.060 A 
BRANCH  84  85
ATOM     85  S   UNL     1       3.182  17.194  -3.356  1.00  0.00     0.124 S 
ATOM     86  O   UNL     1       2.875  18.145  -4.418  1.00  0.00    -0.237 OA
ATOM     87  O   UNL     1       4.366  17.489  -2.555  1.00  0.00    -0.237 OA
ATOM     88  O   UNL     1       3.001  15.785  -3.696  1.00  0.00    -0.744 OA
ENDBRANCH  84  85
ENDBRANCH  52  77
BRANCH  64  89
ATOM     89  C   UNL     1      -5.425  22.556   0.230  1.00  0.00     0.058 A 
ATOM     90  C   UNL     1      -6.115  22.279  -0.961  1.00  0.00     0.135 A 
ATOM     91  C   UNL     1      -5.255  23.901   0.593  1.00  0.00     0.135 A 
ATOM     92  F   UNL     1      -6.294  21.009  -1.358  1.00  0.00    -0.206 F 
ATOM     93  C   UNL     1      -6.612  23.298  -1.766  1.00  0.00     0.059 A 
ATOM     94  C   UNL     1      -5.764  24.936  -0.185  1.00  0.00     0.059 A 
ATOM     95  F   UNL     1      -4.607  24.219   1.725  1.00  0.00    -0.206 F 
ATOM     96  C   UNL     1      -6.436  24.625  -1.367  1.00  0.00     0.060 A 
BRANCH  96  97
ATOM     97  S   UNL     1      -7.131  25.936  -2.396  1.00  0.00     0.124 S 
ATOM     98  O   UNL     1      -6.212  25.938  -3.530  1.00  0.00    -0.237 OA
ATOM     99  O   UNL     1      -8.475  25.438  -2.669  1.00  0.00    -0.237 OA
ATOM    100  O   UNL     1      -7.068  27.113  -1.534  1.00  0.00    -0.744 OA
ENDBRANCH  96  97
ENDBRANCH  64  89
ENDBRANCH  38  39
ENDBRANCH  30  33
ENDBRANCH  28  29
ENDBRANCH  27  28
ENDBRANCH  26  27
ENDBRANCH  25  26
ENDBRANCH   1  25
TORSDOF 21
