REMARK SMILES Cc1nc(-c2ccco2)nc(S)c1C(=O)NCCCCCCNC(=O)c1ccc(-c2c3nc(c(-c4c(F)cc(S(=O)(=O)[O-])cc4F)c4ccc([nH]4)c(-c4c(F)cc(S(=O)(=O)[O-])cc4F)c4nc(c(-c5c(F)cc(S(=O)(=O)[O-])cc5F)c5ccc2[nH]5)C=C4)C=C3)cc1
REMARK SMILES IDX 20 1 19 2 18 3 17 4 16 5 14 6 15 7 13 9 1 10 2 11 3 12 4 13
REMARK SMILES IDX 11 14 10 15 5 16 6 17 9 18 7 19 8 20 12 21 21 23 22 24 23 25
REMARK SMILES IDX 24 26 25 28 26 29 27 30 91 31 28 32 90 33 29 34 30 35 31 36
REMARK SMILES IDX 84 37 32 38 89 39 83 40 85 41 33 42 88 43 82 44 81 45 34 47
REMARK SMILES IDX 68 48 47 49 67 50 48 51 51 52 66 53 86 54 49 55 50 56 65 58
REMARK SMILES IDX 87 59 52 60 35 61 36 62 45 63 37 64 38 65 44 66 46 67 39 68
REMARK SMILES IDX 40 69 41 70 42 71 43 72 69 73 70 74 79 75 71 76 72 77 78 78
REMARK SMILES IDX 80 79 73 80 74 81 75 82 76 83 77 84 53 85 54 86 63 87 55 88
REMARK SMILES IDX 56 89 62 90 64 91 57 92 58 93 59 94 60 95 61 96
REMARK H PARENT 16 8 12 22 23 27 85 46 51 57
REMARK Flexibility Score: inf
ROOT
ATOM      1  C   UNL     1       1.033   3.888   2.213  1.00  0.00     0.002 C 
ENDROOT
BRANCH   1   2
ATOM      2  C   UNL     1       1.975   4.089   1.022  1.00  0.00     0.002 C 
BRANCH   2   3
ATOM      3  C   UNL     1       2.506   2.846   0.299  1.00  0.00     0.021 C 
BRANCH   3   4
ATOM      4  C   UNL     1       1.496   1.774  -0.093  1.00  0.00     0.116 C 
BRANCH   4   5
ATOM      5  N   UNL     1       0.470   2.179  -1.027  1.00  0.00    -0.352 N 
ATOM      6  C   UNL     1      -0.280   1.429  -1.904  1.00  0.00     0.255 C 
ATOM      7  O   UNL     1      -1.215   1.993  -2.476  1.00  0.00    -0.269 OA
ATOM      8  H   UNL     1       0.278   3.145  -1.038  1.00  0.00     0.163 HD
BRANCH   6   9
ATOM      9  C   UNL     1      -0.002   0.009  -2.245  1.00  0.00     0.093 A 
ATOM     10  C   UNL     1       0.069  -0.910   0.158  1.00  0.00     0.068 C 
ATOM     11  C   UNL     1       0.119  -1.030  -1.330  1.00  0.00     0.055 A 
ATOM     12  N   UNL     1       0.309  -2.313  -1.718  1.00  0.00    -0.230 NA
ATOM     13  C   UNL     1       0.339  -2.584  -3.026  1.00  0.00     0.196 A 
ATOM     14  C   UNL     1       0.016  -0.394  -3.589  1.00  0.00     0.110 A 
ATOM     15  N   UNL     1       0.218  -1.675  -3.995  1.00  0.00    -0.218 NA
BRANCH  13  16
ATOM     16  C   UNL     1       0.574  -3.968  -3.391  1.00  0.00     0.171 A 
ATOM     17  C   UNL     1       1.307  -4.601  -4.376  1.00  0.00     0.054 A 
ATOM     18  O   UNL     1      -0.018  -4.910  -2.590  1.00  0.00    -0.461 OA
ATOM     19  C   UNL     1       1.190  -5.994  -4.137  1.00  0.00     0.043 A 
ATOM     20  C   UNL     1       0.360  -6.128  -3.049  1.00  0.00     0.196 A 
ENDBRANCH  13  16
BRANCH  14  21
ATOM     21  S   UNL     1      -0.181   0.716  -4.984  1.00  0.00    -0.123 SA
ATOM     22  H   UNL     1      -0.116   0.006  -6.141  1.00  0.00     0.110 HD
ENDBRANCH  14  21
ENDBRANCH   6   9
ENDBRANCH   4   5
ENDBRANCH   3   4
ENDBRANCH   2   3
ENDBRANCH   1   2
BRANCH   1  23
ATOM     23  C   UNL     1       1.481   2.932   3.318  1.00  0.00     0.021 C 
BRANCH  23  24
ATOM     24  C   UNL     1       2.878   3.143   3.886  1.00  0.00     0.116 C 
BRANCH  24  25
ATOM     25  N   UNL     1       3.092   4.467   4.444  1.00  0.00    -0.352 N 
ATOM     26  C   UNL     1       3.600   4.842   5.667  1.00  0.00     0.251 C 
ATOM     27  H   UNL     1       2.833   5.213   3.856  1.00  0.00     0.163 HD
ATOM     28  O   UNL     1       3.609   6.032   5.976  1.00  0.00    -0.269 OA
BRANCH  26  29
ATOM     29  C   UNL     1       4.100   3.827   6.625  1.00  0.00     0.039 A 
ATOM     30  C   UNL     1       4.858   2.737   6.197  1.00  0.00     0.014 A 
ATOM     31  C   UNL     1       3.804   3.970   7.985  1.00  0.00     0.014 A 
ATOM     32  C   UNL     1       5.154   1.707   7.086  1.00  0.00     0.010 A 
ATOM     33  C   UNL     1       4.193   2.981   8.897  1.00  0.00     0.010 A 
ATOM     34  C   UNL     1       4.826   1.813   8.448  1.00  0.00    -0.014 A 
BRANCH  34  35
ATOM     35  C   UNL     1       5.163   0.688   9.365  1.00  0.00     0.031 A 
ATOM     36  C   UNL     1       4.082  -0.082  10.081  1.00  0.00     0.074 A 
ATOM     37  C   UNL     1       6.452   0.309   9.492  1.00  0.00     0.049 A 
ATOM     38  N   UNL     1       4.194  -1.144  10.839  1.00  0.00    -0.248 NA
ATOM     39  C   UNL     1       2.699   0.399   9.934  1.00  0.00     0.031 C 
ATOM     40  C   UNL     1       7.590   0.981   8.858  1.00  0.00     0.029 A 
ATOM     41  N   UNL     1       7.024  -0.746  10.158  1.00  0.00    -0.354 N 
ATOM     42  C   UNL     1       2.906  -1.454  11.261  1.00  0.00     0.074 A 
ATOM     43  C   UNL     1       2.031  -0.441  10.714  1.00  0.00     0.031 C 
ATOM     44  C   UNL     1       8.708   0.284   9.105  1.00  0.00     0.029 A 
ATOM     45  C   UNL     1       8.383  -0.847   9.967  1.00  0.00     0.049 A 
ATOM     46  H   UNL     1       6.511  -1.371  10.720  1.00  0.00     0.167 HD
ATOM     47  C   UNL     1       2.488  -2.499  12.015  1.00  0.00     0.037 A 
ATOM     48  C   UNL     1       9.274  -1.745  10.433  1.00  0.00     0.037 A 
ATOM     49  C   UNL     1       3.362  -3.515  12.542  1.00  0.00     0.049 A 
ATOM     50  C   UNL     1       8.791  -2.870  11.305  1.00  0.00     0.074 A 
ATOM     51  C   UNL     1       3.028  -4.626  13.296  1.00  0.00     0.029 A 
ATOM     52  N   UNL     1       4.739  -3.545  12.373  1.00  0.00    -0.354 N 
ATOM     53  N   UNL     1       7.563  -3.163  11.661  1.00  0.00    -0.248 NA
ATOM     54  C   UNL     1       9.808  -3.782  11.846  1.00  0.00     0.031 C 
ATOM     55  C   UNL     1       4.207  -5.299  13.627  1.00  0.00     0.029 A 
ATOM     56  C   UNL     1       5.271  -4.642  13.031  1.00  0.00     0.049 A 
ATOM     57  H   UNL     1       5.260  -2.886  11.861  1.00  0.00     0.167 HD
ATOM     58  C   UNL     1       7.659  -4.302  12.452  1.00  0.00     0.074 A 
ATOM     59  C   UNL     1       9.062  -4.653  12.513  1.00  0.00     0.031 C 
ATOM     60  C   UNL     1       6.670  -4.990  13.072  1.00  0.00     0.037 A 
BRANCH  47  61
ATOM     61  C   UNL     1       1.017  -2.611  12.318  1.00  0.00     0.058 A 
ATOM     62  C   UNL     1       0.088  -2.968  11.328  1.00  0.00     0.135 A 
ATOM     63  C   UNL     1       0.540  -2.436  13.628  1.00  0.00     0.135 A 
ATOM     64  F   UNL     1       0.485  -3.137  10.057  1.00  0.00    -0.206 F 
ATOM     65  C   UNL     1      -1.262  -3.128  11.621  1.00  0.00     0.059 A 
ATOM     66  C   UNL     1      -0.802  -2.618  13.950  1.00  0.00     0.059 A 
ATOM     67  F   UNL     1       1.385  -2.097  14.615  1.00  0.00    -0.206 F 
ATOM     68  C   UNL     1      -1.698  -2.955  12.936  1.00  0.00     0.060 A 
BRANCH  68  69
ATOM     69  S   UNL     1      -3.452  -3.182  13.296  1.00  0.00     0.124 S 
ATOM     70  O   UNL     1      -4.041  -2.036  12.607  1.00  0.00    -0.237 OA
ATOM     71  O   UNL     1      -3.724  -4.486  12.700  1.00  0.00    -0.237 OA
ATOM     72  O   UNL     1      -3.513  -3.135  14.753  1.00  0.00    -0.744 OA
ENDBRANCH  68  69
ENDBRANCH  47  61
BRANCH  48  73
ATOM     73  C   UNL     1      10.710  -1.616  10.066  1.00  0.00     0.058 A 
ATOM     74  C   UNL     1      11.326  -2.547   9.216  1.00  0.00     0.135 A 
ATOM     75  C   UNL     1      11.485  -0.538  10.523  1.00  0.00     0.135 A 
ATOM     76  F   UNL     1      10.631  -3.599   8.757  1.00  0.00    -0.206 F 
ATOM     77  C   UNL     1      12.658  -2.416   8.835  1.00  0.00     0.059 A 
ATOM     78  C   UNL     1      12.809  -0.369  10.133  1.00  0.00     0.059 A 
ATOM     79  F   UNL     1      10.939   0.389  11.326  1.00  0.00    -0.206 F 
ATOM     80  C   UNL     1      13.389  -1.318   9.293  1.00  0.00     0.060 A 
BRANCH  80  81
ATOM     81  S   UNL     1      15.098  -1.127   8.742  1.00  0.00     0.124 S 
ATOM     82  O   UNL     1      15.755  -2.229   9.436  1.00  0.00    -0.237 OA
ATOM     83  O   UNL     1      14.967  -1.270   7.295  1.00  0.00    -0.237 OA
ATOM     84  O   UNL     1      15.453   0.211   9.203  1.00  0.00    -0.744 OA
ENDBRANCH  80  81
ENDBRANCH  48  73
BRANCH  60  85
ATOM     85  C   UNL     1       7.045  -6.213  13.862  1.00  0.00     0.058 A 
ATOM     86  C   UNL     1       7.649  -6.112  15.123  1.00  0.00     0.135 A 
ATOM     87  C   UNL     1       6.672  -7.490  13.410  1.00  0.00     0.135 A 
ATOM     88  F   UNL     1       8.034  -4.915  15.595  1.00  0.00    -0.206 F 
ATOM     89  C   UNL     1       7.860  -7.234  15.917  1.00  0.00     0.059 A 
ATOM     90  C   UNL     1       6.850  -8.623  14.198  1.00  0.00     0.059 A 
ATOM     91  F   UNL     1       6.085  -7.639  12.212  1.00  0.00    -0.206 F 
ATOM     92  C   UNL     1       7.441  -8.483  15.453  1.00  0.00     0.060 A 
BRANCH  92  93
ATOM     93  S   UNL     1       7.631  -9.912  16.540  1.00  0.00     0.124 S 
ATOM     94  O   UNL     1       9.081 -10.073  16.566  1.00  0.00    -0.237 OA
ATOM     95  O   UNL     1       7.023  -9.440  17.780  1.00  0.00    -0.237 OA
ATOM     96  O   UNL     1       6.896 -10.967  15.849  1.00  0.00    -0.744 OA
ENDBRANCH  92  93
ENDBRANCH  60  85
ENDBRANCH  34  35
ENDBRANCH  26  29
ENDBRANCH  24  25
ENDBRANCH  23  24
ENDBRANCH   1  23
TORSDOF 18
