REMARK SMILES O=C(NCCCCCCNC(=O)[C@H]1C=C[C@@H](NS(=O)(=O)c2ccccc2)C1)c1ccc(-c2c3nc(c(-c4c(F)cc(S(=O)(=O)[O-])cc4F)c4ccc([nH]4)c(-c4c(F)cc(S(=O)(=O)[O-])cc4F)c4nc(c(-c5c(F)cc(S(=O)(=O)[O-])cc5F)c5ccc2[nH]5)C=C4)C=C3)cc1
REMARK SMILES IDX 6 1 5 2 4 3 3 4 1 5 2 6 28 8 29 9 93 10 30 11 92 12 31 13
REMARK SMILES IDX 32 14 33 15 86 16 34 17 91 18 85 19 87 20 35 21 90 22 84 23
REMARK SMILES IDX 83 24 36 26 70 27 49 28 69 29 50 30 53 31 68 32 88 33 51 34
REMARK SMILES IDX 52 35 67 37 89 38 54 39 37 40 38 41 47 42 39 43 40 44 46 45
REMARK SMILES IDX 48 46 41 47 42 48 43 49 44 50 45 51 71 52 72 53 81 54 73 55
REMARK SMILES IDX 74 56 80 57 82 58 75 59 76 60 77 61 78 62 79 63 55 64 56 65
REMARK SMILES IDX 65 66 57 67 58 68 64 69 66 70 59 71 60 72 61 73 62 74 63 75
REMARK SMILES IDX 7 76 8 77 9 78 10 79 11 80 12 82 13 83 14 84 27 85 15 86
REMARK SMILES IDX 16 87 17 88 18 90 19 91 20 92 21 93 22 94 26 95 23 96 25 97
REMARK SMILES IDX 24 98
REMARK H PARENT 3 7 87 25 53 36 10 81 17 89
REMARK Flexibility Score: inf
ROOT
ATOM      1  C   UNL     1       3.964   3.338  -1.941  1.00  0.00     0.002 C 
ENDROOT
BRANCH   1   2
ATOM      2  C   UNL     1       4.429   1.883  -1.895  1.00  0.00     0.021 C 
BRANCH   2   3
ATOM      3  C   UNL     1       4.287   1.241  -0.522  1.00  0.00     0.116 C 
BRANCH   3   4
ATOM      4  N   UNL     1       2.888   1.092  -0.148  1.00  0.00    -0.352 N 
ATOM      5  O   UNL     1       0.958  -0.041   0.139  1.00  0.00    -0.269 OA
ATOM      6  C   UNL     1       2.183  -0.062   0.089  1.00  0.00     0.251 C 
ATOM      7  H   UNL     1       2.380   1.930  -0.052  1.00  0.00     0.163 HD
BRANCH   6   8
ATOM      8  C   UNL     1       2.923  -1.328   0.273  1.00  0.00     0.039 A 
ATOM      9  C   UNL     1       4.069  -1.353   1.071  1.00  0.00     0.014 A 
ATOM     10  C   UNL     1       2.472  -2.492  -0.353  1.00  0.00     0.014 A 
ATOM     11  C   UNL     1       4.841  -2.503   1.131  1.00  0.00     0.010 A 
ATOM     12  C   UNL     1       3.196  -3.678  -0.206  1.00  0.00     0.010 A 
ATOM     13  C   UNL     1       4.396  -3.688   0.524  1.00  0.00    -0.014 A 
BRANCH  13  14
ATOM     14  C   UNL     1       5.154  -4.942   0.761  1.00  0.00     0.031 A 
ATOM     15  C   UNL     1       5.813  -5.687  -0.365  1.00  0.00     0.074 A 
ATOM     16  C   UNL     1       5.258  -5.387   2.029  1.00  0.00     0.049 A 
ATOM     17  N   UNL     1       6.518  -6.788  -0.317  1.00  0.00    -0.248 NA
ATOM     18  C   UNL     1       5.658  -5.134  -1.719  1.00  0.00     0.031 C 
ATOM     19  C   UNL     1       4.643  -4.746   3.198  1.00  0.00     0.029 A 
ATOM     20  N   UNL     1       5.923  -6.462   2.557  1.00  0.00    -0.354 N 
ATOM     21  C   UNL     1       6.879  -7.071  -1.629  1.00  0.00     0.074 A 
ATOM     22  C   UNL     1       6.291  -6.038  -2.456  1.00  0.00     0.031 C 
ATOM     23  C   UNL     1       4.999  -5.411   4.305  1.00  0.00     0.029 A 
ATOM     24  C   UNL     1       5.799  -6.566   3.922  1.00  0.00     0.049 A 
ATOM     25  H   UNL     1       6.440  -7.098   2.011  1.00  0.00     0.167 HD
ATOM     26  C   UNL     1       7.637  -8.094  -2.092  1.00  0.00     0.037 A 
ATOM     27  C   UNL     1       6.254  -7.503   4.774  1.00  0.00     0.037 A 
ATOM     28  C   UNL     1       8.217  -9.113  -1.250  1.00  0.00     0.049 A 
ATOM     29  C   UNL     1       7.058  -8.646   4.226  1.00  0.00     0.074 A 
ATOM     30  C   UNL     1       9.025 -10.174  -1.618  1.00  0.00     0.029 A 
ATOM     31  N   UNL     1       8.044  -9.204   0.125  1.00  0.00    -0.354 N 
ATOM     32  N   UNL     1       7.422  -8.876   2.986  1.00  0.00    -0.248 NA
ATOM     33  C   UNL     1       7.513  -9.656   5.188  1.00  0.00     0.031 C 
ATOM     34  C   UNL     1       9.294 -10.938  -0.477  1.00  0.00     0.029 A 
ATOM     35  C   UNL     1       8.707 -10.319   0.614  1.00  0.00     0.049 A 
ATOM     36  H   UNL     1       7.526  -8.570   0.671  1.00  0.00     0.167 HD
ATOM     37  C   UNL     1       8.165 -10.048   3.022  1.00  0.00     0.074 A 
ATOM     38  C   UNL     1       8.217 -10.465   4.409  1.00  0.00     0.031 C 
ATOM     39  C   UNL     1       8.749 -10.720   2.000  1.00  0.00     0.037 A 
BRANCH  26  40
ATOM     40  C   UNL     1       7.873  -8.183  -3.577  1.00  0.00     0.058 A 
ATOM     41  C   UNL     1       8.698  -7.270  -4.253  1.00  0.00     0.135 A 
ATOM     42  C   UNL     1       7.316  -9.235  -4.325  1.00  0.00     0.135 A 
ATOM     43  F   UNL     1       9.246  -6.237  -3.593  1.00  0.00    -0.206 F 
ATOM     44  C   UNL     1       8.945  -7.383  -5.618  1.00  0.00     0.059 A 
ATOM     45  C   UNL     1       7.572  -9.383  -5.686  1.00  0.00     0.059 A 
ATOM     46  F   UNL     1       6.519 -10.138  -3.732  1.00  0.00    -0.206 F 
ATOM     47  C   UNL     1       8.379  -8.445  -6.326  1.00  0.00     0.060 A 
BRANCH  47  48
ATOM     48  S   UNL     1       8.722  -8.581  -8.093  1.00  0.00     0.124 S 
ATOM     49  O   UNL     1       7.963  -7.453  -8.625  1.00  0.00    -0.237 OA
ATOM     50  O   UNL     1      10.175  -8.444  -8.139  1.00  0.00    -0.237 OA
ATOM     51  O   UNL     1       8.208  -9.902  -8.441  1.00  0.00    -0.744 OA
ENDBRANCH  47  48
ENDBRANCH  26  40
BRANCH  27  52
ATOM     52  C   UNL     1       5.938  -7.403   6.223  1.00  0.00     0.058 A 
ATOM     53  C   UNL     1       6.941  -7.156   7.170  1.00  0.00     0.135 A 
ATOM     54  C   UNL     1       4.618  -7.534   6.688  1.00  0.00     0.135 A 
ATOM     55  F   UNL     1       8.217  -7.024   6.777  1.00  0.00    -0.206 F 
ATOM     56  C   UNL     1       6.654  -7.064   8.528  1.00  0.00     0.059 A 
ATOM     57  C   UNL     1       4.301  -7.412   8.035  1.00  0.00     0.059 A 
ATOM     58  F   UNL     1       3.617  -7.750   5.820  1.00  0.00    -0.206 F 
ATOM     59  C   UNL     1       5.329  -7.192   8.950  1.00  0.00     0.060 A 
BRANCH  59  60
ATOM     60  S   UNL     1       4.962  -7.040  10.711  1.00  0.00     0.124 S 
ATOM     61  O   UNL     1       5.501  -8.292  11.230  1.00  0.00    -0.237 OA
ATOM     62  O   UNL     1       5.694  -5.830  11.072  1.00  0.00    -0.237 OA
ATOM     63  O   UNL     1       3.508  -6.918  10.742  1.00  0.00    -0.744 OA
ENDBRANCH  59  60
ENDBRANCH  27  52
BRANCH  39  64
ATOM     64  C   UNL     1       9.524 -11.961   2.350  1.00  0.00     0.058 A 
ATOM     65  C   UNL     1       8.886 -13.139   2.770  1.00  0.00     0.135 A 
ATOM     66  C   UNL     1      10.924 -11.979   2.234  1.00  0.00     0.135 A 
ATOM     67  F   UNL     1       7.551 -13.172   2.907  1.00  0.00    -0.206 F 
ATOM     68  C   UNL     1       9.610 -14.282   3.091  1.00  0.00     0.059 A 
ATOM     69  C   UNL     1      11.665 -13.121   2.518  1.00  0.00     0.059 A 
ATOM     70  F   UNL     1      11.584 -10.883   1.829  1.00  0.00    -0.206 F 
ATOM     71  C   UNL     1      11.000 -14.264   2.960  1.00  0.00     0.060 A 
BRANCH  71  72
ATOM     72  S   UNL     1      11.924 -15.763   3.354  1.00  0.00     0.124 S 
ATOM     73  O   UNL     1      11.827 -15.794   4.810  1.00  0.00    -0.237 OA
ATOM     74  O   UNL     1      11.168 -16.790   2.645  1.00  0.00    -0.237 OA
ATOM     75  O   UNL     1      13.256 -15.492   2.820  1.00  0.00    -0.744 OA
ENDBRANCH  71  72
ENDBRANCH  39  64
ENDBRANCH  13  14
ENDBRANCH   6   8
ENDBRANCH   3   4
ENDBRANCH   2   3
ENDBRANCH   1   2
BRANCH   1  76
ATOM     76  C   UNL     1       4.737   4.281  -1.013  1.00  0.00     0.002 C 
BRANCH  76  77
ATOM     77  C   UNL     1       6.262   4.233  -1.176  1.00  0.00     0.021 C 
BRANCH  77  78
ATOM     78  C   UNL     1       6.737   4.600  -2.586  1.00  0.00     0.116 C 
BRANCH  78  79
ATOM     79  N   UNL     1       6.649   6.030  -2.786  1.00  0.00    -0.356 N 
ATOM     80  C   UNL     1       7.551   7.032  -2.644  1.00  0.00     0.226 C 
ATOM     81  H   UNL     1       5.761   6.335  -3.084  1.00  0.00     0.163 HD
ATOM     82  O   UNL     1       7.101   8.177  -2.788  1.00  0.00    -0.274 OA
BRANCH  80  83
ATOM     83  C   UNL     1       9.062   6.809  -2.438  1.00  0.00     0.103 C 
ATOM     84  C   UNL     1       9.594   7.893  -1.534  1.00  0.00    -0.016 C 
ATOM     85  C   UNL     1       9.572   5.557  -1.721  1.00  0.00     0.042 C 
ATOM     86  C   UNL     1      10.458   7.432  -0.625  1.00  0.00    -0.011 C 
ATOM     87  C   UNL     1      10.719   5.982  -0.794  1.00  0.00     0.093 C 
BRANCH  87  88
ATOM     88  N   UNL     1      10.616   5.240   0.449  1.00  0.00    -0.204 NA
ATOM     89  H   UNL     1      10.570   4.255   0.185  1.00  0.00     0.142 HD
BRANCH  88  90
ATOM     90  S   UNL     1      11.755   5.339   1.662  1.00  0.00     0.241 S 
ATOM     91  O   UNL     1      11.877   6.724   2.062  1.00  0.00    -0.207 OA
ATOM     92  O   UNL     1      11.402   4.317   2.622  1.00  0.00    -0.207 OA
BRANCH  90  93
ATOM     93  C   UNL     1      13.253   4.849   0.857  1.00  0.00     0.082 A 
ATOM     94  C   UNL     1      13.526   3.498   0.635  1.00  0.00     0.022 A 
ATOM     95  C   UNL     1      14.169   5.837   0.479  1.00  0.00     0.022 A 
ATOM     96  C   UNL     1      14.724   3.139   0.016  1.00  0.00     0.001 A 
ATOM     97  C   UNL     1      15.362   5.471  -0.139  1.00  0.00     0.001 A 
ATOM     98  C   UNL     1      15.639   4.123  -0.369  1.00  0.00     0.000 A 
ENDBRANCH  90  93
ENDBRANCH  88  90
ENDBRANCH  87  88
ENDBRANCH  80  83
ENDBRANCH  78  79
ENDBRANCH  77  78
ENDBRANCH  76  77
ENDBRANCH   1  76
TORSDOF 19
