REMARK SMILES Cc1ccc(C(=O)NCCCCCCNC(=O)c2ccc(-c3c4nc(c(-c5c(F)cc(S(=O)(=O)[O-])cc5F)c5ccc([nH]5)c(-c5c(F)cc(S(=O)(=O)[O-])cc5F)c5nc(c(-c6c(F)cc(S(=O)(=O)[O-])cc6F)c6ccc3[nH]6)C=C5)C=C4)cc2)cc1S(=O)(=O)N(C)[C@H]1CCSC1
REMARK SMILES IDX 11 1 10 2 9 3 8 4 6 5 7 6 5 8 1 9 2 10 3 11 85 12 4 13 84 14
REMARK SMILES IDX 86 15 87 16 88 17 89 18 90 19 91 20 92 21 95 22 93 23 94 24
REMARK SMILES IDX 12 25 13 26 14 27 15 28 16 29 17 31 18 32 19 33 83 34 20 35
REMARK SMILES IDX 82 36 21 37 22 38 23 39 76 40 24 41 81 42 75 43 77 44 25 45
REMARK SMILES IDX 80 46 74 47 73 48 26 50 60 51 39 52 59 53 40 54 43 55 58 56
REMARK SMILES IDX 78 57 41 58 42 59 57 61 79 62 44 63 27 64 28 65 37 66 29 67
REMARK SMILES IDX 30 68 36 69 38 70 31 71 32 72 33 73 34 74 35 75 61 76 62 77
REMARK SMILES IDX 71 78 63 79 64 80 70 81 72 82 65 83 66 84 67 85 68 86 69 87
REMARK SMILES IDX 45 88 46 89 55 90 47 91 48 92 54 93 56 94 49 95 50 96 51 97
REMARK SMILES IDX 52 98 53 99
REMARK H PARENT 8 7 15 30 77 49 43 60
REMARK Flexibility Score: inf
ROOT
ATOM      1  C   UNL     1      -4.436   6.392  -3.544  1.00  0.00     0.002 C 
ENDROOT
BRANCH   1   2
ATOM      2  C   UNL     1      -3.066   5.865  -3.083  1.00  0.00     0.021 C 
BRANCH   2   3
ATOM      3  C   UNL     1      -3.068   5.220  -1.696  1.00  0.00     0.116 C 
BRANCH   3   4
ATOM      4  N   UNL     1      -3.614   3.877  -1.744  1.00  0.00    -0.352 N 
ATOM      5  C   UNL     1      -3.069   2.628  -1.628  1.00  0.00     0.251 C 
ATOM      6  O   UNL     1      -3.853   1.676  -1.633  1.00  0.00    -0.269 OA
ATOM      7  H   UNL     1      -4.587   3.862  -1.892  1.00  0.00     0.163 HD
BRANCH   5   8
ATOM      8  C   UNL     1      -1.612   2.344  -1.460  1.00  0.00     0.041 A 
ATOM      9  C   UNL     1       2.468   0.880  -1.124  1.00  0.00     0.046 C 
ATOM     10  C   UNL     1       1.113   1.522  -1.181  1.00  0.00    -0.031 A 
ATOM     11  C   UNL     1       0.047   0.676  -0.827  1.00  0.00     0.005 A 
ATOM     12  C   UNL     1       0.794   2.811  -1.636  1.00  0.00     0.086 A 
ATOM     13  C   UNL     1      -1.284   1.082  -0.951  1.00  0.00     0.014 A 
ATOM     14  C   UNL     1      -0.562   3.187  -1.823  1.00  0.00     0.035 A 
BRANCH  12  15
ATOM     15  S   UNL     1       1.969   4.098  -2.056  1.00  0.00     0.243 S 
ATOM     16  O   UNL     1       2.211   3.956  -3.472  1.00  0.00    -0.207 OA
ATOM     17  O   UNL     1       1.447   5.330  -1.493  1.00  0.00    -0.207 OA
BRANCH  15  18
ATOM     18  N   UNL     1       3.409   3.761  -1.215  1.00  0.00    -0.197 NA
ATOM     19  C   UNL     1       4.630   3.823  -2.044  1.00  0.00     0.125 C 
BRANCH  18  20
ATOM     20  C   UNL     1       3.495   4.159   0.217  1.00  0.00     0.083 C 
ATOM     21  C   UNL     1       4.419   3.229   1.007  1.00  0.00     0.032 C 
ATOM     22  C   UNL     1       4.027   5.576   0.446  1.00  0.00     0.089 C 
ATOM     23  C   UNL     1       4.486   3.795   2.414  1.00  0.00     0.071 C 
ATOM     24  S   UNL     1       4.601   5.588   2.181  1.00  0.00    -0.160 SA
ENDBRANCH  18  20
ENDBRANCH  15  18
ENDBRANCH  12  15
ENDBRANCH   5   8
ENDBRANCH   3   4
ENDBRANCH   2   3
ENDBRANCH   1   2
BRANCH   1  25
ATOM     25  C   UNL     1      -5.148   7.366  -2.591  1.00  0.00     0.002 C 
BRANCH  25  26
ATOM     26  C   UNL     1      -4.297   8.517  -2.049  1.00  0.00     0.021 C 
BRANCH  26  27
ATOM     27  C   UNL     1      -3.913   9.535  -3.116  1.00  0.00     0.116 C 
BRANCH  27  28
ATOM     28  N   UNL     1      -4.438  10.866  -2.843  1.00  0.00    -0.352 N 
ATOM     29  C   UNL     1      -4.161  12.041  -3.521  1.00  0.00     0.251 C 
ATOM     30  H   UNL     1      -5.064  10.938  -2.086  1.00  0.00     0.163 HD
ATOM     31  O   UNL     1      -4.471  13.136  -3.099  1.00  0.00    -0.269 OA
BRANCH  29  32
ATOM     32  C   UNL     1      -3.577  11.890  -4.870  1.00  0.00     0.039 A 
ATOM     33  C   UNL     1      -4.419  12.146  -5.958  1.00  0.00     0.014 A 
ATOM     34  C   UNL     1      -2.357  11.240  -5.030  1.00  0.00     0.014 A 
ATOM     35  C   UNL     1      -4.109  11.602  -7.201  1.00  0.00     0.010 A 
ATOM     36  C   UNL     1      -2.093  10.634  -6.243  1.00  0.00     0.010 A 
ATOM     37  C   UNL     1      -2.986  10.782  -7.314  1.00  0.00    -0.014 A 
BRANCH  37  38
ATOM     38  C   UNL     1      -2.709   9.969  -8.491  1.00  0.00     0.031 A 
ATOM     39  C   UNL     1      -1.640  10.358  -9.433  1.00  0.00     0.074 A 
ATOM     40  C   UNL     1      -3.383   8.816  -8.699  1.00  0.00     0.049 A 
ATOM     41  N   UNL     1      -1.624  10.018 -10.679  1.00  0.00    -0.248 NA
ATOM     42  C   UNL     1      -0.508  11.195  -9.047  1.00  0.00     0.031 C 
ATOM     43  C   UNL     1      -3.034   7.754  -9.638  1.00  0.00     0.029 A 
ATOM     44  N   UNL     1      -4.651   8.466  -8.232  1.00  0.00    -0.354 N 
ATOM     45  C   UNL     1      -0.376  10.319 -11.166  1.00  0.00     0.074 A 
ATOM     46  C   UNL     1       0.257  11.118 -10.141  1.00  0.00     0.031 C 
ATOM     47  C   UNL     1      -4.126   7.014  -9.884  1.00  0.00     0.029 A 
ATOM     48  C   UNL     1      -5.244   7.662  -9.224  1.00  0.00     0.049 A 
ATOM     49  H   UNL     1      -5.053   8.730  -7.374  1.00  0.00     0.167 HD
ATOM     50  C   UNL     1       0.068   9.738 -12.315  1.00  0.00     0.037 A 
ATOM     51  C   UNL     1      -6.402   8.034  -9.843  1.00  0.00     0.037 A 
ATOM     52  C   UNL     1      -0.929   8.848 -12.899  1.00  0.00     0.049 A 
ATOM     53  C   UNL     1      -6.277   8.193 -11.341  1.00  0.00     0.074 A 
ATOM     54  C   UNL     1      -1.106   7.474 -12.848  1.00  0.00     0.029 A 
ATOM     55  N   UNL     1      -2.118   9.373 -13.396  1.00  0.00    -0.354 N 
ATOM     56  N   UNL     1      -5.144   8.322 -11.976  1.00  0.00    -0.248 NA
ATOM     57  C   UNL     1      -7.420   8.218 -12.246  1.00  0.00     0.031 C 
ATOM     58  C   UNL     1      -2.410   7.173 -13.305  1.00  0.00     0.029 A 
ATOM     59  C   UNL     1      -3.030   8.363 -13.642  1.00  0.00     0.049 A 
ATOM     60  H   UNL     1      -2.287  10.330 -13.552  1.00  0.00     0.167 HD
ATOM     61  C   UNL     1      -5.374   8.463 -13.326  1.00  0.00     0.074 A 
ATOM     62  C   UNL     1      -6.817   8.360 -13.440  1.00  0.00     0.031 C 
ATOM     63  C   UNL     1      -4.343   8.649 -14.211  1.00  0.00     0.037 A 
BRANCH  50  64
ATOM     64  C   UNL     1       1.530   9.764 -12.680  1.00  0.00     0.058 A 
ATOM     65  C   UNL     1       2.206   8.599 -13.095  1.00  0.00     0.135 A 
ATOM     66  C   UNL     1       2.332  10.917 -12.562  1.00  0.00     0.135 A 
ATOM     67  F   UNL     1       1.559   7.446 -13.302  1.00  0.00    -0.206 F 
ATOM     68  C   UNL     1       3.587   8.554 -13.278  1.00  0.00     0.059 A 
ATOM     69  C   UNL     1       3.724  10.886 -12.694  1.00  0.00     0.059 A 
ATOM     70  F   UNL     1       1.777  12.110 -12.293  1.00  0.00    -0.206 F 
ATOM     71  C   UNL     1       4.345   9.693 -13.043  1.00  0.00     0.060 A 
BRANCH  71  72
ATOM     72  S   UNL     1       6.141   9.568 -13.153  1.00  0.00     0.124 S 
ATOM     73  O   UNL     1       6.419   8.364 -12.374  1.00  0.00    -0.237 OA
ATOM     74  O   UNL     1       6.349   9.454 -14.591  1.00  0.00    -0.237 OA
ATOM     75  O   UNL     1       6.604  10.813 -12.546  1.00  0.00    -0.744 OA
ENDBRANCH  71  72
ENDBRANCH  50  64
BRANCH  51  76
ATOM     76  C   UNL     1      -7.321   8.793  -8.952  1.00  0.00     0.058 A 
ATOM     77  C   UNL     1      -7.877   8.111  -7.851  1.00  0.00     0.135 A 
ATOM     78  C   UNL     1      -7.303  10.193  -8.904  1.00  0.00     0.135 A 
ATOM     79  F   UNL     1      -7.929   6.769  -7.851  1.00  0.00    -0.206 F 
ATOM     80  C   UNL     1      -8.250   8.776  -6.688  1.00  0.00     0.059 A 
ATOM     81  C   UNL     1      -7.682  10.883  -7.748  1.00  0.00     0.059 A 
ATOM     82  F   UNL     1      -6.790  10.898  -9.922  1.00  0.00    -0.206 F 
ATOM     83  C   UNL     1      -8.090  10.158  -6.626  1.00  0.00     0.060 A 
BRANCH  83  84
ATOM     84  S   UNL     1      -8.267  10.957  -5.012  1.00  0.00     0.124 S 
ATOM     85  O   UNL     1      -9.666  10.691  -4.695  1.00  0.00    -0.237 OA
ATOM     86  O   UNL     1      -7.289  10.229  -4.204  1.00  0.00    -0.237 OA
ATOM     87  O   UNL     1      -7.935  12.350  -5.289  1.00  0.00    -0.744 OA
ENDBRANCH  83  84
ENDBRANCH  51  76
BRANCH  63  88
ATOM     88  C   UNL     1      -4.409   8.999 -15.695  1.00  0.00     0.058 A 
ATOM     89  C   UNL     1      -5.535   9.505 -16.366  1.00  0.00     0.135 A 
ATOM     90  C   UNL     1      -3.234   8.929 -16.498  1.00  0.00     0.135 A 
ATOM     91  F   UNL     1      -6.690   9.735 -15.731  1.00  0.00    -0.206 F 
ATOM     92  C   UNL     1      -5.519   9.854 -17.722  1.00  0.00     0.059 A 
ATOM     93  C   UNL     1      -3.180   9.326 -17.833  1.00  0.00     0.059 A 
ATOM     94  F   UNL     1      -2.066   8.484 -16.011  1.00  0.00    -0.206 F 
ATOM     95  C   UNL     1      -4.336   9.767 -18.448  1.00  0.00     0.060 A 
BRANCH  95  96
ATOM     96  S   UNL     1      -4.298  10.301 -20.168  1.00  0.00     0.124 S 
ATOM     97  O   UNL     1      -4.784   9.109 -20.856  1.00  0.00    -0.237 OA
ATOM     98  O   UNL     1      -5.206  11.444 -20.168  1.00  0.00    -0.237 OA
ATOM     99  O   UNL     1      -2.893  10.629 -20.390  1.00  0.00    -0.744 OA
ENDBRANCH  95  96
ENDBRANCH  63  88
ENDBRANCH  37  38
ENDBRANCH  29  32
ENDBRANCH  27  28
ENDBRANCH  26  27
ENDBRANCH  25  26
ENDBRANCH   1  25
TORSDOF 19
