REMARK SMILES Cc1ccc(NC(=O)C[C@@H](C(=O)NCCCCCCNC(=O)c2ccc(-c3c4nc(c(-c5c(F)cc(S(=O)(=O)[O-])cc5F)c5ccc([nH]5)c(-c5c(F)cc(S(=O)(=O)[O-])cc5F)c5nc(c(-c6c(F)cc(S(=O)(=O)[O-])cc6F)c6ccc3[nH]6)C=C5)C=C4)cc2)[NH+]2CCOCC2)cc1
REMARK SMILES IDX 16 1 15 2 14 3 13 4 11 5 12 6 10 8 9 9 7 10 6 11 8 13 5 14
REMARK SMILES IDX 1 15 2 16 3 17 96 18 4 19 95 20 89 21 90 22 94 23 91 25
REMARK SMILES IDX 93 26 92 27 17 28 18 29 19 30 20 31 21 32 22 34 23 35 24 36
REMARK SMILES IDX 88 37 25 38 87 39 26 40 27 41 28 42 81 43 29 44 86 45 80 46
REMARK SMILES IDX 82 47 30 48 85 49 79 50 78 51 31 53 65 54 44 55 64 56 45 57
REMARK SMILES IDX 48 58 63 59 83 60 46 61 47 62 62 64 84 65 49 66 32 67 33 68
REMARK SMILES IDX 42 69 34 70 35 71 41 72 43 73 36 74 37 75 38 76 39 77 40 78
REMARK SMILES IDX 66 79 67 80 76 81 68 82 69 83 75 84 77 85 70 86 71 87 72 88
REMARK SMILES IDX 73 89 74 90 50 91 51 92 60 93 52 94 53 95 59 96 61 97 54 98
REMARK SMILES IDX 55 99 56 100 57 101 58 102
REMARK H PARENT 13 7 6 12 89 24 20 33 82 52 48 63
REMARK Flexibility Score: inf
ROOT
ATOM      1  C   UNL     1      -3.057   2.655  -0.949  1.00  0.00     0.002 C 
ENDROOT
BRANCH   1   2
ATOM      2  C   UNL     1      -3.954   1.405  -0.867  1.00  0.00     0.021 C 
BRANCH   2   3
ATOM      3  C   UNL     1      -3.642   0.253  -1.832  1.00  0.00     0.116 C 
BRANCH   3   4
ATOM      4  N   UNL     1      -2.243  -0.121  -1.810  1.00  0.00    -0.351 N 
ATOM      5  C   UNL     1      -1.579  -1.297  -1.680  1.00  0.00     0.278 C 
ATOM      6  O   UNL     1      -0.356  -1.208  -1.857  1.00  0.00    -0.268 OA
ATOM      7  H   UNL     1      -1.640   0.650  -1.912  1.00  0.00     0.163 HD
BRANCH   5   8
ATOM      8  C   UNL     1      -2.286  -2.680  -1.441  1.00  0.00     0.283 C 
BRANCH   8   9
ATOM      9  C   UNL     1      -2.819  -2.914  -0.012  1.00  0.00     0.175 C 
BRANCH   9  10
ATOM     10  C   UNL     1      -3.335  -1.759   0.805  1.00  0.00     0.230 C 
ATOM     11  N   UNL     1      -2.520  -0.894   1.472  1.00  0.00    -0.326 N 
ATOM     12  H   UNL     1      -2.988  -0.286   2.089  1.00  0.00     0.169 HD
ATOM     13  O   UNL     1      -4.556  -1.570   0.866  1.00  0.00    -0.274 OA
BRANCH  11  14
ATOM     14  C   UNL     1      -1.127  -0.720   1.430  1.00  0.00     0.041 A 
ATOM     15  C   UNL     1       2.912   0.164   0.272  1.00  0.00     0.044 C 
ATOM     16  C   UNL     1       1.546  -0.128   0.812  1.00  0.00    -0.051 A 
ATOM     17  C   UNL     1       1.128  -1.453   0.956  1.00  0.00     0.005 A 
ATOM     18  C   UNL     1       0.648   0.900   1.107  1.00  0.00     0.005 A 
ATOM     19  C   UNL     1      -0.200  -1.746   1.276  1.00  0.00     0.026 A 
ATOM     20  C   UNL     1      -0.674   0.604   1.443  1.00  0.00     0.026 A 
ENDBRANCH  11  14
ENDBRANCH   9  10
ENDBRANCH   8   9
BRANCH   8  21
ATOM     21  N   UNL     1      -1.321  -3.760  -1.841  1.00  0.00    -0.320 N 
ATOM     22  C   UNL     1      -0.919  -3.751  -3.261  1.00  0.00     0.291 C 
ATOM     23  C   UNL     1      -1.467  -5.137  -1.357  1.00  0.00     0.291 C 
ATOM     24  H   UNL     1      -0.563  -3.416  -1.252  1.00  0.00     0.348 HD
ATOM     25  C   UNL     1      -1.708  -4.730  -4.142  1.00  0.00     0.221 C 
ATOM     26  C   UNL     1      -2.228  -6.079  -2.298  1.00  0.00     0.221 C 
ATOM     27  O   UNL     1      -1.673  -6.061  -3.617  1.00  0.00    -0.370 OA
ENDBRANCH   8  21
ENDBRANCH   5   8
ENDBRANCH   3   4
ENDBRANCH   2   3
ENDBRANCH   1   2
BRANCH   1  28
ATOM     28  C   UNL     1      -3.074   3.468  -2.251  1.00  0.00     0.002 C 
BRANCH  28  29
ATOM     29  C   UNL     1      -4.440   3.858  -2.820  1.00  0.00     0.021 C 
BRANCH  29  30
ATOM     30  C   UNL     1      -5.401   4.510  -1.842  1.00  0.00     0.116 C 
BRANCH  30  31
ATOM     31  N   UNL     1      -5.256   5.935  -1.611  1.00  0.00    -0.352 N 
ATOM     32  C   UNL     1      -6.419   6.623  -1.262  1.00  0.00     0.251 C 
ATOM     33  H   UNL     1      -4.387   6.391  -1.695  1.00  0.00     0.163 HD
ATOM     34  O   UNL     1      -7.278   6.997  -2.051  1.00  0.00    -0.269 OA
BRANCH  32  35
ATOM     35  C   UNL     1      -6.704   6.548   0.188  1.00  0.00     0.039 A 
ATOM     36  C   UNL     1      -6.478   7.607   1.065  1.00  0.00     0.014 A 
ATOM     37  C   UNL     1      -7.049   5.280   0.663  1.00  0.00     0.014 A 
ATOM     38  C   UNL     1      -6.478   7.355   2.441  1.00  0.00     0.010 A 
ATOM     39  C   UNL     1      -6.958   5.015   2.007  1.00  0.00     0.010 A 
ATOM     40  C   UNL     1      -6.648   6.048   2.898  1.00  0.00    -0.014 A 
BRANCH  40  41
ATOM     41  C   UNL     1      -6.544   5.605   4.281  1.00  0.00     0.031 A 
ATOM     42  C   UNL     1      -7.775   5.305   5.046  1.00  0.00     0.074 A 
ATOM     43  C   UNL     1      -5.337   5.204   4.737  1.00  0.00     0.049 A 
ATOM     44  N   UNL     1      -7.795   4.980   6.294  1.00  0.00    -0.248 NA
ATOM     45  C   UNL     1      -9.115   5.403   4.463  1.00  0.00     0.031 C 
ATOM     46  C   UNL     1      -5.059   4.273   5.827  1.00  0.00     0.029 A 
ATOM     47  N   UNL     1      -4.093   5.754   4.425  1.00  0.00    -0.354 N 
ATOM     48  C   UNL     1      -9.057   4.513   6.575  1.00  0.00     0.074 A 
ATOM     49  C   UNL     1      -9.869   4.940   5.466  1.00  0.00     0.031 C 
ATOM     50  C   UNL     1      -3.807   4.477   6.266  1.00  0.00     0.029 A 
ATOM     51  C   UNL     1      -3.313   5.669   5.598  1.00  0.00     0.049 A 
ATOM     52  H   UNL     1      -3.814   6.127   3.558  1.00  0.00     0.167 HD
ATOM     53  C   UNL     1      -9.226   3.677   7.636  1.00  0.00     0.037 A 
ATOM     54  C   UNL     1      -2.924   6.806   6.253  1.00  0.00     0.037 A 
ATOM     55  C   UNL     1      -8.063   3.725   8.524  1.00  0.00     0.049 A 
ATOM     56  C   UNL     1      -3.468   6.929   7.659  1.00  0.00     0.074 A 
ATOM     57  C   UNL     1      -7.034   2.845   8.802  1.00  0.00     0.029 A 
ATOM     58  N   UNL     1      -7.703   4.947   9.092  1.00  0.00    -0.354 N 
ATOM     59  N   UNL     1      -4.465   6.228   8.126  1.00  0.00    -0.248 NA
ATOM     60  C   UNL     1      -2.932   7.858   8.650  1.00  0.00     0.031 C 
ATOM     61  C   UNL     1      -5.986   3.589   9.415  1.00  0.00     0.029 A 
ATOM     62  C   UNL     1      -6.406   4.902   9.564  1.00  0.00     0.049 A 
ATOM     63  H   UNL     1      -8.292   5.733   9.150  1.00  0.00     0.167 HD
ATOM     64  C   UNL     1      -4.739   6.614   9.411  1.00  0.00     0.074 A 
ATOM     65  C   UNL     1      -3.728   7.614   9.705  1.00  0.00     0.031 C 
ATOM     66  C   UNL     1      -5.782   6.094  10.126  1.00  0.00     0.037 A 
BRANCH  53  67
ATOM     67  C   UNL     1     -10.348   2.660   7.769  1.00  0.00     0.058 A 
ATOM     68  C   UNL     1     -10.487   1.901   8.953  1.00  0.00     0.135 A 
ATOM     69  C   UNL     1     -11.222   2.276   6.726  1.00  0.00     0.135 A 
ATOM     70  F   UNL     1      -9.707   2.139  10.019  1.00  0.00    -0.206 F 
ATOM     71  C   UNL     1     -11.402   0.847   9.083  1.00  0.00     0.059 A 
ATOM     72  C   UNL     1     -12.178   1.265   6.851  1.00  0.00     0.059 A 
ATOM     73  F   UNL     1     -11.151   2.804   5.499  1.00  0.00    -0.206 F 
ATOM     74  C   UNL     1     -12.243   0.533   8.023  1.00  0.00     0.060 A 
BRANCH  74  75
ATOM     75  S   UNL     1     -13.398  -0.845   8.162  1.00  0.00     0.124 S 
ATOM     76  O   UNL     1     -12.508  -1.994   8.042  1.00  0.00    -0.237 OA
ATOM     77  O   UNL     1     -13.990  -0.631   9.479  1.00  0.00    -0.237 OA
ATOM     78  O   UNL     1     -14.307  -0.640   7.037  1.00  0.00    -0.744 OA
ENDBRANCH  74  75
ENDBRANCH  53  67
BRANCH  54  79
ATOM     79  C   UNL     1      -2.662   7.939   5.315  1.00  0.00     0.058 A 
ATOM     80  C   UNL     1      -1.574   7.795   4.432  1.00  0.00     0.135 A 
ATOM     81  C   UNL     1      -3.696   8.807   4.934  1.00  0.00     0.135 A 
ATOM     82  F   UNL     1      -0.542   7.000   4.765  1.00  0.00    -0.206 F 
ATOM     83  C   UNL     1      -1.613   8.305   3.139  1.00  0.00     0.059 A 
ATOM     84  C   UNL     1      -3.744   9.346   3.646  1.00  0.00     0.059 A 
ATOM     85  F   UNL     1      -4.748   9.002   5.742  1.00  0.00    -0.206 F 
ATOM     86  C   UNL     1      -2.748   9.002   2.731  1.00  0.00     0.060 A 
BRANCH  86  87
ATOM     87  S   UNL     1      -2.982   9.271   0.956  1.00  0.00     0.124 S 
ATOM     88  O   UNL     1      -1.715   9.880   0.566  1.00  0.00    -0.237 OA
ATOM     89  O   UNL     1      -3.204   7.908   0.470  1.00  0.00    -0.237 OA
ATOM     90  O   UNL     1      -4.146  10.149   0.899  1.00  0.00    -0.744 OA
ENDBRANCH  86  87
ENDBRANCH  54  79
BRANCH  66  91
ATOM     91  C   UNL     1      -6.260   6.621  11.459  1.00  0.00     0.058 A 
ATOM     92  C   UNL     1      -6.194   7.974  11.838  1.00  0.00     0.135 A 
ATOM     93  C   UNL     1      -6.931   5.767  12.366  1.00  0.00     0.135 A 
ATOM     94  F   UNL     1      -5.698   8.905  11.010  1.00  0.00    -0.206 F 
ATOM     95  C   UNL     1      -6.672   8.433  13.067  1.00  0.00     0.059 A 
ATOM     96  C   UNL     1      -7.464   6.214  13.573  1.00  0.00     0.059 A 
ATOM     97  F   UNL     1      -7.095   4.462  12.102  1.00  0.00    -0.206 F 
ATOM     98  C   UNL     1      -7.300   7.544  13.933  1.00  0.00     0.060 A 
BRANCH  98  99
ATOM     99  S   UNL     1      -7.950   8.131  15.508  1.00  0.00     0.124 S 
ATOM    100  O   UNL     1      -6.815   7.898  16.395  1.00  0.00    -0.237 OA
ATOM    101  O   UNL     1      -8.256   9.532  15.234  1.00  0.00    -0.237 OA
ATOM    102  O   UNL     1      -9.112   7.276  15.727  1.00  0.00    -0.744 OA
ENDBRANCH  98  99
ENDBRANCH  66  91
ENDBRANCH  40  41
ENDBRANCH  32  35
ENDBRANCH  30  31
ENDBRANCH  29  30
ENDBRANCH  28  29
ENDBRANCH   1  28
TORSDOF 20
