REMARK SMILES C[C@H]1CCC[C@](Cc2cn3ccccc3n2)(C(=O)NCCCCCCNC(=O)c2ccc(-c3c4nc(c(-c5c(F)cc(S(=O)(=O)[O-])cc5F)c5ccc([nH]5)c(-c5c(F)cc(S(=O)(=O)[O-])cc5F)c5nc(c(-c6c(F)cc(S(=O)(=O)[O-])cc6F)c6ccc3[nH]6)C=C5)C=C4)cc2)C1
REMARK SMILES IDX 23 1 22 2 21 3 20 4 19 5 17 6 18 7 6 9 1 10 2 11 3 12 95 13
REMARK SMILES IDX 4 14 5 15 7 16 8 17 9 18 16 19 10 20 15 21 11 22 14 23 12 24
REMARK SMILES IDX 13 25 24 26 25 27 26 28 27 29 28 31 29 32 30 33 94 34 31 35
REMARK SMILES IDX 93 36 32 37 33 38 34 39 87 40 35 41 92 42 86 43 88 44 36 45
REMARK SMILES IDX 91 46 85 47 84 48 37 50 71 51 50 52 70 53 51 54 54 55 69 56
REMARK SMILES IDX 89 57 52 58 53 59 68 61 90 62 55 63 38 64 39 65 48 66 40 67
REMARK SMILES IDX 41 68 47 69 49 70 42 71 43 72 44 73 45 74 46 75 72 76 73 77
REMARK SMILES IDX 82 78 74 79 75 80 81 81 83 82 76 83 77 84 78 85 79 86 80 87
REMARK SMILES IDX 56 88 57 89 66 90 58 91 59 92 65 93 67 94 60 95 61 96 62 97
REMARK SMILES IDX 63 98 64 99
REMARK H PARENT 19 8 26 30 88 49 54 60
REMARK Flexibility Score: inf
ROOT
ATOM      1  C   UNL     1       0.551   2.751   4.809  1.00  0.00     0.002 C 
ENDROOT
BRANCH   1   2
ATOM      2  C   UNL     1      -0.931   2.436   4.565  1.00  0.00     0.002 C 
BRANCH   2   3
ATOM      3  C   UNL     1      -1.307   2.062   3.131  1.00  0.00     0.021 C 
BRANCH   3   4
ATOM      4  C   UNL     1      -0.531   0.878   2.565  1.00  0.00     0.116 C 
BRANCH   4   5
ATOM      5  N   UNL     1      -1.272  -0.356   2.567  1.00  0.00    -0.356 N 
ATOM      6  C   UNL     1      -1.425  -1.327   1.631  1.00  0.00     0.226 C 
ATOM      7  O   UNL     1      -1.914  -2.373   2.079  1.00  0.00    -0.274 OA
ATOM      8  H   UNL     1      -1.759  -0.528   3.405  1.00  0.00     0.163 HD
BRANCH   6   9
ATOM      9  C   UNL     1      -1.014  -1.199   0.117  1.00  0.00     0.055 C 
ATOM     10  C   UNL     1       2.689  -0.122  -0.732  1.00  0.00     0.007 C 
ATOM     11  C   UNL     1       1.260   0.115  -0.229  1.00  0.00    -0.013 C 
ATOM     12  C   UNL     1       0.516   1.048  -1.184  1.00  0.00     0.003 C 
ATOM     13  C   UNL     1       0.534  -1.220  -0.016  1.00  0.00     0.020 C 
ATOM     14  C   UNL     1      -0.949   1.269  -0.836  1.00  0.00     0.001 C 
ATOM     15  C   UNL     1      -1.740  -0.008  -0.565  1.00  0.00     0.017 C 
BRANCH   9  16
ATOM     16  C   UNL     1      -1.571  -2.546  -0.511  1.00  0.00     0.074 C 
BRANCH  16  17
ATOM     17  C   UNL     1      -1.621  -2.694  -2.007  1.00  0.00     0.061 A 
ATOM     18  C   UNL     1      -0.686  -2.428  -2.988  1.00  0.00     0.116 A 
ATOM     19  N   UNL     1      -2.772  -3.202  -2.581  1.00  0.00    -0.234 NA
ATOM     20  N   UNL     1      -1.283  -2.756  -4.181  1.00  0.00    -0.307 N 
ATOM     21  C   UNL     1      -2.550  -3.233  -3.877  1.00  0.00     0.136 A 
ATOM     22  C   UNL     1      -0.787  -2.660  -5.479  1.00  0.00     0.093 A 
ATOM     23  C   UNL     1      -3.365  -3.654  -4.966  1.00  0.00     0.048 A 
ATOM     24  C   UNL     1      -1.562  -3.049  -6.506  1.00  0.00     0.018 A 
ATOM     25  C   UNL     1      -2.895  -3.566  -6.226  1.00  0.00     0.005 A 
ENDBRANCH  16  17
ENDBRANCH   9  16
ENDBRANCH   6   9
ENDBRANCH   4   5
ENDBRANCH   3   4
ENDBRANCH   2   3
ENDBRANCH   1   2
BRANCH   1  26
ATOM     26  C   UNL     1       1.191   3.791   3.881  1.00  0.00     0.021 C 
BRANCH  26  27
ATOM     27  C   UNL     1       0.507   5.158   3.835  1.00  0.00     0.116 C 
BRANCH  27  28
ATOM     28  N   UNL     1       0.310   5.723   5.158  1.00  0.00    -0.352 N 
ATOM     29  C   UNL     1       0.669   6.936   5.682  1.00  0.00     0.251 C 
ATOM     30  H   UNL     1      -0.164   5.132   5.786  1.00  0.00     0.163 HD
ATOM     31  O   UNL     1       0.544   7.117   6.891  1.00  0.00    -0.269 OA
BRANCH  29  32
ATOM     32  C   UNL     1       1.209   8.021   4.831  1.00  0.00     0.039 A 
ATOM     33  C   UNL     1       2.228   8.823   5.357  1.00  0.00     0.014 A 
ATOM     34  C   UNL     1       0.685   8.311   3.567  1.00  0.00     0.014 A 
ATOM     35  C   UNL     1       2.745   9.880   4.606  1.00  0.00     0.010 A 
ATOM     36  C   UNL     1       1.242   9.332   2.794  1.00  0.00     0.010 A 
ATOM     37  C   UNL     1       2.273  10.131   3.308  1.00  0.00    -0.014 A 
BRANCH  37  38
ATOM     38  C   UNL     1       2.869  11.222   2.492  1.00  0.00     0.031 A 
ATOM     39  C   UNL     1       2.062  12.442   2.131  1.00  0.00     0.074 A 
ATOM     40  C   UNL     1       4.143  11.106   2.070  1.00  0.00     0.049 A 
ATOM     41  N   UNL     1       2.424  13.494   1.443  1.00  0.00    -0.248 NA
ATOM     42  C   UNL     1       0.664  12.477   2.588  1.00  0.00     0.031 C 
ATOM     43  C   UNL     1       5.011   9.950   2.312  1.00  0.00     0.029 A 
ATOM     44  N   UNL     1       4.934  11.967   1.352  1.00  0.00    -0.354 N 
ATOM     45  C   UNL     1       1.305  14.318   1.387  1.00  0.00     0.074 A 
ATOM     46  C   UNL     1       0.235  13.619   2.065  1.00  0.00     0.031 C 
ATOM     47  C   UNL     1       6.220  10.186   1.777  1.00  0.00     0.029 A 
ATOM     48  C   UNL     1       6.208  11.496   1.134  1.00  0.00     0.049 A 
ATOM     49  H   UNL     1       4.619  12.840   1.024  1.00  0.00     0.167 HD
ATOM     50  C   UNL     1       1.188  15.554   0.843  1.00  0.00     0.037 A 
ATOM     51  C   UNL     1       7.249  12.058   0.492  1.00  0.00     0.037 A 
ATOM     52  C   UNL     1       2.260  16.255   0.184  1.00  0.00     0.049 A 
ATOM     53  C   UNL     1       7.094  13.437  -0.090  1.00  0.00     0.074 A 
ATOM     54  C   UNL     1       2.247  17.523  -0.373  1.00  0.00     0.029 A 
ATOM     55  N   UNL     1       3.540  15.753  -0.000  1.00  0.00    -0.354 N 
ATOM     56  N   UNL     1       6.040  14.218  -0.090  1.00  0.00    -0.248 NA
ATOM     57  C   UNL     1       8.273  14.016  -0.748  1.00  0.00     0.031 C 
ATOM     58  C   UNL     1       3.511  17.776  -0.918  1.00  0.00     0.029 A 
ATOM     59  C   UNL     1       4.322  16.682  -0.667  1.00  0.00     0.049 A 
ATOM     60  H   UNL     1       3.847  14.867   0.299  1.00  0.00     0.167 HD
ATOM     61  C   UNL     1       6.436  15.387  -0.729  1.00  0.00     0.074 A 
ATOM     62  C   UNL     1       7.831  15.220  -1.079  1.00  0.00     0.031 C 
ATOM     63  C   UNL     1       5.710  16.498  -1.007  1.00  0.00     0.037 A 
BRANCH  50  64
ATOM     64  C   UNL     1      -0.143  16.246   0.958  1.00  0.00     0.058 A 
ATOM     65  C   UNL     1      -0.588  16.771   2.182  1.00  0.00     0.135 A 
ATOM     66  C   UNL     1      -0.949  16.450  -0.173  1.00  0.00     0.135 A 
ATOM     67  F   UNL     1       0.137  16.590   3.298  1.00  0.00    -0.206 F 
ATOM     68  C   UNL     1      -1.791  17.462   2.284  1.00  0.00     0.059 A 
ATOM     69  C   UNL     1      -2.146  17.159  -0.099  1.00  0.00     0.059 A 
ATOM     70  F   UNL     1      -0.572  15.968  -1.368  1.00  0.00    -0.206 F 
ATOM     71  C   UNL     1      -2.562  17.654   1.136  1.00  0.00     0.060 A 
BRANCH  71  72
ATOM     72  S   UNL     1      -4.103  18.583   1.281  1.00  0.00     0.124 S 
ATOM     73  O   UNL     1      -4.963  17.618   1.958  1.00  0.00    -0.237 OA
ATOM     74  O   UNL     1      -3.699  19.739   2.074  1.00  0.00    -0.237 OA
ATOM     75  O   UNL     1      -4.457  18.872  -0.107  1.00  0.00    -0.744 OA
ENDBRANCH  71  72
ENDBRANCH  50  64
BRANCH  51  76
ATOM     76  C   UNL     1       8.542  11.332   0.378  1.00  0.00     0.058 A 
ATOM     77  C   UNL     1       9.678  11.763   1.078  1.00  0.00     0.135 A 
ATOM     78  C   UNL     1       8.672  10.210  -0.454  1.00  0.00     0.135 A 
ATOM     79  F   UNL     1       9.603  12.834   1.884  1.00  0.00    -0.206 F 
ATOM     80  C   UNL     1      10.908  11.131   0.932  1.00  0.00     0.059 A 
ATOM     81  C   UNL     1       9.886   9.545  -0.597  1.00  0.00     0.059 A 
ATOM     82  F   UNL     1       7.610   9.745  -1.129  1.00  0.00    -0.206 F 
ATOM     83  C   UNL     1      11.003  10.025   0.085  1.00  0.00     0.060 A 
BRANCH  83  84
ATOM     84  S   UNL     1      12.599   9.200  -0.095  1.00  0.00     0.124 S 
ATOM     85  O   UNL     1      13.294  10.103  -1.004  1.00  0.00    -0.237 OA
ATOM     86  O   UNL     1      13.091   9.171   1.278  1.00  0.00    -0.237 OA
ATOM     87  O   UNL     1      12.238   7.898  -0.650  1.00  0.00    -0.744 OA
ENDBRANCH  83  84
ENDBRANCH  51  76
BRANCH  63  88
ATOM     88  C   UNL     1       6.426  17.621  -1.703  1.00  0.00     0.058 A 
ATOM     89  C   UNL     1       6.786  17.535  -3.057  1.00  0.00     0.135 A 
ATOM     90  C   UNL     1       6.755  18.796  -1.009  1.00  0.00     0.135 A 
ATOM     91  F   UNL     1       6.498  16.430  -3.763  1.00  0.00    -0.206 F 
ATOM     92  C   UNL     1       7.486  18.557  -3.688  1.00  0.00     0.059 A 
ATOM     93  C   UNL     1       7.431  19.843  -1.628  1.00  0.00     0.059 A 
ATOM     94  F   UNL     1       6.421  18.934   0.284  1.00  0.00    -0.206 F 
ATOM     95  C   UNL     1       7.811  19.704  -2.963  1.00  0.00     0.060 A 
BRANCH  95  96
ATOM     96  S   UNL     1       8.727  21.024  -3.788  1.00  0.00     0.124 S 
ATOM     97  O   UNL     1      10.083  20.486  -3.782  1.00  0.00    -0.237 OA
ATOM     98  O   UNL     1       8.077  21.091  -5.093  1.00  0.00    -0.237 OA
ATOM     99  O   UNL     1       8.505  22.180  -2.925  1.00  0.00    -0.744 OA
ENDBRANCH  95  96
ENDBRANCH  63  88
ENDBRANCH  37  38
ENDBRANCH  29  32
ENDBRANCH  27  28
ENDBRANCH  26  27
ENDBRANCH   1  26
TORSDOF 18
