REMARK SMILES C#CC[N@@H+](CC(=O)NCCCCCCNC(=O)c1ccc(-c2c3nc(c(-c4c(F)cc(S(=O)(=O)[O-])cc4F)c4ccc([nH]4)c(-c4c(F)cc(S(=O)(=O)[O-])cc4F)c4nc(c(-c5c(F)cc(S(=O)(=O)[O-])cc5F)c5ccc2[nH]5)C=C4)C=C3)cc1)Cc1cn(CC)c2ccccc12
REMARK SMILES IDX 11 1 10 2 9 3 8 4 6 5 7 6 5 8 4 9 3 11 2 12 1 13 84 14 85 15
REMARK SMILES IDX 86 16 95 17 87 18 90 19 94 20 91 21 93 22 92 23 88 24 89 25
REMARK SMILES IDX 12 26 13 27 14 28 15 29 16 30 17 32 18 33 19 34 83 35 20 36
REMARK SMILES IDX 82 37 21 38 22 39 23 40 76 41 24 42 81 43 75 44 77 45 25 46
REMARK SMILES IDX 80 47 74 48 73 49 26 51 60 52 39 53 59 54 40 55 43 56 58 57
REMARK SMILES IDX 78 58 41 59 42 60 57 62 79 63 44 64 27 65 28 66 37 67 29 68
REMARK SMILES IDX 30 69 36 70 38 71 31 72 32 73 33 74 34 75 35 76 61 77 62 78
REMARK SMILES IDX 71 79 63 80 64 81 70 82 72 83 65 84 66 85 67 86 68 87 69 88
REMARK SMILES IDX 45 89 46 90 55 91 47 92 48 93 54 94 56 95 49 96 50 97 51 98
REMARK SMILES IDX 52 99 53 100
REMARK H PARENT 8 7 4 10 15 31 77 50 43 61
REMARK Flexibility Score: inf
ROOT
ATOM      1  C   UNL     1      -2.822  -1.462  -4.334  1.00  0.00     0.002 C 
ENDROOT
BRANCH   1   2
ATOM      2  C   UNL     1      -2.481  -0.625  -3.109  1.00  0.00     0.021 C 
BRANCH   2   3
ATOM      3  C   UNL     1      -3.687   0.096  -2.481  1.00  0.00     0.116 C 
BRANCH   3   4
ATOM      4  N   UNL     1      -4.514  -0.844  -1.755  1.00  0.00    -0.351 N 
ATOM      5  C   UNL     1      -4.693  -1.102  -0.431  1.00  0.00     0.275 C 
ATOM      6  O   UNL     1      -5.420  -2.073  -0.197  1.00  0.00    -0.269 OA
ATOM      7  H   UNL     1      -5.061  -1.416  -2.341  1.00  0.00     0.163 HD
BRANCH   5   8
ATOM      8  C   UNL     1      -4.127  -0.215   0.703  1.00  0.00     0.364 C 
BRANCH   8   9
ATOM      9  N   UNL     1      -2.702  -0.454   1.140  1.00  0.00    -0.313 N 
ATOM     10  H   UNL     1      -2.538   0.073   1.997  1.00  0.00     0.349 HD
BRANCH   9  11
ATOM     11  C   UNL     1      -1.910  -0.045   0.025  1.00  0.00     0.354 C 
BRANCH  11  12
ATOM     12  C   UNL     1      -0.390  -0.045   0.025  1.00  0.00    -0.047 C 
ATOM     13  C   UNL     1       0.914  -0.045   0.025  1.00  0.00     0.010 C 
ENDBRANCH  11  12
ENDBRANCH   9  11
BRANCH   9  14
ATOM     14  C   UNL     1      -2.349  -1.829   1.558  1.00  0.00     0.302 C 
BRANCH  14  15
ATOM     15  C   UNL     1      -3.372  -2.312   2.523  1.00  0.00     0.032 A 
ATOM     16  C   UNL     1      -4.263  -3.343   2.295  1.00  0.00     0.096 A 
ATOM     17  C   UNL     1      -3.831  -1.600   3.668  1.00  0.00     0.008 A 
ATOM     18  N   UNL     1      -5.441  -2.943   2.894  1.00  0.00    -0.347 N 
ATOM     19  C   UNL     1      -5.176  -1.949   3.826  1.00  0.00     0.048 A 
ATOM     20  C   UNL     1      -3.303  -0.502   4.378  1.00  0.00     0.011 A 
ATOM     21  C   UNL     1      -6.018  -1.208   4.669  1.00  0.00     0.027 A 
ATOM     22  C   UNL     1      -4.136   0.238   5.213  1.00  0.00     0.001 A 
ATOM     23  C   UNL     1      -5.476  -0.109   5.348  1.00  0.00     0.002 A 
BRANCH  18  24
ATOM     24  C   UNL     1      -6.717  -3.141   2.217  1.00  0.00     0.119 C 
ATOM     25  C   UNL     1      -7.790  -3.834   3.019  1.00  0.00     0.027 C 
ENDBRANCH  18  24
ENDBRANCH  14  15
ENDBRANCH   9  14
ENDBRANCH   8   9
ENDBRANCH   5   8
ENDBRANCH   3   4
ENDBRANCH   2   3
ENDBRANCH   1   2
BRANCH   1  26
ATOM     26  C   UNL     1      -3.416  -0.652  -5.478  1.00  0.00     0.002 C 
BRANCH  26  27
ATOM     27  C   UNL     1      -2.618   0.610  -5.811  1.00  0.00     0.021 C 
BRANCH  27  28
ATOM     28  C   UNL     1      -1.134   0.352  -6.047  1.00  0.00     0.116 C 
BRANCH  28  29
ATOM     29  N   UNL     1      -0.941  -0.583  -7.141  1.00  0.00    -0.352 N 
ATOM     30  C   UNL     1      -0.377  -0.329  -8.363  1.00  0.00     0.251 C 
ATOM     31  H   UNL     1      -1.251  -1.504  -6.986  1.00  0.00     0.163 HD
ATOM     32  O   UNL     1      -0.563  -1.077  -9.311  1.00  0.00    -0.269 OA
BRANCH  30  33
ATOM     33  C   UNL     1       0.459   0.878  -8.493  1.00  0.00     0.039 A 
ATOM     34  C   UNL     1       0.229   1.758  -9.548  1.00  0.00     0.014 A 
ATOM     35  C   UNL     1       1.439   1.144  -7.529  1.00  0.00     0.014 A 
ATOM     36  C   UNL     1       0.978   2.931  -9.625  1.00  0.00     0.010 A 
ATOM     37  C   UNL     1       2.121   2.351  -7.562  1.00  0.00     0.010 A 
ATOM     38  C   UNL     1       1.916   3.242  -8.625  1.00  0.00    -0.014 A 
BRANCH  38  39
ATOM     39  C   UNL     1       2.726   4.481  -8.698  1.00  0.00     0.031 A 
ATOM     40  C   UNL     1       4.219   4.383  -8.854  1.00  0.00     0.074 A 
ATOM     41  C   UNL     1       2.122   5.679  -8.584  1.00  0.00     0.049 A 
ATOM     42  N   UNL     1       5.107   5.340  -8.902  1.00  0.00    -0.248 NA
ATOM     43  C   UNL     1       4.793   3.029  -8.937  1.00  0.00     0.031 C 
ATOM     44  C   UNL     1       0.687   5.888  -8.380  1.00  0.00     0.029 A 
ATOM     45  N   UNL     1       2.640   6.948  -8.620  1.00  0.00    -0.354 N 
ATOM     46  C   UNL     1       6.339   4.707  -9.011  1.00  0.00     0.074 A 
ATOM     47  C   UNL     1       6.092   3.284  -8.956  1.00  0.00     0.031 C 
ATOM     48  C   UNL     1       0.436   7.206  -8.337  1.00  0.00     0.029 A 
ATOM     49  C   UNL     1       1.694   7.934  -8.471  1.00  0.00     0.049 A 
ATOM     50  H   UNL     1       3.599   7.135  -8.740  1.00  0.00     0.167 HD
ATOM     51  C   UNL     1       7.563   5.262  -9.172  1.00  0.00     0.037 A 
ATOM     52  C   UNL     1       1.830   9.274  -8.441  1.00  0.00     0.037 A 
ATOM     53  C   UNL     1       7.791   6.681  -9.250  1.00  0.00     0.049 A 
ATOM     54  C   UNL     1       3.202   9.868  -8.616  1.00  0.00     0.074 A 
ATOM     55  C   UNL     1       8.981   7.350  -9.468  1.00  0.00     0.029 A 
ATOM     56  N   UNL     1       6.807   7.649  -9.108  1.00  0.00    -0.354 N 
ATOM     57  N   UNL     1       4.350   9.255  -8.788  1.00  0.00    -0.248 NA
ATOM     58  C   UNL     1       3.297  11.333  -8.603  1.00  0.00     0.031 C 
ATOM     59  C   UNL     1       8.726   8.723  -9.405  1.00  0.00     0.029 A 
ATOM     60  C   UNL     1       7.367   8.911  -9.209  1.00  0.00     0.049 A 
ATOM     61  H   UNL     1       5.851   7.466  -8.958  1.00  0.00     0.167 HD
ATOM     62  C   UNL     1       5.300  10.261  -8.931  1.00  0.00     0.074 A 
ATOM     63  C   UNL     1       4.589  11.520  -8.839  1.00  0.00     0.031 C 
ATOM     64  C   UNL     1       6.639  10.153  -9.120  1.00  0.00     0.037 A 
BRANCH  51  65
ATOM     65  C   UNL     1       8.743   4.335  -9.278  1.00  0.00     0.058 A 
ATOM     66  C   UNL     1       8.932   3.502 -10.393  1.00  0.00     0.135 A 
ATOM     67  C   UNL     1       9.716   4.301  -8.266  1.00  0.00     0.135 A 
ATOM     68  F   UNL     1       8.024   3.478 -11.382  1.00  0.00    -0.206 F 
ATOM     69  C   UNL     1      10.025   2.647 -10.487  1.00  0.00     0.059 A 
ATOM     70  C   UNL     1      10.835   3.478  -8.354  1.00  0.00     0.059 A 
ATOM     71  F   UNL     1       9.586   5.073  -7.176  1.00  0.00    -0.206 F 
ATOM     72  C   UNL     1      10.973   2.644  -9.463  1.00  0.00     0.060 A 
BRANCH  72  73
ATOM     73  S   UNL     1      12.392   1.537  -9.607  1.00  0.00     0.124 S 
ATOM     74  O   UNL     1      11.768   0.235  -9.388  1.00  0.00    -0.237 OA
ATOM     75  O   UNL     1      12.853   1.798 -10.967  1.00  0.00    -0.237 OA
ATOM     76  O   UNL     1      13.286   1.989  -8.547  1.00  0.00    -0.744 OA
ENDBRANCH  72  73
ENDBRANCH  51  65
BRANCH  52  77
ATOM     77  C   UNL     1       0.634  10.138  -8.259  1.00  0.00     0.058 A 
ATOM     78  C   UNL     1       0.157  10.944  -9.304  1.00  0.00     0.135 A 
ATOM     79  C   UNL     1      -0.066  10.166  -7.043  1.00  0.00     0.135 A 
ATOM     80  F   UNL     1       0.793  10.956 -10.486  1.00  0.00    -0.206 F 
ATOM     81  C   UNL     1      -0.959  11.760  -9.145  1.00  0.00     0.059 A 
ATOM     82  C   UNL     1      -1.201  10.952  -6.868  1.00  0.00     0.059 A 
ATOM     83  F   UNL     1       0.336   9.399  -6.017  1.00  0.00    -0.206 F 
ATOM     84  C   UNL     1      -1.633  11.755  -7.923  1.00  0.00     0.060 A 
BRANCH  84  85
ATOM     85  S   UNL     1      -3.106  12.783  -7.742  1.00  0.00     0.124 S 
ATOM     86  O   UNL     1      -2.527  14.120  -7.697  1.00  0.00    -0.237 OA
ATOM     87  O   UNL     1      -3.859  12.453  -8.948  1.00  0.00    -0.237 OA
ATOM     88  O   UNL     1      -3.696  12.307  -6.495  1.00  0.00    -0.744 OA
ENDBRANCH  84  85
ENDBRANCH  52  77
BRANCH  64  89
ATOM     89  C   UNL     1       7.420  11.429  -9.278  1.00  0.00     0.058 A 
ATOM     90  C   UNL     1       7.654  12.291  -8.196  1.00  0.00     0.135 A 
ATOM     91  C   UNL     1       7.989  11.762 -10.518  1.00  0.00     0.135 A 
ATOM     92  F   UNL     1       7.128  12.022  -6.991  1.00  0.00    -0.206 F 
ATOM     93  C   UNL     1       8.404  13.453  -8.344  1.00  0.00     0.059 A 
ATOM     94  C   UNL     1       8.769  12.901 -10.681  1.00  0.00     0.059 A 
ATOM     95  F   UNL     1       7.806  10.964 -11.583  1.00  0.00    -0.206 F 
ATOM     96  C   UNL     1       8.960  13.748  -9.591  1.00  0.00     0.060 A 
BRANCH  96  97
ATOM     97  S   UNL     1       9.960  15.241  -9.759  1.00  0.00     0.124 S 
ATOM     98  O   UNL     1       8.941  16.284  -9.707  1.00  0.00    -0.237 OA
ATOM     99  O   UNL     1      10.842  15.157  -8.599  1.00  0.00    -0.237 OA
ATOM    100  O   UNL     1      10.616  15.068 -11.052  1.00  0.00    -0.744 OA
ENDBRANCH  96  97
ENDBRANCH  64  89
ENDBRANCH  38  39
ENDBRANCH  30  33
ENDBRANCH  28  29
ENDBRANCH  27  28
ENDBRANCH  26  27
ENDBRANCH   1  26
TORSDOF 22
