REMARK SMILES O=C(NCCCCCCNC(=O)c1cc(NC(=O)c2ccccc2Cl)ccc1N1CCC[C@H](C[NH+]2CCCC2)C1)c1ccc(-c2c3nc(c(-c4c(F)cc(S(=O)(=O)[O-])cc4F)c4ccc([nH]4)c(-c4c(F)cc(S(=O)(=O)[O-])cc4F)c4nc(c(-c5c(F)cc(S(=O)(=O)[O-])cc5F)c5ccc2[nH]5)C=C4)C=C3)cc1
REMARK SMILES IDX 6 1 5 2 4 3 3 4 1 5 2 6 41 8 42 9 106 10 43 11 105 12 44 13
REMARK SMILES IDX 45 14 46 15 99 16 47 17 104 18 98 19 100 20 48 21 103 22
REMARK SMILES IDX 97 23 96 24 49 26 83 27 62 28 82 29 63 30 66 31 81 32 101 33
REMARK SMILES IDX 64 34 65 35 80 37 102 38 67 39 50 40 51 41 60 42 52 43 53 44
REMARK SMILES IDX 59 45 61 46 54 47 55 48 56 49 57 50 58 51 84 52 85 53 94 54
REMARK SMILES IDX 86 55 87 56 93 57 95 58 88 59 89 60 90 61 91 62 92 63 68 64
REMARK SMILES IDX 69 65 78 66 70 67 71 68 77 69 79 70 72 71 73 72 74 73 75 74
REMARK SMILES IDX 76 75 7 76 8 77 9 78 10 79 11 80 12 82 13 83 14 84 28 85
REMARK SMILES IDX 15 86 27 87 26 88 29 89 30 90 40 91 31 92 33 93 32 94 34 95
REMARK SMILES IDX 35 96 36 97 39 98 37 100 38 101 16 102 17 103 18 105 19 106
REMARK SMILES IDX 20 107 24 108 21 109 23 110 25 111 22 112
REMARK H PARENT 3 7 100 25 66 36 10 81 35 99 16 104
REMARK Flexibility Score: inf
ROOT
ATOM      1  C   UNL     1       4.216   3.296   2.193  1.00  0.00     0.002 C 
ENDROOT
BRANCH   1   2
ATOM      2  C   UNL     1       4.784   2.567   0.974  1.00  0.00     0.021 C 
BRANCH   2   3
ATOM      3  C   UNL     1       4.444   1.085   0.884  1.00  0.00     0.116 C 
BRANCH   3   4
ATOM      4  N   UNL     1       3.015   0.841   0.810  1.00  0.00    -0.352 N 
ATOM      5  O   UNL     1       1.091   0.098  -0.096  1.00  0.00    -0.269 OA
ATOM      6  C   UNL     1       2.314   0.070  -0.087  1.00  0.00     0.251 C 
ATOM      7  H   UNL     1       2.472   1.289   1.498  1.00  0.00     0.163 HD
BRANCH   6   8
ATOM      8  C   UNL     1       3.051  -0.780  -1.050  1.00  0.00     0.039 A 
ATOM      9  C   UNL     1       4.131  -1.560  -0.628  1.00  0.00     0.014 A 
ATOM     10  C   UNL     1       2.636  -0.816  -2.384  1.00  0.00     0.014 A 
ATOM     11  C   UNL     1       4.861  -2.294  -1.556  1.00  0.00     0.010 A 
ATOM     12  C   UNL     1       3.320  -1.620  -3.301  1.00  0.00     0.010 A 
ATOM     13  C   UNL     1       4.439  -2.362  -2.894  1.00  0.00    -0.014 A 
BRANCH  13  14
ATOM     14  C   UNL     1       5.090  -3.330  -3.811  1.00  0.00     0.031 A 
ATOM     15  C   UNL     1       5.856  -2.875  -5.020  1.00  0.00     0.074 A 
ATOM     16  C   UNL     1       4.952  -4.644  -3.539  1.00  0.00     0.049 A 
ATOM     17  N   UNL     1       6.439  -3.601  -5.938  1.00  0.00    -0.248 NA
ATOM     18  C   UNL     1       5.982  -1.424  -5.234  1.00  0.00     0.031 C 
ATOM     19  C   UNL     1       4.205  -5.192  -2.401  1.00  0.00     0.029 A 
ATOM     20  N   UNL     1       5.417  -5.756  -4.191  1.00  0.00    -0.354 N 
ATOM     21  C   UNL     1       6.980  -2.704  -6.851  1.00  0.00     0.074 A 
ATOM     22  C   UNL     1       6.651  -1.375  -6.380  1.00  0.00     0.031 C 
ATOM     23  C   UNL     1       4.277  -6.530  -2.427  1.00  0.00     0.029 A 
ATOM     24  C   UNL     1       5.008  -6.938  -3.619  1.00  0.00     0.049 A 
ATOM     25  H   UNL     1       5.989  -5.713  -4.992  1.00  0.00     0.167 HD
ATOM     26  C   UNL     1       7.682  -2.975  -7.977  1.00  0.00     0.037 A 
ATOM     27  C   UNL     1       5.160  -8.211  -4.030  1.00  0.00     0.037 A 
ATOM     28  C   UNL     1       8.016  -4.308  -8.417  1.00  0.00     0.049 A 
ATOM     29  C   UNL     1       5.913  -8.473  -5.302  1.00  0.00     0.074 A 
ATOM     30  C   UNL     1       8.797  -4.682  -9.497  1.00  0.00     0.029 A 
ATOM     31  N   UNL     1       7.573  -5.479  -7.820  1.00  0.00    -0.354 N 
ATOM     32  N   UNL     1       6.495  -7.613  -6.103  1.00  0.00    -0.248 NA
ATOM     33  C   UNL     1       6.024  -9.872  -5.734  1.00  0.00     0.031 C 
ATOM     34  C   UNL     1       8.770  -6.076  -9.593  1.00  0.00     0.029 A 
ATOM     35  C   UNL     1       8.022  -6.575  -8.539  1.00  0.00     0.049 A 
ATOM     36  H   UNL     1       7.022  -5.525  -7.005  1.00  0.00     0.167 HD
ATOM     37  C   UNL     1       7.047  -8.368  -7.130  1.00  0.00     0.074 A 
ATOM     38  C   UNL     1       6.757  -9.756  -6.832  1.00  0.00     0.031 C 
ATOM     39  C   UNL     1       7.723  -7.950  -8.227  1.00  0.00     0.037 A 
BRANCH  26  40
ATOM     40  C   UNL     1       8.131  -1.830  -8.842  1.00  0.00     0.058 A 
ATOM     41  C   UNL     1       9.197  -0.996  -8.476  1.00  0.00     0.135 A 
ATOM     42  C   UNL     1       7.563  -1.645 -10.115  1.00  0.00     0.135 A 
ATOM     43  F   UNL     1       9.769  -1.119  -7.267  1.00  0.00    -0.206 F 
ATOM     44  C   UNL     1       9.688  -0.021  -9.341  1.00  0.00     0.059 A 
ATOM     45  C   UNL     1       8.052  -0.693 -11.005  1.00  0.00     0.059 A 
ATOM     46  F   UNL     1       6.539  -2.415 -10.515  1.00  0.00    -0.206 F 
ATOM     47  C   UNL     1       9.115   0.115 -10.608  1.00  0.00     0.060 A 
BRANCH  47  48
ATOM     48  S   UNL     1       9.802   1.347 -11.736  1.00  0.00     0.124 S 
ATOM     49  O   UNL     1       9.385   2.591 -11.098  1.00  0.00    -0.237 OA
ATOM     50  O   UNL     1      11.231   1.055 -11.680  1.00  0.00    -0.237 OA
ATOM     51  O   UNL     1       9.152   1.046 -13.008  1.00  0.00    -0.744 OA
ENDBRANCH  47  48
ENDBRANCH  26  40
BRANCH  27  52
ATOM     52  C   UNL     1       4.534  -9.321  -3.264  1.00  0.00     0.058 A 
ATOM     53  C   UNL     1       5.313 -10.288  -2.613  1.00  0.00     0.135 A 
ATOM     54  C   UNL     1       3.136  -9.443  -3.181  1.00  0.00     0.135 A 
ATOM     55  F   UNL     1       6.652 -10.216  -2.664  1.00  0.00    -0.206 F 
ATOM     56  C   UNL     1       4.731 -11.355  -1.936  1.00  0.00     0.059 A 
ATOM     57  C   UNL     1       2.532 -10.481  -2.481  1.00  0.00     0.059 A 
ATOM     58  F   UNL     1       2.344  -8.533  -3.769  1.00  0.00    -0.206 F 
ATOM     59  C   UNL     1       3.339 -11.444  -1.880  1.00  0.00     0.060 A 
BRANCH  59  60
ATOM     60  S   UNL     1       2.593 -12.831  -0.997  1.00  0.00     0.124 S 
ATOM     61  O   UNL     1       2.844 -13.931  -1.920  1.00  0.00    -0.237 OA
ATOM     62  O   UNL     1       3.358 -12.850   0.246  1.00  0.00    -0.237 OA
ATOM     63  O   UNL     1       1.197 -12.428  -0.858  1.00  0.00    -0.744 OA
ENDBRANCH  59  60
ENDBRANCH  27  52
BRANCH  39  64
ATOM     64  C   UNL     1       8.203  -9.004  -9.185  1.00  0.00     0.058 A 
ATOM     65  C   UNL     1       7.310  -9.691 -10.023  1.00  0.00     0.135 A 
ATOM     66  C   UNL     1       9.572  -9.285  -9.311  1.00  0.00     0.135 A 
ATOM     67  F   UNL     1       5.989  -9.469  -9.930  1.00  0.00    -0.206 F 
ATOM     68  C   UNL     1       7.758 -10.628 -10.947  1.00  0.00     0.059 A 
ATOM     69  C   UNL     1      10.045 -10.197 -10.250  1.00  0.00     0.059 A 
ATOM     70  F   UNL     1      10.467  -8.653  -8.536  1.00  0.00    -0.206 F 
ATOM     71  C   UNL     1       9.129 -10.867 -11.059  1.00  0.00     0.060 A 
BRANCH  71  72
ATOM     72  S   UNL     1       9.699 -12.041 -12.305  1.00  0.00     0.124 S 
ATOM     73  O   UNL     1       9.268 -13.312 -11.732  1.00  0.00    -0.237 OA
ATOM     74  O   UNL     1       8.976 -11.605 -13.496  1.00  0.00    -0.237 OA
ATOM     75  O   UNL     1      11.142 -11.826 -12.341  1.00  0.00    -0.744 OA
ENDBRANCH  71  72
ENDBRANCH  39  64
ENDBRANCH  13  14
ENDBRANCH   6   8
ENDBRANCH   3   4
ENDBRANCH   2   3
ENDBRANCH   1   2
BRANCH   1  76
ATOM     76  C   UNL     1       4.522   2.673   3.561  1.00  0.00     0.002 C 
BRANCH  76  77
ATOM     77  C   UNL     1       5.998   2.422   3.889  1.00  0.00     0.021 C 
BRANCH  77  78
ATOM     78  C   UNL     1       6.912   3.629   3.728  1.00  0.00     0.116 C 
BRANCH  78  79
ATOM     79  N   UNL     1       6.613   4.744   4.597  1.00  0.00    -0.352 N 
ATOM     80  C   UNL     1       7.441   5.790   4.939  1.00  0.00     0.253 C 
ATOM     81  H   UNL     1       5.711   4.758   4.991  1.00  0.00     0.163 HD
ATOM     82  O   UNL     1       6.983   6.727   5.592  1.00  0.00    -0.269 OA
BRANCH  80  83
ATOM     83  C   UNL     1       8.901   5.750   4.642  1.00  0.00     0.065 A 
ATOM     84  C   UNL     1       9.703   5.862   5.790  1.00  0.00     0.042 A 
ATOM     85  C   UNL     1       9.489   5.583   3.374  1.00  0.00     0.050 A 
ATOM     86  C   UNL     1      11.074   5.641   5.752  1.00  0.00     0.042 A 
ATOM     87  C   UNL     1      10.890   5.438   3.345  1.00  0.00     0.029 A 
ATOM     88  C   UNL     1      11.670   5.457   4.509  1.00  0.00     0.028 A 
BRANCH  85  89
ATOM     89  N   UNL     1       8.808   5.653   2.168  1.00  0.00    -0.370 N 
ATOM     90  C   UNL     1       8.970   4.609   1.148  1.00  0.00     0.116 C 
ATOM     91  C   UNL     1       7.755   6.658   2.010  1.00  0.00     0.126 C 
ATOM     92  C   UNL     1       8.906   5.183  -0.261  1.00  0.00     0.022 C 
ATOM     93  C   UNL     1       7.857   7.313   0.626  1.00  0.00     0.064 C 
ATOM     94  C   UNL     1       7.767   6.188  -0.414  1.00  0.00     0.013 C 
BRANCH  93  95
ATOM     95  C   UNL     1       9.134   8.197   0.572  1.00  0.00     0.267 C 
BRANCH  95  96
ATOM     96  N   UNL     1       9.334   9.142  -0.530  1.00  0.00    -0.335 N 
ATOM     97  C   UNL     1       8.280  10.140  -0.684  1.00  0.00     0.262 C 
ATOM     98  C   UNL     1       9.582   8.559  -1.847  1.00  0.00     0.262 C 
ATOM     99  H   UNL     1      10.193   9.591  -0.213  1.00  0.00     0.348 HD
ATOM    100  C   UNL     1       7.408   9.629  -1.812  1.00  0.00     0.067 C 
ATOM    101  C   UNL     1       8.379   8.898  -2.721  1.00  0.00     0.067 C 
ENDBRANCH  95  96
ENDBRANCH  93  95
ENDBRANCH  85  89
BRANCH  86 102
ATOM    102  N   UNL     1      11.898   5.571   6.894  1.00  0.00    -0.322 N 
ATOM    103  C   UNL     1      11.595   5.377   8.228  1.00  0.00     0.257 C 
ATOM    104  H   UNL     1      12.859   5.678   6.708  1.00  0.00     0.170 HD
ATOM    105  O   UNL     1      12.469   5.482   9.087  1.00  0.00    -0.269 OA
BRANCH 103 106
ATOM    106  C   UNL     1      10.226   5.041   8.660  1.00  0.00     0.058 A 
ATOM    107  C   UNL     1       9.552   6.003   9.427  1.00  0.00     0.015 A 
ATOM    108  C   UNL     1       9.566   3.877   8.246  1.00  0.00     0.053 A 
ATOM    109  C   UNL     1       8.193   5.843   9.698  1.00  0.00     0.001 A 
ATOM    110  C   UNL     1       8.201   3.733   8.511  1.00  0.00     0.021 A 
ATOM    111  Cl  UNL     1      10.355   2.613   7.372  1.00  0.00    -0.083 Cl
ATOM    112  C   UNL     1       7.514   4.722   9.220  1.00  0.00     0.002 A 
ENDBRANCH 103 106
ENDBRANCH  86 102
ENDBRANCH  80  83
ENDBRANCH  78  79
ENDBRANCH  77  78
ENDBRANCH  76  77
ENDBRANCH   1  76
TORSDOF 21
