REMARK SMILES CC(C)[C@H](NC(=O)[C@H](Cc1ccccc1)n1c(=O)[nH]c2ccccc2c1=O)C(=O)NCCCCCCNC(=O)c1ccc(-c2c3nc(c(-c4c(F)cc(S(=O)(=O)[O-])cc4F)c4ccc([nH]4)c(-c4c(F)cc(S(=O)(=O)[O-])cc4F)c4nc(c(-c5c(F)cc(S(=O)(=O)[O-])cc5F)c5ccc2[nH]5)C=C4)C=C3)cc1
REMARK SMILES IDX 33 1 32 2 31 3 30 4 28 5 29 6 4 8 2 9 1 10 3 11 5 12 6 13
REMARK SMILES IDX 7 15 8 16 16 17 17 18 26 19 18 20 19 21 25 22 27 23 20 24
REMARK SMILES IDX 24 26 21 27 23 28 22 29 9 30 10 31 11 32 15 33 12 34 14 35
REMARK SMILES IDX 13 36 34 37 35 38 36 39 37 40 38 41 39 43 40 44 41 45 105 46
REMARK SMILES IDX 42 47 104 48 43 49 44 50 45 51 98 52 46 53 103 54 97 55
REMARK SMILES IDX 99 56 47 57 102 58 96 59 95 60 48 62 82 63 61 64 81 65 62 66
REMARK SMILES IDX 65 67 80 68 100 69 63 70 64 71 79 73 101 74 66 75 49 76
REMARK SMILES IDX 50 77 59 78 51 79 52 80 58 81 60 82 53 83 54 84 55 85 56 86
REMARK SMILES IDX 57 87 83 88 84 89 93 90 85 91 86 92 92 93 94 94 87 95 88 96
REMARK SMILES IDX 89 97 90 98 91 99 67 100 68 101 77 102 69 103 70 104 76 105
REMARK SMILES IDX 78 106 71 107 72 108 73 109 74 110 75 111
REMARK H PARENT 30 7 5 14 19 25 37 42 99 61 65 72
REMARK Flexibility Score: inf
ROOT
ATOM      1  C   UNL     1      -6.126   5.044   3.423  1.00  0.00     0.002 C 
ENDROOT
BRANCH   1   2
ATOM      2  C   UNL     1      -4.954   5.682   2.667  1.00  0.00     0.021 C 
BRANCH   2   3
ATOM      3  C   UNL     1      -4.021   4.650   2.038  1.00  0.00     0.116 C 
BRANCH   3   4
ATOM      4  N   UNL     1      -4.596   4.114   0.830  1.00  0.00    -0.354 N 
ATOM      5  C   UNL     1      -4.263   4.368  -0.461  1.00  0.00     0.242 C 
ATOM      6  O   UNL     1      -4.945   3.824  -1.337  1.00  0.00    -0.273 OA
ATOM      7  H   UNL     1      -5.334   3.475   0.960  1.00  0.00     0.163 HD
BRANCH   5   8
ATOM      8  C   UNL     1      -3.001   5.187  -0.850  1.00  0.00     0.173 C 
BRANCH   8   9
ATOM      9  C   UNL     1      -1.690   4.404  -0.763  1.00  0.00     0.015 C 
ATOM     10  C   UNL     1      -1.830   2.882  -0.850  1.00  0.00     0.010 C 
ATOM     11  C   UNL     1      -0.712   4.888  -1.837  1.00  0.00     0.010 C 
ENDBRANCH   8   9
BRANCH   8  12
ATOM     12  N   UNL     1      -3.002   6.575  -0.332  1.00  0.00    -0.342 N 
ATOM     13  C   UNL     1      -2.463   7.404   0.584  1.00  0.00     0.244 C 
ATOM     14  H   UNL     1      -3.648   7.093  -0.864  1.00  0.00     0.164 HD
ATOM     15  O   UNL     1      -3.173   8.420   0.714  1.00  0.00    -0.273 OA
BRANCH  13  16
ATOM     16  C   UNL     1      -1.289   7.192   1.595  1.00  0.00     0.189 C 
BRANCH  16  17
ATOM     17  N   UNL     1      -0.090   6.360   1.328  1.00  0.00    -0.247 N 
ATOM     18  C   UNL     1       0.870   6.802   0.444  1.00  0.00     0.329 A 
ATOM     19  C   UNL     1       0.047   5.144   2.020  1.00  0.00     0.264 A 
ATOM     20  O   UNL     1       0.714   7.704  -0.377  1.00  0.00    -0.248 OA
ATOM     21  N   UNL     1       2.052   6.128   0.395  1.00  0.00    -0.307 N 
ATOM     22  C   UNL     1       1.189   4.281   1.638  1.00  0.00     0.064 A 
ATOM     23  O   UNL     1      -0.751   4.724   2.850  1.00  0.00    -0.268 OA
ATOM     24  C   UNL     1       2.213   4.845   0.895  1.00  0.00     0.055 A 
ATOM     25  H   UNL     1       2.829   6.572  -0.015  1.00  0.00     0.171 HD
ATOM     26  C   UNL     1       1.218   2.916   1.939  1.00  0.00     0.016 A 
ATOM     27  C   UNL     1       3.327   4.092   0.524  1.00  0.00     0.027 A 
ATOM     28  C   UNL     1       2.296   2.137   1.507  1.00  0.00     0.001 A 
ATOM     29  C   UNL     1       3.359   2.729   0.823  1.00  0.00     0.002 A 
ENDBRANCH  16  17
BRANCH  16  30
ATOM     30  C   UNL     1      -0.951   8.526   2.356  1.00  0.00     0.071 C 
BRANCH  30  31
ATOM     31  C   UNL     1      -0.381   9.755   1.669  1.00  0.00    -0.045 A 
ATOM     32  C   UNL     1      -0.494  10.018   0.300  1.00  0.00     0.004 A 
ATOM     33  C   UNL     1       0.251  10.727   2.462  1.00  0.00     0.004 A 
ATOM     34  C   UNL     1       0.124  11.127  -0.283  1.00  0.00     0.000 A 
ATOM     35  C   UNL     1       0.833  11.863   1.889  1.00  0.00     0.000 A 
ATOM     36  C   UNL     1       0.796  12.047   0.510  1.00  0.00     0.000 A 
ENDBRANCH  30  31
ENDBRANCH  16  30
ENDBRANCH  13  16
ENDBRANCH   8  12
ENDBRANCH   5   8
ENDBRANCH   3   4
ENDBRANCH   2   3
ENDBRANCH   1   2
BRANCH   1  37
ATOM     37  C   UNL     1      -5.714   4.206   4.639  1.00  0.00     0.002 C 
BRANCH  37  38
ATOM     38  C   UNL     1      -4.922   4.965   5.708  1.00  0.00     0.021 C 
BRANCH  38  39
ATOM     39  C   UNL     1      -5.648   6.173   6.296  1.00  0.00     0.116 C 
BRANCH  39  40
ATOM     40  N   UNL     1      -6.918   5.796   6.898  1.00  0.00    -0.352 N 
ATOM     41  C   UNL     1      -7.388   6.024   8.164  1.00  0.00     0.251 C 
ATOM     42  H   UNL     1      -7.531   5.304   6.306  1.00  0.00     0.163 HD
ATOM     43  O   UNL     1      -8.384   5.425   8.560  1.00  0.00    -0.269 OA
BRANCH  41  44
ATOM     44  C   UNL     1      -6.699   6.984   9.052  1.00  0.00     0.039 A 
ATOM     45  C   UNL     1      -6.530   6.654  10.399  1.00  0.00     0.014 A 
ATOM     46  C   UNL     1      -6.258   8.221   8.570  1.00  0.00     0.014 A 
ATOM     47  C   UNL     1      -5.885   7.548  11.254  1.00  0.00     0.010 A 
ATOM     48  C   UNL     1      -5.558   9.084   9.410  1.00  0.00     0.010 A 
ATOM     49  C   UNL     1      -5.374   8.761  10.762  1.00  0.00    -0.014 A 
BRANCH  49  50
ATOM     50  C   UNL     1      -4.651   9.698  11.656  1.00  0.00     0.031 A 
ATOM     51  C   UNL     1      -5.232  11.051  11.967  1.00  0.00     0.074 A 
ATOM     52  C   UNL     1      -3.448   9.345  12.150  1.00  0.00     0.049 A 
ATOM     53  N   UNL     1      -4.737  12.011  12.706  1.00  0.00    -0.248 NA
ATOM     54  C   UNL     1      -6.527  11.379  11.348  1.00  0.00     0.031 C 
ATOM     55  C   UNL     1      -2.757   8.084  11.869  1.00  0.00     0.029 A 
ATOM     56  N   UNL     1      -2.590  10.014  12.985  1.00  0.00    -0.354 N 
ATOM     57  C   UNL     1      -5.648  13.057  12.631  1.00  0.00     0.074 A 
ATOM     58  C   UNL     1      -6.704  12.634  11.737  1.00  0.00     0.031 C 
ATOM     59  C   UNL     1      -1.593   8.062  12.537  1.00  0.00     0.029 A 
ATOM     60  C   UNL     1      -1.441   9.315  13.270  1.00  0.00     0.049 A 
ATOM     61  H   UNL     1      -2.779  10.910  13.346  1.00  0.00     0.167 HD
ATOM     62  C   UNL     1      -5.619  14.253  13.267  1.00  0.00     0.037 A 
ATOM     63  C   UNL     1      -0.384   9.648  14.035  1.00  0.00     0.037 A 
ATOM     64  C   UNL     1      -4.580  14.654  14.179  1.00  0.00     0.049 A 
ATOM     65  C   UNL     1      -0.390  10.968  14.755  1.00  0.00     0.074 A 
ATOM     66  C   UNL     1      -4.491  15.816  14.927  1.00  0.00     0.029 A 
ATOM     67  N   UNL     1      -3.448  13.906  14.469  1.00  0.00    -0.354 N 
ATOM     68  N   UNL     1      -1.296  11.916  14.730  1.00  0.00    -0.248 NA
ATOM     69  C   UNL     1       0.763  11.259  15.617  1.00  0.00     0.031 C 
ATOM     70  C   UNL     1      -3.288  15.786  15.640  1.00  0.00     0.029 A 
ATOM     71  C   UNL     1      -2.647  14.587  15.371  1.00  0.00     0.049 A 
ATOM     72  H   UNL     1      -3.244  13.021  14.089  1.00  0.00     0.167 HD
ATOM     73  C   UNL     1      -0.834  12.907  15.588  1.00  0.00     0.074 A 
ATOM     74  C   UNL     1       0.425  12.435  16.130  1.00  0.00     0.031 C 
ATOM     75  C   UNL     1      -1.398  14.100  15.900  1.00  0.00     0.037 A 
BRANCH  62  76
ATOM     76  C   UNL     1      -6.749  15.211  13.008  1.00  0.00     0.058 A 
ATOM     77  C   UNL     1      -8.041  14.978  13.508  1.00  0.00     0.135 A 
ATOM     78  C   UNL     1      -6.531  16.396  12.287  1.00  0.00     0.135 A 
ATOM     79  F   UNL     1      -8.309  13.854  14.191  1.00  0.00    -0.206 F 
ATOM     80  C   UNL     1      -9.081  15.873  13.282  1.00  0.00     0.059 A 
ATOM     81  C   UNL     1      -7.551  17.318  12.070  1.00  0.00     0.059 A 
ATOM     82  F   UNL     1      -5.316  16.668  11.785  1.00  0.00    -0.206 F 
ATOM     83  C   UNL     1      -8.827  17.041  12.562  1.00  0.00     0.060 A 
BRANCH  83  84
ATOM     84  S   UNL     1     -10.184  18.201  12.290  1.00  0.00     0.124 S 
ATOM     85  O   UNL     1     -10.964  17.502  11.274  1.00  0.00    -0.237 OA
ATOM     86  O   UNL     1     -10.796  18.282  13.613  1.00  0.00    -0.237 OA
ATOM     87  O   UNL     1      -9.510  19.414  11.840  1.00  0.00    -0.744 OA
ENDBRANCH  83  84
ENDBRANCH  62  76
BRANCH  63  88
ATOM     88  C   UNL     1       0.753   8.701  14.181  1.00  0.00     0.058 A 
ATOM     89  C   UNL     1       0.972   8.016  15.386  1.00  0.00     0.135 A 
ATOM     90  C   UNL     1       1.632   8.452  13.117  1.00  0.00     0.135 A 
ATOM     91  F   UNL     1       0.160   8.224  16.433  1.00  0.00    -0.206 F 
ATOM     92  C   UNL     1       2.034   7.131  15.537  1.00  0.00     0.059 A 
ATOM     93  C   UNL     1       2.688   7.553  13.237  1.00  0.00     0.059 A 
ATOM     94  F   UNL     1       1.454   9.067  11.938  1.00  0.00    -0.206 F 
ATOM     95  C   UNL     1       2.887   6.906  14.456  1.00  0.00     0.060 A 
BRANCH  95  96
ATOM     96  S   UNL     1       4.237   5.721  14.646  1.00  0.00     0.124 S 
ATOM     97  O   UNL     1       5.184   6.482  15.452  1.00  0.00    -0.237 OA
ATOM     98  O   UNL     1       3.577   4.606  15.318  1.00  0.00    -0.237 OA
ATOM     99  O   UNL     1       4.647   5.457  13.269  1.00  0.00    -0.744 OA
ENDBRANCH  95  96
ENDBRANCH  63  88
BRANCH  75 100
ATOM    100  C   UNL     1      -0.670  14.965  16.891  1.00  0.00     0.058 A 
ATOM    101  C   UNL     1       0.508  15.646  16.547  1.00  0.00     0.135 A 
ATOM    102  C   UNL     1      -1.177  15.140  18.189  1.00  0.00     0.135 A 
ATOM    103  F   UNL     1       1.036  15.507  15.321  1.00  0.00    -0.206 F 
ATOM    104  C   UNL     1       1.177  16.447  17.467  1.00  0.00     0.059 A 
ATOM    105  C   UNL     1      -0.538  15.957  19.116  1.00  0.00     0.059 A 
ATOM    106  F   UNL     1      -2.307  14.520  18.563  1.00  0.00    -0.206 F 
ATOM    107  C   UNL     1       0.647  16.594  18.750  1.00  0.00     0.060 A 
BRANCH 107 108
ATOM    108  S   UNL     1       1.515  17.649  19.931  1.00  0.00     0.124 S 
ATOM    109  O   UNL     1       2.632  16.795  20.320  1.00  0.00    -0.237 OA
ATOM    110  O   UNL     1       1.859  18.812  19.119  1.00  0.00    -0.237 OA
ATOM    111  O   UNL     1       0.516  17.890  20.968  1.00  0.00    -0.744 OA
ENDBRANCH 107 108
ENDBRANCH  75 100
ENDBRANCH  49  50
ENDBRANCH  41  44
ENDBRANCH  39  40
ENDBRANCH  38  39
ENDBRANCH  37  38
ENDBRANCH   1  37
TORSDOF 22
