REMARK SMILES COc1cc(NC(=O)[C@@H]2CC=CC[C@H]2C(=O)NCCCCCCNC(=O)c2ccc(-c3c4nc(c(-c5c(F)cc(S(=O)(=O)[O-])cc5F)c5ccc([nH]5)c(-c5c(F)cc(S(=O)(=O)[O-])cc5F)c5nc(c(-c6c(F)cc(S(=O)(=O)[O-])cc6F)c6ccc3[nH]6)C=C5)C=C4)cc2)c(OC)cc1Cl
REMARK SMILES IDX 20 1 19 2 18 3 17 4 15 5 16 6 14 8 9 9 10 10 11 11 13 12
REMARK SMILES IDX 12 13 7 14 6 15 8 17 5 18 3 19 4 20 97 21 96 22 98 23 93 24
REMARK SMILES IDX 2 25 1 26 94 27 95 28 21 29 22 30 23 31 24 32 25 33 26 35
REMARK SMILES IDX 27 36 28 37 92 38 29 39 91 40 30 41 31 42 32 43 85 44 33 45
REMARK SMILES IDX 90 46 84 47 86 48 34 49 89 50 83 51 82 52 35 54 69 55 48 56
REMARK SMILES IDX 68 57 49 58 52 59 67 60 87 61 50 62 51 63 66 65 88 66 53 67
REMARK SMILES IDX 36 68 37 69 46 70 38 71 39 72 45 73 47 74 40 75 41 76 42 77
REMARK SMILES IDX 43 78 44 79 70 80 71 81 80 82 72 83 73 84 79 85 81 86 74 87
REMARK SMILES IDX 75 88 76 89 77 90 78 91 54 92 55 93 64 94 56 95 57 96 63 97
REMARK SMILES IDX 65 98 58 99 59 100 60 101 61 102 62 103
REMARK H PARENT 17 7 6 16 24 34 86 53 52 64
REMARK Flexibility Score: inf
ROOT
ATOM      1  C   UNL     1      -0.619   7.758  -3.903  1.00  0.00     0.002 C 
ENDROOT
BRANCH   1   2
ATOM      2  C   UNL     1      -0.507   6.281  -3.504  1.00  0.00     0.021 C 
BRANCH   2   3
ATOM      3  C   UNL     1      -1.137   5.984  -2.147  1.00  0.00     0.116 C 
BRANCH   3   4
ATOM      4  N   UNL     1      -2.569   6.173  -2.236  1.00  0.00    -0.356 N 
ATOM      5  C   UNL     1      -3.566   5.257  -2.246  1.00  0.00     0.224 C 
ATOM      6  O   UNL     1      -4.701   5.645  -2.534  1.00  0.00    -0.275 OA
ATOM      7  H   UNL     1      -2.863   7.111  -2.298  1.00  0.00     0.163 HD
BRANCH   5   8
ATOM      8  C   UNL     1      -3.327   3.819  -1.805  1.00  0.00     0.095 C 
ATOM      9  C   UNL     1      -2.433   2.989  -2.752  1.00  0.00     0.095 C 
ATOM     10  C   UNL     1      -1.512   1.913  -2.143  1.00  0.00     0.041 C 
ATOM     11  C   UNL     1      -1.321   1.954  -0.666  1.00  0.00    -0.030 C 
ATOM     12  C   UNL     1      -2.916   3.850  -0.312  1.00  0.00     0.041 C 
ATOM     13  C   UNL     1      -1.946   2.810   0.146  1.00  0.00    -0.030 C 
BRANCH   9  14
ATOM     14  C   UNL     1      -3.173   2.365  -3.934  1.00  0.00     0.228 C 
ATOM     15  N   UNL     1      -4.012   1.297  -3.876  1.00  0.00    -0.323 N 
ATOM     16  H   UNL     1      -4.159   0.909  -4.769  1.00  0.00     0.170 HD
ATOM     17  O   UNL     1      -2.937   2.811  -5.068  1.00  0.00    -0.274 OA
BRANCH  15  18
ATOM     18  C   UNL     1      -4.729   0.592  -2.886  1.00  0.00     0.087 A 
ATOM     19  C   UNL     1      -5.739   0.404  -0.689  1.00  0.00     0.139 A 
ATOM     20  C   UNL     1      -4.767   0.928  -1.540  1.00  0.00     0.078 A 
ATOM     21  C   UNL     1      -6.608  -0.577  -1.148  1.00  0.00     0.086 A 
ATOM     22  C   UNL     1      -6.488  -1.045  -2.457  1.00  0.00     0.073 A 
ATOM     23  Cl  UNL     1      -7.847  -1.221  -0.138  1.00  0.00    -0.080 Cl
ATOM     24  C   UNL     1      -5.562  -0.458  -3.330  1.00  0.00     0.144 A 
BRANCH  19  25
ATOM     25  O   UNL     1      -5.940   1.037   0.510  1.00  0.00    -0.495 OA
ATOM     26  C   UNL     1      -5.078   0.552   1.533  1.00  0.00     0.278 C 
ENDBRANCH  19  25
BRANCH  24  27
ATOM     27  O   UNL     1      -5.426  -0.807  -4.655  1.00  0.00    -0.495 OA
ATOM     28  C   UNL     1      -5.952  -2.076  -5.031  1.00  0.00     0.278 C 
ENDBRANCH  24  27
ENDBRANCH  15  18
ENDBRANCH   9  14
ENDBRANCH   5   8
ENDBRANCH   3   4
ENDBRANCH   2   3
ENDBRANCH   1   2
BRANCH   1  29
ATOM     29  C   UNL     1      -0.038   8.734  -2.875  1.00  0.00     0.002 C 
BRANCH  29  30
ATOM     30  C   UNL     1       1.400   8.421  -2.455  1.00  0.00     0.021 C 
BRANCH  30  31
ATOM     31  C   UNL     1       2.378   8.345  -3.619  1.00  0.00     0.116 C 
BRANCH  31  32
ATOM     32  N   UNL     1       2.463   9.611  -4.327  1.00  0.00    -0.352 N 
ATOM     33  C   UNL     1       3.574  10.364  -4.603  1.00  0.00     0.251 C 
ATOM     34  H   UNL     1       1.609   9.977  -4.652  1.00  0.00     0.163 HD
ATOM     35  O   UNL     1       3.455  11.522  -4.996  1.00  0.00    -0.269 OA
BRANCH  33  36
ATOM     36  C   UNL     1       4.912   9.773  -4.404  1.00  0.00     0.039 A 
ATOM     37  C   UNL     1       5.893  10.520  -3.752  1.00  0.00     0.014 A 
ATOM     38  C   UNL     1       5.188   8.476  -4.850  1.00  0.00     0.014 A 
ATOM     39  C   UNL     1       7.140   9.947  -3.503  1.00  0.00     0.010 A 
ATOM     40  C   UNL     1       6.402   7.879  -4.530  1.00  0.00     0.010 A 
ATOM     41  C   UNL     1       7.394   8.611  -3.861  1.00  0.00    -0.014 A 
BRANCH  41  42
ATOM     42  C   UNL     1       8.694   7.968  -3.546  1.00  0.00     0.031 A 
ATOM     43  C   UNL     1       9.591   7.493  -4.657  1.00  0.00     0.074 A 
ATOM     44  C   UNL     1       9.040   7.767  -2.259  1.00  0.00     0.049 A 
ATOM     45  N   UNL     1      10.736   6.867  -4.582  1.00  0.00    -0.248 NA
ATOM     46  C   UNL     1       9.127   7.730  -6.035  1.00  0.00     0.031 C 
ATOM     47  C   UNL     1       8.230   8.141  -1.097  1.00  0.00     0.029 A 
ATOM     48  N   UNL     1      10.159   7.193  -1.710  1.00  0.00    -0.354 N 
ATOM     49  C   UNL     1      11.126   6.629  -5.894  1.00  0.00     0.074 A 
ATOM     50  C   UNL     1      10.067   7.124  -6.746  1.00  0.00     0.031 C 
ATOM     51  C   UNL     1       8.890   7.810   0.025  1.00  0.00     0.029 A 
ATOM     52  C   UNL     1      10.147   7.163  -0.335  1.00  0.00     0.049 A 
ATOM     53  H   UNL     1      10.901   6.835  -2.250  1.00  0.00     0.167 HD
ATOM     54  C   UNL     1      12.273   6.071  -6.348  1.00  0.00     0.037 A 
ATOM     55  C   UNL     1      11.043   6.661   0.537  1.00  0.00     0.037 A 
ATOM     56  C   UNL     1      13.330   5.598  -5.492  1.00  0.00     0.049 A 
ATOM     57  C   UNL     1      12.304   6.033   0.006  1.00  0.00     0.074 A 
ATOM     58  C   UNL     1      14.556   5.066  -5.853  1.00  0.00     0.029 A 
ATOM     59  N   UNL     1      13.287   5.595  -4.105  1.00  0.00    -0.354 N 
ATOM     60  N   UNL     1      12.687   5.877  -1.239  1.00  0.00    -0.248 NA
ATOM     61  C   UNL     1      13.259   5.519   0.998  1.00  0.00     0.031 C 
ATOM     62  C   UNL     1      15.230   4.691  -4.687  1.00  0.00     0.029 A 
ATOM     63  C   UNL     1      14.453   5.047  -3.596  1.00  0.00     0.049 A 
ATOM     64  H   UNL     1      12.538   5.934  -3.563  1.00  0.00     0.167 HD
ATOM     65  C   UNL     1      13.939   5.275  -1.179  1.00  0.00     0.074 A 
ATOM     66  C   UNL     1      14.255   5.109   0.225  1.00  0.00     0.031 C 
ATOM     67  C   UNL     1      14.755   4.895  -2.194  1.00  0.00     0.037 A 
BRANCH  54  68
ATOM     68  C   UNL     1      12.450   5.943  -7.838  1.00  0.00     0.058 A 
ATOM     69  C   UNL     1      12.637   7.068  -8.659  1.00  0.00     0.135 A 
ATOM     70  C   UNL     1      12.480   4.678  -8.448  1.00  0.00     0.135 A 
ATOM     71  F   UNL     1      12.602   8.303  -8.133  1.00  0.00    -0.206 F 
ATOM     72  C   UNL     1      12.822   6.945 -10.032  1.00  0.00     0.059 A 
ATOM     73  C   UNL     1      12.695   4.530  -9.815  1.00  0.00     0.059 A 
ATOM     74  F   UNL     1      12.305   3.569  -7.712  1.00  0.00    -0.206 F 
ATOM     75  C   UNL     1      12.853   5.670 -10.601  1.00  0.00     0.060 A 
BRANCH  75  76
ATOM     76  S   UNL     1      13.112   5.529 -12.381  1.00  0.00     0.124 S 
ATOM     77  O   UNL     1      11.841   6.025 -12.901  1.00  0.00    -0.237 OA
ATOM     78  O   UNL     1      14.266   6.396 -12.597  1.00  0.00    -0.237 OA
ATOM     79  O   UNL     1      13.356   4.104 -12.579  1.00  0.00    -0.744 OA
ENDBRANCH  75  76
ENDBRANCH  54  68
BRANCH  55  80
ATOM     80  C   UNL     1      10.787   6.744   2.001  1.00  0.00     0.058 A 
ATOM     81  C   UNL     1      11.566   7.567   2.827  1.00  0.00     0.135 A 
ATOM     82  C   UNL     1       9.758   6.003   2.602  1.00  0.00     0.135 A 
ATOM     83  F   UNL     1      12.565   8.292   2.301  1.00  0.00    -0.206 F 
ATOM     84  C   UNL     1      11.351   7.636   4.200  1.00  0.00     0.059 A 
ATOM     85  C   UNL     1       9.504   6.077   3.968  1.00  0.00     0.059 A 
ATOM     86  F   UNL     1       8.971   5.213   1.855  1.00  0.00    -0.206 F 
ATOM     87  C   UNL     1      10.315   6.887   4.761  1.00  0.00     0.060 A 
BRANCH  87  88
ATOM     88  S   UNL     1      10.021   7.010   6.539  1.00  0.00     0.124 S 
ATOM     89  O   UNL     1      11.167   6.286   7.076  1.00  0.00    -0.237 OA
ATOM     90  O   UNL     1      10.021   8.454   6.749  1.00  0.00    -0.237 OA
ATOM     91  O   UNL     1       8.726   6.359   6.710  1.00  0.00    -0.744 OA
ENDBRANCH  87  88
ENDBRANCH  55  80
BRANCH  67  92
ATOM     92  C   UNL     1      16.086   4.296  -1.828  1.00  0.00     0.058 A 
ATOM     93  C   UNL     1      16.193   3.013  -1.268  1.00  0.00     0.135 A 
ATOM     94  C   UNL     1      17.275   4.998  -2.089  1.00  0.00     0.135 A 
ATOM     95  F   UNL     1      15.088   2.301  -0.992  1.00  0.00    -0.206 F 
ATOM     96  C   UNL     1      17.429   2.458  -0.956  1.00  0.00     0.059 A 
ATOM     97  C   UNL     1      18.523   4.449  -1.815  1.00  0.00     0.059 A 
ATOM     98  F   UNL     1      17.231   6.224  -2.633  1.00  0.00    -0.206 F 
ATOM     99  C   UNL     1      18.590   3.182  -1.237  1.00  0.00     0.060 A 
BRANCH  99 100
ATOM    100  S   UNL     1      20.188   2.435  -0.857  1.00  0.00     0.124 S 
ATOM    101  O   UNL     1      20.208   2.508   0.600  1.00  0.00    -0.237 OA
ATOM    102  O   UNL     1      20.048   1.097  -1.423  1.00  0.00    -0.237 OA
ATOM    103  O   UNL     1      21.141   3.303  -1.542  1.00  0.00    -0.744 OA
ENDBRANCH  99 100
ENDBRANCH  67  92
ENDBRANCH  41  42
ENDBRANCH  33  36
ENDBRANCH  31  32
ENDBRANCH  30  31
ENDBRANCH  29  30
ENDBRANCH   1  29
TORSDOF 20
