REMARK SMILES CCCCNC(=O)COc1ccc(Cl)cc1C(=O)NCCCCCCNC(=O)c1ccc(-c2c3nc(c(-c4c(F)cc(S(=O)(=O)[O-])cc4F)c4ccc([nH]4)c(-c4c(F)cc(S(=O)(=O)[O-])cc4F)c4nc(c(-c5c(F)cc(S(=O)(=O)[O-])cc5F)c5ccc2[nH]5)C=C4)C=C3)cc1
REMARK SMILES IDX 21 1 20 2 19 3 17 4 18 5 16 7 10 8 11 9 12 10 15 11 13 12
REMARK SMILES IDX 14 13 9 14 8 15 6 16 5 17 7 19 4 20 3 21 2 22 1 23 22 24
REMARK SMILES IDX 23 25 24 26 25 27 26 28 27 29 28 31 29 32 30 33 94 34 31 35
REMARK SMILES IDX 93 36 32 37 33 38 34 39 87 40 35 41 92 42 86 43 88 44 36 45
REMARK SMILES IDX 91 46 85 47 84 48 37 50 71 51 50 52 70 53 51 54 54 55 69 56
REMARK SMILES IDX 89 57 52 58 53 59 68 61 90 62 55 63 38 64 39 65 48 66 40 67
REMARK SMILES IDX 41 68 47 69 49 70 42 71 43 72 44 73 45 74 46 75 72 76 73 77
REMARK SMILES IDX 82 78 74 79 75 80 81 81 83 82 76 83 77 84 78 85 79 86 80 87
REMARK SMILES IDX 56 88 57 89 66 90 58 91 59 92 65 93 67 94 60 95 61 96 62 97
REMARK SMILES IDX 63 98 64 99
REMARK H PARENT 19 6 5 18 26 30 88 49 54 60
REMARK Flexibility Score: inf
ROOT
ATOM      1  C   UNL     1       1.241   5.661   4.215  1.00  0.00     0.021 C 
ENDROOT
BRANCH   1   2
ATOM      2  C   UNL     1       1.784   4.434   4.957  1.00  0.00     0.116 C 
BRANCH   2   3
ATOM      3  N   UNL     1       1.418   4.516   6.353  1.00  0.00    -0.352 N 
ATOM      4  C   UNL     1       0.393   3.997   7.091  1.00  0.00     0.255 C 
ATOM      5  O   UNL     1       0.349   4.381   8.267  1.00  0.00    -0.269 OA
ATOM      6  H   UNL     1       2.040   5.064   6.884  1.00  0.00     0.163 HD
BRANCH   4   7
ATOM      7  C   UNL     1      -0.613   2.975   6.652  1.00  0.00     0.083 A 
ATOM      8  C   UNL     1      -1.192   2.783   5.382  1.00  0.00     0.132 A 
ATOM      9  C   UNL     1      -2.154   1.768   5.212  1.00  0.00     0.049 A 
ATOM     10  C   UNL     1      -2.591   0.990   6.284  1.00  0.00     0.024 A 
ATOM     11  C   UNL     1      -1.079   2.175   7.724  1.00  0.00     0.038 A 
ATOM     12  C   UNL     1      -2.058   1.205   7.542  1.00  0.00     0.042 A 
ATOM     13  Cl  UNL     1      -2.610   0.275   8.878  1.00  0.00    -0.084 Cl
BRANCH   8  14
ATOM     14  O   UNL     1      -0.793   3.540   4.319  1.00  0.00    -0.483 OA
BRANCH  14  15
ATOM     15  C   UNL     1      -1.762   3.910   3.350  1.00  0.00     0.329 C 
BRANCH  15  16
ATOM     16  C   UNL     1      -2.128   2.936   2.221  1.00  0.00     0.257 C 
ATOM     17  N   UNL     1      -1.165   2.337   1.469  1.00  0.00    -0.353 N 
ATOM     18  H   UNL     1      -1.502   1.783   0.728  1.00  0.00     0.163 HD
ATOM     19  O   UNL     1      -3.309   2.703   1.954  1.00  0.00    -0.271 OA
BRANCH  17  20
ATOM     20  C   UNL     1       0.279   2.386   1.587  1.00  0.00     0.116 C 
BRANCH  20  21
ATOM     21  C   UNL     1       0.856   1.079   2.136  1.00  0.00     0.021 C 
BRANCH  21  22
ATOM     22  C   UNL     1       0.541  -0.171   1.303  1.00  0.00    -0.002 C 
ATOM     23  C   UNL     1       1.064  -0.108  -0.124  1.00  0.00     0.004 C 
ENDBRANCH  21  22
ENDBRANCH  20  21
ENDBRANCH  17  20
ENDBRANCH  15  16
ENDBRANCH  14  15
ENDBRANCH   8  14
ENDBRANCH   4   7
ENDBRANCH   2   3
ENDBRANCH   1   2
BRANCH   1  24
ATOM     24  C   UNL     1       2.229   6.832   4.168  1.00  0.00     0.002 C 
BRANCH  24  25
ATOM     25  C   UNL     1       3.455   6.585   3.281  1.00  0.00     0.002 C 
BRANCH  25  26
ATOM     26  C   UNL     1       3.142   6.220   1.827  1.00  0.00     0.021 C 
BRANCH  26  27
ATOM     27  C   UNL     1       2.349   7.281   1.069  1.00  0.00     0.116 C 
BRANCH  27  28
ATOM     28  N   UNL     1       3.118   8.508   0.916  1.00  0.00    -0.352 N 
ATOM     29  C   UNL     1       3.584   9.092  -0.233  1.00  0.00     0.251 C 
ATOM     30  H   UNL     1       3.332   8.983   1.752  1.00  0.00     0.163 HD
ATOM     31  O   UNL     1       4.449   9.969  -0.175  1.00  0.00    -0.269 OA
BRANCH  29  32
ATOM     32  C   UNL     1       3.048   8.663  -1.540  1.00  0.00     0.039 A 
ATOM     33  C   UNL     1       3.927   8.413  -2.597  1.00  0.00     0.014 A 
ATOM     34  C   UNL     1       1.669   8.514  -1.716  1.00  0.00     0.014 A 
ATOM     35  C   UNL     1       3.425   7.955  -3.817  1.00  0.00     0.010 A 
ATOM     36  C   UNL     1       1.179   7.993  -2.908  1.00  0.00     0.010 A 
ATOM     37  C   UNL     1       2.050   7.711  -3.972  1.00  0.00    -0.014 A 
BRANCH  37  38
ATOM     38  C   UNL     1       1.486   7.173  -5.236  1.00  0.00     0.031 A 
ATOM     39  C   UNL     1       0.514   8.002  -6.030  1.00  0.00     0.074 A 
ATOM     40  C   UNL     1       1.774   5.912  -5.614  1.00  0.00     0.049 A 
ATOM     41  N   UNL     1      -0.201   7.665  -7.071  1.00  0.00    -0.248 NA
ATOM     42  C   UNL     1       0.297   9.384  -5.572  1.00  0.00     0.031 C 
ATOM     43  C   UNL     1       2.679   5.001  -4.910  1.00  0.00     0.029 A 
ATOM     44  N   UNL     1       1.316   5.169  -6.674  1.00  0.00    -0.354 N 
ATOM     45  C   UNL     1      -0.967   8.783  -7.381  1.00  0.00     0.074 A 
ATOM     46  C   UNL     1      -0.664   9.791  -6.389  1.00  0.00     0.031 C 
ATOM     47  C   UNL     1       2.715   3.827  -5.560  1.00  0.00     0.029 A 
ATOM     48  C   UNL     1       1.803   3.883  -6.698  1.00  0.00     0.049 A 
ATOM     49  H   UNL     1       0.697   5.523  -7.352  1.00  0.00     0.167 HD
ATOM     50  C   UNL     1      -1.830   8.958  -8.410  1.00  0.00     0.037 A 
ATOM     51  C   UNL     1       1.530   2.859  -7.531  1.00  0.00     0.037 A 
ATOM     52  C   UNL     1      -2.105   7.956  -9.406  1.00  0.00     0.049 A 
ATOM     53  C   UNL     1       0.555   3.071  -8.658  1.00  0.00     0.074 A 
ATOM     54  C   UNL     1      -2.923   8.052 -10.518  1.00  0.00     0.029 A 
ATOM     55  N   UNL     1      -1.570   6.676  -9.411  1.00  0.00    -0.354 N 
ATOM     56  N   UNL     1      -0.124   4.150  -8.966  1.00  0.00    -0.248 NA
ATOM     57  C   UNL     1       0.308   1.931  -9.552  1.00  0.00     0.031 C 
ATOM     58  C   UNL     1      -2.918   6.815 -11.170  1.00  0.00     0.029 A 
ATOM     59  C   UNL     1      -2.055   5.965 -10.496  1.00  0.00     0.049 A 
ATOM     60  H   UNL     1      -0.938   6.325  -8.742  1.00  0.00     0.167 HD
ATOM     61  C   UNL     1      -0.851   3.830 -10.107  1.00  0.00     0.074 A 
ATOM     62  C   UNL     1      -0.528   2.457 -10.437  1.00  0.00     0.031 C 
ATOM     63  C   UNL     1      -1.706   4.604 -10.820  1.00  0.00     0.037 A 
BRANCH  50  64
ATOM     64  C   UNL     1      -2.539  10.281  -8.511  1.00  0.00     0.058 A 
ATOM     65  C   UNL     1      -1.857  11.459  -8.855  1.00  0.00     0.135 A 
ATOM     66  C   UNL     1      -3.924  10.367  -8.297  1.00  0.00     0.135 A 
ATOM     67  F   UNL     1      -0.530  11.438  -9.057  1.00  0.00    -0.206 F 
ATOM     68  C   UNL     1      -2.516  12.680  -8.952  1.00  0.00     0.059 A 
ATOM     69  C   UNL     1      -4.610  11.573  -8.418  1.00  0.00     0.059 A 
ATOM     70  F   UNL     1      -4.627   9.272  -7.965  1.00  0.00    -0.206 F 
ATOM     71  C   UNL     1      -3.893  12.727  -8.731  1.00  0.00     0.060 A 
BRANCH  71  72
ATOM     72  S   UNL     1      -4.733  14.319  -8.864  1.00  0.00     0.124 S 
ATOM     73  O   UNL     1      -4.274  14.991  -7.652  1.00  0.00    -0.237 OA
ATOM     74  O   UNL     1      -4.206  14.846 -10.118  1.00  0.00    -0.237 OA
ATOM     75  O   UNL     1      -6.147  13.958  -8.884  1.00  0.00    -0.744 OA
ENDBRANCH  71  72
ENDBRANCH  50  64
BRANCH  51  76
ATOM     76  C   UNL     1       2.199   1.545  -7.336  1.00  0.00     0.058 A 
ATOM     77  C   UNL     1       3.165   1.086  -8.244  1.00  0.00     0.135 A 
ATOM     78  C   UNL     1       1.899   0.728  -6.234  1.00  0.00     0.135 A 
ATOM     79  F   UNL     1       3.482   1.828  -9.316  1.00  0.00    -0.206 F 
ATOM     80  C   UNL     1       3.800  -0.140  -8.077  1.00  0.00     0.059 A 
ATOM     81  C   UNL     1       2.539  -0.490  -6.031  1.00  0.00     0.059 A 
ATOM     82  F   UNL     1       0.997   1.129  -5.325  1.00  0.00    -0.206 F 
ATOM     83  C   UNL     1       3.481  -0.921  -6.964  1.00  0.00     0.060 A 
BRANCH  83  84
ATOM     84  S   UNL     1       4.346  -2.489  -6.730  1.00  0.00     0.124 S 
ATOM     85  O   UNL     1       3.740  -3.316  -7.766  1.00  0.00    -0.237 OA
ATOM     86  O   UNL     1       5.737  -2.106  -6.949  1.00  0.00    -0.237 OA
ATOM     87  O   UNL     1       4.013  -2.851  -5.355  1.00  0.00    -0.744 OA
ENDBRANCH  83  84
ENDBRANCH  51  76
BRANCH  63  88
ATOM     88  C   UNL     1      -2.320   4.013 -12.059  1.00  0.00     0.058 A 
ATOM     89  C   UNL     1      -3.347   3.060 -11.992  1.00  0.00     0.135 A 
ATOM     90  C   UNL     1      -1.936   4.479 -13.327  1.00  0.00     0.135 A 
ATOM     91  F   UNL     1      -3.744   2.576 -10.804  1.00  0.00    -0.206 F 
ATOM     92  C   UNL     1      -3.969   2.583 -13.141  1.00  0.00     0.059 A 
ATOM     93  C   UNL     1      -2.563   4.036 -14.487  1.00  0.00     0.059 A 
ATOM     94  F   UNL     1      -0.964   5.397 -13.444  1.00  0.00    -0.206 F 
ATOM     95  C   UNL     1      -3.576   3.085 -14.384  1.00  0.00     0.060 A 
BRANCH  95  96
ATOM     96  S   UNL     1      -4.440   2.510 -15.861  1.00  0.00     0.124 S 
ATOM     97  O   UNL     1      -3.921   1.153 -15.996  1.00  0.00    -0.237 OA
ATOM     98  O   UNL     1      -5.841   2.616 -15.464  1.00  0.00    -0.237 OA
ATOM     99  O   UNL     1      -4.015   3.451 -16.893  1.00  0.00    -0.744 OA
ENDBRANCH  95  96
ENDBRANCH  63  88
ENDBRANCH  37  38
ENDBRANCH  29  32
ENDBRANCH  27  28
ENDBRANCH  26  27
ENDBRANCH  25  26
ENDBRANCH  24  25
ENDBRANCH   1  24
TORSDOF 22
