REMARK SMILES C=CCN(CC(=O)NCCCCCCNC(=O)c1ccc(-c2c3nc(c(-c4c(F)cc(S(=O)(=O)[O-])cc4F)c4ccc([nH]4)c(-c4c(F)cc(S(=O)(=O)[O-])cc4F)c4nc(c(-c5c(F)cc(S(=O)(=O)[O-])cc5F)c5ccc2[nH]5)C=C4)C=C3)cc1)c1ccc([N+](=O)[O-])cc1Br
REMARK SMILES IDX 11 1 10 2 9 3 8 4 6 5 7 6 5 8 4 9 3 10 2 11 1 12 84 13 85 14
REMARK SMILES IDX 92 15 86 16 91 17 93 18 87 19 88 20 89 21 90 22 12 23 13 24
REMARK SMILES IDX 14 25 15 26 16 27 17 29 18 30 19 31 83 32 20 33 82 34 21 35
REMARK SMILES IDX 22 36 23 37 76 38 24 39 81 40 75 41 77 42 25 43 80 44 74 45
REMARK SMILES IDX 73 46 26 48 60 49 39 50 59 51 40 52 43 53 58 54 78 55 41 56
REMARK SMILES IDX 42 57 57 59 79 60 44 61 27 62 28 63 37 64 29 65 30 66 36 67
REMARK SMILES IDX 38 68 31 69 32 70 33 71 34 72 35 73 61 74 62 75 71 76 63 77
REMARK SMILES IDX 64 78 70 79 72 80 65 81 66 82 67 83 68 84 69 85 45 86 46 87
REMARK SMILES IDX 55 88 47 89 48 90 54 91 56 92 49 93 50 94 51 95 52 96 53 97
REMARK H PARENT 8 7 15 28 77 47 43 58
REMARK Flexibility Score: inf
ROOT
ATOM      1  C   UNL     1      -5.624   0.953   1.126  1.00  0.00     0.002 C 
ENDROOT
BRANCH   1   2
ATOM      2  C   UNL     1      -4.303   0.561   0.450  1.00  0.00     0.021 C 
BRANCH   2   3
ATOM      3  C   UNL     1      -4.403   0.371  -1.066  1.00  0.00     0.116 C 
BRANCH   3   4
ATOM      4  N   UNL     1      -4.487   1.635  -1.766  1.00  0.00    -0.355 N 
ATOM      5  C   UNL     1      -3.542   2.333  -2.462  1.00  0.00     0.239 C 
ATOM      6  O   UNL     1      -3.906   3.403  -2.965  1.00  0.00    -0.273 OA
ATOM      7  H   UNL     1      -5.373   2.063  -1.735  1.00  0.00     0.163 HD
BRANCH   5   8
ATOM      8  C   UNL     1      -2.101   1.821  -2.656  1.00  0.00     0.216 C 
BRANCH   8   9
ATOM      9  N   UNL     1      -1.226   1.802  -1.460  1.00  0.00    -0.358 N 
BRANCH   9  10
ATOM     10  C   UNL     1      -1.017   0.525  -0.774  1.00  0.00     0.144 C 
BRANCH  10  11
ATOM     11  C   UNL     1       0.369  -0.006  -0.928  1.00  0.00    -0.014 C 
ATOM     12  C   UNL     1       1.108  -0.479   0.085  1.00  0.00     0.006 C 
ENDBRANCH  10  11
ENDBRANCH   9  10
BRANCH   9  13
ATOM     13  C   UNL     1      -0.908   2.994  -0.807  1.00  0.00     0.052 A 
ATOM     14  C   UNL     1      -1.935   3.766  -0.225  1.00  0.00     0.034 A 
ATOM     15  C   UNL     1       0.405   3.501  -0.669  1.00  0.00     0.048 A 
ATOM     16  C   UNL     1      -1.688   4.961   0.461  1.00  0.00     0.088 A 
ATOM     17  C   UNL     1       0.676   4.664   0.073  1.00  0.00     0.103 A 
ATOM     18  Br  UNL     1       1.907   2.792  -1.602  1.00  0.00    -0.048 Br
ATOM     19  C   UNL     1      -0.376   5.393   0.624  1.00  0.00     0.270 A 
BRANCH  19  20
ATOM     20  N   UNL     1      -0.102   6.637   1.346  1.00  0.00     0.062 N 
ATOM     21  O   UNL     1      -1.048   7.416   1.532  1.00  0.00    -0.258 OA
ATOM     22  O   UNL     1       1.062   6.840   1.722  1.00  0.00    -0.258 OA
ENDBRANCH  19  20
ENDBRANCH   9  13
ENDBRANCH   8   9
ENDBRANCH   5   8
ENDBRANCH   3   4
ENDBRANCH   2   3
ENDBRANCH   1   2
BRANCH   1  23
ATOM     23  C   UNL     1      -6.768  -0.053   0.960  1.00  0.00     0.002 C 
BRANCH  23  24
ATOM     24  C   UNL     1      -6.455  -1.485   1.408  1.00  0.00     0.021 C 
BRANCH  24  25
ATOM     25  C   UNL     1      -6.115  -1.637   2.889  1.00  0.00     0.116 C 
BRANCH  25  26
ATOM     26  N   UNL     1      -7.230  -1.273   3.748  1.00  0.00    -0.352 N 
ATOM     27  C   UNL     1      -7.852  -1.994   4.737  1.00  0.00     0.251 C 
ATOM     28  H   UNL     1      -7.596  -0.371   3.596  1.00  0.00     0.163 HD
ATOM     29  O   UNL     1      -8.908  -1.583   5.210  1.00  0.00    -0.269 OA
BRANCH  27  30
ATOM     30  C   UNL     1      -7.269  -3.266   5.222  1.00  0.00     0.039 A 
ATOM     31  C   UNL     1      -8.122  -4.348   5.459  1.00  0.00     0.014 A 
ATOM     32  C   UNL     1      -5.899  -3.390   5.471  1.00  0.00     0.014 A 
ATOM     33  C   UNL     1      -7.594  -5.569   5.886  1.00  0.00     0.010 A 
ATOM     34  C   UNL     1      -5.366  -4.627   5.831  1.00  0.00     0.010 A 
ATOM     35  C   UNL     1      -6.207  -5.729   6.042  1.00  0.00    -0.014 A 
BRANCH  35  36
ATOM     36  C   UNL     1      -5.630  -7.054   6.391  1.00  0.00     0.031 A 
ATOM     37  C   UNL     1      -4.902  -7.261   7.691  1.00  0.00     0.074 A 
ATOM     38  C   UNL     1      -5.713  -8.062   5.501  1.00  0.00     0.049 A 
ATOM     39  N   UNL     1      -4.329  -8.343   8.153  1.00  0.00    -0.248 NA
ATOM     40  C   UNL     1      -4.777  -6.092   8.575  1.00  0.00     0.031 C 
ATOM     41  C   UNL     1      -6.331  -7.968   4.177  1.00  0.00     0.029 A 
ATOM     42  N   UNL     1      -5.270  -9.359   5.569  1.00  0.00    -0.354 N 
ATOM     43  C   UNL     1      -3.768  -7.987   9.373  1.00  0.00     0.074 A 
ATOM     44  C   UNL     1      -4.024  -6.573   9.554  1.00  0.00     0.031 C 
ATOM     45  C   UNL     1      -6.250  -9.161   3.568  1.00  0.00     0.029 A 
ATOM     46  C   UNL     1      -5.549 -10.096   4.442  1.00  0.00     0.049 A 
ATOM     47  H   UNL     1      -4.798  -9.727   6.351  1.00  0.00     0.167 HD
ATOM     48  C   UNL     1      -3.118  -8.769  10.270  1.00  0.00     0.037 A 
ATOM     49  C   UNL     1      -5.272 -11.380   4.143  1.00  0.00     0.037 A 
ATOM     50  C   UNL     1      -2.879 -10.178  10.089  1.00  0.00     0.049 A 
ATOM     51  C   UNL     1      -4.572 -12.236   5.160  1.00  0.00     0.074 A 
ATOM     52  C   UNL     1      -2.298 -11.074  10.970  1.00  0.00     0.029 A 
ATOM     53  N   UNL     1      -3.196 -10.896   8.944  1.00  0.00    -0.354 N 
ATOM     54  N   UNL     1      -4.126 -11.905   6.348  1.00  0.00    -0.248 NA
ATOM     55  C   UNL     1      -4.349 -13.643   4.801  1.00  0.00     0.031 C 
ATOM     56  C   UNL     1      -2.221 -12.322  10.340  1.00  0.00     0.029 A 
ATOM     57  C   UNL     1      -2.798 -12.217   9.084  1.00  0.00     0.049 A 
ATOM     58  H   UNL     1      -3.639 -10.522   8.148  1.00  0.00     0.167 HD
ATOM     59  C   UNL     1      -3.579 -13.064   6.886  1.00  0.00     0.074 A 
ATOM     60  C   UNL     1      -3.770 -14.109   5.900  1.00  0.00     0.031 C 
ATOM     61  C   UNL     1      -2.975 -13.245   8.087  1.00  0.00     0.037 A 
BRANCH  48  62
ATOM     62  C   UNL     1      -2.615  -8.107  11.526  1.00  0.00     0.058 A 
ATOM     63  C   UNL     1      -3.492  -7.630  12.514  1.00  0.00     0.135 A 
ATOM     64  C   UNL     1      -1.237  -7.951  11.748  1.00  0.00     0.135 A 
ATOM     65  F   UNL     1      -4.820  -7.743  12.351  1.00  0.00    -0.206 F 
ATOM     66  C   UNL     1      -3.025  -6.977  13.650  1.00  0.00     0.059 A 
ATOM     67  C   UNL     1      -0.746  -7.327  12.892  1.00  0.00     0.059 A 
ATOM     68  F   UNL     1      -0.351  -8.393  10.841  1.00  0.00    -0.206 F 
ATOM     69  C   UNL     1      -1.649  -6.823  13.826  1.00  0.00     0.060 A 
BRANCH  69  70
ATOM     70  S   UNL     1      -1.058  -5.944  15.288  1.00  0.00     0.124 S 
ATOM     71  O   UNL     1      -1.371  -4.561  14.940  1.00  0.00    -0.237 OA
ATOM     72  O   UNL     1      -1.867  -6.527  16.353  1.00  0.00    -0.237 OA
ATOM     73  O   UNL     1       0.363  -6.274  15.331  1.00  0.00    -0.744 OA
ENDBRANCH  69  70
ENDBRANCH  48  62
BRANCH  49  74
ATOM     74  C   UNL     1      -5.695 -11.927   2.828  1.00  0.00     0.058 A 
ATOM     75  C   UNL     1      -6.779 -12.811   2.729  1.00  0.00     0.135 A 
ATOM     76  C   UNL     1      -5.066 -11.525   1.639  1.00  0.00     0.135 A 
ATOM     77  F   UNL     1      -7.407 -13.228   3.839  1.00  0.00    -0.206 F 
ATOM     78  C   UNL     1      -7.231 -13.273   1.498  1.00  0.00     0.059 A 
ATOM     79  C   UNL     1      -5.514 -11.957   0.395  1.00  0.00     0.059 A 
ATOM     80  F   UNL     1      -4.035 -10.667   1.681  1.00  0.00    -0.206 F 
ATOM     81  C   UNL     1      -6.598 -12.832   0.335  1.00  0.00     0.060 A 
BRANCH  81  82
ATOM     82  S   UNL     1      -7.255 -13.359  -1.263  1.00  0.00     0.124 S 
ATOM     83  O   UNL     1      -6.821 -14.750  -1.315  1.00  0.00    -0.237 OA
ATOM     84  O   UNL     1      -8.688 -13.141  -1.092  1.00  0.00    -0.237 OA
ATOM     85  O   UNL     1      -6.601 -12.457  -2.208  1.00  0.00    -0.744 OA
ENDBRANCH  81  82
ENDBRANCH  49  74
BRANCH  61  86
ATOM     86  C   UNL     1      -2.479 -14.630   8.403  1.00  0.00     0.058 A 
ATOM     87  C   UNL     1      -1.354 -15.172   7.762  1.00  0.00     0.135 A 
ATOM     88  C   UNL     1      -3.119 -15.413   9.377  1.00  0.00     0.135 A 
ATOM     89  F   UNL     1      -0.708 -14.468   6.819  1.00  0.00    -0.206 F 
ATOM     90  C   UNL     1      -0.900 -16.455   8.052  1.00  0.00     0.059 A 
ATOM     91  C   UNL     1      -2.667 -16.688   9.702  1.00  0.00     0.059 A 
ATOM     92  F   UNL     1      -4.193 -14.939  10.028  1.00  0.00    -0.206 F 
ATOM     93  C   UNL     1      -1.565 -17.207   9.023  1.00  0.00     0.060 A 
BRANCH  93  94
ATOM     94  S   UNL     1      -0.961 -18.866   9.398  1.00  0.00     0.124 S 
ATOM     95  O   UNL     1      -1.424 -19.617   8.235  1.00  0.00    -0.237 OA
ATOM     96  O   UNL     1       0.481 -18.662   9.489  1.00  0.00    -0.237 OA
ATOM     97  O   UNL     1      -1.622 -19.191  10.659  1.00  0.00    -0.744 OA
ENDBRANCH  93  94
ENDBRANCH  61  86
ENDBRANCH  35  36
ENDBRANCH  27  30
ENDBRANCH  25  26
ENDBRANCH  24  25
ENDBRANCH  23  24
ENDBRANCH   1  23
TORSDOF 21
