REMARK SMILES CS(=O)(=O)N1C[C@@H]2C[N@H+](Cc3cccnc3N)C[C@]2(C(=O)NCCCCCCNC(=O)c2ccc(-c3c4nc(c(-c5c(F)cc(S(=O)(=O)[O-])cc5F)c5ccc([nH]5)c(-c5c(F)cc(S(=O)(=O)[O-])cc5F)c5nc(c(-c6c(F)cc(S(=O)(=O)[O-])cc6F)c6ccc3[nH]6)C=C5)C=C4)cc2)C1
REMARK SMILES IDX 25 1 24 2 23 3 22 4 20 5 21 6 19 8 5 9 6 10 98 11 7 12 8 13
REMARK SMILES IDX 18 14 9 15 2 17 1 18 3 19 4 20 10 21 11 22 12 23 16 24 13 25
REMARK SMILES IDX 15 26 14 27 17 28 26 31 27 32 28 33 29 34 30 35 31 37 32 38
REMARK SMILES IDX 33 39 97 40 34 41 96 42 35 43 36 44 37 45 90 46 38 47 95 48
REMARK SMILES IDX 89 49 91 50 39 51 94 52 88 53 87 54 40 56 74 57 53 58 73 59
REMARK SMILES IDX 54 60 57 61 72 62 92 63 55 64 56 65 71 67 93 68 58 69 41 70
REMARK SMILES IDX 42 71 51 72 43 73 44 74 50 75 52 76 45 77 46 78 47 79 48 80
REMARK SMILES IDX 49 81 75 82 76 83 85 84 77 85 78 86 84 87 86 88 79 89 80 90
REMARK SMILES IDX 81 91 82 92 83 93 59 94 60 95 69 96 61 97 62 98 68 99 70 100
REMARK SMILES IDX 63 101 64 102 65 103 66 104 67 105
REMARK H PARENT 22 7 9 16 17 29 17 30 29 36 91 55 57 66
REMARK Flexibility Score: inf
ROOT
ATOM      1  C   UNL     1       3.330   6.232  -6.285  1.00  0.00     0.002 C 
ENDROOT
BRANCH   1   2
ATOM      2  C   UNL     1       2.300   5.106  -6.232  1.00  0.00     0.021 C 
BRANCH   2   3
ATOM      3  C   UNL     1       2.593   4.062  -5.143  1.00  0.00     0.116 C 
BRANCH   3   4
ATOM      4  N   UNL     1       1.752   4.267  -3.982  1.00  0.00    -0.355 N 
ATOM      5  C   UNL     1       0.596   3.577  -3.670  1.00  0.00     0.233 C 
ATOM      6  O   UNL     1      -0.190   4.120  -2.891  1.00  0.00    -0.274 OA
ATOM      7  H   UNL     1       2.033   4.968  -3.350  1.00  0.00     0.163 HD
BRANCH   5   8
ATOM      8  C   UNL     1       0.396   2.126  -4.301  1.00  0.00     0.121 C 
ATOM      9  N   UNL     1       0.600   0.143  -2.738  1.00  0.00    -0.200 NA
ATOM     10  C   UNL     1      -0.197  -0.269  -3.894  1.00  0.00     0.113 C 
ATOM     11  C   UNL     1       0.587   1.636  -2.781  1.00  0.00     0.125 C 
ATOM     12  C   UNL     1      -0.788   1.044  -4.378  1.00  0.00     0.082 C 
ATOM     13  C   UNL     1      -1.333   0.878  -5.794  1.00  0.00     0.268 C 
ATOM     14  C   UNL     1      -0.351   2.883  -5.465  1.00  0.00     0.281 C 
ATOM     15  N   UNL     1      -0.689   1.935  -6.527  1.00  0.00    -0.330 N 
ATOM     16  H   UNL     1      -1.291   2.357  -7.234  1.00  0.00     0.348 HD
BRANCH   9  17
ATOM     17  S   UNL     1       0.146  -0.639  -1.302  1.00  0.00     0.211 S 
ATOM     18  C   UNL     1       1.202   0.106  -0.081  1.00  0.00     0.176 C 
ATOM     19  O   UNL     1       0.511  -2.031  -1.428  1.00  0.00    -0.213 OA
ATOM     20  O   UNL     1      -1.222  -0.256  -1.005  1.00  0.00    -0.213 OA
ENDBRANCH   9  17
BRANCH  15  21
ATOM     21  C   UNL     1       0.344   1.563  -7.520  1.00  0.00     0.302 C 
BRANCH  21  22
ATOM     22  C   UNL     1       1.537   0.703  -7.144  1.00  0.00     0.048 A 
ATOM     23  C   UNL     1       2.820   1.264  -7.052  1.00  0.00     0.015 A 
ATOM     24  C   UNL     1       1.477  -0.678  -6.965  1.00  0.00     0.132 A 
ATOM     25  C   UNL     1       3.893   0.531  -6.552  1.00  0.00     0.021 A 
ATOM     26  N   UNL     1       2.489  -1.402  -6.447  1.00  0.00    -0.239 NA
ATOM     27  C   UNL     1       3.663  -0.784  -6.218  1.00  0.00     0.113 A 
BRANCH  24  28
ATOM     28  N   UNL     1       0.367  -1.430  -7.288  1.00  0.00    -0.383 N 
ATOM     29  H   UNL     1      -0.427  -0.995  -7.673  1.00  0.00     0.158 HD
ATOM     30  H   UNL     1       0.369  -2.402  -7.133  1.00  0.00     0.158 HD
ENDBRANCH  24  28
ENDBRANCH  21  22
ENDBRANCH  15  21
ENDBRANCH   5   8
ENDBRANCH   3   4
ENDBRANCH   2   3
ENDBRANCH   1   2
BRANCH   1  31
ATOM     31  C   UNL     1       4.719   5.790  -6.754  1.00  0.00     0.002 C 
BRANCH  31  32
ATOM     32  C   UNL     1       4.772   5.182  -8.159  1.00  0.00     0.021 C 
BRANCH  32  33
ATOM     33  C   UNL     1       4.225   6.081  -9.263  1.00  0.00     0.116 C 
BRANCH  33  34
ATOM     34  N   UNL     1       4.935   7.350  -9.317  1.00  0.00    -0.352 N 
ATOM     35  C   UNL     1       5.720   7.861 -10.319  1.00  0.00     0.251 C 
ATOM     36  H   UNL     1       4.839   7.923  -8.522  1.00  0.00     0.163 HD
ATOM     37  O   UNL     1       6.473   8.803 -10.093  1.00  0.00    -0.269 OA
BRANCH  35  38
ATOM     38  C   UNL     1       5.650   7.266 -11.669  1.00  0.00     0.039 A 
ATOM     39  C   UNL     1       6.830   7.019 -12.374  1.00  0.00     0.014 A 
ATOM     40  C   UNL     1       4.410   6.959 -12.236  1.00  0.00     0.014 A 
ATOM     41  C   UNL     1       6.767   6.409 -13.628  1.00  0.00     0.010 A 
ATOM     42  C   UNL     1       4.354   6.283 -13.448  1.00  0.00     0.010 A 
ATOM     43  C   UNL     1       5.531   6.007 -14.160  1.00  0.00    -0.014 A 
BRANCH  43  44
ATOM     44  C   UNL     1       5.433   5.309 -15.466  1.00  0.00     0.031 A 
ATOM     45  C   UNL     1       4.686   5.955 -16.602  1.00  0.00     0.074 A 
ATOM     46  C   UNL     1       5.948   4.071 -15.605  1.00  0.00     0.049 A 
ATOM     47  N   UNL     1       4.381   5.465 -17.775  1.00  0.00    -0.248 NA
ATOM     48  C   UNL     1       4.194   7.325 -16.378  1.00  0.00     0.031 C 
ATOM     49  C   UNL     1       6.670   3.333 -14.566  1.00  0.00     0.029 A 
ATOM     50  N   UNL     1       5.931   3.207 -16.671  1.00  0.00    -0.354 N 
ATOM     51  C   UNL     1       3.661   6.461 -18.425  1.00  0.00     0.074 A 
ATOM     52  C   UNL     1       3.517   7.557 -17.493  1.00  0.00     0.031 C 
ATOM     53  C   UNL     1       7.043   2.138 -15.052  1.00  0.00     0.029 A 
ATOM     54  C   UNL     1       6.546   2.003 -16.418  1.00  0.00     0.049 A 
ATOM     55  H   UNL     1       5.518   3.429 -17.537  1.00  0.00     0.167 HD
ATOM     56  C   UNL     1       3.188   6.471 -19.693  1.00  0.00     0.037 A 
ATOM     57  C   UNL     1       6.677   0.909 -17.193  1.00  0.00     0.037 A 
ATOM     58  C   UNL     1       3.349   5.380 -20.617  1.00  0.00     0.049 A 
ATOM     59  C   UNL     1       6.096   0.926 -18.583  1.00  0.00     0.074 A 
ATOM     60  C   UNL     1       2.927   5.297 -21.932  1.00  0.00     0.029 A 
ATOM     61  N   UNL     1       3.984   4.181 -20.325  1.00  0.00    -0.354 N 
ATOM     62  N   UNL     1       5.452   1.891 -19.195  1.00  0.00    -0.248 NA
ATOM     63  C   UNL     1       6.260  -0.292 -19.390  1.00  0.00     0.031 C 
ATOM     64  C   UNL     1       3.265   4.032 -22.420  1.00  0.00     0.029 A 
ATOM     65  C   UNL     1       3.952   3.348 -21.429  1.00  0.00     0.049 A 
ATOM     66  H   UNL     1       4.396   3.957 -19.459  1.00  0.00     0.167 HD
ATOM     67  C   UNL     1       5.175   1.413 -20.472  1.00  0.00     0.074 A 
ATOM     68  C   UNL     1       5.721   0.074 -20.544  1.00  0.00     0.031 C 
ATOM     69  C   UNL     1       4.531   2.029 -21.493  1.00  0.00     0.037 A 
BRANCH  56  70
ATOM     70  C   UNL     1       2.464   7.704 -20.162  1.00  0.00     0.058 A 
ATOM     71  C   UNL     1       3.140   8.918 -20.367  1.00  0.00     0.135 A 
ATOM     72  C   UNL     1       1.091   7.664 -20.455  1.00  0.00     0.135 A 
ATOM     73  F   UNL     1       4.449   9.019 -20.087  1.00  0.00    -0.206 F 
ATOM     74  C   UNL     1       2.477  10.053 -20.820  1.00  0.00     0.059 A 
ATOM     75  C   UNL     1       0.414   8.779 -20.940  1.00  0.00     0.059 A 
ATOM     76  F   UNL     1       0.394   6.531 -20.276  1.00  0.00    -0.206 F 
ATOM     77  C   UNL     1       1.114   9.973 -21.107  1.00  0.00     0.060 A 
BRANCH  77  78
ATOM     78  S   UNL     1       0.275  11.454 -21.708  1.00  0.00     0.124 S 
ATOM     79  O   UNL     1       0.258  12.286 -20.509  1.00  0.00    -0.237 OA
ATOM     80  O   UNL     1       1.163  11.901 -22.777  1.00  0.00    -0.237 OA
ATOM     81  O   UNL     1      -1.026  10.956 -22.143  1.00  0.00    -0.744 OA
ENDBRANCH  77  78
ENDBRANCH  56  70
BRANCH  57  82
ATOM     82  C   UNL     1       7.398  -0.291 -16.686  1.00  0.00     0.058 A 
ATOM     83  C   UNL     1       8.620  -0.688 -17.248  1.00  0.00     0.135 A 
ATOM     84  C   UNL     1       6.876  -1.074 -15.644  1.00  0.00     0.135 A 
ATOM     85  F   UNL     1       9.160   0.025 -18.249  1.00  0.00    -0.206 F 
ATOM     86  C   UNL     1       9.284  -1.834 -16.821  1.00  0.00     0.059 A 
ATOM     87  C   UNL     1       7.536  -2.207 -15.178  1.00  0.00     0.059 A 
ATOM     88  F   UNL     1       5.719  -0.729 -15.056  1.00  0.00    -0.206 F 
ATOM     89  C   UNL     1       8.731  -2.588 -15.786  1.00  0.00     0.060 A 
BRANCH  89  90
ATOM     90  S   UNL     1       9.608  -4.066 -15.229  1.00  0.00     0.124 S 
ATOM     91  O   UNL     1       9.387  -4.975 -16.347  1.00  0.00    -0.237 OA
ATOM     92  O   UNL     1      10.971  -3.569 -15.068  1.00  0.00    -0.237 OA
ATOM     93  O   UNL     1       8.924  -4.413 -13.987  1.00  0.00    -0.744 OA
ENDBRANCH  89  90
ENDBRANCH  57  82
BRANCH  69  94
ATOM     94  C   UNL     1       4.434   1.299 -22.804  1.00  0.00     0.058 A 
ATOM     95  C   UNL     1       3.568   0.211 -22.986  1.00  0.00     0.135 A 
ATOM     96  C   UNL     1       5.153   1.761 -23.920  1.00  0.00     0.135 A 
ATOM     97  F   UNL     1       2.866  -0.275 -21.951  1.00  0.00    -0.206 F 
ATOM     98  C   UNL     1       3.422  -0.399 -24.228  1.00  0.00     0.059 A 
ATOM     99  C   UNL     1       5.000   1.186 -25.177  1.00  0.00     0.059 A 
ATOM    100  F   UNL     1       5.989   2.804 -23.801  1.00  0.00    -0.206 F 
ATOM    101  C   UNL     1       4.134   0.103 -25.320  1.00  0.00     0.060 A 
BRANCH 101 102
ATOM    102  S   UNL     1       3.876  -0.650 -26.939  1.00  0.00     0.124 S 
ATOM    103  O   UNL     1       4.545  -1.937 -26.777  1.00  0.00    -0.237 OA
ATOM    104  O   UNL     1       2.419  -0.700 -27.029  1.00  0.00    -0.237 OA
ATOM    105  O   UNL     1       4.523   0.282 -27.857  1.00  0.00    -0.744 OA
ENDBRANCH 101 102
ENDBRANCH  69  94
ENDBRANCH  43  44
ENDBRANCH  35  38
ENDBRANCH  33  34
ENDBRANCH  32  33
ENDBRANCH  31  32
ENDBRANCH   1  31
TORSDOF 20
