REMARK SMILES CC(C)CCc1cc2c(cc1Cl)C=C(C(=O)NCCCCCCNC(=O)c1ccc(-c3c4nc(c(-c5c(F)cc(S(=O)(=O)[O-])cc5F)c5ccc([nH]5)c(-c5c(F)cc(S(=O)(=O)[O-])cc5F)c5nc(c(-c6c(F)cc(S(=O)(=O)[O-])cc6F)c6ccc3[nH]6)C=C5)C=C4)cc1)[C@@H](C(F)(F)F)O2
REMARK SMILES IDX 20 1 19 2 18 3 17 4 15 5 16 6 14 8 6 9 7 10 11 11 8 12 10 13
REMARK SMILES IDX 12 14 9 15 98 16 13 17 93 18 5 19 4 20 2 21 1 22 3 23 94 24
REMARK SMILES IDX 95 25 96 26 97 27 21 28 22 29 23 30 24 31 25 32 26 34 27 35
REMARK SMILES IDX 28 36 92 37 29 38 91 39 30 40 31 41 32 42 85 43 33 44 90 45
REMARK SMILES IDX 84 46 86 47 34 48 89 49 83 50 82 51 35 53 69 54 48 55 68 56
REMARK SMILES IDX 49 57 52 58 67 59 87 60 50 61 51 62 66 64 88 65 53 66 36 67
REMARK SMILES IDX 37 68 46 69 38 70 39 71 45 72 47 73 40 74 41 75 42 76 43 77
REMARK SMILES IDX 44 78 70 79 71 80 80 81 72 82 73 83 79 84 81 85 74 86 75 87
REMARK SMILES IDX 76 88 77 89 78 90 54 91 55 92 64 93 56 94 57 95 63 96 65 97
REMARK SMILES IDX 58 98 59 99 60 100 61 101 62 102
REMARK H PARENT 17 7 24 33 86 52 52 63
REMARK Flexibility Score: inf
ROOT
ATOM      1  C   UNL     1      -1.790  12.732   1.109  1.00  0.00     0.002 C 
ENDROOT
BRANCH   1   2
ATOM      2  C   UNL     1      -2.004  11.231   1.318  1.00  0.00     0.021 C 
BRANCH   2   3
ATOM      3  C   UNL     1      -2.198  10.433   0.035  1.00  0.00     0.116 C 
BRANCH   3   4
ATOM      4  N   UNL     1      -0.955  10.225  -0.679  1.00  0.00    -0.352 N 
ATOM      5  C   UNL     1      -0.294   9.153  -1.171  1.00  0.00     0.251 C 
ATOM      6  O   UNL     1       0.759   9.402  -1.767  1.00  0.00    -0.270 OA
ATOM      7  H   UNL     1      -0.475  11.069  -0.846  1.00  0.00     0.163 HD
BRANCH   5   8
ATOM      8  C   UNL     1      -0.735   7.736  -1.007  1.00  0.00     0.067 C 
ATOM      9  C   UNL     1      -0.563   2.708  -0.395  1.00  0.00    -0.026 A 
ATOM     10  C   UNL     1      -1.594   3.663  -0.474  1.00  0.00     0.052 A 
ATOM     11  C   UNL     1       0.757   3.176  -0.505  1.00  0.00     0.045 A 
ATOM     12  C   UNL     1      -1.316   5.016  -0.674  1.00  0.00     0.128 A 
ATOM     13  C   UNL     1       1.022   4.515  -0.812  1.00  0.00     0.032 A 
ATOM     14  Cl  UNL     1       2.144   2.226  -0.120  1.00  0.00    -0.084 Cl
ATOM     15  C   UNL     1      -0.014   5.441  -0.883  1.00  0.00     0.019 A 
ATOM     16  O   UNL     1      -2.379   5.857  -0.614  1.00  0.00    -0.475 OA
ATOM     17  C   UNL     1       0.270   6.848  -1.090  1.00  0.00     0.025 C 
ATOM     18  C   UNL     1      -2.157   7.287  -0.778  1.00  0.00     0.314 C 
BRANCH   9  19
ATOM     19  C   UNL     1      -0.961   1.272  -0.119  1.00  0.00     0.037 C 
BRANCH  19  20
ATOM     20  C   UNL     1      -0.852   0.287  -1.301  1.00  0.00     0.008 C 
BRANCH  20  21
ATOM     21  C   UNL     1       0.548  -0.286  -1.589  1.00  0.00    -0.017 C 
ATOM     22  C   UNL     1       1.150  -1.010  -0.381  1.00  0.00     0.007 C 
ATOM     23  C   UNL     1       0.517  -1.249  -2.779  1.00  0.00     0.007 C 
ENDBRANCH  20  21
ENDBRANCH  19  20
ENDBRANCH   9  19
BRANCH  18  24
ATOM     24  C   UNL     1      -3.139   7.743  -1.868  1.00  0.00     0.429 C 
ATOM     25  F   UNL     1      -4.410   7.707  -1.396  1.00  0.00    -0.167 F 
ATOM     26  F   UNL     1      -2.924   9.008  -2.290  1.00  0.00    -0.167 F 
ATOM     27  F   UNL     1      -3.086   6.947  -2.961  1.00  0.00    -0.167 F 
ENDBRANCH  18  24
ENDBRANCH   5   8
ENDBRANCH   3   4
ENDBRANCH   2   3
ENDBRANCH   1   2
BRANCH   1  28
ATOM     28  C   UNL     1      -2.843  13.438   0.246  1.00  0.00     0.002 C 
BRANCH  28  29
ATOM     29  C   UNL     1      -4.301  13.152   0.611  1.00  0.00     0.021 C 
BRANCH  29  30
ATOM     30  C   UNL     1      -4.674  13.460   2.054  1.00  0.00     0.116 C 
BRANCH  30  31
ATOM     31  N   UNL     1      -4.523  14.869   2.380  1.00  0.00    -0.352 N 
ATOM     32  C   UNL     1      -5.426  15.712   2.981  1.00  0.00     0.251 C 
ATOM     33  H   UNL     1      -3.659  15.272   2.137  1.00  0.00     0.163 HD
ATOM     34  O   UNL     1      -5.203  16.918   3.041  1.00  0.00    -0.269 OA
BRANCH  32  35
ATOM     35  C   UNL     1      -6.681  15.153   3.524  1.00  0.00     0.039 A 
ATOM     36  C   UNL     1      -6.656  14.001   4.313  1.00  0.00     0.014 A 
ATOM     37  C   UNL     1      -7.897  15.760   3.199  1.00  0.00     0.014 A 
ATOM     38  C   UNL     1      -7.848  13.364   4.636  1.00  0.00     0.010 A 
ATOM     39  C   UNL     1      -9.095  15.164   3.601  1.00  0.00     0.010 A 
ATOM     40  C   UNL     1      -9.081  13.936   4.281  1.00  0.00    -0.014 A 
BRANCH  40  41
ATOM     41  C   UNL     1     -10.341  13.225   4.625  1.00  0.00     0.031 A 
ATOM     42  C   UNL     1     -11.250  12.705   3.542  1.00  0.00     0.074 A 
ATOM     43  C   UNL     1     -10.633  12.997   5.920  1.00  0.00     0.049 A 
ATOM     44  N   UNL     1     -12.381  12.057   3.658  1.00  0.00    -0.248 NA
ATOM     45  C   UNL     1     -10.840  12.945   2.149  1.00  0.00     0.031 C 
ATOM     46  C   UNL     1      -9.819  13.437   7.056  1.00  0.00     0.029 A 
ATOM     47  N   UNL     1     -11.673  12.318   6.502  1.00  0.00    -0.354 N 
ATOM     48  C   UNL     1     -12.825  11.826   2.361  1.00  0.00     0.074 A 
ATOM     49  C   UNL     1     -11.858  12.432   1.471  1.00  0.00     0.031 C 
ATOM     50  C   UNL     1     -10.359  12.971   8.191  1.00  0.00     0.029 A 
ATOM     51  C   UNL     1     -11.591  12.258   7.873  1.00  0.00     0.049 A 
ATOM     52  H   UNL     1     -12.408  11.913   5.987  1.00  0.00     0.167 HD
ATOM     53  C   UNL     1     -13.929  11.157   1.950  1.00  0.00     0.037 A 
ATOM     54  C   UNL     1     -12.421  11.704   8.777  1.00  0.00     0.037 A 
ATOM     55  C   UNL     1     -14.877  10.538   2.841  1.00  0.00     0.049 A 
ATOM     56  C   UNL     1     -13.666  11.014   8.298  1.00  0.00     0.074 A 
ATOM     57  C   UNL     1     -16.019   9.825   2.522  1.00  0.00     0.029 A 
ATOM     58  N   UNL     1     -14.792  10.556   4.226  1.00  0.00    -0.354 N 
ATOM     59  N   UNL     1     -14.071  10.810   7.067  1.00  0.00    -0.248 NA
ATOM     60  C   UNL     1     -14.573  10.491   9.327  1.00  0.00     0.031 C 
ATOM     61  C   UNL     1     -16.647   9.447   3.713  1.00  0.00     0.029 A 
ATOM     62  C   UNL     1     -15.872   9.885   4.776  1.00  0.00     0.049 A 
ATOM     63  H   UNL     1     -14.070  10.982   4.742  1.00  0.00     0.167 HD
ATOM     64  C   UNL     1     -15.278  10.130   7.173  1.00  0.00     0.074 A 
ATOM     65  C   UNL     1     -15.525   9.937   8.588  1.00  0.00     0.031 C 
ATOM     66  C   UNL     1     -16.108   9.708   6.188  1.00  0.00     0.037 A 
BRANCH  53  67
ATOM     67  C   UNL     1     -14.183  11.063   0.469  1.00  0.00     0.058 A 
ATOM     68  C   UNL     1     -13.408  10.237  -0.360  1.00  0.00     0.135 A 
ATOM     69  C   UNL     1     -15.247  11.767  -0.119  1.00  0.00     0.135 A 
ATOM     70  F   UNL     1     -12.369   9.554   0.147  1.00  0.00    -0.206 F 
ATOM     71  C   UNL     1     -13.665  10.128  -1.723  1.00  0.00     0.059 A 
ATOM     72  C   UNL     1     -15.537  11.654  -1.476  1.00  0.00     0.059 A 
ATOM     73  F   UNL     1     -16.020  12.571   0.627  1.00  0.00    -0.206 F 
ATOM     74  C   UNL     1     -14.733  10.840  -2.272  1.00  0.00     0.060 A 
BRANCH  74  75
ATOM     75  S   UNL     1     -15.054  10.680  -4.042  1.00  0.00     0.124 S 
ATOM     76  O   UNL     1     -13.916  11.396  -4.609  1.00  0.00    -0.237 OA
ATOM     77  O   UNL     1     -15.048   9.232  -4.229  1.00  0.00    -0.237 OA
ATOM     78  O   UNL     1     -16.351  11.327  -4.214  1.00  0.00    -0.744 OA
ENDBRANCH  74  75
ENDBRANCH  53  67
BRANCH  54  79
ATOM     79  C   UNL     1     -12.093  11.789  10.224  1.00  0.00     0.058 A 
ATOM     80  C   UNL     1     -11.701  10.649  10.941  1.00  0.00     0.135 A 
ATOM     81  C   UNL     1     -12.118  13.016  10.906  1.00  0.00     0.135 A 
ATOM     82  F   UNL     1     -11.669   9.453  10.334  1.00  0.00    -0.206 F 
ATOM     83  C   UNL     1     -11.344  10.722  12.283  1.00  0.00     0.059 A 
ATOM     84  C   UNL     1     -11.741  13.119  12.240  1.00  0.00     0.059 A 
ATOM     85  F   UNL     1     -12.473  14.137  10.259  1.00  0.00    -0.206 F 
ATOM     86  C   UNL     1     -11.359  11.964  12.921  1.00  0.00     0.060 A 
BRANCH  86  87
ATOM     87  S   UNL     1     -10.823  12.057  14.643  1.00  0.00     0.124 S 
ATOM     88  O   UNL     1     -11.932  11.407  15.332  1.00  0.00    -0.237 OA
ATOM     89  O   UNL     1      -9.567  11.314  14.611  1.00  0.00    -0.237 OA
ATOM     90  O   UNL     1     -10.688  13.491  14.877  1.00  0.00    -0.744 OA
ENDBRANCH  86  87
ENDBRANCH  54  79
BRANCH  66  91
ATOM     91  C   UNL     1     -17.362   8.992   6.601  1.00  0.00     0.058 A 
ATOM     92  C   UNL     1     -18.450   9.685   7.155  1.00  0.00     0.135 A 
ATOM     93  C   UNL     1     -17.504   7.613   6.379  1.00  0.00     0.135 A 
ATOM     94  F   UNL     1     -18.360  11.002   7.394  1.00  0.00    -0.206 F 
ATOM     95  C   UNL     1     -19.631   9.032   7.488  1.00  0.00     0.059 A 
ATOM     96  C   UNL     1     -18.686   6.944   6.682  1.00  0.00     0.059 A 
ATOM     97  F   UNL     1     -16.496   6.907   5.844  1.00  0.00    -0.206 F 
ATOM     98  C   UNL     1     -19.742   7.662   7.242  1.00  0.00     0.060 A 
BRANCH  98  99
ATOM     99  S   UNL     1     -21.299   6.838   7.638  1.00  0.00     0.124 S 
ATOM    100  O   UNL     1     -21.265   6.829   9.096  1.00  0.00    -0.237 OA
ATOM    101  O   UNL     1     -22.284   7.729   7.032  1.00  0.00    -0.237 OA
ATOM    102  O   UNL     1     -21.166   5.533   6.998  1.00  0.00    -0.744 OA
ENDBRANCH  98  99
ENDBRANCH  66  91
ENDBRANCH  40  41
ENDBRANCH  32  35
ENDBRANCH  30  31
ENDBRANCH  29  30
ENDBRANCH  28  29
ENDBRANCH   1  28
TORSDOF 20
