REMARK SMILES Cc1cccc(-c2cc(C[C@]3(C(=O)NCCCCCCNC(=O)c4ccc(-c5c6nc(c(-c7c(F)cc(S(=O)(=O)[O-])cc7F)c7ccc([nH]7)c(-c7c(F)cc(S(=O)(=O)[O-])cc7F)c7nc(c(-c8c(F)cc(S(=O)(=O)[O-])cc8F)c8ccc5[nH]8)C=C7)C=C6)cc4)CCCN(C(=O)C(C)C)C3)on2)c1
REMARK SMILES IDX 17 1 16 2 15 3 14 4 12 5 13 6 11 8 90 9 99 10 91 11 93 12
REMARK SMILES IDX 92 13 10 14 9 15 7 16 8 17 101 18 100 19 6 20 1 21 2 22 3 23
REMARK SMILES IDX 102 24 4 25 5 26 94 27 95 28 96 29 97 30 98 31 18 32 19 33
REMARK SMILES IDX 20 34 21 35 22 36 23 38 24 39 25 40 89 41 26 42 88 43 27 44
REMARK SMILES IDX 28 45 29 46 82 47 30 48 87 49 81 50 83 51 31 52 86 53 80 54
REMARK SMILES IDX 79 55 32 57 66 58 45 59 65 60 46 61 49 62 64 63 84 64 47 65
REMARK SMILES IDX 48 66 63 68 85 69 50 70 33 71 34 72 43 73 35 74 36 75 42 76
REMARK SMILES IDX 44 77 37 78 38 79 39 80 40 81 41 82 67 83 68 84 77 85 69 86
REMARK SMILES IDX 70 87 76 88 78 89 71 90 72 91 73 92 74 93 75 94 51 95 52 96
REMARK SMILES IDX 61 97 53 98 54 99 60 100 62 101 55 102 56 103 57 104 58 105
REMARK SMILES IDX 59 106
REMARK H PARENT 14 7 21 37 83 56 49 67
REMARK Flexibility Score: inf
ROOT
ATOM      1  C   UNL     1      -8.435   8.941  -2.954  1.00  0.00     0.002 C 
ENDROOT
BRANCH   1   2
ATOM      2  C   UNL     1      -7.955   7.741  -2.132  1.00  0.00     0.021 C 
BRANCH   2   3
ATOM      3  C   UNL     1      -6.833   6.907  -2.749  1.00  0.00     0.116 C 
BRANCH   3   4
ATOM      4  N   UNL     1      -5.534   7.557  -2.718  1.00  0.00    -0.356 N 
ATOM      5  C   UNL     1      -4.305   7.136  -2.296  1.00  0.00     0.228 C 
ATOM      6  O   UNL     1      -3.370   7.908  -2.539  1.00  0.00    -0.274 OA
ATOM      7  H   UNL     1      -5.540   8.477  -3.068  1.00  0.00     0.163 HD
BRANCH   5   8
ATOM      8  C   UNL     1      -4.063   5.788  -1.546  1.00  0.00     0.074 C 
ATOM      9  C   UNL     1      -4.892   5.811  -0.226  1.00  0.00     0.021 C 
ATOM     10  C   UNL     1      -4.403   4.623  -2.514  1.00  0.00     0.136 C 
ATOM     11  C   UNL     1      -5.417   4.459   0.261  1.00  0.00     0.023 C 
ATOM     12  N   UNL     1      -4.831   3.395  -1.830  1.00  0.00    -0.341 N 
ATOM     13  C   UNL     1      -5.913   3.593  -0.881  1.00  0.00     0.119 C 
BRANCH   8  14
ATOM     14  C   UNL     1      -2.526   5.763  -1.218  1.00  0.00     0.097 C 
BRANCH  14  15
ATOM     15  C   UNL     1      -1.963   4.530  -0.599  1.00  0.00     0.138 A 
ATOM     16  C   UNL     1      -0.946   2.672   0.051  1.00  0.00     0.114 A 
ATOM     17  C   UNL     1      -1.230   3.472  -1.084  1.00  0.00     0.077 A 
ATOM     18  N   UNL     1      -1.460   3.229   1.158  1.00  0.00    -0.080 NA
ATOM     19  O   UNL     1      -2.075   4.401   0.750  1.00  0.00    -0.361 OA
BRANCH  16  20
ATOM     20  C   UNL     1      -0.235   1.402   0.089  1.00  0.00     0.004 A 
ATOM     21  C   UNL     1       3.320   0.035  -0.140  1.00  0.00     0.044 C 
ATOM     22  C   UNL     1       1.827   0.112  -0.021  1.00  0.00    -0.050 A 
ATOM     23  C   UNL     1       1.087  -1.070   0.118  1.00  0.00     0.003 A 
ATOM     24  C   UNL     1       1.157   1.347  -0.049  1.00  0.00     0.014 A 
ATOM     25  C   UNL     1      -0.297  -1.021   0.258  1.00  0.00     0.001 A 
ATOM     26  C   UNL     1      -0.949   0.211   0.255  1.00  0.00     0.010 A 
ENDBRANCH  16  20
ENDBRANCH  14  15
ENDBRANCH   8  14
BRANCH  12  27
ATOM     27  C   UNL     1      -4.199   2.199  -2.119  1.00  0.00     0.225 C 
ATOM     28  O   UNL     1      -3.358   2.133  -3.026  1.00  0.00    -0.275 OA
BRANCH  27  29
ATOM     29  C   UNL     1      -4.541   0.900  -1.373  1.00  0.00     0.072 C 
ATOM     30  C   UNL     1      -4.564   0.962   0.152  1.00  0.00     0.018 C 
ATOM     31  C   UNL     1      -5.787   0.238  -1.946  1.00  0.00     0.018 C 
ENDBRANCH  27  29
ENDBRANCH  12  27
ENDBRANCH   5   8
ENDBRANCH   3   4
ENDBRANCH   2   3
ENDBRANCH   1   2
BRANCH   1  32
ATOM     32  C   UNL     1      -8.857   8.671  -4.406  1.00  0.00     0.002 C 
BRANCH  32  33
ATOM     33  C   UNL     1      -9.806   7.493  -4.645  1.00  0.00     0.021 C 
BRANCH  33  34
ATOM     34  C   UNL     1     -11.177   7.646  -3.989  1.00  0.00     0.116 C 
BRANCH  34  35
ATOM     35  N   UNL     1     -12.271   7.606  -4.947  1.00  0.00    -0.352 N 
ATOM     36  C   UNL     1     -13.639   7.569  -4.695  1.00  0.00     0.251 C 
ATOM     37  H   UNL     1     -12.010   7.607  -5.896  1.00  0.00     0.163 HD
ATOM     38  O   UNL     1     -14.447   7.412  -5.575  1.00  0.00    -0.269 OA
BRANCH  36  39
ATOM     39  C   UNL     1     -14.067   7.808  -3.297  1.00  0.00     0.039 A 
ATOM     40  C   UNL     1     -14.757   8.993  -3.024  1.00  0.00     0.014 A 
ATOM     41  C   UNL     1     -13.597   6.995  -2.270  1.00  0.00     0.014 A 
ATOM     42  C   UNL     1     -14.820   9.460  -1.712  1.00  0.00     0.010 A 
ATOM     43  C   UNL     1     -13.602   7.492  -0.979  1.00  0.00     0.010 A 
ATOM     44  C   UNL     1     -14.164   8.750  -0.707  1.00  0.00    -0.014 A 
BRANCH  44  45
ATOM     45  C   UNL     1     -13.905   9.287   0.626  1.00  0.00     0.031 A 
ATOM     46  C   UNL     1     -14.604   8.743   1.816  1.00  0.00     0.074 A 
ATOM     47  C   UNL     1     -12.969  10.246   0.801  1.00  0.00     0.049 A 
ATOM     48  N   UNL     1     -14.628   9.319   2.974  1.00  0.00    -0.248 NA
ATOM     49  C   UNL     1     -15.427   7.539   1.769  1.00  0.00     0.031 C 
ATOM     50  C   UNL     1     -12.306  10.607   2.052  1.00  0.00     0.029 A 
ATOM     51  N   UNL     1     -12.556  11.230  -0.083  1.00  0.00    -0.354 N 
ATOM     52  C   UNL     1     -15.176   8.436   3.875  1.00  0.00     0.074 A 
ATOM     53  C   UNL     1     -15.791   7.427   3.051  1.00  0.00     0.031 C 
ATOM     54  C   UNL     1     -11.766  11.828   1.927  1.00  0.00     0.029 A 
ATOM     55  C   UNL     1     -12.197  12.367   0.650  1.00  0.00     0.049 A 
ATOM     56  H   UNL     1     -12.523  11.145  -1.063  1.00  0.00     0.167 HD
ATOM     57  C   UNL     1     -14.903   8.596   5.204  1.00  0.00     0.037 A 
ATOM     58  C   UNL     1     -12.840  13.564   0.501  1.00  0.00     0.037 A 
ATOM     59  C   UNL     1     -14.336   9.927   5.461  1.00  0.00     0.049 A 
ATOM     60  C   UNL     1     -13.524  14.070   1.753  1.00  0.00     0.074 A 
ATOM     61  C   UNL     1     -13.065  10.381   5.769  1.00  0.00     0.029 A 
ATOM     62  N   UNL     1     -15.099  11.060   5.183  1.00  0.00    -0.354 N 
ATOM     63  N   UNL     1     -13.731  13.345   2.817  1.00  0.00    -0.248 NA
ATOM     64  C   UNL     1     -14.058  15.423   1.897  1.00  0.00     0.031 C 
ATOM     65  C   UNL     1     -13.047  11.790   5.595  1.00  0.00     0.029 A 
ATOM     66  C   UNL     1     -14.315  12.197   5.213  1.00  0.00     0.049 A 
ATOM     67  H   UNL     1     -16.064  11.051   4.991  1.00  0.00     0.167 HD
ATOM     68  C   UNL     1     -14.450  14.063   3.736  1.00  0.00     0.074 A 
ATOM     69  C   UNL     1     -14.593  15.374   3.130  1.00  0.00     0.031 C 
ATOM     70  C   UNL     1     -14.886  13.504   4.905  1.00  0.00     0.037 A 
BRANCH  57  71
ATOM     71  C   UNL     1     -14.899   7.478   6.250  1.00  0.00     0.058 A 
ATOM     72  C   UNL     1     -14.374   7.715   7.546  1.00  0.00     0.135 A 
ATOM     73  C   UNL     1     -15.254   6.130   6.023  1.00  0.00     0.135 A 
ATOM     74  F   UNL     1     -14.029   8.947   7.945  1.00  0.00    -0.206 F 
ATOM     75  C   UNL     1     -14.149   6.699   8.487  1.00  0.00     0.059 A 
ATOM     76  C   UNL     1     -15.062   5.105   6.954  1.00  0.00     0.059 A 
ATOM     77  F   UNL     1     -15.780   5.702   4.876  1.00  0.00    -0.206 F 
ATOM     78  C   UNL     1     -14.478   5.389   8.172  1.00  0.00     0.060 A 
BRANCH  78  79
ATOM     79  S   UNL     1     -14.123   4.064   9.340  1.00  0.00     0.124 S 
ATOM     80  O   UNL     1     -12.664   4.048   9.343  1.00  0.00    -0.237 OA
ATOM     81  O   UNL     1     -14.759   4.544  10.561  1.00  0.00    -0.237 OA
ATOM     82  O   UNL     1     -14.754   2.895   8.730  1.00  0.00    -0.744 OA
ENDBRANCH  78  79
ENDBRANCH  57  71
BRANCH  58  83
ATOM     83  C   UNL     1     -13.304  13.816  -0.889  1.00  0.00     0.058 A 
ATOM     84  C   UNL     1     -12.318  14.028  -1.870  1.00  0.00     0.135 A 
ATOM     85  C   UNL     1     -14.577  13.414  -1.316  1.00  0.00     0.135 A 
ATOM     86  F   UNL     1     -11.089  14.433  -1.511  1.00  0.00    -0.206 F 
ATOM     87  C   UNL     1     -12.529  13.681  -3.198  1.00  0.00     0.059 A 
ATOM     88  C   UNL     1     -14.814  13.069  -2.647  1.00  0.00     0.059 A 
ATOM     89  F   UNL     1     -15.556  13.206  -0.423  1.00  0.00    -0.206 F 
ATOM     90  C   UNL     1     -13.760  13.135  -3.559  1.00  0.00     0.060 A 
BRANCH  90  91
ATOM     91  S   UNL     1     -13.873  12.326  -5.172  1.00  0.00     0.124 S 
ATOM     92  O   UNL     1     -13.544  13.415  -6.084  1.00  0.00    -0.237 OA
ATOM     93  O   UNL     1     -12.859  11.281  -5.039  1.00  0.00    -0.237 OA
ATOM     94  O   UNL     1     -15.254  11.859  -5.215  1.00  0.00    -0.744 OA
ENDBRANCH  90  91
ENDBRANCH  58  83
BRANCH  70  95
ATOM     95  C   UNL     1     -15.827  14.149   5.899  1.00  0.00     0.058 A 
ATOM     96  C   UNL     1     -16.840  15.062   5.554  1.00  0.00     0.135 A 
ATOM     97  C   UNL     1     -15.810  13.748   7.257  1.00  0.00     0.135 A 
ATOM     98  F   UNL     1     -17.037  15.436   4.282  1.00  0.00    -0.206 F 
ATOM     99  C   UNL     1     -17.726  15.593   6.496  1.00  0.00     0.059 A 
ATOM    100  C   UNL     1     -16.718  14.223   8.202  1.00  0.00     0.059 A 
ATOM    101  F   UNL     1     -14.909  12.864   7.711  1.00  0.00    -0.206 F 
ATOM    102  C   UNL     1     -17.659  15.168   7.819  1.00  0.00     0.060 A 
BRANCH 102 103
ATOM    103  S   UNL     1     -18.836  15.791   9.034  1.00  0.00     0.124 S 
ATOM    104  O   UNL     1     -18.083  16.887   9.636  1.00  0.00    -0.237 OA
ATOM    105  O   UNL     1     -19.977  16.189   8.214  1.00  0.00    -0.237 OA
ATOM    106  O   UNL     1     -19.067  14.634   9.893  1.00  0.00    -0.744 OA
ENDBRANCH 102 103
ENDBRANCH  70  95
ENDBRANCH  44  45
ENDBRANCH  36  39
ENDBRANCH  34  35
ENDBRANCH  33  34
ENDBRANCH  32  33
ENDBRANCH   1  32
TORSDOF 21
