REMARK SMILES COc1cc(Nc2cn[nH]c(=O)n2)c(C(=O)NCCCCCCNC(=O)c2ccc(-c3c4nc(c(-c5c(F)cc(S(=O)(=O)[O-])cc5F)c5ccc([nH]5)c(-c5c(F)cc(S(=O)(=O)[O-])cc5F)c5nc(c(-c6c(F)cc(S(=O)(=O)[O-])cc6F)c6ccc3[nH]6)C=C5)C=C4)cc2)cc1OC
REMARK SMILES IDX 21 1 20 2 19 3 18 4 17 5 15 6 16 7 14 9 3 10 4 11 94 12 5 13
REMARK SMILES IDX 93 14 2 15 1 16 95 17 96 18 6 19 7 21 8 22 13 23 9 24 11 25
REMARK SMILES IDX 10 26 12 27 22 29 23 30 24 31 25 32 26 34 27 35 28 36 92 37
REMARK SMILES IDX 29 38 91 39 30 40 31 41 32 42 85 43 33 44 90 45 84 46 86 47
REMARK SMILES IDX 34 48 89 49 83 50 82 51 35 53 69 54 48 55 68 56 49 57 52 58
REMARK SMILES IDX 67 59 87 60 50 61 51 62 66 64 88 65 53 66 36 67 37 68 46 69
REMARK SMILES IDX 38 70 39 71 45 72 47 73 40 74 41 75 42 76 43 77 44 78 70 79
REMARK SMILES IDX 71 80 80 81 72 82 73 83 79 84 81 85 74 86 75 87 76 88 77 89
REMARK SMILES IDX 78 90 54 91 55 92 64 93 56 94 57 95 63 96 65 97 58 98 59 99
REMARK SMILES IDX 60 100 61 101 62 102
REMARK H PARENT 17 8 6 20 10 28 24 33 86 52 52 63
REMARK Flexibility Score: inf
ROOT
ATOM      1  C   UNL     1       6.565  -1.685  -7.835  1.00  0.00     0.002 C 
ENDROOT
BRANCH   1   2
ATOM      2  C   UNL     1       5.894  -2.833  -7.071  1.00  0.00     0.002 C 
BRANCH   2   3
ATOM      3  C   UNL     1       5.243  -2.425  -5.742  1.00  0.00     0.021 C 
BRANCH   3   4
ATOM      4  C   UNL     1       4.022  -1.519  -5.923  1.00  0.00     0.116 C 
BRANCH   4   5
ATOM      5  N   UNL     1       2.865  -2.324  -6.275  1.00  0.00    -0.352 N 
ATOM      6  C   UNL     1       1.801  -2.783  -5.545  1.00  0.00     0.253 C 
ATOM      7  O   UNL     1       0.978  -3.504  -6.119  1.00  0.00    -0.269 OA
ATOM      8  H   UNL     1       2.841  -2.592  -7.223  1.00  0.00     0.163 HD
BRANCH   6   9
ATOM      9  C   UNL     1       1.538  -2.394  -4.125  1.00  0.00     0.067 A 
ATOM     10  C   UNL     1       1.010  -1.550  -1.498  1.00  0.00     0.162 A 
ATOM     11  C   UNL     1      -0.048  -1.858  -2.366  1.00  0.00     0.077 A 
ATOM     12  C   UNL     1       2.328  -1.745  -1.911  1.00  0.00     0.161 A 
ATOM     13  C   UNL     1       0.193  -2.311  -3.674  1.00  0.00     0.057 A 
ATOM     14  C   UNL     1       2.577  -2.193  -3.211  1.00  0.00     0.066 A 
BRANCH  10  15
ATOM     15  O   UNL     1       0.733  -1.193  -0.206  1.00  0.00    -0.493 OA
ATOM     16  C   UNL     1       0.049   0.059  -0.127  1.00  0.00     0.278 C 
ENDBRANCH  10  15
BRANCH  12  17
ATOM     17  O   UNL     1       3.465  -1.581  -1.165  1.00  0.00    -0.493 OA
ATOM     18  C   UNL     1       3.438  -0.558  -0.176  1.00  0.00     0.278 C 
ENDBRANCH  12  17
BRANCH  13  19
ATOM     19  N   UNL     1      -0.868  -2.719  -4.527  1.00  0.00    -0.338 N 
ATOM     20  H   UNL     1      -0.667  -2.775  -5.489  1.00  0.00     0.168 HD
BRANCH  19  21
ATOM     21  C   UNL     1      -2.145  -3.042  -4.139  1.00  0.00     0.156 A 
ATOM     22  C   UNL     1      -2.558  -4.479  -4.370  1.00  0.00     0.180 A 
ATOM     23  N   UNL     1      -2.984  -2.207  -3.612  1.00  0.00    -0.173 NA
ATOM     24  N   UNL     1      -3.732  -4.916  -4.058  1.00  0.00    -0.176 NA
ATOM     25  C   UNL     1      -4.245  -2.646  -3.309  1.00  0.00     0.363 A 
ATOM     26  N   UNL     1      -4.557  -3.973  -3.525  1.00  0.00    -0.227 N 
ATOM     27  O   UNL     1      -5.109  -1.900  -2.854  1.00  0.00    -0.244 OA
ATOM     28  H   UNL     1      -5.462  -4.266  -3.271  1.00  0.00     0.195 HD
ENDBRANCH  19  21
ENDBRANCH  13  19
ENDBRANCH   6   9
ENDBRANCH   4   5
ENDBRANCH   3   4
ENDBRANCH   2   3
ENDBRANCH   1   2
BRANCH   1  29
ATOM     29  C   UNL     1       7.635  -0.919  -7.051  1.00  0.00     0.021 C 
BRANCH  29  30
ATOM     30  C   UNL     1       8.811  -1.771  -6.582  1.00  0.00     0.116 C 
BRANCH  30  31
ATOM     31  N   UNL     1       9.584  -2.282  -7.702  1.00  0.00    -0.352 N 
ATOM     32  C   UNL     1      10.934  -2.194  -7.937  1.00  0.00     0.251 C 
ATOM     33  H   UNL     1       9.066  -2.759  -8.390  1.00  0.00     0.163 HD
ATOM     34  O   UNL     1      11.380  -2.486  -9.043  1.00  0.00    -0.269 OA
BRANCH  32  35
ATOM     35  C   UNL     1      11.847  -1.741  -6.864  1.00  0.00     0.039 A 
ATOM     36  C   UNL     1      12.870  -0.844  -7.183  1.00  0.00     0.014 A 
ATOM     37  C   UNL     1      11.720  -2.226  -5.559  1.00  0.00     0.014 A 
ATOM     38  C   UNL     1      13.743  -0.404  -6.184  1.00  0.00     0.010 A 
ATOM     39  C   UNL     1      12.553  -1.741  -4.553  1.00  0.00     0.010 A 
ATOM     40  C   UNL     1      13.580  -0.835  -4.858  1.00  0.00    -0.014 A 
BRANCH  40  41
ATOM     41  C   UNL     1      14.492  -0.367  -3.783  1.00  0.00     0.031 A 
ATOM     42  C   UNL     1      15.411  -1.342  -3.097  1.00  0.00     0.074 A 
ATOM     43  C   UNL     1      14.455   0.920  -3.390  1.00  0.00     0.049 A 
ATOM     44  N   UNL     1      16.236  -1.140  -2.102  1.00  0.00    -0.248 NA
ATOM     45  C   UNL     1      15.379  -2.734  -3.575  1.00  0.00     0.031 C 
ATOM     46  C   UNL     1      13.572   1.949  -3.944  1.00  0.00     0.029 A 
ATOM     47  N   UNL     1      15.171   1.583  -2.424  1.00  0.00    -0.354 N 
ATOM     48  C   UNL     1      16.806  -2.377  -1.824  1.00  0.00     0.074 A 
ATOM     49  C   UNL     1      16.199  -3.333  -2.724  1.00  0.00     0.031 C 
ATOM     50  C   UNL     1      13.812   3.115  -3.322  1.00  0.00     0.029 A 
ATOM     51  C   UNL     1      14.842   2.912  -2.308  1.00  0.00     0.049 A 
ATOM     52  H   UNL     1      15.855   1.146  -1.867  1.00  0.00     0.167 HD
ATOM     53  C   UNL     1      17.764  -2.684  -0.916  1.00  0.00     0.037 A 
ATOM     54  C   UNL     1      15.317   3.860  -1.477  1.00  0.00     0.037 A 
ATOM     55  C   UNL     1      18.389  -1.722  -0.047  1.00  0.00     0.049 A 
ATOM     56  C   UNL     1      16.402   3.502  -0.499  1.00  0.00     0.074 A 
ATOM     57  C   UNL     1      19.409  -1.921   0.867  1.00  0.00     0.029 A 
ATOM     58  N   UNL     1      18.057  -0.376   0.013  1.00  0.00    -0.354 N 
ATOM     59  N   UNL     1      16.969   2.338  -0.288  1.00  0.00    -0.248 NA
ATOM     60  C   UNL     1      16.921   4.587   0.345  1.00  0.00     0.031 C 
ATOM     61  C   UNL     1      19.674  -0.702   1.501  1.00  0.00     0.029 A 
ATOM     62  C   UNL     1      18.845   0.265   0.954  1.00  0.00     0.049 A 
ATOM     63  H   UNL     1      17.364   0.059  -0.533  1.00  0.00     0.167 HD
ATOM     64  C   UNL     1      17.929   2.556   0.694  1.00  0.00     0.074 A 
ATOM     65  C   UNL     1      17.872   3.965   1.028  1.00  0.00     0.031 C 
ATOM     66  C   UNL     1      18.781   1.670   1.267  1.00  0.00     0.037 A 
BRANCH  53  67
ATOM     67  C   UNL     1      18.198  -4.121  -0.824  1.00  0.00     0.058 A 
ATOM     68  C   UNL     1      18.963  -4.724  -1.835  1.00  0.00     0.135 A 
ATOM     69  C   UNL     1      17.870  -4.897   0.299  1.00  0.00     0.135 A 
ATOM     70  F   UNL     1      19.292  -4.032  -2.938  1.00  0.00    -0.206 F 
ATOM     71  C   UNL     1      19.360  -6.055  -1.753  1.00  0.00     0.059 A 
ATOM     72  C   UNL     1      18.278  -6.223   0.415  1.00  0.00     0.059 A 
ATOM     73  F   UNL     1      17.140  -4.371   1.295  1.00  0.00    -0.206 F 
ATOM     74  C   UNL     1      19.009  -6.798  -0.624  1.00  0.00     0.060 A 
BRANCH  74  75
ATOM     75  S   UNL     1      19.528  -8.524  -0.531  1.00  0.00     0.124 S 
ATOM     76  O   UNL     1      18.595  -9.158  -1.458  1.00  0.00    -0.237 OA
ATOM     77  O   UNL     1      20.916  -8.459  -0.976  1.00  0.00    -0.237 OA
ATOM     78  O   UNL     1      19.339  -8.859   0.877  1.00  0.00    -0.744 OA
ENDBRANCH  74  75
ENDBRANCH  53  67
BRANCH  54  79
ATOM     79  C   UNL     1      14.791   5.248  -1.559  1.00  0.00     0.058 A 
ATOM     80  C   UNL     1      15.568   6.281  -2.102  1.00  0.00     0.135 A 
ATOM     81  C   UNL     1      13.497   5.564  -1.117  1.00  0.00     0.135 A 
ATOM     82  F   UNL     1      16.812   6.028  -2.534  1.00  0.00    -0.206 F 
ATOM     83  C   UNL     1      15.088   7.584  -2.192  1.00  0.00     0.059 A 
ATOM     84  C   UNL     1      12.987   6.854  -1.216  1.00  0.00     0.059 A 
ATOM     85  F   UNL     1      12.708   4.605  -0.606  1.00  0.00    -0.206 F 
ATOM     86  C   UNL     1      13.794   7.860  -1.746  1.00  0.00     0.060 A 
BRANCH  86  87
ATOM     87  S   UNL     1      13.158   9.542  -1.916  1.00  0.00     0.124 S 
ATOM     88  O   UNL     1      13.850  10.228  -0.832  1.00  0.00    -0.237 OA
ATOM     89  O   UNL     1      13.579   9.896  -3.268  1.00  0.00    -0.237 OA
ATOM     90  O   UNL     1      11.718   9.373  -1.742  1.00  0.00    -0.744 OA
ENDBRANCH  86  87
ENDBRANCH  54  79
BRANCH  66  91
ATOM     91  C   UNL     1      19.745   2.204   2.288  1.00  0.00     0.058 A 
ATOM     92  C   UNL     1      19.329   2.558   3.580  1.00  0.00     0.135 A 
ATOM     93  C   UNL     1      21.110   2.323   1.981  1.00  0.00     0.135 A 
ATOM     94  F   UNL     1      18.033   2.469   3.921  1.00  0.00    -0.206 F 
ATOM     95  C   UNL     1      20.229   3.035   4.527  1.00  0.00     0.059 A 
ATOM     96  C   UNL     1      22.032   2.775   2.920  1.00  0.00     0.059 A 
ATOM     97  F   UNL     1      21.561   1.987   0.762  1.00  0.00    -0.206 F 
ATOM     98  C   UNL     1      21.579   3.141   4.186  1.00  0.00     0.060 A 
BRANCH  98  99
ATOM     99  S   UNL     1      22.744   3.737   5.430  1.00  0.00     0.124 S 
ATOM    100  O   UNL     1      22.481   5.172   5.415  1.00  0.00    -0.237 OA
ATOM    101  O   UNL     1      22.314   3.026   6.631  1.00  0.00    -0.237 OA
ATOM    102  O   UNL     1      24.042   3.330   4.901  1.00  0.00    -0.744 OA
ENDBRANCH  98  99
ENDBRANCH  66  91
ENDBRANCH  40  41
ENDBRANCH  32  35
ENDBRANCH  30  31
ENDBRANCH  29  30
ENDBRANCH   1  29
TORSDOF 20
