REMARK SMILES COc1cccc(Cn2c(=O)c(=O)n(CC(=O)NCCCCCCNC(=O)c3ccc(-c4c5nc(c(-c6c(F)cc(S(=O)(=O)[O-])cc6F)c6ccc([nH]6)c(-c6c(F)cc(S(=O)(=O)[O-])cc6F)c6nc(c(-c7c(F)cc(S(=O)(=O)[O-])cc7F)c7ccc4[nH]7)C=C6)C=C5)cc3)c3ccccc32)c1
REMARK SMILES IDX 21 1 20 2 19 3 18 4 16 5 17 6 15 8 14 9 9 10 10 11 99 12
REMARK SMILES IDX 11 13 12 14 94 15 98 16 13 17 95 18 97 19 96 20 8 21 7 22
REMARK SMILES IDX 3 23 4 24 100 25 5 26 6 27 2 28 1 29 22 30 23 31 24 32 25 33
REMARK SMILES IDX 26 34 27 36 28 37 29 38 93 39 30 40 92 41 31 42 32 43 33 44
REMARK SMILES IDX 86 45 34 46 91 47 85 48 87 49 35 50 90 51 84 52 83 53 36 55
REMARK SMILES IDX 70 56 49 57 69 58 50 59 53 60 68 61 88 62 51 63 52 64 67 66
REMARK SMILES IDX 89 67 54 68 37 69 38 70 47 71 39 72 40 73 46 74 48 75 41 76
REMARK SMILES IDX 42 77 43 78 44 79 45 80 71 81 72 82 81 83 73 84 74 85 80 86
REMARK SMILES IDX 82 87 75 88 76 89 77 90 78 91 79 92 55 93 56 94 65 95 57 96
REMARK SMILES IDX 58 97 64 98 66 99 59 100 60 101 61 102 62 103 63 104
REMARK H PARENT 18 7 25 35 87 54 53 65
REMARK Flexibility Score: inf
ROOT
ATOM      1  C   UNL     1      -0.045   6.812   5.446  1.00  0.00     0.002 C 
ENDROOT
BRANCH   1   2
ATOM      2  C   UNL     1       1.077   6.100   4.677  1.00  0.00     0.021 C 
BRANCH   2   3
ATOM      3  C   UNL     1       0.910   6.195   3.162  1.00  0.00     0.116 C 
BRANCH   3   4
ATOM      4  N   UNL     1       1.386   7.473   2.675  1.00  0.00    -0.355 N 
ATOM      5  C   UNL     1       2.617   7.862   2.261  1.00  0.00     0.240 C 
ATOM      6  O   UNL     1       2.724   9.046   1.909  1.00  0.00    -0.273 OA
ATOM      7  H   UNL     1       0.700   8.178   2.640  1.00  0.00     0.163 HD
BRANCH   5   8
ATOM      8  C   UNL     1       3.778   6.901   1.976  1.00  0.00     0.226 C 
BRANCH   8   9
ATOM      9  N   UNL     1       4.203   5.776   2.796  1.00  0.00    -0.293 N 
ATOM     10  N   UNL     1       5.313   3.463   3.965  1.00  0.00    -0.298 N 
ATOM     11  C   UNL     1       5.028   3.485   2.613  1.00  0.00     0.317 A 
ATOM     12  C   UNL     1       5.632   4.727   4.528  1.00  0.00     0.068 A 
ATOM     13  O   UNL     1       5.544   2.774   1.756  1.00  0.00    -0.263 OA
ATOM     14  C   UNL     1       3.984   4.522   2.239  1.00  0.00     0.317 A 
ATOM     15  C   UNL     1       5.112   5.903   3.903  1.00  0.00     0.069 A 
ATOM     16  C   UNL     1       6.584   4.838   5.551  1.00  0.00     0.028 A 
ATOM     17  O   UNL     1       3.112   4.244   1.421  1.00  0.00    -0.263 OA
ATOM     18  C   UNL     1       5.529   7.155   4.368  1.00  0.00     0.028 A 
ATOM     19  C   UNL     1       7.042   6.098   5.941  1.00  0.00     0.002 A 
ATOM     20  C   UNL     1       6.508   7.249   5.363  1.00  0.00     0.002 A 
BRANCH  10  21
ATOM     21  C   UNL     1       5.424   2.162   4.625  1.00  0.00     0.162 C 
BRANCH  21  22
ATOM     22  C   UNL     1       4.085   1.429   4.465  1.00  0.00    -0.024 A 
ATOM     23  C   UNL     1       2.386   0.773   2.859  1.00  0.00     0.119 A 
ATOM     24  C   UNL     1       1.403   0.871   3.834  1.00  0.00     0.046 A 
ATOM     25  C   UNL     1       3.724   0.943   3.194  1.00  0.00     0.052 A 
ATOM     26  C   UNL     1       1.769   1.172   5.148  1.00  0.00     0.004 A 
ATOM     27  C   UNL     1       3.098   1.492   5.457  1.00  0.00     0.006 A 
BRANCH  23  28
ATOM     28  O   UNL     1       2.053   0.850   1.533  1.00  0.00    -0.497 OA
ATOM     29  C   UNL     1       1.693  -0.401   0.971  1.00  0.00     0.278 C 
ENDBRANCH  23  28
ENDBRANCH  21  22
ENDBRANCH  10  21
ENDBRANCH   8   9
ENDBRANCH   5   8
ENDBRANCH   3   4
ENDBRANCH   2   3
ENDBRANCH   1   2
BRANCH   1  30
ATOM     30  C   UNL     1      -1.385   6.065   5.435  1.00  0.00     0.002 C 
BRANCH  30  31
ATOM     31  C   UNL     1      -1.390   4.737   6.203  1.00  0.00     0.021 C 
BRANCH  31  32
ATOM     32  C   UNL     1      -1.098   4.863   7.697  1.00  0.00     0.116 C 
BRANCH  32  33
ATOM     33  N   UNL     1      -2.068   5.721   8.359  1.00  0.00    -0.352 N 
ATOM     34  C   UNL     1      -2.979   5.421   9.338  1.00  0.00     0.251 C 
ATOM     35  H   UNL     1      -2.071   6.659   8.058  1.00  0.00     0.163 HD
ATOM     36  O   UNL     1      -3.910   6.191   9.556  1.00  0.00    -0.269 OA
BRANCH  34  37
ATOM     37  C   UNL     1      -2.835   4.188  10.140  1.00  0.00     0.039 A 
ATOM     38  C   UNL     1      -3.982   3.470  10.490  1.00  0.00     0.014 A 
ATOM     39  C   UNL     1      -1.583   3.784  10.616  1.00  0.00     0.014 A 
ATOM     40  C   UNL     1      -3.872   2.338  11.299  1.00  0.00     0.010 A 
ATOM     41  C   UNL     1      -1.467   2.622  11.372  1.00  0.00     0.010 A 
ATOM     42  C   UNL     1      -2.613   1.903  11.741  1.00  0.00    -0.014 A 
BRANCH  42  43
ATOM     43  C   UNL     1      -2.486   0.716  12.620  1.00  0.00     0.031 A 
ATOM     44  C   UNL     1      -2.035   0.875  14.045  1.00  0.00     0.074 A 
ATOM     45  C   UNL     1      -2.725  -0.509  12.117  1.00  0.00     0.049 A 
ATOM     46  N   UNL     1      -1.862  -0.040  14.963  1.00  0.00    -0.248 NA
ATOM     47  C   UNL     1      -1.706   2.239  14.487  1.00  0.00     0.031 C 
ATOM     48  C   UNL     1      -3.093  -0.793  10.729  1.00  0.00     0.029 A 
ATOM     49  N   UNL     1      -2.683  -1.743  12.712  1.00  0.00    -0.354 N 
ATOM     50  C   UNL     1      -1.384   0.631  16.082  1.00  0.00     0.074 A 
ATOM     51  C   UNL     1      -1.250   2.024  15.713  1.00  0.00     0.031 C 
ATOM     52  C   UNL     1      -3.257  -2.118  10.582  1.00  0.00     0.029 A 
ATOM     53  C   UNL     1      -2.995  -2.775  11.860  1.00  0.00     0.049 A 
ATOM     54  H   UNL     1      -2.451  -1.877  13.659  1.00  0.00     0.167 HD
ATOM     55  C   UNL     1      -1.103   0.137  17.312  1.00  0.00     0.037 A 
ATOM     56  C   UNL     1      -3.071  -4.100  12.086  1.00  0.00     0.037 A 
ATOM     57  C   UNL     1      -1.272  -1.244  17.681  1.00  0.00     0.049 A 
ATOM     58  C   UNL     1      -2.833  -4.621  13.474  1.00  0.00     0.074 A 
ATOM     59  C   UNL     1      -1.098  -1.835  18.919  1.00  0.00     0.029 A 
ATOM     60  N   UNL     1      -1.655  -2.252  16.807  1.00  0.00    -0.354 N 
ATOM     61  N   UNL     1      -2.472  -3.960  14.549  1.00  0.00    -0.248 NA
ATOM     62  C   UNL     1      -3.031  -6.060  13.688  1.00  0.00     0.031 C 
ATOM     63  C   UNL     1      -1.350  -3.207  18.788  1.00  0.00     0.029 A 
ATOM     64  C   UNL     1      -1.711  -3.464  17.474  1.00  0.00     0.049 A 
ATOM     65  H   UNL     1      -1.858  -2.124  15.852  1.00  0.00     0.167 HD
ATOM     66  C   UNL     1      -2.414  -4.899  15.571  1.00  0.00     0.074 A 
ATOM     67  C   UNL     1      -2.789  -6.173  14.988  1.00  0.00     0.031 C 
ATOM     68  C   UNL     1      -2.083  -4.722  16.874  1.00  0.00     0.037 A 
BRANCH  55  69
ATOM     69  C   UNL     1      -0.583   1.106  18.337  1.00  0.00     0.058 A 
ATOM     70  C   UNL     1      -1.407   2.093  18.903  1.00  0.00     0.135 A 
ATOM     71  C   UNL     1       0.761   1.066  18.741  1.00  0.00     0.135 A 
ATOM     72  F   UNL     1      -2.697   2.184  18.542  1.00  0.00    -0.206 F 
ATOM     73  C   UNL     1      -0.905   3.040  19.790  1.00  0.00     0.059 A 
ATOM     74  C   UNL     1       1.278   1.987  19.647  1.00  0.00     0.059 A 
ATOM     75  F   UNL     1       1.592   0.142  18.235  1.00  0.00    -0.206 F 
ATOM     76  C   UNL     1       0.443   2.987  20.145  1.00  0.00     0.060 A 
BRANCH  76  77
ATOM     77  S   UNL     1       1.100   4.249  21.257  1.00  0.00     0.124 S 
ATOM     78  O   UNL     1       1.287   5.370  20.342  1.00  0.00    -0.237 OA
ATOM     79  O   UNL     1       0.026   4.402  22.234  1.00  0.00    -0.237 OA
ATOM     80  O   UNL     1       2.325   3.643  21.768  1.00  0.00    -0.744 OA
ENDBRANCH  76  77
ENDBRANCH  55  69
BRANCH  56  81
ATOM     81  C   UNL     1      -3.447  -5.000  10.968  1.00  0.00     0.058 A 
ATOM     82  C   UNL     1      -4.748  -5.510  10.863  1.00  0.00     0.135 A 
ATOM     83  C   UNL     1      -2.541  -5.291   9.937  1.00  0.00     0.135 A 
ATOM     84  F   UNL     1      -5.647  -5.258  11.828  1.00  0.00    -0.206 F 
ATOM     85  C   UNL     1      -5.145  -6.270   9.768  1.00  0.00     0.059 A 
ATOM     86  C   UNL     1      -2.919  -6.035   8.824  1.00  0.00     0.059 A 
ATOM     87  F   UNL     1      -1.290  -4.807   9.985  1.00  0.00    -0.206 F 
ATOM     88  C   UNL     1      -4.225  -6.518   8.747  1.00  0.00     0.060 A 
BRANCH  88  89
ATOM     89  S   UNL     1      -4.780  -7.408   7.277  1.00  0.00     0.124 S 
ATOM     90  O   UNL     1      -4.812  -8.783   7.760  1.00  0.00    -0.237 OA
ATOM     91  O   UNL     1      -6.077  -6.792   7.014  1.00  0.00    -0.237 OA
ATOM     92  O   UNL     1      -3.743  -7.107   6.294  1.00  0.00    -0.744 OA
ENDBRANCH  88  89
ENDBRANCH  56  81
BRANCH  68  93
ATOM     93  C   UNL     1      -2.119  -5.932  17.762  1.00  0.00     0.058 A 
ATOM     94  C   UNL     1      -1.106  -6.901  17.719  1.00  0.00     0.135 A 
ATOM     95  C   UNL     1      -3.149  -6.095  18.702  1.00  0.00     0.135 A 
ATOM     96  F   UNL     1      -0.103  -6.792  16.834  1.00  0.00    -0.206 F 
ATOM     97  C   UNL     1      -1.121  -8.003  18.568  1.00  0.00     0.059 A 
ATOM     98  C   UNL     1      -3.173  -7.179  19.574  1.00  0.00     0.059 A 
ATOM     99  F   UNL     1      -4.136  -5.190  18.788  1.00  0.00    -0.206 F 
ATOM    100  C   UNL     1      -2.159  -8.133  19.492  1.00  0.00     0.060 A 
BRANCH 100 101
ATOM    101  S   UNL     1      -2.151  -9.547  20.615  1.00  0.00     0.124 S 
ATOM    102  O   UNL     1      -2.640 -10.613  19.747  1.00  0.00    -0.237 OA
ATOM    103  O   UNL     1      -0.746  -9.637  21.000  1.00  0.00    -0.237 OA
ATOM    104  O   UNL     1      -3.060  -9.136  21.681  1.00  0.00    -0.744 OA
ENDBRANCH 100 101
ENDBRANCH  68  93
ENDBRANCH  42  43
ENDBRANCH  34  37
ENDBRANCH  32  33
ENDBRANCH  31  32
ENDBRANCH  30  31
ENDBRANCH   1  30
TORSDOF 20
