REMARK SMILES CC(C)(C#N)Nc1ccccc1C(=O)NCCCCCCNC(=O)c1ccc(-c2c3nc(c(-c4c(F)cc(S(=O)(=O)[O-])cc4F)c4ccc([nH]4)c(-c4c(F)cc(S(=O)(=O)[O-])cc4F)c4nc(c(-c5c(F)cc(S(=O)(=O)[O-])cc5F)c5ccc2[nH]5)C=C4)C=C3)cc1
REMARK SMILES IDX 18 1 17 2 16 3 15 4 13 5 14 6 12 8 7 9 8 10 9 11 11 12 10 13
REMARK SMILES IDX 6 14 2 16 1 17 3 18 4 19 5 20 19 21 20 22 21 23 22 24 23 25
REMARK SMILES IDX 24 27 25 28 26 29 90 30 27 31 89 32 28 33 29 34 30 35 83 36
REMARK SMILES IDX 31 37 88 38 82 39 84 40 32 41 87 42 81 43 80 44 33 46 67 47
REMARK SMILES IDX 46 48 66 49 47 50 50 51 65 52 85 53 48 54 49 55 64 57 86 58
REMARK SMILES IDX 51 59 34 60 35 61 44 62 36 63 37 64 43 65 45 66 38 67 39 68
REMARK SMILES IDX 40 69 41 70 42 71 68 72 69 73 78 74 70 75 71 76 77 77 79 78
REMARK SMILES IDX 72 79 73 80 74 81 75 82 76 83 52 84 53 85 62 86 54 87 55 88
REMARK SMILES IDX 61 89 63 90 56 91 57 92 58 93 59 94 60 95
REMARK H PARENT 15 7 6 15 22 26 84 45 50 56
REMARK Flexibility Score: inf
ROOT
ATOM      1  C   UNL     1      -1.689   3.516   0.346  1.00  0.00     0.002 C 
ENDROOT
BRANCH   1   2
ATOM      2  C   UNL     1      -1.737   3.141  -1.146  1.00  0.00     0.021 C 
BRANCH   2   3
ATOM      3  C   UNL     1      -1.943   1.683  -1.579  1.00  0.00     0.116 C 
BRANCH   3   4
ATOM      4  N   UNL     1      -2.942   0.940  -0.832  1.00  0.00    -0.352 N 
ATOM      5  C   UNL     1      -3.292  -0.394  -0.906  1.00  0.00     0.253 C 
ATOM      6  O   UNL     1      -4.185  -0.808  -0.166  1.00  0.00    -0.269 OA
ATOM      7  H   UNL     1      -3.446   1.468  -0.171  1.00  0.00     0.163 HD
BRANCH   5   8
ATOM      8  C   UNL     1      -2.706  -1.324  -1.911  1.00  0.00     0.062 A 
ATOM      9  C   UNL     1      -1.340  -1.461  -2.209  1.00  0.00     0.048 A 
ATOM     10  C   UNL     1      -1.001  -2.191  -3.368  1.00  0.00     0.026 A 
ATOM     11  C   UNL     1      -1.955  -2.878  -4.121  1.00  0.00     0.002 A 
ATOM     12  C   UNL     1      -3.656  -2.084  -2.629  1.00  0.00     0.016 A 
ATOM     13  C   UNL     1      -3.281  -2.870  -3.717  1.00  0.00     0.001 A 
BRANCH   9  14
ATOM     14  N   UNL     1      -0.275  -1.052  -1.422  1.00  0.00    -0.367 N 
ATOM     15  H   UNL     1       0.397  -0.484  -1.864  1.00  0.00     0.162 HD
BRANCH  14  16
ATOM     16  C   UNL     1      -0.026  -1.369   0.006  1.00  0.00     0.119 C 
ATOM     17  C   UNL     1      -0.463  -0.203   0.879  1.00  0.00     0.051 C 
ATOM     18  C   UNL     1      -0.708  -2.645   0.492  1.00  0.00     0.051 C 
BRANCH  16  19
ATOM     19  C   UNL     1       1.453  -1.504   0.202  1.00  0.00     0.090 C 
ATOM     20  N   UNL     1       2.600  -1.552   0.336  1.00  0.00    -0.196 NA
ENDBRANCH  16  19
ENDBRANCH  14  16
ENDBRANCH   9  14
ENDBRANCH   5   8
ENDBRANCH   3   4
ENDBRANCH   2   3
ENDBRANCH   1   2
BRANCH   1  21
ATOM     21  C   UNL     1      -0.483   3.169   1.227  1.00  0.00     0.002 C 
BRANCH  21  22
ATOM     22  C   UNL     1       0.910   3.257   0.605  1.00  0.00     0.021 C 
BRANCH  22  23
ATOM     23  C   UNL     1       1.318   4.655   0.161  1.00  0.00     0.116 C 
BRANCH  23  24
ATOM     24  N   UNL     1       1.274   5.617   1.253  1.00  0.00    -0.352 N 
ATOM     25  C   UNL     1       2.225   6.515   1.668  1.00  0.00     0.251 C 
ATOM     26  H   UNL     1       0.436   5.625   1.770  1.00  0.00     0.163 HD
ATOM     27  O   UNL     1       2.085   7.103   2.736  1.00  0.00    -0.269 OA
BRANCH  25  28
ATOM     28  C   UNL     1       3.415   6.762   0.829  1.00  0.00     0.039 A 
ATOM     29  C   UNL     1       4.663   6.903   1.440  1.00  0.00     0.014 A 
ATOM     30  C   UNL     1       3.296   6.862  -0.560  1.00  0.00     0.014 A 
ATOM     31  C   UNL     1       5.798   7.088   0.650  1.00  0.00     0.010 A 
ATOM     32  C   UNL     1       4.435   6.948  -1.347  1.00  0.00     0.010 A 
ATOM     33  C   UNL     1       5.697   7.076  -0.751  1.00  0.00    -0.014 A 
BRANCH  33  34
ATOM     34  C   UNL     1       6.896   7.216  -1.615  1.00  0.00     0.031 A 
ATOM     35  C   UNL     1       7.007   8.385  -2.557  1.00  0.00     0.074 A 
ATOM     36  C   UNL     1       7.849   6.263  -1.589  1.00  0.00     0.049 A 
ATOM     37  N   UNL     1       7.933   8.646  -3.443  1.00  0.00    -0.248 NA
ATOM     38  C   UNL     1       5.920   9.379  -2.518  1.00  0.00     0.031 C 
ATOM     39  C   UNL     1       7.824   5.064  -0.746  1.00  0.00     0.029 A 
ATOM     40  N   UNL     1       9.021   6.148  -2.291  1.00  0.00    -0.354 N 
ATOM     41  C   UNL     1       7.543   9.829  -4.060  1.00  0.00     0.074 A 
ATOM     42  C   UNL     1       6.258  10.193  -3.507  1.00  0.00     0.031 C 
ATOM     43  C   UNL     1       8.944   4.354  -0.957  1.00  0.00     0.029 A 
ATOM     44  C   UNL     1       9.741   5.017  -1.984  1.00  0.00     0.049 A 
ATOM     45  H   UNL     1       9.319   6.812  -2.954  1.00  0.00     0.167 HD
ATOM     46  C   UNL     1       8.213  10.565  -4.977  1.00  0.00     0.037 A 
ATOM     47  C   UNL     1      10.906   4.562  -2.483  1.00  0.00     0.037 A 
ATOM     48  C   UNL     1       9.497  10.197  -5.513  1.00  0.00     0.049 A 
ATOM     49  C   UNL     1      11.604   5.374  -3.543  1.00  0.00     0.074 A 
ATOM     50  C   UNL     1      10.274  10.880  -6.432  1.00  0.00     0.029 A 
ATOM     51  N   UNL     1      10.194   9.045  -5.178  1.00  0.00    -0.354 N 
ATOM     52  N   UNL     1      11.247   6.519  -4.077  1.00  0.00    -0.248 NA
ATOM     53  C   UNL     1      12.868   4.837  -4.066  1.00  0.00     0.031 C 
ATOM     54  C   UNL     1      11.414  10.116  -6.692  1.00  0.00     0.029 A 
ATOM     55  C   UNL     1      11.382   8.988  -5.887  1.00  0.00     0.049 A 
ATOM     56  H   UNL     1       9.888   8.367  -4.532  1.00  0.00     0.167 HD
ATOM     57  C   UNL     1      12.262   6.857  -4.966  1.00  0.00     0.074 A 
ATOM     58  C   UNL     1      13.252   5.804  -4.887  1.00  0.00     0.031 C 
ATOM     59  C   UNL     1      12.366   7.940  -5.776  1.00  0.00     0.037 A 
BRANCH  46  60
ATOM     60  C   UNL     1       7.580  11.850  -5.443  1.00  0.00     0.058 A 
ATOM     61  C   UNL     1       7.437  12.951  -4.583  1.00  0.00     0.135 A 
ATOM     62  C   UNL     1       7.154  12.002  -6.772  1.00  0.00     0.135 A 
ATOM     63  F   UNL     1       7.809  12.858  -3.296  1.00  0.00    -0.206 F 
ATOM     64  C   UNL     1       6.874  14.146  -5.016  1.00  0.00     0.059 A 
ATOM     65  C   UNL     1       6.619  13.200  -7.237  1.00  0.00     0.059 A 
ATOM     66  F   UNL     1       7.262  10.982  -7.638  1.00  0.00    -0.206 F 
ATOM     67  C   UNL     1       6.473  14.263  -6.347  1.00  0.00     0.060 A 
BRANCH  67  68
ATOM     68  S   UNL     1       5.767  15.832  -6.895  1.00  0.00     0.124 S 
ATOM     69  O   UNL     1       4.490  15.839  -6.188  1.00  0.00    -0.237 OA
ATOM     70  O   UNL     1       6.757  16.797  -6.426  1.00  0.00    -0.237 OA
ATOM     71  O   UNL     1       5.680  15.679  -8.344  1.00  0.00    -0.744 OA
ENDBRANCH  67  68
ENDBRANCH  46  60
BRANCH  47  72
ATOM     72  C   UNL     1      11.497   3.287  -1.989  1.00  0.00     0.058 A 
ATOM     73  C   UNL     1      12.718   3.278  -1.296  1.00  0.00     0.135 A 
ATOM     74  C   UNL     1      10.875   2.051  -2.225  1.00  0.00     0.135 A 
ATOM     75  F   UNL     1      13.356   4.432  -1.046  1.00  0.00    -0.206 F 
ATOM     76  C   UNL     1      13.322   2.091  -0.896  1.00  0.00     0.059 A 
ATOM     77  C   UNL     1      11.441   0.853  -1.802  1.00  0.00     0.059 A 
ATOM     78  F   UNL     1       9.696   2.002  -2.865  1.00  0.00    -0.206 F 
ATOM     79  C   UNL     1      12.677   0.881  -1.157  1.00  0.00     0.060 A 
BRANCH  79  80
ATOM     80  S   UNL     1      13.473  -0.653  -0.638  1.00  0.00     0.124 S 
ATOM     81  O   UNL     1      14.596  -0.729  -1.565  1.00  0.00    -0.237 OA
ATOM     82  O   UNL     1      13.812  -0.366   0.753  1.00  0.00    -0.237 OA
ATOM     83  O   UNL     1      12.429  -1.655  -0.828  1.00  0.00    -0.744 OA
ENDBRANCH  79  80
ENDBRANCH  47  72
BRANCH  59  84
ATOM     84  C   UNL     1      13.619   8.072  -6.600  1.00  0.00     0.058 A 
ATOM     85  C   UNL     1      13.889   7.224  -7.685  1.00  0.00     0.135 A 
ATOM     86  C   UNL     1      14.536   9.102  -6.330  1.00  0.00     0.135 A 
ATOM     87  F   UNL     1      13.050   6.220  -7.984  1.00  0.00    -0.206 F 
ATOM     88  C   UNL     1      15.037   7.374  -8.455  1.00  0.00     0.059 A 
ATOM     89  C   UNL     1      15.671   9.294  -7.109  1.00  0.00     0.059 A 
ATOM     90  F   UNL     1      14.321   9.949  -5.310  1.00  0.00    -0.206 F 
ATOM     91  C   UNL     1      15.919   8.416  -8.163  1.00  0.00     0.060 A 
BRANCH  91  92
ATOM     92  S   UNL     1      17.382   8.623  -9.200  1.00  0.00     0.124 S 
ATOM     93  O   UNL     1      18.186   7.471  -8.808  1.00  0.00    -0.237 OA
ATOM     94  O   UNL     1      16.817   8.576 -10.545  1.00  0.00    -0.237 OA
ATOM     95  O   UNL     1      17.908   9.923  -8.792  1.00  0.00    -0.744 OA
ENDBRANCH  91  92
ENDBRANCH  59  84
ENDBRANCH  33  34
ENDBRANCH  25  28
ENDBRANCH  23  24
ENDBRANCH  22  23
ENDBRANCH  21  22
ENDBRANCH   1  21
TORSDOF 19
