REMARK SMILES O=C(NCCCCCCNC(=O)c1cc(SCC(=O)N2CCOCC2)ccn1)c1ccc(-c2c3nc(c(-c4c(F)cc(S(=O)(=O)[O-])cc4F)c4ccc([nH]4)c(-c4c(F)cc(S(=O)(=O)[O-])cc4F)c4nc(c(-c5c(F)cc(S(=O)(=O)[O-])cc5F)c5ccc2[nH]5)C=C4)C=C3)cc1
REMARK SMILES IDX 6 1 5 2 4 3 3 4 1 5 2 6 29 8 30 9 94 10 31 11 93 12 32 13
REMARK SMILES IDX 33 14 34 15 87 16 35 17 92 18 86 19 88 20 36 21 91 22 85 23
REMARK SMILES IDX 84 24 37 26 71 27 50 28 70 29 51 30 54 31 69 32 89 33 52 34
REMARK SMILES IDX 53 35 68 37 90 38 55 39 38 40 39 41 48 42 40 43 41 44 47 45
REMARK SMILES IDX 49 46 42 47 43 48 44 49 45 50 46 51 72 52 73 53 82 54 74 55
REMARK SMILES IDX 75 56 81 57 83 58 76 59 77 60 78 61 79 62 80 63 56 64 57 65
REMARK SMILES IDX 66 66 58 67 59 68 65 69 67 70 60 71 61 72 62 73 63 74 64 75
REMARK SMILES IDX 7 76 8 77 9 78 10 79 11 80 12 82 13 83 14 84 28 85 15 86
REMARK SMILES IDX 27 87 26 88 16 89 17 90 18 91 19 92 20 93 21 94 25 95 22 96
REMARK SMILES IDX 24 97 23 98
REMARK H PARENT 3 7 88 25 54 36 10 81
REMARK Flexibility Score: inf
ROOT
ATOM      1  C   UNL     1       4.212  -3.968   0.495  1.00  0.00     0.002 C 
ENDROOT
BRANCH   1   2
ATOM      2  C   UNL     1       4.715  -2.612   0.993  1.00  0.00     0.021 C 
BRANCH   2   3
ATOM      3  C   UNL     1       4.482  -1.444   0.043  1.00  0.00     0.116 C 
BRANCH   3   4
ATOM      4  N   UNL     1       3.071  -1.194  -0.204  1.00  0.00    -0.352 N 
ATOM      5  O   UNL     1       1.141  -0.031  -0.208  1.00  0.00    -0.269 OA
ATOM      6  C   UNL     1       2.365  -0.021  -0.104  1.00  0.00     0.251 C 
ATOM      7  H   UNL     1       2.547  -1.979  -0.484  1.00  0.00     0.163 HD
BRANCH   6   8
ATOM      8  C   UNL     1       3.077   1.250   0.156  1.00  0.00     0.039 A 
ATOM      9  C   UNL     1       4.242   1.575  -0.544  1.00  0.00     0.014 A 
ATOM     10  C   UNL     1       2.561   2.136   1.106  1.00  0.00     0.014 A 
ATOM     11  C   UNL     1       4.959   2.717  -0.202  1.00  0.00     0.010 A 
ATOM     12  C   UNL     1       3.242   3.322   1.394  1.00  0.00     0.010 A 
ATOM     13  C   UNL     1       4.462   3.609   0.763  1.00  0.00    -0.014 A 
BRANCH  13  14
ATOM     14  C   UNL     1       5.205   4.861   1.054  1.00  0.00     0.031 A 
ATOM     15  C   UNL     1       5.831   5.102   2.399  1.00  0.00     0.074 A 
ATOM     16  C   UNL     1       5.329   5.780   0.076  1.00  0.00     0.049 A 
ATOM     17  N   UNL     1       6.535   6.126   2.808  1.00  0.00    -0.248 NA
ATOM     18  C   UNL     1       5.636   4.062   3.421  1.00  0.00     0.031 C 
ATOM     19  C   UNL     1       4.753   5.662  -1.265  1.00  0.00     0.029 A 
ATOM     20  N   UNL     1       5.988   6.982   0.050  1.00  0.00    -0.354 N 
ATOM     21  C   UNL     1       6.852   5.868   4.136  1.00  0.00     0.074 A 
ATOM     22  C   UNL     1       6.242   4.598   4.472  1.00  0.00     0.031 C 
ATOM     23  C   UNL     1       5.121   6.723  -1.997  1.00  0.00     0.029 A 
ATOM     24  C   UNL     1       5.911   7.622  -1.164  1.00  0.00     0.049 A 
ATOM     25  H   UNL     1       6.470   7.350   0.825  1.00  0.00     0.167 HD
ATOM     26  C   UNL     1       7.589   6.617   4.993  1.00  0.00     0.037 A 
ATOM     27  C   UNL     1       6.411   8.807  -1.562  1.00  0.00     0.037 A 
ATOM     28  C   UNL     1       8.198   7.878   4.647  1.00  0.00     0.049 A 
ATOM     29  C   UNL     1       7.209   9.627  -0.591  1.00  0.00     0.074 A 
ATOM     30  C   UNL     1       8.993   8.695   5.432  1.00  0.00     0.029 A 
ATOM     31  N   UNL     1       8.073   8.509   3.417  1.00  0.00    -0.354 N 
ATOM     32  N   UNL     1       7.528   9.350   0.651  1.00  0.00    -0.248 NA
ATOM     33  C   UNL     1       7.710  10.921  -1.071  1.00  0.00     0.031 C 
ATOM     34  C   UNL     1       9.314   9.839   4.691  1.00  0.00     0.029 A 
ATOM     35  C   UNL     1       8.756   9.714   3.428  1.00  0.00     0.049 A 
ATOM     36  H   UNL     1       7.571   8.152   2.648  1.00  0.00     0.167 HD
ATOM     37  C   UNL     1       8.281  10.428   1.098  1.00  0.00     0.074 A 
ATOM     38  C   UNL     1       8.381  11.356  -0.012  1.00  0.00     0.031 C 
ATOM     39  C   UNL     1       8.841  10.630   2.317  1.00  0.00     0.037 A 
BRANCH  26  40
ATOM     40  C   UNL     1       7.756   6.103   6.397  1.00  0.00     0.058 A 
ATOM     41  C   UNL     1       8.563   4.991   6.687  1.00  0.00     0.135 A 
ATOM     42  C   UNL     1       7.109   6.738   7.471  1.00  0.00     0.135 A 
ATOM     43  F   UNL     1       9.194   4.336   5.699  1.00  0.00    -0.206 F 
ATOM     44  C   UNL     1       8.691   4.503   7.984  1.00  0.00     0.059 A 
ATOM     45  C   UNL     1       7.242   6.282   8.779  1.00  0.00     0.059 A 
ATOM     46  F   UNL     1       6.329   7.808   7.252  1.00  0.00    -0.206 F 
ATOM     47  C   UNL     1       8.019   5.150   9.023  1.00  0.00     0.060 A 
BRANCH  47  48
ATOM     48  S   UNL     1       8.169   4.486  10.695  1.00  0.00     0.124 S 
ATOM     49  O   UNL     1       7.307   3.310  10.616  1.00  0.00    -0.237 OA
ATOM     50  O   UNL     1       9.599   4.215  10.799  1.00  0.00    -0.237 OA
ATOM     51  O   UNL     1       7.676   5.571  11.538  1.00  0.00    -0.744 OA
ENDBRANCH  47  48
ENDBRANCH  26  40
BRANCH  27  52
ATOM     52  C   UNL     1       6.176   9.266  -2.955  1.00  0.00     0.058 A 
ATOM     53  C   UNL     1       7.214   9.264  -3.897  1.00  0.00     0.135 A 
ATOM     54  C   UNL     1       4.898   9.652  -3.386  1.00  0.00     0.135 A 
ATOM     55  F   UNL     1       8.454   8.908  -3.529  1.00  0.00    -0.206 F 
ATOM     56  C   UNL     1       6.994   9.627  -5.221  1.00  0.00     0.059 A 
ATOM     57  C   UNL     1       4.647   9.995  -4.710  1.00  0.00     0.059 A 
ATOM     58  F   UNL     1       3.869   9.652  -2.525  1.00  0.00    -0.206 F 
ATOM     59  C   UNL     1       5.704   9.982  -5.620  1.00  0.00     0.060 A 
BRANCH  59  60
ATOM     60  S   UNL     1       5.410  10.367  -7.360  1.00  0.00     0.124 S 
ATOM     61  O   UNL     1       6.001  11.696  -7.470  1.00  0.00    -0.237 OA
ATOM     62  O   UNL     1       6.127   9.291  -8.038  1.00  0.00    -0.237 OA
ATOM     63  O   UNL     1       3.956  10.310  -7.475  1.00  0.00    -0.744 OA
ENDBRANCH  59  60
ENDBRANCH  27  52
BRANCH  39  64
ATOM     64  C   UNL     1       9.630  11.895   2.506  1.00  0.00     0.058 A 
ATOM     65  C   UNL     1       9.000  13.143   2.638  1.00  0.00     0.135 A 
ATOM     66  C   UNL     1      11.030  11.854   2.589  1.00  0.00     0.135 A 
ATOM     67  F   UNL     1       7.663  13.237   2.556  1.00  0.00    -0.206 F 
ATOM     68  C   UNL     1       9.734  14.309   2.825  1.00  0.00     0.059 A 
ATOM     69  C   UNL     1      11.783  13.005   2.799  1.00  0.00     0.059 A 
ATOM     70  F   UNL     1      11.680  10.684   2.476  1.00  0.00    -0.206 F 
ATOM     71  C   UNL     1      11.126  14.230   2.903  1.00  0.00     0.060 A 
BRANCH  71  72
ATOM     72  S   UNL     1      12.068  15.746   3.173  1.00  0.00     0.124 S 
ATOM     73  O   UNL     1      12.021  16.361   1.851  1.00  0.00    -0.237 OA
ATOM     74  O   UNL     1      11.292  16.418   4.212  1.00  0.00    -0.237 OA
ATOM     75  O   UNL     1      13.378  15.260   3.595  1.00  0.00    -0.744 OA
ENDBRANCH  71  72
ENDBRANCH  39  64
ENDBRANCH  13  14
ENDBRANCH   6   8
ENDBRANCH   3   4
ENDBRANCH   2   3
ENDBRANCH   1   2
BRANCH   1  76
ATOM     76  C   UNL     1       4.739  -4.411  -0.874  1.00  0.00     0.002 C 
BRANCH  76  77
ATOM     77  C   UNL     1       6.262  -4.406  -1.034  1.00  0.00     0.021 C 
BRANCH  77  78
ATOM     78  C   UNL     1       7.021  -5.216   0.012  1.00  0.00     0.116 C 
BRANCH  78  79
ATOM     79  N   UNL     1       6.729  -6.637  -0.057  1.00  0.00    -0.351 N 
ATOM     80  C   UNL     1       7.613  -7.693  -0.061  1.00  0.00     0.269 C 
ATOM     81  H   UNL     1       5.776  -6.877  -0.107  1.00  0.00     0.163 HD
ATOM     82  O   UNL     1       7.195  -8.846  -0.137  1.00  0.00    -0.268 OA
BRANCH  80  83
ATOM     83  C   UNL     1       9.073  -7.419   0.029  1.00  0.00     0.129 A 
ATOM     84  C   UNL     1       9.590  -6.778   1.151  1.00  0.00     0.049 A 
ATOM     85  N   UNL     1       9.809  -7.795  -1.048  1.00  0.00    -0.251 NA
ATOM     86  C   UNL     1      10.937  -6.443   1.141  1.00  0.00     0.012 A 
ATOM     87  C   UNL     1      11.119  -7.504  -1.006  1.00  0.00     0.113 A 
ATOM     88  C   UNL     1      11.716  -6.832   0.045  1.00  0.00     0.035 A 
BRANCH  86  89
ATOM     89  S   UNL     1      11.796  -5.572   2.430  1.00  0.00    -0.116 SA
BRANCH  89  90
ATOM     90  C   UNL     1      10.541  -4.648   3.352  1.00  0.00     0.175 C 
BRANCH  90  91
ATOM     91  C   UNL     1       9.525  -3.805   2.599  1.00  0.00     0.233 C 
ATOM     92  O   UNL     1       8.325  -4.080   2.726  1.00  0.00    -0.274 OA
ATOM     93  N   UNL     1       9.909  -2.644   1.962  1.00  0.00    -0.337 N 
ATOM     94  C   UNL     1      11.165  -2.400   1.250  1.00  0.00     0.148 C 
ATOM     95  C   UNL     1       8.955  -1.533   1.845  1.00  0.00     0.148 C 
ATOM     96  C   UNL     1      11.768  -1.054   1.645  1.00  0.00     0.181 C 
ATOM     97  C   UNL     1       9.640  -0.218   2.248  1.00  0.00     0.181 C 
ATOM     98  O   UNL     1      10.818   0.003   1.456  1.00  0.00    -0.378 OA
ENDBRANCH  90  91
ENDBRANCH  89  90
ENDBRANCH  86  89
ENDBRANCH  80  83
ENDBRANCH  78  79
ENDBRANCH  77  78
ENDBRANCH  76  77
ENDBRANCH   1  76
TORSDOF 19
