REMARK SMILES Nc1c(N2CCC(C(=O)NCCCCCCNC(=O)c3ccc(-c4c5nc(c(-c6c(F)cc(S(=O)(=O)[O-])cc6F)c6ccc([nH]6)c(-c6c(F)cc(S(=O)(=O)[O-])cc6F)c6nc(c(-c7c(F)cc(S(=O)(=O)[O-])cc7F)c7ccc4[nH]7)C=C6)C=C5)cc3)CC2)ncnc1N1CCN(c2ccccc2)CC1
REMARK SMILES IDX 13 1 12 2 11 3 10 4 8 5 9 6 7 8 4 9 5 10 87 11 6 12 86 13
REMARK SMILES IDX 3 14 2 15 91 16 88 17 90 18 89 19 1 20 92 23 93 24 103 25
REMARK SMILES IDX 94 26 102 27 95 28 96 29 97 30 101 31 98 32 100 33 99 34
REMARK SMILES IDX 14 35 15 36 16 37 17 38 18 39 19 41 20 42 21 43 85 44 22 45
REMARK SMILES IDX 84 46 23 47 24 48 25 49 78 50 26 51 83 52 77 53 79 54 27 55
REMARK SMILES IDX 82 56 76 57 75 58 28 60 62 61 41 62 61 63 42 64 45 65 60 66
REMARK SMILES IDX 80 67 43 68 44 69 59 71 81 72 46 73 29 74 30 75 39 76 31 77
REMARK SMILES IDX 32 78 38 79 40 80 33 81 34 82 35 83 36 84 37 85 63 86 64 87
REMARK SMILES IDX 73 88 65 89 66 90 72 91 74 92 67 93 68 94 69 95 70 96 71 97
REMARK SMILES IDX 47 98 48 99 57 100 49 101 50 102 56 103 58 104 51 105 52 106
REMARK SMILES IDX 53 107 54 108 55 109
REMARK H PARENT 10 7 1 21 1 22 17 40 79 59 45 70
REMARK Flexibility Score: inf
ROOT
ATOM      1  C   UNL     1      -5.637   2.891  -5.576  1.00  0.00     0.002 C 
ENDROOT
BRANCH   1   2
ATOM      2  C   UNL     1      -4.889   2.224  -4.417  1.00  0.00     0.021 C 
BRANCH   2   3
ATOM      3  C   UNL     1      -3.376   2.411  -4.473  1.00  0.00     0.116 C 
BRANCH   3   4
ATOM      4  N   UNL     1      -3.013   3.794  -4.200  1.00  0.00    -0.356 N 
ATOM      5  C   UNL     1      -2.243   4.332  -3.216  1.00  0.00     0.223 C 
ATOM      6  O   UNL     1      -2.125   5.559  -3.170  1.00  0.00    -0.275 OA
ATOM      7  H   UNL     1      -3.386   4.449  -4.833  1.00  0.00     0.163 HD
BRANCH   5   8
ATOM      8  C   UNL     1      -1.508   3.452  -2.220  1.00  0.00     0.082 C 
ATOM      9  N   UNL     1      -0.961   0.798  -1.469  1.00  0.00    -0.355 N 
ATOM     10  C   UNL     1      -1.828   1.516  -0.560  1.00  0.00     0.119 C 
ATOM     11  C   UNL     1       0.126   1.529  -2.099  1.00  0.00     0.119 C 
ATOM     12  C   UNL     1      -2.474   2.686  -1.298  1.00  0.00     0.035 C 
ATOM     13  C   UNL     1      -0.461   2.615  -2.970  1.00  0.00     0.035 C 
BRANCH   9  14
ATOM     14  C   UNL     1      -0.720  -0.546  -1.199  1.00  0.00     0.157 A 
ATOM     15  C   UNL     1       0.374  -0.941  -0.420  1.00  0.00     0.118 A 
ATOM     16  C   UNL     1       0.697  -2.306  -0.456  1.00  0.00     0.157 A 
ATOM     17  N   UNL     1      -1.481  -1.431  -1.863  1.00  0.00    -0.217 NA
ATOM     18  N   UNL     1      -0.013  -3.194  -1.167  1.00  0.00    -0.217 NA
ATOM     19  C   UNL     1      -1.089  -2.712  -1.806  1.00  0.00     0.226 A 
BRANCH  15  20
ATOM     20  N   UNL     1       1.132  -0.032   0.339  1.00  0.00    -0.393 N 
ATOM     21  H   UNL     1       0.890   0.922   0.351  1.00  0.00     0.156 HD
ATOM     22  H   UNL     1       1.906  -0.350   0.858  1.00  0.00     0.156 HD
ENDBRANCH  15  20
BRANCH  16  23
ATOM     23  N   UNL     1       1.854  -2.724   0.170  1.00  0.00    -0.351 N 
ATOM     24  C   UNL     1       2.787  -3.606  -0.529  1.00  0.00     0.139 C 
ATOM     25  C   UNL     1       1.950  -2.717   1.628  1.00  0.00     0.139 C 
ATOM     26  C   UNL     1       4.231  -3.177  -0.159  1.00  0.00     0.138 C 
ATOM     27  C   UNL     1       3.379  -2.299   2.035  1.00  0.00     0.138 C 
ATOM     28  N   UNL     1       4.384  -3.096   1.307  1.00  0.00    -0.368 N 
BRANCH  28  29
ATOM     29  C   UNL     1       5.585  -3.366   1.924  1.00  0.00     0.037 A 
ATOM     30  C   UNL     1       6.814  -2.947   1.407  1.00  0.00     0.026 A 
ATOM     31  C   UNL     1       5.592  -4.113   3.110  1.00  0.00     0.026 A 
ATOM     32  C   UNL     1       8.012  -3.261   2.058  1.00  0.00     0.002 A 
ATOM     33  C   UNL     1       6.782  -4.445   3.755  1.00  0.00     0.002 A 
ATOM     34  C   UNL     1       7.995  -4.016   3.228  1.00  0.00     0.000 A 
ENDBRANCH  28  29
ENDBRANCH  16  23
ENDBRANCH   9  14
ENDBRANCH   5   8
ENDBRANCH   3   4
ENDBRANCH   2   3
ENDBRANCH   1   2
BRANCH   1  35
ATOM     35  C   UNL     1      -5.220   2.419  -6.973  1.00  0.00     0.002 C 
BRANCH  35  36
ATOM     36  C   UNL     1      -5.254   0.904  -7.185  1.00  0.00     0.021 C 
BRANCH  36  37
ATOM     37  C   UNL     1      -6.597   0.248  -6.884  1.00  0.00     0.116 C 
BRANCH  37  38
ATOM     38  N   UNL     1      -7.652   0.739  -7.755  1.00  0.00    -0.352 N 
ATOM     39  C   UNL     1      -8.501   0.029  -8.566  1.00  0.00     0.251 C 
ATOM     40  H   UNL     1      -7.775   1.716  -7.763  1.00  0.00     0.163 HD
ATOM     41  O   UNL     1      -9.211   0.615  -9.379  1.00  0.00    -0.269 OA
BRANCH  39  42
ATOM     42  C   UNL     1      -8.538  -1.444  -8.469  1.00  0.00     0.039 A 
ATOM     43  C   UNL     1      -8.469  -2.201  -9.641  1.00  0.00     0.014 A 
ATOM     44  C   UNL     1      -8.635  -2.074  -7.224  1.00  0.00     0.014 A 
ATOM     45  C   UNL     1      -8.444  -3.595  -9.560  1.00  0.00     0.010 A 
ATOM     46  C   UNL     1      -8.547  -3.461  -7.142  1.00  0.00     0.010 A 
ATOM     47  C   UNL     1      -8.456  -4.234  -8.309  1.00  0.00    -0.014 A 
BRANCH  47  48
ATOM     48  C   UNL     1      -8.392  -5.713  -8.207  1.00  0.00     0.031 A 
ATOM     49  C   UNL     1      -9.574  -6.480  -7.683  1.00  0.00     0.074 A 
ATOM     50  C   UNL     1      -7.259  -6.358  -8.548  1.00  0.00     0.049 A 
ATOM     51  N   UNL     1      -9.697  -7.765  -7.476  1.00  0.00    -0.248 NA
ATOM     52  C   UNL     1     -10.768  -5.697  -7.325  1.00  0.00     0.031 C 
ATOM     53  C   UNL     1      -6.037  -5.718  -9.039  1.00  0.00     0.029 A 
ATOM     54  N   UNL     1      -6.951  -7.695  -8.534  1.00  0.00    -0.354 N 
ATOM     55  C   UNL     1     -10.976  -7.946  -6.964  1.00  0.00     0.074 A 
ATOM     56  C   UNL     1     -11.571  -6.633  -6.838  1.00  0.00     0.031 C 
ATOM     57  C   UNL     1      -5.122  -6.665  -9.307  1.00  0.00     0.029 A 
ATOM     58  C   UNL     1      -5.679  -7.973  -8.976  1.00  0.00     0.049 A 
ATOM     59  H   UNL     1      -7.581  -8.390  -8.235  1.00  0.00     0.167 HD
ATOM     60  C   UNL     1     -11.608  -9.102  -6.654  1.00  0.00     0.037 A 
ATOM     61  C   UNL     1      -5.036  -9.150  -9.102  1.00  0.00     0.037 A 
ATOM     62  C   UNL     1     -11.019 -10.407  -6.801  1.00  0.00     0.049 A 
ATOM     63  C   UNL     1      -5.751 -10.421  -8.730  1.00  0.00     0.074 A 
ATOM     64  C   UNL     1     -11.590 -11.642  -6.549  1.00  0.00     0.029 A 
ATOM     65  N   UNL     1      -9.726 -10.646  -7.244  1.00  0.00    -0.354 N 
ATOM     66  N   UNL     1      -6.974 -10.575  -8.283  1.00  0.00    -0.248 NA
ATOM     67  C   UNL     1      -5.000 -11.675  -8.878  1.00  0.00     0.031 C 
ATOM     68  C   UNL     1     -10.631 -12.627  -6.807  1.00  0.00     0.029 A 
ATOM     69  C   UNL     1      -9.476 -12.008  -7.257  1.00  0.00     0.049 A 
ATOM     70  H   UNL     1      -9.082  -9.951  -7.509  1.00  0.00     0.167 HD
ATOM     71  C   UNL     1      -7.147 -11.944  -8.114  1.00  0.00     0.074 A 
ATOM     72  C   UNL     1      -5.907 -12.575  -8.519  1.00  0.00     0.031 C 
ATOM     73  C   UNL     1      -8.234 -12.618  -7.665  1.00  0.00     0.037 A 
BRANCH  60  74
ATOM     74  C   UNL     1     -13.017  -9.008  -6.141  1.00  0.00     0.058 A 
ATOM     75  C   UNL     1     -14.081  -8.661  -6.989  1.00  0.00     0.135 A 
ATOM     76  C   UNL     1     -13.316  -9.303  -4.801  1.00  0.00     0.135 A 
ATOM     77  F   UNL     1     -13.848  -8.352  -8.274  1.00  0.00    -0.206 F 
ATOM     78  C   UNL     1     -15.389  -8.586  -6.522  1.00  0.00     0.059 A 
ATOM     79  C   UNL     1     -14.621  -9.259  -4.318  1.00  0.00     0.059 A 
ATOM     80  F   UNL     1     -12.336  -9.637  -3.947  1.00  0.00    -0.206 F 
ATOM     81  C   UNL     1     -15.649  -8.888  -5.184  1.00  0.00     0.060 A 
BRANCH  81  82
ATOM     82  S   UNL     1     -17.354  -8.796  -4.599  1.00  0.00     0.124 S 
ATOM     83  O   UNL     1     -17.578  -7.354  -4.579  1.00  0.00    -0.237 OA
ATOM     84  O   UNL     1     -18.077  -9.536  -5.628  1.00  0.00    -0.237 OA
ATOM     85  O   UNL     1     -17.300  -9.440  -3.290  1.00  0.00    -0.744 OA
ENDBRANCH  81  82
ENDBRANCH  60  74
BRANCH  61  86
ATOM     86  C   UNL     1      -3.649  -9.182  -9.637  1.00  0.00     0.058 A 
ATOM     87  C   UNL     1      -3.390  -9.668 -10.927  1.00  0.00     0.135 A 
ATOM     88  C   UNL     1      -2.564  -8.704  -8.887  1.00  0.00     0.135 A 
ATOM     89  F   UNL     1      -4.395 -10.143 -11.678  1.00  0.00    -0.206 F 
ATOM     90  C   UNL     1      -2.103  -9.684 -11.455  1.00  0.00     0.059 A 
ATOM     91  C   UNL     1      -1.270  -8.690  -9.401  1.00  0.00     0.059 A 
ATOM     92  F   UNL     1      -2.762  -8.216  -7.652  1.00  0.00    -0.206 F 
ATOM     93  C   UNL     1      -1.050  -9.187 -10.685  1.00  0.00     0.060 A 
BRANCH  93  94
ATOM     94  S   UNL     1       0.606  -9.155 -11.406  1.00  0.00     0.124 S 
ATOM     95  O   UNL     1       0.954 -10.571 -11.407  1.00  0.00    -0.237 OA
ATOM     96  O   UNL     1       0.358  -8.557 -12.714  1.00  0.00    -0.237 OA
ATOM     97  O   UNL     1       1.361  -8.320 -10.477  1.00  0.00    -0.744 OA
ENDBRANCH  93  94
ENDBRANCH  61  86
BRANCH  73  98
ATOM     98  C   UNL     1      -8.144 -14.116  -7.595  1.00  0.00     0.058 A 
ATOM     99  C   UNL     1      -7.416 -14.758  -6.583  1.00  0.00     0.135 A 
ATOM    100  C   UNL     1      -8.857 -14.916  -8.503  1.00  0.00     0.135 A 
ATOM    101  F   UNL     1      -6.712 -14.038  -5.696  1.00  0.00    -0.206 F 
ATOM    102  C   UNL     1      -7.391 -16.145  -6.477  1.00  0.00     0.059 A 
ATOM    103  C   UNL     1      -8.865 -16.303  -8.402  1.00  0.00     0.059 A 
ATOM    104  F   UNL     1      -9.577 -14.348  -9.484  1.00  0.00    -0.206 F 
ATOM    105  C   UNL     1      -8.123 -16.909  -7.388  1.00  0.00     0.060 A 
BRANCH 105 106
ATOM    106  S   UNL     1      -8.123 -18.705  -7.205  1.00  0.00     0.124 S 
ATOM    107  O   UNL     1      -6.779 -19.047  -7.657  1.00  0.00    -0.237 OA
ATOM    108  O   UNL     1      -8.374 -18.872  -5.777  1.00  0.00    -0.237 OA
ATOM    109  O   UNL     1      -9.209 -19.137  -8.080  1.00  0.00    -0.744 OA
ENDBRANCH 105 106
ENDBRANCH  73  98
ENDBRANCH  47  48
ENDBRANCH  39  42
ENDBRANCH  37  38
ENDBRANCH  36  37
ENDBRANCH  35  36
ENDBRANCH   1  35
TORSDOF 20
