REMARK SMILES CCc1cc(C(=O)c2[nH]c3cc(Cl)ccc3c2CC(=O)NCCCCCCNC(=O)c2ccc(-c3c4nc(c(-c5c(F)cc(S(=O)(=O)[O-])cc5F)c5ccc([nH]5)c(-c5c(F)cc(S(=O)(=O)[O-])cc5F)c5nc(c(-c6c(F)cc(S(=O)(=O)[O-])cc6F)c6ccc3[nH]6)C=C5)C=C4)cc2)ncc1Cl
REMARK SMILES IDX 24 1 23 2 22 3 21 4 19 5 20 6 18 8 17 9 8 10 9 11 10 12
REMARK SMILES IDX 16 14 11 15 15 16 12 17 14 18 13 19 6 20 7 21 5 22 3 23 4 24
REMARK SMILES IDX 99 25 98 26 100 27 97 28 2 29 1 30 25 31 26 32 27 33 28 34
REMARK SMILES IDX 29 35 30 37 31 38 32 39 96 40 33 41 95 42 34 43 35 44 36 45
REMARK SMILES IDX 89 46 37 47 94 48 88 49 90 50 38 51 93 52 87 53 86 54 39 56
REMARK SMILES IDX 73 57 52 58 72 59 53 60 56 61 71 62 91 63 54 64 55 65 70 67
REMARK SMILES IDX 92 68 57 69 40 70 41 71 50 72 42 73 43 74 49 75 51 76 44 77
REMARK SMILES IDX 45 78 46 79 47 80 48 81 74 82 75 83 84 84 76 85 77 86 83 87
REMARK SMILES IDX 85 88 78 89 79 90 80 91 81 92 82 93 58 94 59 95 68 96 60 97
REMARK SMILES IDX 61 98 67 99 69 100 62 101 63 102 64 103 65 104 66 105
REMARK H PARENT 21 7 9 13 28 36 90 55 56 66
REMARK Flexibility Score: inf
ROOT
ATOM      1  C   UNL     1      -3.691   9.675   1.012  1.00  0.00     0.002 C 
ENDROOT
BRANCH   1   2
ATOM      2  C   UNL     1      -3.721   8.477   0.056  1.00  0.00     0.021 C 
BRANCH   2   3
ATOM      3  C   UNL     1      -2.872   8.634  -1.206  1.00  0.00     0.116 C 
BRANCH   3   4
ATOM      4  N   UNL     1      -1.450   8.648  -0.927  1.00  0.00    -0.356 N 
ATOM      5  C   UNL     1      -0.523   7.661  -1.104  1.00  0.00     0.224 C 
ATOM      6  O   UNL     1       0.666   7.931  -0.914  1.00  0.00    -0.275 OA
ATOM      7  H   UNL     1      -1.101   9.491  -0.557  1.00  0.00     0.163 HD
BRANCH   5   8
ATOM      8  C   UNL     1      -0.932   6.296  -1.633  1.00  0.00     0.138 C 
BRANCH   8   9
ATOM      9  C   UNL     1      -1.835   5.506  -0.728  1.00  0.00    -0.002 A 
ATOM     10  C   UNL     1      -1.589   5.108   0.583  1.00  0.00     0.093 A 
ATOM     11  N   UNL     1      -2.725   4.484   1.044  1.00  0.00    -0.351 N 
ATOM     12  C   UNL     1      -3.634   4.319   0.029  1.00  0.00     0.048 A 
ATOM     13  H   UNL     1      -2.867   4.194   1.974  1.00  0.00     0.167 HD
ATOM     14  C   UNL     1      -3.108   4.950  -1.097  1.00  0.00     0.004 A 
ATOM     15  C   UNL     1      -4.877   3.675   0.032  1.00  0.00     0.047 A 
ATOM     16  C   UNL     1      -3.868   4.935  -2.287  1.00  0.00     0.012 A 
ATOM     17  C   UNL     1      -5.600   3.670  -1.163  1.00  0.00     0.043 A 
ATOM     18  C   UNL     1      -5.111   4.290  -2.308  1.00  0.00     0.021 A 
ATOM     19  Cl  UNL     1      -7.125   2.873  -1.217  1.00  0.00    -0.084 Cl
BRANCH  10  20
ATOM     20  C   UNL     1      -0.422   5.330   1.418  1.00  0.00     0.227 C 
ATOM     21  O   UNL     1      -0.167   6.438   1.875  1.00  0.00    -0.285 OA
BRANCH  20  22
ATOM     22  C   UNL     1       0.446   4.137   1.758  1.00  0.00     0.113 A 
ATOM     23  C   UNL     1       0.994   1.774   1.647  1.00  0.00    -0.026 A 
ATOM     24  C   UNL     1       0.187   2.859   1.255  1.00  0.00     0.037 A 
ATOM     25  C   UNL     1       2.073   2.031   2.498  1.00  0.00     0.062 A 
ATOM     26  C   UNL     1       2.269   3.334   2.939  1.00  0.00     0.132 A 
ATOM     27  Cl  UNL     1       3.164   0.805   3.018  1.00  0.00    -0.082 Cl
ATOM     28  N   UNL     1       1.480   4.380   2.603  1.00  0.00    -0.251 NA
BRANCH  23  29
ATOM     29  C   UNL     1       0.666   0.397   1.122  1.00  0.00     0.034 C 
ATOM     30  C   UNL     1       1.373   0.095  -0.190  1.00  0.00     0.009 C 
ENDBRANCH  23  29
ENDBRANCH  20  22
ENDBRANCH  10  20
ENDBRANCH   8   9
ENDBRANCH   5   8
ENDBRANCH   3   4
ENDBRANCH   2   3
ENDBRANCH   1   2
BRANCH   1  31
ATOM     31  C   UNL     1      -4.176  11.008   0.435  1.00  0.00     0.002 C 
BRANCH  31  32
ATOM     32  C   UNL     1      -5.559  10.995  -0.227  1.00  0.00     0.021 C 
BRANCH  32  33
ATOM     33  C   UNL     1      -6.716  10.518   0.653  1.00  0.00     0.116 C 
BRANCH  33  34
ATOM     34  N   UNL     1      -6.954  11.394   1.786  1.00  0.00    -0.352 N 
ATOM     35  C   UNL     1      -8.145  11.792   2.342  1.00  0.00     0.251 C 
ATOM     36  H   UNL     1      -6.146  11.754   2.217  1.00  0.00     0.163 HD
ATOM     37  O   UNL     1      -8.146  12.652   3.220  1.00  0.00    -0.269 OA
BRANCH  35  38
ATOM     38  C   UNL     1      -9.429  11.214   1.879  1.00  0.00     0.039 A 
ATOM     39  C   UNL     1     -10.500  12.082   1.635  1.00  0.00     0.014 A 
ATOM     40  C   UNL     1      -9.603   9.834   1.737  1.00  0.00     0.014 A 
ATOM     41  C   UNL     1     -11.728  11.574   1.201  1.00  0.00     0.010 A 
ATOM     42  C   UNL     1     -10.824   9.328   1.284  1.00  0.00     0.010 A 
ATOM     43  C   UNL     1     -11.893  10.194   1.008  1.00  0.00    -0.014 A 
BRANCH  43  44
ATOM     44  C   UNL     1     -13.178   9.644   0.514  1.00  0.00     0.031 A 
ATOM     45  C   UNL     1     -14.120   8.951   1.453  1.00  0.00     0.074 A 
ATOM     46  C   UNL     1     -13.474   9.722  -0.796  1.00  0.00     0.049 A 
ATOM     47  N   UNL     1     -15.234   8.319   1.184  1.00  0.00    -0.248 NA
ATOM     48  C   UNL     1     -13.756   8.959   2.877  1.00  0.00     0.031 C 
ATOM     49  C   UNL     1     -12.634  10.349  -1.817  1.00  0.00     0.029 A 
ATOM     50  N   UNL     1     -14.559   9.256  -1.493  1.00  0.00    -0.354 N 
ATOM     51  C   UNL     1     -15.686   7.819   2.397  1.00  0.00     0.074 A 
ATOM     52  C   UNL     1     -14.734   8.236   3.406  1.00  0.00     0.031 C 
ATOM     53  C   UNL     1     -13.236  10.227  -3.012  1.00  0.00     0.029 A 
ATOM     54  C   UNL     1     -14.493   9.502  -2.842  1.00  0.00     0.049 A 
ATOM     55  H   UNL     1     -15.314   8.790  -1.067  1.00  0.00     0.167 HD
ATOM     56  C   UNL     1     -16.788   7.071   2.647  1.00  0.00     0.037 A 
ATOM     57  C   UNL     1     -15.342   9.172  -3.833  1.00  0.00     0.037 A 
ATOM     58  C   UNL     1     -17.758   6.679   1.660  1.00  0.00     0.049 A 
ATOM     59  C   UNL     1     -16.596   8.412  -3.522  1.00  0.00     0.074 A 
ATOM     60  C   UNL     1     -18.913   5.935   1.829  1.00  0.00     0.029 A 
ATOM     61  N   UNL     1     -17.690   7.010   0.316  1.00  0.00    -0.354 N 
ATOM     62  N   UNL     1     -17.008   7.945  -2.368  1.00  0.00    -0.248 NA
ATOM     63  C   UNL     1     -17.501   8.133  -4.646  1.00  0.00     0.031 C 
ATOM     64  C   UNL     1     -19.546   5.818   0.584  1.00  0.00     0.029 A 
ATOM     65  C   UNL     1     -18.785   6.492  -0.357  1.00  0.00     0.049 A 
ATOM     66  H   UNL     1     -16.969   7.536  -0.100  1.00  0.00     0.167 HD
ATOM     67  C   UNL     1     -18.218   7.313  -2.627  1.00  0.00     0.074 A 
ATOM     68  C   UNL     1     -18.478   7.467  -4.044  1.00  0.00     0.031 C 
ATOM     69  C   UNL     1     -19.034   6.659  -1.765  1.00  0.00     0.037 A 
BRANCH  56  70
ATOM     70  C   UNL     1     -16.975   6.615   4.061  1.00  0.00     0.058 A 
ATOM     71  C   UNL     1     -17.602   7.430   5.014  1.00  0.00     0.135 A 
ATOM     72  C   UNL     1     -16.487   5.366   4.474  1.00  0.00     0.135 A 
ATOM     73  F   UNL     1     -18.068   8.640   4.667  1.00  0.00    -0.206 F 
ATOM     74  C   UNL     1     -17.714   7.034   6.343  1.00  0.00     0.059 A 
ATOM     75  C   UNL     1     -16.594   4.948   5.795  1.00  0.00     0.059 A 
ATOM     76  F   UNL     1     -15.870   4.558   3.597  1.00  0.00    -0.206 F 
ATOM     77  C   UNL     1     -17.191   5.798   6.727  1.00  0.00     0.060 A 
BRANCH  77  78
ATOM     78  S   UNL     1     -17.277   5.286   8.456  1.00  0.00     0.124 S 
ATOM     79  O   UNL     1     -15.976   5.724   8.951  1.00  0.00    -0.237 OA
ATOM     80  O   UNL     1     -18.427   6.027   8.965  1.00  0.00    -0.237 OA
ATOM     81  O   UNL     1     -17.462   3.841   8.358  1.00  0.00    -0.744 OA
ENDBRANCH  77  78
ENDBRANCH  56  70
BRANCH  57  82
ATOM     82  C   UNL     1     -15.018   9.571  -5.221  1.00  0.00     0.058 A 
ATOM     83  C   UNL     1     -15.509  10.769  -5.755  1.00  0.00     0.135 A 
ATOM     84  C   UNL     1     -14.159   8.794  -6.010  1.00  0.00     0.135 A 
ATOM     85  F   UNL     1     -16.334  11.539  -5.029  1.00  0.00    -0.206 F 
ATOM     86  C   UNL     1     -15.150  11.195  -7.029  1.00  0.00     0.059 A 
ATOM     87  C   UNL     1     -13.781   9.201  -7.284  1.00  0.00     0.059 A 
ATOM     88  F   UNL     1     -13.660   7.645  -5.530  1.00  0.00    -0.206 F 
ATOM     89  C   UNL     1     -14.281  10.405  -7.785  1.00  0.00     0.060 A 
BRANCH  89  90
ATOM     90  S   UNL     1     -13.722  10.993  -9.399  1.00  0.00     0.124 S 
ATOM     91  O   UNL     1     -14.716  10.401 -10.286  1.00  0.00    -0.237 OA
ATOM     92  O   UNL     1     -13.782  12.444  -9.253  1.00  0.00    -0.237 OA
ATOM     93  O   UNL     1     -12.374  10.439  -9.493  1.00  0.00    -0.744 OA
ENDBRANCH  89  90
ENDBRANCH  57  82
BRANCH  69  94
ATOM     94  C   UNL     1     -20.285   6.064  -2.336  1.00  0.00     0.058 A 
ATOM     95  C   UNL     1     -20.285   4.773  -2.884  1.00  0.00     0.135 A 
ATOM     96  C   UNL     1     -21.493   6.776  -2.314  1.00  0.00     0.135 A 
ATOM     97  F   UNL     1     -19.149   4.059  -2.929  1.00  0.00    -0.206 F 
ATOM     98  C   UNL     1     -21.445   4.207  -3.403  1.00  0.00     0.059 A 
ATOM     99  C   UNL     1     -22.665   6.228  -2.825  1.00  0.00     0.059 A 
ATOM    100  F   UNL     1     -21.538   8.016  -1.802  1.00  0.00    -0.206 F 
ATOM    101  C   UNL     1     -22.629   4.946  -3.376  1.00  0.00     0.060 A 
BRANCH 101 102
ATOM    102  S   UNL     1     -24.147   4.214  -4.027  1.00  0.00     0.124 S 
ATOM    103  O   UNL     1     -24.096   4.629  -5.424  1.00  0.00    -0.237 OA
ATOM    104  O   UNL     1     -23.953   2.787  -3.783  1.00  0.00    -0.237 OA
ATOM    105  O   UNL     1     -25.187   4.842  -3.218  1.00  0.00    -0.744 OA
ENDBRANCH 101 102
ENDBRANCH  69  94
ENDBRANCH  43  44
ENDBRANCH  35  38
ENDBRANCH  33  34
ENDBRANCH  32  33
ENDBRANCH  31  32
ENDBRANCH   1  31
TORSDOF 20
