REMARK SMILES Cc1ncc(CC(=O)N2CCc3c(c(C(=O)NCCCCCCNC(=O)c4ccc(-c5c6nc(c(-c7c(F)cc(S(=O)(=O)[O-])cc7F)c7ccc([nH]7)c(-c7c(F)cc(S(=O)(=O)[O-])cc7F)c7nc(c(-c8c(F)cc(S(=O)(=O)[O-])cc8F)c8ccc5[nH]8)C=C7)C=C6)cc4)nn3CC3CC3)C2)c(=O)[nH]1
REMARK SMILES IDX 20 1 19 2 18 3 17 4 15 5 16 6 14 8 9 9 10 10 99 11 11 12
REMARK SMILES IDX 13 13 12 14 94 15 93 16 7 17 8 18 6 19 5 20 1 21 2 22 3 23
REMARK SMILES IDX 102 24 4 25 100 26 101 28 95 29 96 30 97 31 98 32 21 33
REMARK SMILES IDX 22 34 23 35 24 36 25 37 26 39 27 40 28 41 92 42 29 43 91 44
REMARK SMILES IDX 30 45 31 46 32 47 85 48 33 49 90 50 84 51 86 52 34 53 89 54
REMARK SMILES IDX 83 55 82 56 35 58 69 59 48 60 68 61 49 62 52 63 67 64 87 65
REMARK SMILES IDX 50 66 51 67 66 69 88 70 53 71 36 72 37 73 46 74 38 75 39 76
REMARK SMILES IDX 45 77 47 78 40 79 41 80 42 81 43 82 44 83 70 84 71 85 80 86
REMARK SMILES IDX 72 87 73 88 79 89 81 90 74 91 75 92 76 93 77 94 78 95 54 96
REMARK SMILES IDX 55 97 64 98 56 99 57 100 63 101 65 102 58 103 59 104 60 105
REMARK SMILES IDX 61 106 62 107
REMARK H PARENT 17 7 102 27 24 38 86 57 52 68
REMARK Flexibility Score: inf
ROOT
ATOM      1  C   UNL     1       2.646   7.699   9.901  1.00  0.00     0.002 C 
ENDROOT
BRANCH   1   2
ATOM      2  C   UNL     1       1.603   6.870   9.148  1.00  0.00     0.021 C 
BRANCH   2   3
ATOM      3  C   UNL     1       1.698   6.925   7.624  1.00  0.00     0.116 C 
BRANCH   3   4
ATOM      4  N   UNL     1       2.870   6.237   7.105  1.00  0.00    -0.351 N 
ATOM      5  C   UNL     1       2.999   5.291   6.106  1.00  0.00     0.272 C 
ATOM      6  O   UNL     1       4.137   4.878   5.868  1.00  0.00    -0.267 OA
ATOM      7  H   UNL     1       3.717   6.489   7.540  1.00  0.00     0.163 HD
BRANCH   5   8
ATOM      8  C   UNL     1       1.829   4.767   5.372  1.00  0.00     0.155 A 
ATOM      9  N   UNL     1       2.340   2.003   2.820  1.00  0.00    -0.338 N 
ATOM     10  C   UNL     1       1.057   1.345   3.128  1.00  0.00     0.126 C 
ATOM     11  C   UNL     1       2.916   2.785   3.942  1.00  0.00     0.159 C 
ATOM     12  C   UNL     1      -0.065   2.380   3.322  1.00  0.00     0.078 C 
ATOM     13  C   UNL     1       1.814   3.659   4.473  1.00  0.00     0.026 A 
ATOM     14  C   UNL     1       0.476   3.464   4.178  1.00  0.00     0.046 A 
ATOM     15  N   UNL     1      -0.216   4.440   4.815  1.00  0.00    -0.268 N 
ATOM     16  N   UNL     1       0.595   5.304   5.447  1.00  0.00    -0.167 NA
BRANCH   9  17
ATOM     17  C   UNL     1       3.031   1.968   1.622  1.00  0.00     0.227 C 
ATOM     18  O   UNL     1       4.257   2.135   1.599  1.00  0.00    -0.275 OA
BRANCH  17  19
ATOM     19  C   UNL     1       2.275   2.023   0.278  1.00  0.00     0.143 C 
BRANCH  19  20
ATOM     20  C   UNL     1       1.074   1.176   0.044  1.00  0.00     0.045 A 
ATOM     21  C   UNL     1      -2.351  -1.297  -0.088  1.00  0.00     0.087 C 
ATOM     22  C   UNL     1      -1.161  -0.385  -0.108  1.00  0.00     0.105 A 
ATOM     23  N   UNL     1      -1.307   0.897  -0.196  1.00  0.00    -0.243 NA
ATOM     24  N   UNL     1       0.058  -0.996  -0.016  1.00  0.00    -0.311 N 
ATOM     25  C   UNL     1      -0.169   1.653  -0.125  1.00  0.00     0.123 A 
ATOM     26  C   UNL     1       1.228  -0.293   0.010  1.00  0.00     0.254 A 
ATOM     27  H   UNL     1       0.094  -1.978   0.033  1.00  0.00     0.171 HD
ATOM     28  O   UNL     1       2.322  -0.841   0.029  1.00  0.00    -0.269 OA
ENDBRANCH  19  20
ENDBRANCH  17  19
ENDBRANCH   9  17
BRANCH  15  29
ATOM     29  C   UNL     1      -1.656   4.665   4.827  1.00  0.00     0.148 C 
BRANCH  29  30
ATOM     30  C   UNL     1      -2.373   4.170   6.054  1.00  0.00     0.011 C 
ATOM     31  C   UNL     1      -1.697   3.648   7.304  1.00  0.00     0.006 C 
ATOM     32  C   UNL     1      -2.342   5.003   7.315  1.00  0.00     0.006 C 
ENDBRANCH  29  30
ENDBRANCH  15  29
ENDBRANCH   5   8
ENDBRANCH   3   4
ENDBRANCH   2   3
ENDBRANCH   1   2
BRANCH   1  33
ATOM     33  C   UNL     1       2.725   9.189   9.537  1.00  0.00     0.002 C 
BRANCH  33  34
ATOM     34  C   UNL     1       1.411   9.985   9.564  1.00  0.00     0.021 C 
BRANCH  34  35
ATOM     35  C   UNL     1       0.742  10.050  10.928  1.00  0.00     0.116 C 
BRANCH  35  36
ATOM     36  N   UNL     1       1.506  10.832  11.900  1.00  0.00    -0.352 N 
ATOM     37  C   UNL     1       1.191  11.095  13.223  1.00  0.00     0.251 C 
ATOM     38  H   UNL     1       2.350  11.219  11.573  1.00  0.00     0.163 HD
ATOM     39  O   UNL     1       1.688  12.044  13.806  1.00  0.00    -0.269 OA
BRANCH  37  40
ATOM     40  C   UNL     1       0.243  10.199  13.915  1.00  0.00     0.039 A 
ATOM     41  C   UNL     1      -0.713  10.694  14.807  1.00  0.00     0.014 A 
ATOM     42  C   UNL     1       0.315   8.838  13.636  1.00  0.00     0.014 A 
ATOM     43  C   UNL     1      -1.646   9.812  15.350  1.00  0.00     0.010 A 
ATOM     44  C   UNL     1      -0.698   8.007  14.035  1.00  0.00     0.010 A 
ATOM     45  C   UNL     1      -1.644   8.469  14.941  1.00  0.00    -0.014 A 
BRANCH  45  46
ATOM     46  C   UNL     1      -2.701   7.551  15.353  1.00  0.00     0.031 A 
ATOM     47  C   UNL     1      -4.077   8.011  15.021  1.00  0.00     0.074 A 
ATOM     48  C   UNL     1      -2.446   6.287  15.760  1.00  0.00     0.049 A 
ATOM     49  N   UNL     1      -5.016   8.351  15.841  1.00  0.00    -0.248 NA
ATOM     50  C   UNL     1      -4.404   8.278  13.609  1.00  0.00     0.031 C 
ATOM     51  C   UNL     1      -1.150   5.600  15.824  1.00  0.00     0.029 A 
ATOM     52  N   UNL     1      -3.316   5.293  16.084  1.00  0.00    -0.354 N 
ATOM     53  C   UNL     1      -6.130   8.624  15.051  1.00  0.00     0.074 A 
ATOM     54  C   UNL     1      -5.636   8.780  13.709  1.00  0.00     0.031 C 
ATOM     55  C   UNL     1      -1.346   4.266  15.909  1.00  0.00     0.029 A 
ATOM     56  C   UNL     1      -2.764   4.014  16.073  1.00  0.00     0.049 A 
ATOM     57  H   UNL     1      -4.259   5.463  16.308  1.00  0.00     0.167 HD
ATOM     58  C   UNL     1      -7.393   8.426  15.524  1.00  0.00     0.037 A 
ATOM     59  C   UNL     1      -3.434   2.834  16.152  1.00  0.00     0.037 A 
ATOM     60  C   UNL     1      -7.391   8.296  16.962  1.00  0.00     0.049 A 
ATOM     61  C   UNL     1      -4.767   3.138  16.741  1.00  0.00     0.074 A 
ATOM     62  C   UNL     1      -6.928   9.081  18.002  1.00  0.00     0.029 A 
ATOM     63  N   UNL     1      -7.554   7.037  17.494  1.00  0.00    -0.354 N 
ATOM     64  N   UNL     1      -4.936   3.564  17.965  1.00  0.00    -0.248 NA
ATOM     65  C   UNL     1      -5.854   3.442  15.822  1.00  0.00     0.031 C 
ATOM     66  C   UNL     1      -6.351   8.160  18.925  1.00  0.00     0.029 A 
ATOM     67  C   UNL     1      -6.579   6.870  18.444  1.00  0.00     0.049 A 
ATOM     68  H   UNL     1      -8.242   6.380  17.240  1.00  0.00     0.167 HD
ATOM     69  C   UNL     1      -5.909   4.550  17.866  1.00  0.00     0.074 A 
ATOM     70  C   UNL     1      -6.494   4.372  16.538  1.00  0.00     0.031 C 
ATOM     71  C   UNL     1      -5.951   5.600  18.740  1.00  0.00     0.037 A 
BRANCH  58  72
ATOM     72  C   UNL     1      -8.561   7.963  14.680  1.00  0.00     0.058 A 
ATOM     73  C   UNL     1      -9.849   7.918  15.255  1.00  0.00     0.135 A 
ATOM     74  C   UNL     1      -8.430   7.298  13.440  1.00  0.00     0.135 A 
ATOM     75  F   UNL     1     -10.093   8.513  16.434  1.00  0.00    -0.206 F 
ATOM     76  C   UNL     1     -10.899   7.196  14.687  1.00  0.00     0.059 A 
ATOM     77  C   UNL     1      -9.478   6.620  12.829  1.00  0.00     0.059 A 
ATOM     78  F   UNL     1      -7.259   7.181  12.805  1.00  0.00    -0.206 F 
ATOM     79  C   UNL     1     -10.696   6.536  13.479  1.00  0.00     0.060 A 
BRANCH  79  80
ATOM     80  S   UNL     1     -12.011   5.516  12.793  1.00  0.00     0.124 S 
ATOM     81  O   UNL     1     -12.049   4.413  13.745  1.00  0.00    -0.237 OA
ATOM     82  O   UNL     1     -13.148   6.431  12.824  1.00  0.00    -0.237 OA
ATOM     83  O   UNL     1     -11.517   5.186  11.459  1.00  0.00    -0.744 OA
ENDBRANCH  79  80
ENDBRANCH  58  72
BRANCH  59  84
ATOM     84  C   UNL     1      -3.124   1.553  15.454  1.00  0.00     0.058 A 
ATOM     85  C   UNL     1      -3.803   0.361  15.771  1.00  0.00     0.135 A 
ATOM     86  C   UNL     1      -2.353   1.521  14.273  1.00  0.00     0.135 A 
ATOM     87  F   UNL     1      -4.577   0.298  16.866  1.00  0.00    -0.206 F 
ATOM     88  C   UNL     1      -3.764  -0.770  14.944  1.00  0.00     0.059 A 
ATOM     89  C   UNL     1      -2.287   0.403  13.441  1.00  0.00     0.059 A 
ATOM     90  F   UNL     1      -1.707   2.612  13.835  1.00  0.00    -0.206 F 
ATOM     91  C   UNL     1      -3.018  -0.731  13.766  1.00  0.00     0.060 A 
BRANCH  91  92
ATOM     92  S   UNL     1      -3.111  -2.109  12.596  1.00  0.00     0.124 S 
ATOM     93  O   UNL     1      -2.387  -3.159  13.304  1.00  0.00    -0.237 OA
ATOM     94  O   UNL     1      -4.550  -2.305  12.461  1.00  0.00    -0.237 OA
ATOM     95  O   UNL     1      -2.445  -1.587  11.404  1.00  0.00    -0.744 OA
ENDBRANCH  91  92
ENDBRANCH  59  84
BRANCH  71  96
ATOM     96  C   UNL     1      -5.115   5.543  19.995  1.00  0.00     0.058 A 
ATOM     97  C   UNL     1      -3.710   5.480  20.023  1.00  0.00     0.135 A 
ATOM     98  C   UNL     1      -5.767   5.738  21.223  1.00  0.00     0.135 A 
ATOM     99  F   UNL     1      -2.998   5.402  18.891  1.00  0.00    -0.206 F 
ATOM    100  C   UNL     1      -2.992   5.567  21.218  1.00  0.00     0.059 A 
ATOM    101  C   UNL     1      -5.071   5.861  22.421  1.00  0.00     0.059 A 
ATOM    102  F   UNL     1      -7.104   5.870  21.260  1.00  0.00    -0.206 F 
ATOM    103  C   UNL     1      -3.682   5.761  22.414  1.00  0.00     0.060 A 
BRANCH 103 104
ATOM    104  S   UNL     1      -2.752   5.945  23.951  1.00  0.00     0.124 S 
ATOM    105  O   UNL     1      -2.247   4.594  24.168  1.00  0.00    -0.237 OA
ATOM    106  O   UNL     1      -1.752   6.948  23.599  1.00  0.00    -0.237 OA
ATOM    107  O   UNL     1      -3.761   6.395  24.909  1.00  0.00    -0.744 OA
ENDBRANCH 103 104
ENDBRANCH  71  96
ENDBRANCH  45  46
ENDBRANCH  37  40
ENDBRANCH  35  36
ENDBRANCH  34  35
ENDBRANCH  33  34
ENDBRANCH   1  33
TORSDOF 21
