REMARK SMILES Nc1c(C(=O)NCc2ccc3c(c2)OCO3)nsc1C(=O)NCCCCCCNC(=O)c1ccc(-c2c3nc(c(-c4c(F)cc(S(=O)(=O)[O-])cc4F)c4ccc([nH]4)c(-c4c(F)cc(S(=O)(=O)[O-])cc4F)c4nc(c(-c5c(F)cc(S(=O)(=O)[O-])cc5F)c5ccc2[nH]5)C=C4)C=C3)cc1
REMARK SMILES IDX 25 1 24 2 23 3 22 4 20 5 21 6 19 8 2 9 3 10 17 11 18 12 1 13
REMARK SMILES IDX 4 16 5 17 6 18 7 20 8 21 9 22 13 23 10 24 12 25 11 26 14 27
REMARK SMILES IDX 16 28 15 29 26 30 27 31 28 32 29 33 30 34 31 36 32 37 33 38
REMARK SMILES IDX 97 39 34 40 96 41 35 42 36 43 37 44 90 45 38 46 95 47 89 48
REMARK SMILES IDX 91 49 39 50 94 51 88 52 87 53 40 55 74 56 53 57 73 58 54 59
REMARK SMILES IDX 57 60 72 61 92 62 55 63 56 64 71 66 93 67 58 68 41 69 42 70
REMARK SMILES IDX 51 71 43 72 44 73 50 74 52 75 45 76 46 77 47 78 48 79 49 80
REMARK SMILES IDX 75 81 76 82 85 83 77 84 78 85 84 86 86 87 79 88 80 89 81 90
REMARK SMILES IDX 82 91 83 92 59 93 60 94 69 95 61 96 62 97 68 98 70 99 63 100
REMARK SMILES IDX 64 101 65 102 66 103 67 104
REMARK H PARENT 22 7 1 14 1 15 6 19 29 35 91 54 57 65
REMARK Flexibility Score: inf
ROOT
ATOM      1  C   UNL     1       3.167   3.818   0.836  1.00  0.00     0.002 C 
ENDROOT
BRANCH   1   2
ATOM      2  C   UNL     1       1.813   3.145   0.602  1.00  0.00     0.021 C 
BRANCH   2   3
ATOM      3  C   UNL     1       1.745   1.643   0.852  1.00  0.00     0.116 C 
BRANCH   3   4
ATOM      4  N   UNL     1       2.016   1.246   2.219  1.00  0.00    -0.351 N 
ATOM      5  C   UNL     1       1.471   0.193   2.928  1.00  0.00     0.265 C 
ATOM      6  O   UNL     1       1.857   0.049   4.090  1.00  0.00    -0.268 OA
ATOM      7  H   UNL     1       2.672   1.797   2.704  1.00  0.00     0.163 HD
BRANCH   5   8
ATOM      8  C   UNL     1       0.466  -0.641   2.308  1.00  0.00     0.136 A 
ATOM      9  C   UNL     1       0.357  -1.281   1.080  1.00  0.00     0.089 A 
ATOM     10  C   UNL     1      -0.975  -1.847   0.908  1.00  0.00     0.165 A 
ATOM     11  N   UNL     1      -1.721  -1.799   2.024  1.00  0.00    -0.184 NA
ATOM     12  S   UNL     1      -0.920  -1.019   3.225  1.00  0.00    -0.028 S 
BRANCH   9  13
ATOM     13  N   UNL     1       1.390  -1.365   0.207  1.00  0.00    -0.395 N 
ATOM     14  H   UNL     1       1.270  -1.827  -0.653  1.00  0.00     0.156 HD
ATOM     15  H   UNL     1       2.260  -0.963   0.434  1.00  0.00     0.156 HD
ENDBRANCH   9  13
BRANCH  10  16
ATOM     16  C   UNL     1      -1.601  -2.533  -0.240  1.00  0.00     0.273 C 
ATOM     17  O   UNL     1      -2.301  -3.540  -0.090  1.00  0.00    -0.267 OA
ATOM     18  N   UNL     1      -1.510  -2.080  -1.533  1.00  0.00    -0.347 N 
ATOM     19  H   UNL     1      -2.085  -2.578  -2.158  1.00  0.00     0.164 HD
BRANCH  18  20
ATOM     20  C   UNL     1      -0.751  -1.030  -2.174  1.00  0.00     0.152 C 
BRANCH  20  21
ATOM     21  C   UNL     1       0.464  -1.573  -2.911  1.00  0.00    -0.025 A 
ATOM     22  C   UNL     1       0.700  -2.966  -3.057  1.00  0.00     0.009 A 
ATOM     23  C   UNL     1       1.391  -0.671  -3.463  1.00  0.00     0.056 A 
ATOM     24  C   UNL     1       1.836  -3.454  -3.709  1.00  0.00     0.051 A 
ATOM     25  C   UNL     1       2.502  -1.182  -4.107  1.00  0.00     0.166 A 
ATOM     26  C   UNL     1       2.719  -2.535  -4.224  1.00  0.00     0.165 A 
ATOM     27  O   UNL     1       3.497  -0.452  -4.681  1.00  0.00    -0.454 OA
ATOM     28  O   UNL     1       3.869  -2.826  -4.886  1.00  0.00    -0.454 OA
ATOM     29  C   UNL     1       4.321  -1.501  -5.233  1.00  0.00     0.468 C 
ENDBRANCH  20  21
ENDBRANCH  18  20
ENDBRANCH  10  16
ENDBRANCH   5   8
ENDBRANCH   3   4
ENDBRANCH   2   3
ENDBRANCH   1   2
BRANCH   1  30
ATOM     30  C   UNL     1       4.401   3.176   0.187  1.00  0.00     0.002 C 
BRANCH  30  31
ATOM     31  C   UNL     1       4.351   2.884  -1.318  1.00  0.00     0.021 C 
BRANCH  31  32
ATOM     32  C   UNL     1       4.032   4.078  -2.207  1.00  0.00     0.116 C 
BRANCH  32  33
ATOM     33  N   UNL     1       5.035   5.134  -2.136  1.00  0.00    -0.352 N 
ATOM     34  C   UNL     1       5.023   6.364  -2.773  1.00  0.00     0.251 C 
ATOM     35  H   UNL     1       5.816   4.951  -1.565  1.00  0.00     0.163 HD
ATOM     36  O   UNL     1       6.059   6.987  -2.935  1.00  0.00    -0.269 OA
BRANCH  34  37
ATOM     37  C   UNL     1       3.737   6.900  -3.264  1.00  0.00     0.039 A 
ATOM     38  C   UNL     1       3.652   7.533  -4.507  1.00  0.00     0.014 A 
ATOM     39  C   UNL     1       2.602   6.742  -2.472  1.00  0.00     0.014 A 
ATOM     40  C   UNL     1       2.401   7.918  -4.985  1.00  0.00     0.010 A 
ATOM     41  C   UNL     1       1.357   7.000  -2.998  1.00  0.00     0.010 A 
ATOM     42  C   UNL     1       1.248   7.621  -4.239  1.00  0.00    -0.014 A 
BRANCH  42  43
ATOM     43  C   UNL     1      -0.081   7.818  -4.822  1.00  0.00     0.031 A 
ATOM     44  C   UNL     1      -0.271   7.149  -6.140  1.00  0.00     0.074 A 
ATOM     45  C   UNL     1      -1.125   8.344  -4.144  1.00  0.00     0.049 A 
ATOM     46  N   UNL     1      -0.422   7.703  -7.297  1.00  0.00    -0.248 NA
ATOM     47  C   UNL     1      -0.122   5.684  -6.203  1.00  0.00     0.031 C 
ATOM     48  C   UNL     1      -1.157   8.748  -2.732  1.00  0.00     0.029 A 
ATOM     49  N   UNL     1      -2.420   8.524  -4.534  1.00  0.00    -0.354 N 
ATOM     50  C   UNL     1      -0.647   6.657  -8.190  1.00  0.00     0.074 A 
ATOM     51  C   UNL     1      -0.235   5.457  -7.513  1.00  0.00     0.031 C 
ATOM     52  C   UNL     1      -2.437   8.892  -2.328  1.00  0.00     0.029 A 
ATOM     53  C   UNL     1      -3.303   8.773  -3.486  1.00  0.00     0.049 A 
ATOM     54  H   UNL     1      -2.706   8.482  -5.476  1.00  0.00     0.167 HD
ATOM     55  C   UNL     1      -1.429   6.836  -9.293  1.00  0.00     0.037 A 
ATOM     56  C   UNL     1      -4.653   8.876  -3.550  1.00  0.00     0.037 A 
ATOM     57  C   UNL     1      -1.659   8.239  -9.528  1.00  0.00     0.049 A 
ATOM     58  C   UNL     1      -4.995   9.219  -4.950  1.00  0.00     0.074 A 
ATOM     59  C   UNL     1      -0.896   9.325  -9.900  1.00  0.00     0.029 A 
ATOM     60  N   UNL     1      -2.816   8.726  -8.976  1.00  0.00    -0.354 N 
ATOM     61  N   UNL     1      -4.657  10.343  -5.520  1.00  0.00    -0.248 NA
ATOM     62  C   UNL     1      -5.418   8.164  -5.860  1.00  0.00     0.031 C 
ATOM     63  C   UNL     1      -1.508  10.457  -9.285  1.00  0.00     0.029 A 
ATOM     64  C   UNL     1      -2.648  10.032  -8.602  1.00  0.00     0.049 A 
ATOM     65  H   UNL     1      -3.647   8.210  -8.864  1.00  0.00     0.167 HD
ATOM     66  C   UNL     1      -4.403  10.001  -6.835  1.00  0.00     0.074 A 
ATOM     67  C   UNL     1      -5.055   8.712  -7.023  1.00  0.00     0.031 C 
ATOM     68  C   UNL     1      -3.430  10.643  -7.544  1.00  0.00     0.037 A 
BRANCH  55  69
ATOM     69  C   UNL     1      -2.366   5.791  -9.874  1.00  0.00     0.058 A 
ATOM     70  C   UNL     1      -3.054   6.078 -11.076  1.00  0.00     0.135 A 
ATOM     71  C   UNL     1      -2.849   4.672  -9.159  1.00  0.00     0.135 A 
ATOM     72  F   UNL     1      -2.691   7.123 -11.837  1.00  0.00    -0.206 F 
ATOM     73  C   UNL     1      -4.176   5.357 -11.492  1.00  0.00     0.059 A 
ATOM     74  C   UNL     1      -3.932   3.909  -9.583  1.00  0.00     0.059 A 
ATOM     75  F   UNL     1      -2.365   4.319  -7.964  1.00  0.00    -0.206 F 
ATOM     76  C   UNL     1      -4.615   4.281 -10.728  1.00  0.00     0.060 A 
BRANCH  76  77
ATOM     77  S   UNL     1      -6.112   3.400 -11.205  1.00  0.00     0.124 S 
ATOM     78  O   UNL     1      -7.138   4.397 -10.926  1.00  0.00    -0.237 OA
ATOM     79  O   UNL     1      -5.859   3.115 -12.614  1.00  0.00    -0.237 OA
ATOM     80  O   UNL     1      -6.106   2.234 -10.326  1.00  0.00    -0.744 OA
ENDBRANCH  76  77
ENDBRANCH  55  69
BRANCH  56  81
ATOM     81  C   UNL     1      -5.673   8.487  -2.543  1.00  0.00     0.058 A 
ATOM     82  C   UNL     1      -7.006   8.922  -2.646  1.00  0.00     0.135 A 
ATOM     83  C   UNL     1      -5.427   7.447  -1.625  1.00  0.00     0.135 A 
ATOM     84  F   UNL     1      -7.333   9.900  -3.504  1.00  0.00    -0.206 F 
ATOM     85  C   UNL     1      -8.046   8.319  -1.929  1.00  0.00     0.059 A 
ATOM     86  C   UNL     1      -6.445   6.837  -0.892  1.00  0.00     0.059 A 
ATOM     87  F   UNL     1      -4.198   6.927  -1.483  1.00  0.00    -0.206 F 
ATOM     88  C   UNL     1      -7.757   7.258  -1.073  1.00  0.00     0.060 A 
BRANCH  88  89
ATOM     89  S   UNL     1      -9.116   6.348  -0.298  1.00  0.00     0.124 S 
ATOM     90  O   UNL     1      -9.615   7.317   0.670  1.00  0.00    -0.237 OA
ATOM     91  O   UNL     1      -9.989   6.072  -1.435  1.00  0.00    -0.237 OA
ATOM     92  O   UNL     1      -8.454   5.177   0.273  1.00  0.00    -0.744 OA
ENDBRANCH  88  89
ENDBRANCH  56  81
BRANCH  68  93
ATOM     93  C   UNL     1      -3.027  12.018  -7.089  1.00  0.00     0.058 A 
ATOM     94  C   UNL     1      -2.367  12.312  -5.884  1.00  0.00     0.135 A 
ATOM     95  C   UNL     1      -3.240  13.081  -7.979  1.00  0.00     0.135 A 
ATOM     96  F   UNL     1      -2.048  11.342  -5.016  1.00  0.00    -0.206 F 
ATOM     97  C   UNL     1      -1.970  13.612  -5.564  1.00  0.00     0.059 A 
ATOM     98  C   UNL     1      -2.825  14.377  -7.698  1.00  0.00     0.059 A 
ATOM     99  F   UNL     1      -3.822  12.854  -9.169  1.00  0.00    -0.206 F 
ATOM    100  C   UNL     1      -2.202  14.639  -6.480  1.00  0.00     0.060 A 
BRANCH 100 101
ATOM    101  S   UNL     1      -1.624  16.307  -6.102  1.00  0.00     0.124 S 
ATOM    102  O   UNL     1      -2.553  16.724  -5.058  1.00  0.00    -0.237 OA
ATOM    103  O   UNL     1      -0.248  16.076  -5.672  1.00  0.00    -0.237 OA
ATOM    104  O   UNL     1      -1.759  17.011  -7.375  1.00  0.00    -0.744 OA
ENDBRANCH 100 101
ENDBRANCH  68  93
ENDBRANCH  42  43
ENDBRANCH  34  37
ENDBRANCH  32  33
ENDBRANCH  31  32
ENDBRANCH  30  31
ENDBRANCH   1  30
TORSDOF 20
