REMARK SMILES CCc1nc2sc(C(=O)NCC(=O)NCCCCCCNC(=O)c3ccc(-c4c5nc(c(-c6c(F)cc(S(=O)(=O)[O-])cc6F)c6ccc([nH]6)c(-c6c(F)cc(S(=O)(=O)[O-])cc6F)c6nc(c(-c7c(F)cc(S(=O)(=O)[O-])cc7F)c7ccc4[nH]7)C=C6)C=C5)cc3)c(N)c2c(C(F)(F)F)c1C
REMARK SMILES IDX 17 1 16 2 15 3 14 4 12 5 13 6 11 8 10 9 8 10 9 11 7 13 3 14
REMARK SMILES IDX 4 15 98 16 5 17 93 18 99 19 6 20 92 21 90 22 2 23 1 24 94 25
REMARK SMILES IDX 95 26 96 27 97 28 91 29 18 32 19 33 20 34 21 35 22 36 23 38
REMARK SMILES IDX 24 39 25 40 89 41 26 42 88 43 27 44 28 45 29 46 82 47 30 48
REMARK SMILES IDX 87 49 81 50 83 51 31 52 86 53 80 54 79 55 32 57 66 58 45 59
REMARK SMILES IDX 65 60 46 61 49 62 64 63 84 64 47 65 48 66 63 68 85 69 50 70
REMARK SMILES IDX 33 71 34 72 43 73 35 74 36 75 42 76 44 77 37 78 38 79 39 80
REMARK SMILES IDX 40 81 41 82 67 83 68 84 77 85 69 86 70 87 76 88 78 89 71 90
REMARK SMILES IDX 72 91 73 92 74 93 75 94 51 95 52 96 61 97 53 98 54 99 60 100
REMARK SMILES IDX 62 101 55 102 56 103 57 104 58 105 59 106
REMARK H PARENT 14 7 10 12 91 30 91 31 21 37 83 56 49 67
REMARK Flexibility Score: inf
ROOT
ATOM      1  C   UNL     1       6.739  -6.602  -5.166  1.00  0.00     0.002 C 
ENDROOT
BRANCH   1   2
ATOM      2  C   UNL     1       5.210  -6.613  -5.228  1.00  0.00     0.021 C 
BRANCH   2   3
ATOM      3  C   UNL     1       4.601  -5.282  -5.643  1.00  0.00     0.116 C 
BRANCH   3   4
ATOM      4  N   UNL     1       4.745  -5.005  -7.059  1.00  0.00    -0.355 N 
ATOM      5  C   UNL     1       3.884  -5.104  -8.110  1.00  0.00     0.239 C 
ATOM      6  O   UNL     1       4.337  -4.754  -9.208  1.00  0.00    -0.273 OA
ATOM      7  H   UNL     1       5.641  -4.684  -7.311  1.00  0.00     0.163 HD
BRANCH   5   8
ATOM      8  C   UNL     1       2.382  -5.436  -7.984  1.00  0.00     0.216 C 
BRANCH   8   9
ATOM      9  N   UNL     1       1.848  -6.117  -6.828  1.00  0.00    -0.342 N 
ATOM     10  C   UNL     1       1.224  -5.702  -5.677  1.00  0.00     0.264 C 
ATOM     11  O   UNL     1       0.735  -6.645  -5.043  1.00  0.00    -0.268 OA
ATOM     12  H   UNL     1       1.955  -7.095  -6.875  1.00  0.00     0.164 HD
BRANCH  10  13
ATOM     13  C   UNL     1       1.198  -4.322  -5.172  1.00  0.00     0.118 A 
ATOM     14  C   UNL     1       0.700  -0.495  -2.428  1.00  0.00     0.045 A 
ATOM     15  N   UNL     1       0.348  -1.793  -2.461  1.00  0.00    -0.242 NA
ATOM     16  C   UNL     1       1.456   0.129  -3.434  1.00  0.00    -0.017 A 
ATOM     17  C   UNL     1       0.740  -2.490  -3.536  1.00  0.00     0.127 A 
ATOM     18  C   UNL     1       1.818  -0.629  -4.590  1.00  0.00     0.073 A 
ATOM     19  C   UNL     1       1.861   1.578  -3.334  1.00  0.00     0.047 C 
ATOM     20  S   UNL     1       0.375  -4.135  -3.652  1.00  0.00    -0.108 S 
ATOM     21  C   UNL     1       1.443  -2.009  -4.622  1.00  0.00     0.048 A 
ATOM     22  C   UNL     1       1.700  -3.086  -5.560  1.00  0.00     0.066 A 
BRANCH  14  23
ATOM     23  C   UNL     1       0.172   0.221  -1.204  1.00  0.00     0.053 C 
ATOM     24  C   UNL     1       0.933  -0.151   0.061  1.00  0.00     0.011 C 
ENDBRANCH  14  23
BRANCH  18  25
ATOM     25  C   UNL     1       2.604  -0.037  -5.739  1.00  0.00     0.417 C 
ATOM     26  F   UNL     1       3.880  -0.517  -5.801  1.00  0.00    -0.166 F 
ATOM     27  F   UNL     1       2.048  -0.314  -6.958  1.00  0.00    -0.166 F 
ATOM     28  F   UNL     1       2.734   1.319  -5.736  1.00  0.00    -0.166 F 
ENDBRANCH  18  25
BRANCH  22  29
ATOM     29  N   UNL     1       2.437  -2.849  -6.664  1.00  0.00    -0.397 N 
ATOM     30  H   UNL     1       2.613  -3.576  -7.303  1.00  0.00     0.156 HD
ATOM     31  H   UNL     1       2.799  -1.948  -6.830  1.00  0.00     0.156 HD
ENDBRANCH  22  29
ENDBRANCH  10  13
ENDBRANCH   8   9
ENDBRANCH   5   8
ENDBRANCH   3   4
ENDBRANCH   2   3
ENDBRANCH   1   2
BRANCH   1  32
ATOM     32  C   UNL     1       7.373  -5.508  -4.290  1.00  0.00     0.002 C 
BRANCH  32  33
ATOM     33  C   UNL     1       6.852  -5.382  -2.850  1.00  0.00     0.021 C 
BRANCH  33  34
ATOM     34  C   UNL     1       7.101  -6.613  -1.994  1.00  0.00     0.116 C 
BRANCH  34  35
ATOM     35  N   UNL     1       8.524  -6.859  -1.761  1.00  0.00    -0.352 N 
ATOM     36  C   UNL     1       9.106  -7.896  -1.051  1.00  0.00     0.251 C 
ATOM     37  H   UNL     1       9.145  -6.206  -2.158  1.00  0.00     0.163 HD
ATOM     38  O   UNL     1      10.245  -7.808  -0.629  1.00  0.00    -0.269 OA
BRANCH  36  39
ATOM     39  C   UNL     1       8.304  -9.113  -0.824  1.00  0.00     0.039 A 
ATOM     40  C   UNL     1       8.294  -9.772   0.407  1.00  0.00     0.014 A 
ATOM     41  C   UNL     1       7.508  -9.554  -1.876  1.00  0.00     0.014 A 
ATOM     42  C   UNL     1       7.407 -10.832   0.589  1.00  0.00     0.010 A 
ATOM     43  C   UNL     1       6.513 -10.461  -1.635  1.00  0.00     0.010 A 
ATOM     44  C   UNL     1       6.502 -11.158  -0.434  1.00  0.00    -0.014 A 
BRANCH  44  45
ATOM     45  C   UNL     1       5.480 -12.182  -0.250  1.00  0.00     0.031 A 
ATOM     46  C   UNL     1       4.620 -12.010   0.952  1.00  0.00     0.074 A 
ATOM     47  C   UNL     1       5.191 -13.098  -1.201  1.00  0.00     0.049 A 
ATOM     48  N   UNL     1       4.597 -12.745   2.014  1.00  0.00    -0.248 NA
ATOM     49  C   UNL     1       3.779 -10.806   1.047  1.00  0.00     0.031 C 
ATOM     50  C   UNL     1       5.740 -13.223  -2.559  1.00  0.00     0.029 A 
ATOM     51  N   UNL     1       4.245 -14.072  -1.180  1.00  0.00    -0.354 N 
ATOM     52  C   UNL     1       3.579 -12.234   2.815  1.00  0.00     0.074 A 
ATOM     53  C   UNL     1       3.245 -10.946   2.263  1.00  0.00     0.031 C 
ATOM     54  C   UNL     1       4.958 -14.043  -3.295  1.00  0.00     0.029 A 
ATOM     55  C   UNL     1       3.977 -14.648  -2.416  1.00  0.00     0.049 A 
ATOM     56  H   UNL     1       3.785 -14.348  -0.354  1.00  0.00     0.167 HD
ATOM     57  C   UNL     1       2.934 -13.016   3.727  1.00  0.00     0.037 A 
ATOM     58  C   UNL     1       3.012 -15.557  -2.697  1.00  0.00     0.037 A 
ATOM     59  C   UNL     1       3.655 -14.242   3.966  1.00  0.00     0.049 A 
ATOM     60  C   UNL     1       2.672 -16.219  -1.411  1.00  0.00     0.074 A 
ATOM     61  C   UNL     1       4.917 -14.550   4.437  1.00  0.00     0.029 A 
ATOM     62  N   UNL     1       3.209 -15.377   3.331  1.00  0.00    -0.354 N 
ATOM     63  N   UNL     1       3.509 -16.960  -0.735  1.00  0.00    -0.248 NA
ATOM     64  C   UNL     1       1.565 -15.671  -0.643  1.00  0.00     0.031 C 
ATOM     65  C   UNL     1       5.348 -15.652   3.640  1.00  0.00     0.029 A 
ATOM     66  C   UNL     1       4.303 -15.996   2.780  1.00  0.00     0.049 A 
ATOM     67  H   UNL     1       2.276 -15.688   3.281  1.00  0.00     0.167 HD
ATOM     68  C   UNL     1       3.288 -16.625   0.594  1.00  0.00     0.074 A 
ATOM     69  C   UNL     1       2.022 -15.893   0.592  1.00  0.00     0.031 C 
ATOM     70  C   UNL     1       4.279 -16.727   1.530  1.00  0.00     0.037 A 
BRANCH  57  71
ATOM     71  C   UNL     1       1.489 -12.849   4.132  1.00  0.00     0.058 A 
ATOM     72  C   UNL     1       0.987 -13.578   5.229  1.00  0.00     0.135 A 
ATOM     73  C   UNL     1       0.516 -12.223   3.321  1.00  0.00     0.135 A 
ATOM     74  F   UNL     1       1.821 -14.222   6.062  1.00  0.00    -0.206 F 
ATOM     75  C   UNL     1      -0.381 -13.734   5.461  1.00  0.00     0.059 A 
ATOM     76  C   UNL     1      -0.849 -12.319   3.565  1.00  0.00     0.059 A 
ATOM     77  F   UNL     1       0.838 -11.575   2.195  1.00  0.00    -0.206 F 
ATOM     78  C   UNL     1      -1.291 -13.111   4.612  1.00  0.00     0.060 A 
BRANCH  78  79
ATOM     79  S   UNL     1      -3.053 -13.405   4.839  1.00  0.00     0.124 S 
ATOM     80  O   UNL     1      -3.159 -14.818   4.495  1.00  0.00    -0.237 OA
ATOM     81  O   UNL     1      -3.235 -13.074   6.249  1.00  0.00    -0.237 OA
ATOM     82  O   UNL     1      -3.673 -12.477   3.898  1.00  0.00    -0.744 OA
ENDBRANCH  78  79
ENDBRANCH  57  71
BRANCH  58  83
ATOM     83  C   UNL     1       2.132 -15.605  -3.896  1.00  0.00     0.058 A 
ATOM     84  C   UNL     1       1.314 -16.720  -4.150  1.00  0.00     0.135 A 
ATOM     85  C   UNL     1       1.857 -14.448  -4.653  1.00  0.00     0.135 A 
ATOM     86  F   UNL     1       1.496 -17.859  -3.464  1.00  0.00    -0.206 F 
ATOM     87  C   UNL     1       0.249 -16.674  -5.058  1.00  0.00     0.059 A 
ATOM     88  C   UNL     1       0.805 -14.380  -5.568  1.00  0.00     0.059 A 
ATOM     89  F   UNL     1       2.548 -13.315  -4.461  1.00  0.00    -0.206 F 
ATOM     90  C   UNL     1      -0.013 -15.490  -5.745  1.00  0.00     0.060 A 
BRANCH  90  91
ATOM     91  S   UNL     1      -1.486 -15.376  -6.789  1.00  0.00     0.124 S 
ATOM     92  O   UNL     1      -1.173 -16.319  -7.857  1.00  0.00    -0.237 OA
ATOM     93  O   UNL     1      -2.544 -15.782  -5.870  1.00  0.00    -0.237 OA
ATOM     94  O   UNL     1      -1.514 -13.971  -7.187  1.00  0.00    -0.744 OA
ENDBRANCH  90  91
ENDBRANCH  58  83
BRANCH  70  95
ATOM     95  C   UNL     1       5.540 -17.473   1.162  1.00  0.00     0.058 A 
ATOM     96  C   UNL     1       6.463 -17.052   0.186  1.00  0.00     0.135 A 
ATOM     97  C   UNL     1       5.910 -18.572   1.952  1.00  0.00     0.135 A 
ATOM     98  F   UNL     1       6.239 -15.955  -0.548  1.00  0.00    -0.206 F 
ATOM     99  C   UNL     1       7.679 -17.712  -0.015  1.00  0.00     0.059 A 
ATOM    100  C   UNL     1       7.128 -19.227   1.789  1.00  0.00     0.059 A 
ATOM    101  F   UNL     1       5.102 -18.988   2.941  1.00  0.00    -0.206 F 
ATOM    102  C   UNL     1       8.005 -18.798   0.796  1.00  0.00     0.060 A 
BRANCH 102 103
ATOM    103  S   UNL     1       9.608 -19.604   0.587  1.00  0.00     0.124 S 
ATOM    104  O   UNL     1       9.465 -20.243  -0.717  1.00  0.00    -0.237 OA
ATOM    105  O   UNL     1      10.538 -18.479   0.642  1.00  0.00    -0.237 OA
ATOM    106  O   UNL     1       9.683 -20.519   1.723  1.00  0.00    -0.744 OA
ENDBRANCH 102 103
ENDBRANCH  70  95
ENDBRANCH  44  45
ENDBRANCH  36  39
ENDBRANCH  34  35
ENDBRANCH  33  34
ENDBRANCH  32  33
ENDBRANCH   1  32
TORSDOF 21
