REMARK SMILES NS(=O)(=O)c1ccc(-n2nc(C(F)F)cc2-c2ccc(C(=O)NCCCCCCNC(=O)c3ccc(-c4c5nc(c(-c6c(F)cc(S(=O)(=O)[O-])cc6F)c6ccc([nH]6)c(-c6c(F)cc(S(=O)(=O)[O-])cc6F)c6nc(c(-c7c(F)cc(S(=O)(=O)[O-])cc7F)c7ccc4[nH]7)C=C6)C=C5)cc3)cc2)cc1
REMARK SMILES IDX 26 1 25 2 24 3 23 4 21 5 22 6 20 8 17 9 18 10 100 11 19 12
REMARK SMILES IDX 99 13 16 14 9 15 10 16 11 17 15 18 8 19 5 20 6 21 102 22
REMARK SMILES IDX 7 23 101 24 2 25 3 26 4 27 1 28 12 31 13 32 14 33 27 34
REMARK SMILES IDX 28 35 29 36 30 37 31 38 32 40 33 41 34 42 98 43 35 44 97 45
REMARK SMILES IDX 36 46 37 47 38 48 91 49 39 50 96 51 90 52 92 53 40 54 95 55
REMARK SMILES IDX 89 56 88 57 41 59 75 60 54 61 74 62 55 63 58 64 73 65 93 66
REMARK SMILES IDX 56 67 57 68 72 70 94 71 59 72 42 73 43 74 52 75 44 76 45 77
REMARK SMILES IDX 51 78 53 79 46 80 47 81 48 82 49 83 50 84 76 85 77 86 86 87
REMARK SMILES IDX 78 88 79 89 85 90 87 91 80 92 81 93 82 94 83 95 84 96 60 97
REMARK SMILES IDX 61 98 70 99 62 100 63 101 69 102 71 103 64 104 65 105 66 106
REMARK SMILES IDX 67 107 68 108
REMARK H PARENT 23 7 1 29 1 30 30 39 92 58 58 69
REMARK Flexibility Score: inf
ROOT
ATOM      1  C   UNL     1       9.238   1.878   5.700  1.00  0.00     0.002 C 
ENDROOT
BRANCH   1   2
ATOM      2  C   UNL     1       8.030   2.771   5.392  1.00  0.00     0.021 C 
BRANCH   2   3
ATOM      3  C   UNL     1       8.387   3.970   4.512  1.00  0.00     0.116 C 
BRANCH   3   4
ATOM      4  N   UNL     1       8.504   3.554   3.128  1.00  0.00    -0.352 N 
ATOM      5  C   UNL     1       7.677   3.710   2.047  1.00  0.00     0.251 C 
ATOM      6  O   UNL     1       8.048   3.248   0.968  1.00  0.00    -0.269 OA
ATOM      7  H   UNL     1       9.335   3.066   2.928  1.00  0.00     0.163 HD
BRANCH   5   8
ATOM      8  C   UNL     1       6.410   4.487   2.113  1.00  0.00     0.039 A 
ATOM      9  C   UNL     1       4.145   6.147   2.125  1.00  0.00     0.000 A 
ATOM     10  C   UNL     1       4.861   5.945   0.939  1.00  0.00     0.011 A 
ATOM     11  C   UNL     1       4.537   5.485   3.288  1.00  0.00     0.011 A 
ATOM     12  C   UNL     1       5.994   5.129   0.938  1.00  0.00     0.014 A 
ATOM     13  C   UNL     1       5.624   4.612   3.261  1.00  0.00     0.014 A 
BRANCH   9  14
ATOM     14  C   UNL     1       2.947   6.971   2.139  1.00  0.00     0.075 A 
ATOM     15  N   UNL     1       1.754   6.641   1.508  1.00  0.00    -0.233 N 
ATOM     16  N   UNL     1       0.907   7.702   1.467  1.00  0.00    -0.166 NA
ATOM     17  C   UNL     1       1.433   8.587   2.334  1.00  0.00     0.129 A 
ATOM     18  C   UNL     1       2.736   8.200   2.725  1.00  0.00     0.060 A 
BRANCH  15  19
ATOM     19  C   UNL     1       1.400   5.389   0.940  1.00  0.00     0.065 A 
ATOM     20  C   UNL     1       0.885   2.925  -0.253  1.00  0.00     0.082 A 
ATOM     21  C   UNL     1       1.512   2.964   0.990  1.00  0.00     0.024 A 
ATOM     22  C   UNL     1       0.467   4.108  -0.880  1.00  0.00     0.024 A 
ATOM     23  C   UNL     1       1.774   4.198   1.582  1.00  0.00     0.030 A 
ATOM     24  C   UNL     1       0.703   5.345  -0.270  1.00  0.00     0.030 A 
BRANCH  20  25
ATOM     25  S   UNL     1       0.597   1.387  -1.080  1.00  0.00     0.238 S 
ATOM     26  O   UNL     1       1.490   1.345  -2.227  1.00  0.00    -0.207 OA
ATOM     27  O   UNL     1      -0.819   1.193  -1.210  1.00  0.00    -0.207 OA
BRANCH  25  28
ATOM     28  N   UNL     1       1.167   0.220  -0.024  1.00  0.00    -0.225 NA
ATOM     29  H   UNL     1       1.035  -0.704  -0.435  1.00  0.00     0.137 HD
ATOM     30  H   UNL     1       0.655   0.278   0.856  1.00  0.00     0.137 HD
ENDBRANCH  25  28
ENDBRANCH  20  25
ENDBRANCH  15  19
BRANCH  17  31
ATOM     31  C   UNL     1       0.707   9.818   2.786  1.00  0.00     0.393 C 
ATOM     32  F   UNL     1       0.244  10.566   1.747  1.00  0.00    -0.203 F 
ATOM     33  F   UNL     1      -0.369   9.518   3.563  1.00  0.00    -0.203 F 
ENDBRANCH  17  31
ENDBRANCH   9  14
ENDBRANCH   5   8
ENDBRANCH   3   4
ENDBRANCH   2   3
ENDBRANCH   1   2
BRANCH   1  34
ATOM     34  C   UNL     1      10.429   2.592   6.362  1.00  0.00     0.002 C 
BRANCH  34  35
ATOM     35  C   UNL     1      10.104   3.448   7.597  1.00  0.00     0.021 C 
BRANCH  35  36
ATOM     36  C   UNL     1       9.662   2.628   8.797  1.00  0.00     0.116 C 
BRANCH  36  37
ATOM     37  N   UNL     1      10.743   1.779   9.307  1.00  0.00    -0.352 N 
ATOM     38  C   UNL     1      10.704   0.828  10.309  1.00  0.00     0.251 C 
ATOM     39  H   UNL     1      11.619   1.905   8.876  1.00  0.00     0.163 HD
ATOM     40  O   UNL     1      11.731   0.477  10.877  1.00  0.00    -0.269 OA
BRANCH  38  41
ATOM     41  C   UNL     1       9.405   0.238  10.670  1.00  0.00     0.039 A 
ATOM     42  C   UNL     1       9.072  -0.100  11.985  1.00  0.00     0.014 A 
ATOM     43  C   UNL     1       8.493   0.051   9.639  1.00  0.00     0.014 A 
ATOM     44  C   UNL     1       7.786  -0.570  12.245  1.00  0.00     0.010 A 
ATOM     45  C   UNL     1       7.180  -0.169   9.930  1.00  0.00     0.010 A 
ATOM     46  C   UNL     1       6.843  -0.590  11.206  1.00  0.00    -0.014 A 
BRANCH  46  47
ATOM     47  C   UNL     1       5.457  -0.977  11.417  1.00  0.00     0.031 A 
ATOM     48  C   UNL     1       4.756  -0.175  12.450  1.00  0.00     0.074 A 
ATOM     49  C   UNL     1       4.801  -1.804  10.571  1.00  0.00     0.049 A 
ATOM     50  N   UNL     1       4.398  -0.552  13.631  1.00  0.00    -0.248 NA
ATOM     51  C   UNL     1       4.594   1.270  12.213  1.00  0.00     0.031 C 
ATOM     52  C   UNL     1       5.274  -2.403   9.314  1.00  0.00     0.029 A 
ATOM     53  N   UNL     1       3.505  -2.204  10.608  1.00  0.00    -0.354 N 
ATOM     54  C   UNL     1       3.723   0.534  14.181  1.00  0.00     0.074 A 
ATOM     55  C   UNL     1       4.084   1.673  13.379  1.00  0.00     0.031 C 
ATOM     56  C   UNL     1       4.223  -2.876   8.608  1.00  0.00     0.029 A 
ATOM     57  C   UNL     1       3.034  -2.782   9.432  1.00  0.00     0.049 A 
ATOM     58  H   UNL     1       2.940  -2.093  11.406  1.00  0.00     0.167 HD
ATOM     59  C   UNL     1       2.707   0.350  15.070  1.00  0.00     0.037 A 
ATOM     60  C   UNL     1       1.749  -3.129   9.163  1.00  0.00     0.037 A 
ATOM     61  C   UNL     1       2.709  -1.000  15.585  1.00  0.00     0.049 A 
ATOM     62  C   UNL     1       1.060  -3.243  10.478  1.00  0.00     0.074 A 
ATOM     63  C   UNL     1       3.639  -1.785  16.241  1.00  0.00     0.029 A 
ATOM     64  N   UNL     1       1.778  -1.878  15.081  1.00  0.00    -0.354 N 
ATOM     65  N   UNL     1       1.353  -4.152  11.370  1.00  0.00    -0.248 NA
ATOM     66  C   UNL     1       0.399  -2.054  10.994  1.00  0.00     0.031 C 
ATOM     67  C   UNL     1       3.500  -3.081  15.662  1.00  0.00     0.029 A 
ATOM     68  C   UNL     1       2.442  -3.035  14.754  1.00  0.00     0.049 A 
ATOM     69  H   UNL     1       0.814  -1.709  14.974  1.00  0.00     0.167 HD
ATOM     70  C   UNL     1       1.311  -3.485  12.586  1.00  0.00     0.074 A 
ATOM     71  C   UNL     1       0.647  -2.213  12.297  1.00  0.00     0.031 C 
ATOM     72  C   UNL     1       2.075  -3.889  13.645  1.00  0.00     0.037 A 
BRANCH  59  73
ATOM     73  C   UNL     1       1.497   1.250  15.179  1.00  0.00     0.058 A 
ATOM     74  C   UNL     1       0.588   1.049  16.238  1.00  0.00     0.135 A 
ATOM     75  C   UNL     1       1.046   2.107  14.149  1.00  0.00     0.135 A 
ATOM     76  F   UNL     1       0.907   0.250  17.270  1.00  0.00    -0.206 F 
ATOM     77  C   UNL     1      -0.697   1.592  16.235  1.00  0.00     0.059 A 
ATOM     78  C   UNL     1      -0.208   2.705  14.155  1.00  0.00     0.059 A 
ATOM     79  F   UNL     1       1.754   2.332  13.036  1.00  0.00    -0.206 F 
ATOM     80  C   UNL     1      -1.089   2.408  15.179  1.00  0.00     0.060 A 
BRANCH  80  81
ATOM     81  S   UNL     1      -2.778   3.027  15.117  1.00  0.00     0.124 S 
ATOM     82  O   UNL     1      -3.526   1.801  14.865  1.00  0.00    -0.237 OA
ATOM     83  O   UNL     1      -2.932   3.612  16.445  1.00  0.00    -0.237 OA
ATOM     84  O   UNL     1      -2.742   3.985  14.016  1.00  0.00    -0.744 OA
ENDBRANCH  80  81
ENDBRANCH  59  73
BRANCH  60  85
ATOM     85  C   UNL     1       1.002  -3.006   7.881  1.00  0.00     0.058 A 
ATOM     86  C   UNL     1      -0.282  -3.566   7.737  1.00  0.00     0.135 A 
ATOM     87  C   UNL     1       1.389  -2.084   6.888  1.00  0.00     0.135 A 
ATOM     88  F   UNL     1      -0.737  -4.448   8.639  1.00  0.00    -0.206 F 
ATOM     89  C   UNL     1      -1.158  -3.179   6.715  1.00  0.00     0.059 A 
ATOM     90  C   UNL     1       0.537  -1.691   5.855  1.00  0.00     0.059 A 
ATOM     91  F   UNL     1       2.574  -1.460   6.944  1.00  0.00    -0.206 F 
ATOM     92  C   UNL     1      -0.747  -2.218   5.793  1.00  0.00     0.060 A 
BRANCH  92  93
ATOM     93  S   UNL     1      -1.933  -1.561   4.593  1.00  0.00     0.124 S 
ATOM     94  O   UNL     1      -2.127  -2.703   3.707  1.00  0.00    -0.237 OA
ATOM     95  O   UNL     1      -3.064  -1.207   5.442  1.00  0.00    -0.237 OA
ATOM     96  O   UNL     1      -1.219  -0.432   4.000  1.00  0.00    -0.744 OA
ENDBRANCH  92  93
ENDBRANCH  60  85
BRANCH  72  97
ATOM     97  C   UNL     1       2.758  -5.233  13.565  1.00  0.00     0.058 A 
ATOM     98  C   UNL     1       3.752  -5.577  12.630  1.00  0.00     0.135 A 
ATOM     99  C   UNL     1       2.494  -6.165  14.580  1.00  0.00     0.135 A 
ATOM    100  F   UNL     1       4.144  -4.709  11.688  1.00  0.00    -0.206 F 
ATOM    101  C   UNL     1       4.418  -6.805  12.675  1.00  0.00     0.059 A 
ATOM    102  C   UNL     1       3.166  -7.381  14.665  1.00  0.00     0.059 A 
ATOM    103  F   UNL     1       1.602  -5.875  15.542  1.00  0.00    -0.206 F 
ATOM    104  C   UNL     1       4.117  -7.702  13.699  1.00  0.00     0.060 A 
BRANCH 104 105
ATOM    105  S   UNL     1       5.015  -9.266  13.795  1.00  0.00     0.124 S 
ATOM    106  O   UNL     1       4.487  -9.995  12.646  1.00  0.00    -0.237 OA
ATOM    107  O   UNL     1       6.408  -8.840  13.689  1.00  0.00    -0.237 OA
ATOM    108  O   UNL     1       4.634  -9.800  15.101  1.00  0.00    -0.744 OA
ENDBRANCH 104 105
ENDBRANCH  72  97
ENDBRANCH  46  47
ENDBRANCH  38  41
ENDBRANCH  36  37
ENDBRANCH  35  36
ENDBRANCH  34  35
ENDBRANCH   1  34
TORSDOF 21
