REMARK SMILES Cc1ccc(C)c(OCC(=O)N[C@@H](Cc2ccccc2)C(=O)NCCCCCCNC(=O)c2ccc(-c3c4nc(c(-c5c(F)cc(S(=O)(=O)[O-])cc5F)c5ccc([nH]5)c(-c5c(F)cc(S(=O)(=O)[O-])cc5F)c5nc(c(-c6c(F)cc(S(=O)(=O)[O-])cc6F)c6ccc3[nH]6)C=C5)C=C4)cc2)c1
REMARK SMILES IDX 26 1 25 2 24 3 23 4 21 5 22 6 13 8 12 9 10 10 11 11 9 13
REMARK SMILES IDX 8 14 7 15 1 16 2 17 3 18 99 19 4 20 5 21 6 22 14 23 15 24
REMARK SMILES IDX 16 25 20 26 17 27 19 28 18 29 27 30 28 31 29 32 30 33 31 34
REMARK SMILES IDX 32 36 33 37 34 38 98 39 35 40 97 41 36 42 37 43 38 44 91 45
REMARK SMILES IDX 39 46 96 47 90 48 92 49 40 50 95 51 89 52 88 53 41 55 75 56
REMARK SMILES IDX 54 57 74 58 55 59 58 60 73 61 93 62 56 63 57 64 72 66 94 67
REMARK SMILES IDX 59 68 42 69 43 70 52 71 44 72 45 73 51 74 53 75 46 76 47 77
REMARK SMILES IDX 48 78 49 79 50 80 76 81 77 82 86 83 78 84 79 85 85 86 87 87
REMARK SMILES IDX 80 88 81 89 82 90 83 91 84 92 60 93 61 94 70 95 62 96 63 97
REMARK SMILES IDX 69 98 71 99 64 100 65 101 66 102 67 103 68 104
REMARK H PARENT 23 7 12 12 30 35 92 54 58 65
REMARK Flexibility Score: inf
ROOT
ATOM      1  C   UNL     1      -0.334   6.676   7.069  1.00  0.00     0.002 C 
ENDROOT
BRANCH   1   2
ATOM      2  C   UNL     1       0.214   5.699   6.020  1.00  0.00     0.021 C 
BRANCH   2   3
ATOM      3  C   UNL     1      -0.786   4.725   5.408  1.00  0.00     0.116 C 
BRANCH   3   4
ATOM      4  N   UNL     1      -1.710   5.303   4.450  1.00  0.00    -0.354 N 
ATOM      5  C   UNL     1      -2.486   4.663   3.518  1.00  0.00     0.242 C 
ATOM      6  O   UNL     1      -3.619   5.125   3.330  1.00  0.00    -0.273 OA
ATOM      7  H   UNL     1      -1.791   6.284   4.473  1.00  0.00     0.163 HD
BRANCH   5   8
ATOM      8  C   UNL     1      -2.053   3.362   2.786  1.00  0.00     0.175 C 
BRANCH   8   9
ATOM      9  N   UNL     1      -0.636   3.378   2.450  1.00  0.00    -0.341 N 
ATOM     10  C   UNL     1      -0.148   3.818   1.251  1.00  0.00     0.258 C 
ATOM     11  O   UNL     1       0.790   4.612   1.293  1.00  0.00    -0.271 OA
ATOM     12  H   UNL     1       0.006   3.055   3.123  1.00  0.00     0.164 HD
BRANCH  10  13
ATOM     13  C   UNL     1      -0.798   3.380  -0.068  1.00  0.00     0.329 C 
BRANCH  13  14
ATOM     14  O   UNL     1      -1.530   2.161  -0.049  1.00  0.00    -0.483 OA
BRANCH  14  15
ATOM     15  C   UNL     1      -0.842   0.977   0.003  1.00  0.00     0.123 A 
ATOM     16  C   UNL     1       2.666  -0.499   0.205  1.00  0.00     0.044 C 
ATOM     17  C   UNL     1       1.167  -0.399   0.159  1.00  0.00    -0.047 A 
ATOM     18  C   UNL     1       0.378  -1.550   0.152  1.00  0.00     0.004 A 
ATOM     19  C   UNL     1       0.552   0.859   0.057  1.00  0.00     0.050 A 
ATOM     20  C   UNL     1      -1.010  -1.445   0.080  1.00  0.00     0.007 A 
ATOM     21  C   UNL     1      -1.632  -0.187   0.016  1.00  0.00    -0.009 A 
ATOM     22  C   UNL     1      -3.133  -0.143  -0.060  1.00  0.00     0.048 C 
ENDBRANCH  14  15
ENDBRANCH  13  14
ENDBRANCH  10  13
ENDBRANCH   8   9
BRANCH   8  23
ATOM     23  C   UNL     1      -2.567   2.053   3.411  1.00  0.00     0.070 C 
BRANCH  23  24
ATOM     24  C   UNL     1      -2.152   1.701   4.819  1.00  0.00    -0.045 A 
ATOM     25  C   UNL     1      -1.100   0.805   5.055  1.00  0.00     0.004 A 
ATOM     26  C   UNL     1      -2.840   2.237   5.916  1.00  0.00     0.004 A 
ATOM     27  C   UNL     1      -0.720   0.486   6.361  1.00  0.00     0.000 A 
ATOM     28  C   UNL     1      -2.446   1.932   7.221  1.00  0.00     0.000 A 
ATOM     29  C   UNL     1      -1.381   1.063   7.444  1.00  0.00     0.000 A 
ENDBRANCH  23  24
ENDBRANCH   8  23
ENDBRANCH   5   8
ENDBRANCH   3   4
ENDBRANCH   2   3
ENDBRANCH   1   2
BRANCH   1  30
ATOM     30  C   UNL     1      -1.283   6.154   8.161  1.00  0.00     0.002 C 
BRANCH  30  31
ATOM     31  C   UNL     1      -0.940   4.888   8.957  1.00  0.00     0.021 C 
BRANCH  31  32
ATOM     32  C   UNL     1       0.331   4.867   9.791  1.00  0.00     0.116 C 
BRANCH  32  33
ATOM     33  N   UNL     1       0.457   5.982  10.728  1.00  0.00    -0.352 N 
ATOM     34  C   UNL     1       1.513   6.780  11.143  1.00  0.00     0.251 C 
ATOM     35  H   UNL     1      -0.396   6.219  11.159  1.00  0.00     0.163 HD
ATOM     36  O   UNL     1       1.358   7.499  12.114  1.00  0.00    -0.269 OA
BRANCH  34  37
ATOM     37  C   UNL     1       2.815   6.788  10.431  1.00  0.00     0.039 A 
ATOM     38  C   UNL     1       3.776   7.783  10.646  1.00  0.00     0.014 A 
ATOM     39  C   UNL     1       2.999   5.938   9.356  1.00  0.00     0.014 A 
ATOM     40  C   UNL     1       4.761   7.976   9.667  1.00  0.00     0.010 A 
ATOM     41  C   UNL     1       4.215   5.839   8.759  1.00  0.00     0.010 A 
ATOM     42  C   UNL     1       4.888   7.030   8.651  1.00  0.00    -0.014 A 
BRANCH  42  43
ATOM     43  C   UNL     1       5.656   7.188   7.433  1.00  0.00     0.031 A 
ATOM     44  C   UNL     1       7.022   6.640   7.471  1.00  0.00     0.074 A 
ATOM     45  C   UNL     1       5.091   7.408   6.224  1.00  0.00     0.049 A 
ATOM     46  N   UNL     1       8.121   7.303   7.582  1.00  0.00    -0.248 NA
ATOM     47  C   UNL     1       7.184   5.180   7.530  1.00  0.00     0.031 C 
ATOM     48  C   UNL     1       3.673   7.464   5.856  1.00  0.00     0.029 A 
ATOM     49  N   UNL     1       5.721   7.511   5.022  1.00  0.00    -0.354 N 
ATOM     50  C   UNL     1       9.127   6.351   7.531  1.00  0.00     0.074 A 
ATOM     51  C   UNL     1       8.494   5.075   7.748  1.00  0.00     0.031 C 
ATOM     52  C   UNL     1       3.558   7.399   4.506  1.00  0.00     0.029 A 
ATOM     53  C   UNL     1       4.887   7.437   3.917  1.00  0.00     0.049 A 
ATOM     54  H   UNL     1       6.695   7.630   4.943  1.00  0.00     0.167 HD
ATOM     55  C   UNL     1      10.374   6.639   7.072  1.00  0.00     0.037 A 
ATOM     56  C   UNL     1       5.286   7.347   2.623  1.00  0.00     0.037 A 
ATOM     57  C   UNL     1      10.536   8.046   6.802  1.00  0.00     0.049 A 
ATOM     58  C   UNL     1       6.708   7.774   2.553  1.00  0.00     0.074 A 
ATOM     59  C   UNL     1      10.390   9.200   7.549  1.00  0.00     0.029 A 
ATOM     60  N   UNL     1      10.493   8.449   5.485  1.00  0.00    -0.354 N 
ATOM     61  N   UNL     1       7.121   8.994   2.760  1.00  0.00    -0.248 NA
ATOM     62  C   UNL     1       7.735   6.747   2.666  1.00  0.00     0.031 C 
ATOM     63  C   UNL     1       9.793  10.147   6.664  1.00  0.00     0.029 A 
ATOM     64  C   UNL     1       9.648   9.531   5.421  1.00  0.00     0.049 A 
ATOM     65  H   UNL     1      10.977   8.039   4.732  1.00  0.00     0.167 HD
ATOM     66  C   UNL     1       8.328   8.854   3.430  1.00  0.00     0.074 A 
ATOM     67  C   UNL     1       8.707   7.458   3.243  1.00  0.00     0.031 C 
ATOM     68  C   UNL     1       8.756   9.803   4.314  1.00  0.00     0.037 A 
BRANCH  55  69
ATOM     69  C   UNL     1      11.341   5.609   6.570  1.00  0.00     0.058 A 
ATOM     70  C   UNL     1      12.715   5.901   6.562  1.00  0.00     0.135 A 
ATOM     71  C   UNL     1      10.952   4.424   5.908  1.00  0.00     0.135 A 
ATOM     72  F   UNL     1      13.177   7.020   7.142  1.00  0.00    -0.206 F 
ATOM     73  C   UNL     1      13.640   5.086   5.913  1.00  0.00     0.059 A 
ATOM     74  C   UNL     1      11.863   3.562   5.314  1.00  0.00     0.059 A 
ATOM     75  F   UNL     1       9.662   4.104   5.731  1.00  0.00    -0.206 F 
ATOM     76  C   UNL     1      13.201   3.923   5.285  1.00  0.00     0.060 A 
BRANCH  76  77
ATOM     77  S   UNL     1      14.375   2.920   4.361  1.00  0.00     0.124 S 
ATOM     78  O   UNL     1      14.549   3.721   3.155  1.00  0.00    -0.237 OA
ATOM     79  O   UNL     1      15.519   2.869   5.266  1.00  0.00    -0.237 OA
ATOM     80  O   UNL     1      13.667   1.655   4.185  1.00  0.00    -0.744 OA
ENDBRANCH  76  77
ENDBRANCH  55  69
BRANCH  56  81
ATOM     81  C   UNL     1       4.642   6.605   1.515  1.00  0.00     0.058 A 
ATOM     82  C   UNL     1       4.937   6.886   0.170  1.00  0.00     0.135 A 
ATOM     83  C   UNL     1       3.955   5.404   1.769  1.00  0.00     0.135 A 
ATOM     84  F   UNL     1       5.632   7.988  -0.150  1.00  0.00    -0.206 F 
ATOM     85  C   UNL     1       4.589   6.014  -0.869  1.00  0.00     0.059 A 
ATOM     86  C   UNL     1       3.617   4.516   0.753  1.00  0.00     0.059 A 
ATOM     87  F   UNL     1       3.682   5.016   3.025  1.00  0.00    -0.206 F 
ATOM     88  C   UNL     1       3.931   4.825  -0.565  1.00  0.00     0.060 A 
BRANCH  88  89
ATOM     89  S   UNL     1       3.597   3.601  -1.850  1.00  0.00     0.124 S 
ATOM     90  O   UNL     1       2.275   4.002  -2.321  1.00  0.00    -0.237 OA
ATOM     91  O   UNL     1       4.696   3.802  -2.788  1.00  0.00    -0.237 OA
ATOM     92  O   UNL     1       3.639   2.337  -1.118  1.00  0.00    -0.744 OA
ENDBRANCH  88  89
ENDBRANCH  56  81
BRANCH  68  93
ATOM     93  C   UNL     1       8.047  11.134   4.312  1.00  0.00     0.058 A 
ATOM     94  C   UNL     1       6.694  11.302   4.657  1.00  0.00     0.135 A 
ATOM     95  C   UNL     1       8.796  12.298   4.088  1.00  0.00     0.135 A 
ATOM     96  F   UNL     1       5.935  10.252   4.996  1.00  0.00    -0.206 F 
ATOM     97  C   UNL     1       6.099  12.561   4.728  1.00  0.00     0.059 A 
ATOM     98  C   UNL     1       8.231  13.569   4.185  1.00  0.00     0.059 A 
ATOM     99  F   UNL     1      10.108  12.211   3.816  1.00  0.00    -0.206 F 
ATOM    100  C   UNL     1       6.877  13.692   4.493  1.00  0.00     0.060 A 
BRANCH 100 101
ATOM    101  S   UNL     1       6.130  15.324   4.690  1.00  0.00     0.124 S 
ATOM    102  O   UNL     1       5.355  15.457   3.461  1.00  0.00    -0.237 OA
ATOM    103  O   UNL     1       5.351  15.174   5.917  1.00  0.00    -0.237 OA
ATOM    104  O   UNL     1       7.283  16.214   4.803  1.00  0.00    -0.744 OA
ENDBRANCH 100 101
ENDBRANCH  68  93
ENDBRANCH  42  43
ENDBRANCH  34  37
ENDBRANCH  32  33
ENDBRANCH  31  32
ENDBRANCH  30  31
ENDBRANCH   1  30
TORSDOF 22
