REMARK SMILES O=C(CNC(=O)[C@@H](CC1=c2ccccc2=NC1)N1C(=O)N=C2C=CC=C[C@H]2C1=O)NCCCCCCNC(=O)c1ccc(-c2c3nc(c(-c4c(F)cc(S(=O)(=O)[O-])cc4F)c4ccc([nH]4)c(-c4c(F)cc(S(=O)(=O)[O-])cc4F)c4nc(c(-c5c(F)cc(S(=O)(=O)[O-])cc5F)c5ccc2[nH]5)C=C4)C=C3)cc1
REMARK SMILES IDX 33 1 32 2 31 3 30 4 1 5 2 6 3 8 4 9 5 10 6 12 7 13 8 14 9 15
REMARK SMILES IDX 10 16 17 17 11 18 15 19 16 20 12 21 14 22 13 23 18 24 19 25
REMARK SMILES IDX 28 26 21 27 20 28 27 29 29 30 22 31 26 32 23 33 25 34 24 35
REMARK SMILES IDX 34 36 35 37 36 38 37 39 38 40 39 42 40 43 41 44 105 45 42 46
REMARK SMILES IDX 104 47 43 48 44 49 45 50 98 51 46 52 103 53 97 54 99 55
REMARK SMILES IDX 47 56 102 57 96 58 95 59 48 61 82 62 61 63 81 64 62 65 65 66
REMARK SMILES IDX 80 67 100 68 63 69 64 70 79 72 101 73 66 74 49 75 50 76
REMARK SMILES IDX 59 77 51 78 52 79 58 80 60 81 53 82 54 83 55 84 56 85 57 86
REMARK SMILES IDX 83 87 84 88 93 89 85 90 86 91 92 92 94 93 87 94 88 95 89 96
REMARK SMILES IDX 90 97 91 98 67 99 68 100 77 101 69 102 70 103 76 104 78 105
REMARK SMILES IDX 71 106 72 107 73 108 74 109 75 110
REMARK H PARENT 30 7 4 11 37 41 99 60 65 71
REMARK Flexibility Score: inf
ROOT
ATOM      1  C   UNL     1       4.040  -2.582   2.268  1.00  0.00     0.002 C 
ENDROOT
BRANCH   1   2
ATOM      2  C   UNL     1       2.534  -2.347   2.088  1.00  0.00     0.021 C 
BRANCH   2   3
ATOM      3  C   UNL     1       2.056  -0.906   2.287  1.00  0.00     0.116 C 
BRANCH   3   4
ATOM      4  N   UNL     1       2.618   0.018   1.317  1.00  0.00    -0.355 N 
ATOM      5  O   UNL     1       0.643   1.052   0.746  1.00  0.00    -0.273 OA
ATOM      6  C   UNL     1       1.858   0.935   0.615  1.00  0.00     0.239 C 
ATOM      7  H   UNL     1       3.588  -0.011   1.150  1.00  0.00     0.163 HD
BRANCH   6   8
ATOM      8  C   UNL     1       2.657   1.846  -0.343  1.00  0.00     0.216 C 
BRANCH   8   9
ATOM      9  N   UNL     1       4.077   1.488  -0.421  1.00  0.00    -0.345 N 
ATOM     10  C   UNL     1       4.719   1.488  -1.644  1.00  0.00     0.244 C 
ATOM     11  H   UNL     1       4.571   1.248   0.396  1.00  0.00     0.164 HD
ATOM     12  O   UNL     1       4.699   2.495  -2.352  1.00  0.00    -0.273 OA
BRANCH  10  13
ATOM     13  C   UNL     1       5.659   0.289  -1.918  1.00  0.00     0.188 C 
BRANCH  13  14
ATOM     14  C   UNL     1       5.213  -1.169  -1.595  1.00  0.00     0.069 C 
BRANCH  14  15
ATOM     15  C   UNL     1       3.876  -1.802  -1.888  1.00  0.00    -0.037 C 
ATOM     16  C   UNL     1       3.554  -3.078  -1.643  1.00  0.00     0.001 A 
ATOM     17  C   UNL     1       2.645  -1.061  -2.307  1.00  0.00     0.174 C 
ATOM     18  C   UNL     1       4.250  -4.239  -1.179  1.00  0.00     0.010 A 
ATOM     19  C   UNL     1       2.092  -3.106  -1.839  1.00  0.00     0.065 A 
ATOM     20  N   UNL     1       1.520  -2.018  -2.244  1.00  0.00    -0.280 NA
ATOM     21  C   UNL     1       3.547  -5.351  -0.900  1.00  0.00     0.001 A 
ATOM     22  C   UNL     1       1.387  -4.355  -1.497  1.00  0.00     0.028 A 
ATOM     23  C   UNL     1       2.101  -5.395  -1.039  1.00  0.00     0.002 A 
ENDBRANCH  14  15
ENDBRANCH  13  14
BRANCH  13  24
ATOM     24  N   UNL     1       6.377   0.441  -3.206  1.00  0.00    -0.249 N 
ATOM     25  C   UNL     1       7.747   0.664  -3.148  1.00  0.00     0.351 C 
ATOM     26  C   UNL     1       5.683   0.355  -4.400  1.00  0.00     0.244 C 
ATOM     27  N   UNL     1       8.489   0.692  -4.285  1.00  0.00    -0.197 NA
ATOM     28  O   UNL     1       8.330   0.763  -2.059  1.00  0.00    -0.246 OA
ATOM     29  C   UNL     1       6.439   0.748  -5.657  1.00  0.00     0.151 C 
ATOM     30  O   UNL     1       4.491   0.057  -4.455  1.00  0.00    -0.273 OA
ATOM     31  C   UNL     1       7.929   0.674  -5.450  1.00  0.00     0.062 C 
ATOM     32  C   UNL     1       6.048  -0.071  -6.871  1.00  0.00    -0.007 C 
ATOM     33  C   UNL     1       8.815   0.571  -6.635  1.00  0.00     0.025 C 
ATOM     34  C   UNL     1       6.930  -0.402  -7.827  1.00  0.00    -0.003 C 
ATOM     35  C   UNL     1       8.305   0.030  -7.748  1.00  0.00     0.002 C 
ENDBRANCH  13  24
ENDBRANCH  10  13
ENDBRANCH   8   9
ENDBRANCH   6   8
ENDBRANCH   3   4
ENDBRANCH   2   3
ENDBRANCH   1   2
BRANCH   1  36
ATOM     36  C   UNL     1       4.619  -2.234   3.643  1.00  0.00     0.002 C 
BRANCH  36  37
ATOM     37  C   UNL     1       3.978  -2.951   4.832  1.00  0.00     0.021 C 
BRANCH  37  38
ATOM     38  C   UNL     1       4.092  -4.472   4.816  1.00  0.00     0.116 C 
BRANCH  38  39
ATOM     39  N   UNL     1       5.452  -4.947   5.043  1.00  0.00    -0.352 N 
ATOM     40  C   UNL     1       5.928  -5.826   5.992  1.00  0.00     0.251 C 
ATOM     41  H   UNL     1       6.130  -4.587   4.426  1.00  0.00     0.163 HD
ATOM     42  O   UNL     1       7.138  -6.003   6.108  1.00  0.00    -0.269 OA
BRANCH  40  43
ATOM     43  C   UNL     1       4.986  -6.527   6.895  1.00  0.00     0.039 A 
ATOM     44  C   UNL     1       3.817  -7.104   6.397  1.00  0.00     0.014 A 
ATOM     45  C   UNL     1       5.260  -6.582   8.265  1.00  0.00     0.014 A 
ATOM     46  C   UNL     1       2.840  -7.556   7.280  1.00  0.00     0.010 A 
ATOM     47  C   UNL     1       4.313  -7.121   9.145  1.00  0.00     0.010 A 
ATOM     48  C   UNL     1       3.068  -7.557   8.667  1.00  0.00    -0.014 A 
BRANCH  48  49
ATOM     49  C   UNL     1       1.977  -7.989   9.586  1.00  0.00     0.031 A 
ATOM     50  C   UNL     1       1.360  -7.016  10.560  1.00  0.00     0.074 A 
ATOM     51  C   UNL     1       1.486  -9.241   9.490  1.00  0.00     0.049 A 
ATOM     52  N   UNL     1       0.373  -7.205  11.401  1.00  0.00    -0.248 NA
ATOM     53  C   UNL     1       1.920  -5.655  10.601  1.00  0.00     0.031 C 
ATOM     54  C   UNL     1       1.988 -10.274   8.581  1.00  0.00     0.029 A 
ATOM     55  N   UNL     1       0.440  -9.850  10.137  1.00  0.00    -0.354 N 
ATOM     56  C   UNL     1       0.202  -6.000  12.072  1.00  0.00     0.074 A 
ATOM     57  C   UNL     1       1.212  -5.093  11.571  1.00  0.00     0.031 C 
ATOM     58  C   UNL     1       1.214 -11.364   8.684  1.00  0.00     0.029 A 
ATOM     59  C   UNL     1       0.201 -11.135   9.710  1.00  0.00     0.049 A 
ATOM     60  H   UNL     1      -0.090  -9.409  10.840  1.00  0.00     0.167 HD
ATOM     61  C   UNL     1      -0.723  -5.670  13.007  1.00  0.00     0.037 A 
ATOM     62  C   UNL     1      -0.721 -12.036  10.102  1.00  0.00     0.037 A 
ATOM     63  C   UNL     1      -1.743  -6.566  13.489  1.00  0.00     0.049 A 
ATOM     64  C   UNL     1      -1.703 -11.662  11.176  1.00  0.00     0.074 A 
ATOM     65  C   UNL     1      -2.736  -6.315  14.421  1.00  0.00     0.029 A 
ATOM     66  N   UNL     1      -1.907  -7.880  13.077  1.00  0.00    -0.354 N 
ATOM     67  N   UNL     1      -1.850 -10.515  11.794  1.00  0.00    -0.248 NA
ATOM     68  C   UNL     1      -2.638 -12.708  11.616  1.00  0.00     0.031 C 
ATOM     69  C   UNL     1      -3.472  -7.489  14.605  1.00  0.00     0.029 A 
ATOM     70  C   UNL     1      -2.969  -8.459  13.753  1.00  0.00     0.049 A 
ATOM     71  H   UNL     1      -1.351  -8.334  12.404  1.00  0.00     0.167 HD
ATOM     72  C   UNL     1      -2.897 -10.697  12.689  1.00  0.00     0.074 A 
ATOM     73  C   UNL     1      -3.363 -12.058  12.517  1.00  0.00     0.031 C 
ATOM     74  C   UNL     1      -3.421  -9.816  13.576  1.00  0.00     0.037 A 
BRANCH  61  75
ATOM     75  C   UNL     1      -0.683  -4.278  13.579  1.00  0.00     0.058 A 
ATOM     76  C   UNL     1      -1.093  -3.163  12.831  1.00  0.00     0.135 A 
ATOM     77  C   UNL     1      -0.296  -4.065  14.913  1.00  0.00     0.135 A 
ATOM     78  F   UNL     1      -1.457  -3.308  11.547  1.00  0.00    -0.206 F 
ATOM     79  C   UNL     1      -1.105  -1.885  13.379  1.00  0.00     0.059 A 
ATOM     80  C   UNL     1      -0.325  -2.797  15.489  1.00  0.00     0.059 A 
ATOM     81  F   UNL     1       0.103  -5.096  15.674  1.00  0.00    -0.206 F 
ATOM     82  C   UNL     1      -0.723  -1.712  14.711  1.00  0.00     0.060 A 
BRANCH  82  83
ATOM     83  S   UNL     1      -0.761  -0.046  15.407  1.00  0.00     0.124 S 
ATOM     84  O   UNL     1       0.344   0.592  14.698  1.00  0.00    -0.237 OA
ATOM     85  O   UNL     1      -2.097   0.412  15.040  1.00  0.00    -0.237 OA
ATOM     86  O   UNL     1      -0.546  -0.267  16.833  1.00  0.00    -0.744 OA
ENDBRANCH  82  83
ENDBRANCH  61  75
BRANCH  62  87
ATOM     87  C   UNL     1      -0.752 -13.382   9.470  1.00  0.00     0.058 A 
ATOM     88  C   UNL     1      -1.804 -13.758   8.622  1.00  0.00     0.135 A 
ATOM     89  C   UNL     1       0.286 -14.305   9.674  1.00  0.00     0.135 A 
ATOM     90  F   UNL     1      -2.823 -12.913   8.402  1.00  0.00    -0.206 F 
ATOM     91  C   UNL     1      -1.828 -15.002   8.000  1.00  0.00     0.059 A 
ATOM     92  C   UNL     1       0.298 -15.544   9.042  1.00  0.00     0.059 A 
ATOM     93  F   UNL     1       1.321 -13.989  10.467  1.00  0.00    -0.206 F 
ATOM     94  C   UNL     1      -0.767 -15.885   8.211  1.00  0.00     0.060 A 
BRANCH  94  95
ATOM     95  S   UNL     1      -0.777 -17.470   7.346  1.00  0.00     0.124 S 
ATOM     96  O   UNL     1      -1.844 -18.179   8.043  1.00  0.00    -0.237 OA
ATOM     97  O   UNL     1      -1.069 -17.066   5.974  1.00  0.00    -0.237 OA
ATOM     98  O   UNL     1       0.572 -17.982   7.567  1.00  0.00    -0.744 OA
ENDBRANCH  94  95
ENDBRANCH  62  87
BRANCH  74  99
ATOM     99  C   UNL     1      -4.563 -10.287  14.433  1.00  0.00     0.058 A 
ATOM    100  C   UNL     1      -4.357 -11.169  15.505  1.00  0.00     0.135 A 
ATOM    101  C   UNL     1      -5.862  -9.794  14.229  1.00  0.00     0.135 A 
ATOM    102  F   UNL     1      -3.135 -11.676  15.738  1.00  0.00    -0.206 F 
ATOM    103  C   UNL     1      -5.400 -11.554  16.340  1.00  0.00     0.059 A 
ATOM    104  C   UNL     1      -6.916 -10.146  15.067  1.00  0.00     0.059 A 
ATOM    105  F   UNL     1      -6.111  -8.942  13.223  1.00  0.00    -0.206 F 
ATOM    106  C   UNL     1      -6.676 -11.031  16.117  1.00  0.00     0.060 A 
BRANCH 106 107
ATOM    107  S   UNL     1      -8.008 -11.499  17.243  1.00  0.00     0.124 S 
ATOM    108  O   UNL     1      -8.229 -12.894  16.873  1.00  0.00    -0.237 OA
ATOM    109  O   UNL     1      -7.400 -11.279  18.551  1.00  0.00    -0.237 OA
ATOM    110  O   UNL     1      -9.087 -10.580  16.896  1.00  0.00    -0.744 OA
ENDBRANCH 106 107
ENDBRANCH  74  99
ENDBRANCH  48  49
ENDBRANCH  40  43
ENDBRANCH  38  39
ENDBRANCH  37  38
ENDBRANCH  36  37
ENDBRANCH   1  36
TORSDOF 21
