REMARK SMILES Cc1ccc(C(=O)NCCCCCCNC(=O)c2ccc(-c3c4nc(c(-c5c(F)cc(S(=O)(=O)[O-])cc5F)c5ccc([nH]5)c(-c5c(F)cc(S(=O)(=O)[O-])cc5F)c5nc(c(-c6c(F)cc(S(=O)(=O)[O-])cc6F)c6ccc3[nH]6)C=C5)C=C4)cc2)cc1S(=O)(=O)N(CC1CC1)C(C)C
REMARK SMILES IDX 11 1 10 2 9 3 8 4 6 5 7 6 5 8 1 9 2 10 3 11 85 12 4 13 84 14
REMARK SMILES IDX 86 15 87 16 88 17 89 18 90 19 91 20 92 21 93 22 94 23 95 24
REMARK SMILES IDX 96 25 12 26 13 27 14 28 15 29 16 30 17 32 18 33 19 34 83 35
REMARK SMILES IDX 20 36 82 37 21 38 22 39 23 40 76 41 24 42 81 43 75 44 77 45
REMARK SMILES IDX 25 46 80 47 74 48 73 49 26 51 60 52 39 53 59 54 40 55 43 56
REMARK SMILES IDX 58 57 78 58 41 59 42 60 57 62 79 63 44 64 27 65 28 66 37 67
REMARK SMILES IDX 29 68 30 69 36 70 38 71 31 72 32 73 33 74 34 75 35 76 61 77
REMARK SMILES IDX 62 78 71 79 63 80 64 81 70 82 72 83 65 84 66 85 67 86 68 87
REMARK SMILES IDX 69 88 45 89 46 90 55 91 47 92 48 93 54 94 56 95 49 96 50 97
REMARK SMILES IDX 51 98 52 99 53 100
REMARK H PARENT 8 7 15 31 77 50 43 61
REMARK Flexibility Score: inf
ROOT
ATOM      1  C   UNL     1      -5.387   3.626  -1.148  1.00  0.00     0.002 C 
ENDROOT
BRANCH   1   2
ATOM      2  C   UNL     1      -3.908   3.267  -0.935  1.00  0.00     0.021 C 
BRANCH   2   3
ATOM      3  C   UNL     1      -3.652   2.287   0.213  1.00  0.00     0.116 C 
BRANCH   3   4
ATOM      4  N   UNL     1      -3.888   0.917  -0.214  1.00  0.00    -0.352 N 
ATOM      5  C   UNL     1      -3.059  -0.143  -0.480  1.00  0.00     0.251 C 
ATOM      6  O   UNL     1      -3.582  -1.222  -0.767  1.00  0.00    -0.269 OA
ATOM      7  H   UNL     1      -4.842   0.706  -0.338  1.00  0.00     0.163 HD
BRANCH   5   8
ATOM      8  C   UNL     1      -1.573  -0.086  -0.354  1.00  0.00     0.041 A 
ATOM      9  C   UNL     1       2.611  -0.214   0.779  1.00  0.00     0.046 C 
ATOM     10  C   UNL     1       1.199  -0.102   0.283  1.00  0.00    -0.031 A 
ATOM     11  C   UNL     1       0.442  -1.288   0.288  1.00  0.00     0.005 A 
ATOM     12  C   UNL     1       0.573   1.075  -0.170  1.00  0.00     0.086 A 
ATOM     13  C   UNL     1      -0.926  -1.274   0.005  1.00  0.00     0.014 A 
ATOM     14  C   UNL     1      -0.796   1.058  -0.534  1.00  0.00     0.035 A 
BRANCH  12  15
ATOM     15  S   UNL     1       1.263   2.724   0.018  1.00  0.00     0.243 S 
ATOM     16  O   UNL     1       0.608   3.580  -0.947  1.00  0.00    -0.207 OA
ATOM     17  O   UNL     1       1.090   2.981   1.434  1.00  0.00    -0.207 OA
BRANCH  15  18
ATOM     18  N   UNL     1       2.918   2.692  -0.343  1.00  0.00    -0.195 NA
BRANCH  18  19
ATOM     19  C   UNL     1       3.422   2.113  -1.614  1.00  0.00     0.106 C 
BRANCH  19  20
ATOM     20  C   UNL     1       2.677   2.389  -2.883  1.00  0.00     0.004 C 
ATOM     21  C   UNL     1       2.249   3.734  -3.423  1.00  0.00     0.005 C 
ATOM     22  C   UNL     1       3.450   3.060  -4.005  1.00  0.00     0.005 C 
ENDBRANCH  19  20
ENDBRANCH  18  19
BRANCH  18  23
ATOM     23  C   UNL     1       3.825   3.770   0.211  1.00  0.00     0.067 C 
ATOM     24  C   UNL     1       3.802   5.049  -0.616  1.00  0.00     0.025 C 
ATOM     25  C   UNL     1       3.592   4.109   1.682  1.00  0.00     0.025 C 
ENDBRANCH  18  23
ENDBRANCH  15  18
ENDBRANCH  12  15
ENDBRANCH   5   8
ENDBRANCH   3   4
ENDBRANCH   2   3
ENDBRANCH   1   2
BRANCH   1  26
ATOM     26  C   UNL     1      -6.120   4.252   0.051  1.00  0.00     0.002 C 
BRANCH  26  27
ATOM     27  C   UNL     1      -5.405   5.412   0.747  1.00  0.00     0.021 C 
BRANCH  27  28
ATOM     28  C   UNL     1      -5.295   6.662  -0.122  1.00  0.00     0.116 C 
BRANCH  28  29
ATOM     29  N   UNL     1      -5.954   7.822   0.462  1.00  0.00    -0.352 N 
ATOM     30  C   UNL     1      -5.939   9.128   0.001  1.00  0.00     0.251 C 
ATOM     31  H   UNL     1      -6.472   7.658   1.283  1.00  0.00     0.163 HD
ATOM     32  O   UNL     1      -6.366  10.061   0.654  1.00  0.00    -0.269 OA
BRANCH  30  33
ATOM     33  C   UNL     1      -5.484   9.327  -1.389  1.00  0.00     0.039 A 
ATOM     34  C   UNL     1      -6.459   9.644  -2.342  1.00  0.00     0.014 A 
ATOM     35  C   UNL     1      -4.202   8.934  -1.764  1.00  0.00     0.014 A 
ATOM     36  C   UNL     1      -6.196   9.409  -3.689  1.00  0.00     0.010 A 
ATOM     37  C   UNL     1      -3.971   8.630  -3.092  1.00  0.00     0.010 A 
ATOM     38  C   UNL     1      -4.979   8.827  -4.047  1.00  0.00    -0.014 A 
BRANCH  38  39
ATOM     39  C   UNL     1      -4.709   8.303  -5.380  1.00  0.00     0.031 A 
ATOM     40  C   UNL     1      -3.809   9.022  -6.306  1.00  0.00     0.074 A 
ATOM     41  C   UNL     1      -5.236   7.120  -5.768  1.00  0.00     0.049 A 
ATOM     42  N   UNL     1      -3.880   8.927  -7.592  1.00  0.00    -0.248 NA
ATOM     43  C   UNL     1      -2.765   9.935  -5.850  1.00  0.00     0.031 C 
ATOM     44  C   UNL     1      -4.837   6.321  -6.923  1.00  0.00     0.029 A 
ATOM     45  N   UNL     1      -6.392   6.497  -5.297  1.00  0.00    -0.354 N 
ATOM     46  C   UNL     1      -2.744   9.502  -8.106  1.00  0.00     0.074 A 
ATOM     47  C   UNL     1      -2.120  10.183  -6.995  1.00  0.00     0.031 C 
ATOM     48  C   UNL     1      -5.833   5.480  -7.236  1.00  0.00     0.029 A 
ATOM     49  C   UNL     1      -6.960   5.807  -6.383  1.00  0.00     0.049 A 
ATOM     50  H   UNL     1      -6.743   6.534  -4.378  1.00  0.00     0.167 HD
ATOM     51  C   UNL     1      -2.350   9.222  -9.379  1.00  0.00     0.037 A 
ATOM     52  C   UNL     1      -8.217   6.091  -6.832  1.00  0.00     0.037 A 
ATOM     53  C   UNL     1      -3.267   8.311 -10.054  1.00  0.00     0.049 A 
ATOM     54  C   UNL     1      -8.272   6.540  -8.275  1.00  0.00     0.074 A 
ATOM     55  C   UNL     1      -3.240   6.942 -10.270  1.00  0.00     0.029 A 
ATOM     56  N   UNL     1      -4.563   8.724 -10.348  1.00  0.00    -0.354 N 
ATOM     57  N   UNL     1      -7.241   6.957  -8.956  1.00  0.00    -0.248 NA
ATOM     58  C   UNL     1      -9.497   6.555  -9.067  1.00  0.00     0.031 C 
ATOM     59  C   UNL     1      -4.527   6.529 -10.687  1.00  0.00     0.029 A 
ATOM     60  C   UNL     1      -5.341   7.646 -10.729  1.00  0.00     0.049 A 
ATOM     61  H   UNL     1      -4.881   9.654 -10.293  1.00  0.00     0.167 HD
ATOM     62  C   UNL     1      -7.629   7.312 -10.228  1.00  0.00     0.074 A 
ATOM     63  C   UNL     1      -9.048   7.010 -10.251  1.00  0.00     0.031 C 
ATOM     64  C   UNL     1      -6.732   7.821 -11.131  1.00  0.00     0.037 A 
BRANCH  51  65
ATOM     65  C   UNL     1      -0.953   9.549  -9.841  1.00  0.00     0.058 A 
ATOM     66  C   UNL     1      -0.160   8.600 -10.517  1.00  0.00     0.135 A 
ATOM     67  C   UNL     1      -0.322  10.778  -9.565  1.00  0.00     0.135 A 
ATOM     68  F   UNL     1      -0.648   7.411 -10.889  1.00  0.00    -0.206 F 
ATOM     69  C   UNL     1       1.188   8.812 -10.804  1.00  0.00     0.059 A 
ATOM     70  C   UNL     1       1.040  10.997  -9.801  1.00  0.00     0.059 A 
ATOM     71  F   UNL     1      -1.015  11.797  -9.032  1.00  0.00    -0.206 F 
ATOM     72  C   UNL     1       1.791   9.999 -10.411  1.00  0.00     0.060 A 
BRANCH  72  73
ATOM     73  S   UNL     1       3.568  10.184 -10.660  1.00  0.00     0.124 S 
ATOM     74  O   UNL     1       4.087   8.917 -10.152  1.00  0.00    -0.237 OA
ATOM     75  O   UNL     1       3.654  10.371 -12.103  1.00  0.00    -0.237 OA
ATOM     76  O   UNL     1       3.903  11.353  -9.851  1.00  0.00    -0.744 OA
ENDBRANCH  72  73
ENDBRANCH  51  65
BRANCH  52  77
ATOM     77  C   UNL     1      -9.143   6.515  -5.747  1.00  0.00     0.058 A 
ATOM     78  C   UNL     1      -9.484   5.559  -4.769  1.00  0.00     0.135 A 
ATOM     79  C   UNL     1      -9.323   7.866  -5.424  1.00  0.00     0.135 A 
ATOM     80  F   UNL     1      -9.341   4.250  -5.032  1.00  0.00    -0.206 F 
ATOM     81  C   UNL     1      -9.836   5.928  -3.476  1.00  0.00     0.059 A 
ATOM     82  C   UNL     1      -9.685   8.259  -4.133  1.00  0.00     0.059 A 
ATOM     83  F   UNL     1      -9.018   8.821  -6.315  1.00  0.00    -0.206 F 
ATOM     84  C   UNL     1      -9.874   7.283  -3.152  1.00  0.00     0.060 A 
BRANCH  84  85
ATOM     85  S   UNL     1     -10.005   7.728  -1.403  1.00  0.00     0.124 S 
ATOM     86  O   UNL     1     -11.314   7.188  -1.053  1.00  0.00    -0.237 OA
ATOM     87  O   UNL     1      -8.859   7.026  -0.827  1.00  0.00    -0.237 OA
ATOM     88  O   UNL     1      -9.905   9.182  -1.420  1.00  0.00    -0.744 OA
ENDBRANCH  84  85
ENDBRANCH  52  77
BRANCH  64  89
ATOM     89  C   UNL     1      -7.002   8.425 -12.507  1.00  0.00     0.058 A 
ATOM     90  C   UNL     1      -8.251   8.872 -12.970  1.00  0.00     0.135 A 
ATOM     91  C   UNL     1      -5.921   8.678 -13.399  1.00  0.00     0.135 A 
ATOM     92  F   UNL     1      -9.349   8.808 -12.210  1.00  0.00    -0.206 F 
ATOM     93  C   UNL     1      -8.426   9.463 -14.229  1.00  0.00     0.059 A 
ATOM     94  C   UNL     1      -6.064   9.316 -14.630  1.00  0.00     0.059 A 
ATOM     95  F   UNL     1      -4.660   8.329 -13.103  1.00  0.00    -0.206 F 
ATOM     96  C   UNL     1      -7.327   9.686 -15.051  1.00  0.00     0.060 A 
BRANCH  96  97
ATOM     97  S   UNL     1      -7.542  10.527 -16.630  1.00  0.00     0.124 S 
ATOM     98  O   UNL     1      -7.920   9.420 -17.502  1.00  0.00    -0.237 OA
ATOM     99  O   UNL     1      -8.599  11.490 -16.337  1.00  0.00    -0.237 OA
ATOM    100  O   UNL     1      -6.228  11.110 -16.883  1.00  0.00    -0.744 OA
ENDBRANCH  96  97
ENDBRANCH  64  89
ENDBRANCH  38  39
ENDBRANCH  30  33
ENDBRANCH  28  29
ENDBRANCH  27  28
ENDBRANCH  26  27
ENDBRANCH   1  26
TORSDOF 21
