REMARK SMILES COCc1cc(C)nc(N/N=C\c2ccc(-c3cccc(C(=O)NCCCCCCNC(=O)c4ccc(-c5c6nc(c(-c7c(F)cc(S(=O)(=O)[O-])cc7F)c7ccc([nH]7)c(-c7c(F)cc(S(=O)(=O)[O-])cc7F)c7nc(c(-c8c(F)cc(S(=O)(=O)[O-])cc8F)c8ccc5[nH]8)C=C7)C=C6)cc4)c3)o2)c1C#N
REMARK SMILES IDX 26 1 25 2 24 3 22 4 23 5 21 7 17 8 18 9 100 10 19 11 20 12
REMARK SMILES IDX 16 13 13 14 14 15 101 16 15 17 12 18 11 19 10 20 9 22 4 23
REMARK SMILES IDX 5 24 102 25 6 26 7 27 8 28 3 29 2 30 1 31 103 32 104 33
REMARK SMILES IDX 27 34 28 35 29 36 30 37 31 38 32 39 33 41 34 42 35 43 99 44
REMARK SMILES IDX 36 45 98 46 37 47 38 48 39 49 92 50 40 51 97 52 91 53 93 54
REMARK SMILES IDX 41 55 96 56 90 57 89 58 42 60 76 61 55 62 75 63 56 64 59 65
REMARK SMILES IDX 74 66 94 67 57 68 58 69 73 71 95 72 60 73 43 74 44 75 53 76
REMARK SMILES IDX 45 77 46 78 52 79 54 80 47 81 48 82 49 83 50 84 51 85 77 86
REMARK SMILES IDX 78 87 87 88 79 89 80 90 86 91 88 92 81 93 82 94 83 95 84 96
REMARK SMILES IDX 85 97 61 98 62 99 71 100 63 101 64 102 70 103 72 104 65 105
REMARK SMILES IDX 66 106 67 107 68 108 69 109
REMARK H PARENT 24 6 10 21 31 40 93 59 59 70
REMARK Flexibility Score: inf
ROOT
ATOM      1  C   UNL     1      -0.414   2.984   6.882  1.00  0.00     0.021 C 
ENDROOT
BRANCH   1   2
ATOM      2  C   UNL     1      -0.750   1.714   6.084  1.00  0.00     0.116 C 
BRANCH   2   3
ATOM      3  N   UNL     1      -2.107   1.247   6.329  1.00  0.00    -0.352 N 
ATOM      4  C   UNL     1      -3.328   1.433   5.720  1.00  0.00     0.251 C 
ATOM      5  O   UNL     1      -4.269   0.754   6.133  1.00  0.00    -0.269 OA
ATOM      6  H   UNL     1      -2.166   0.659   7.116  1.00  0.00     0.163 HD
BRANCH   4   7
ATOM      7  C   UNL     1      -3.582   2.421   4.633  1.00  0.00     0.040 A 
ATOM      8  C   UNL     1      -2.793   4.263   3.208  1.00  0.00     0.018 A 
ATOM      9  C   UNL     1      -4.075   4.401   2.678  1.00  0.00     0.012 A 
ATOM     10  C   UNL     1      -2.598   3.280   4.175  1.00  0.00     0.025 A 
ATOM     11  C   UNL     1      -5.098   3.530   3.091  1.00  0.00     0.002 A 
ATOM     12  C   UNL     1      -4.853   2.547   4.064  1.00  0.00     0.014 A 
BRANCH   8  13
ATOM     13  C   UNL     1      -1.583   4.946   2.744  1.00  0.00     0.134 A 
ATOM     14  C   UNL     1      -0.472   6.251   1.384  1.00  0.00     0.147 A 
ATOM     15  C   UNL     1       0.480   5.517   2.055  1.00  0.00     0.053 A 
ATOM     16  O   UNL     1      -1.724   5.974   1.869  1.00  0.00    -0.455 OA
ATOM     17  C   UNL     1      -0.234   4.674   2.928  1.00  0.00     0.051 A 
BRANCH  14  18
ATOM     18  C   UNL     1      -0.401   7.131   0.264  1.00  0.00     0.180 C 
ATOM     19  N   UNL     1       0.195   6.971  -0.881  1.00  0.00    -0.178 NA
BRANCH  19  20
ATOM     20  N   UNL     1       0.887   5.842  -1.228  1.00  0.00    -0.260 N 
ATOM     21  H   UNL     1       1.831   5.960  -1.483  1.00  0.00     0.192 HD
BRANCH  20  22
ATOM     22  C   UNL     1       0.370   4.505  -1.254  1.00  0.00     0.164 A 
ATOM     23  C   UNL     1       0.756   2.135  -1.733  1.00  0.00     0.001 A 
ATOM     24  C   UNL     1      -0.418   1.853  -1.046  1.00  0.00     0.031 A 
ATOM     25  C   UNL     1       1.125   3.487  -1.881  1.00  0.00     0.102 A 
ATOM     26  C   UNL     1      -1.120   2.880  -0.457  1.00  0.00     0.040 A 
ATOM     27  C   UNL     1      -2.211   2.499   0.494  1.00  0.00     0.067 C 
ATOM     28  N   UNL     1      -0.753   4.181  -0.563  1.00  0.00    -0.233 NA
BRANCH  23  29
ATOM     29  C   UNL     1       1.591   0.985  -2.257  1.00  0.00     0.196 C 
BRANCH  29  30
ATOM     30  O   UNL     1       1.221  -0.264  -1.651  1.00  0.00    -0.380 OA
ATOM     31  C   UNL     1       1.744  -0.434  -0.335  1.00  0.00     0.195 C 
ENDBRANCH  29  30
ENDBRANCH  23  29
BRANCH  25  32
ATOM     32  C   UNL     1       2.223   3.832  -2.734  1.00  0.00     0.103 C 
ATOM     33  N   UNL     1       3.062   4.136  -3.469  1.00  0.00    -0.192 NA
ENDBRANCH  25  32
ENDBRANCH  20  22
ENDBRANCH  19  20
ENDBRANCH  14  18
ENDBRANCH   8  13
ENDBRANCH   4   7
ENDBRANCH   2   3
ENDBRANCH   1   2
BRANCH   1  34
ATOM     34  C   UNL     1       0.218   2.665   8.241  1.00  0.00     0.002 C 
BRANCH  34  35
ATOM     35  C   UNL     1       1.465   1.773   8.158  1.00  0.00     0.002 C 
BRANCH  35  36
ATOM     36  C   UNL     1       2.559   2.306   7.229  1.00  0.00     0.021 C 
BRANCH  36  37
ATOM     37  C   UNL     1       3.150   3.627   7.701  1.00  0.00     0.116 C 
BRANCH  37  38
ATOM     38  N   UNL     1       3.734   3.490   9.029  1.00  0.00    -0.352 N 
ATOM     39  C   UNL     1       5.035   3.669   9.418  1.00  0.00     0.251 C 
ATOM     40  H   UNL     1       3.107   3.233   9.744  1.00  0.00     0.163 HD
ATOM     41  O   UNL     1       5.429   3.230  10.493  1.00  0.00    -0.269 OA
BRANCH  39  42
ATOM     42  C   UNL     1       5.948   4.395   8.518  1.00  0.00     0.039 A 
ATOM     43  C   UNL     1       7.230   3.896   8.287  1.00  0.00     0.014 A 
ATOM     44  C   UNL     1       5.511   5.563   7.886  1.00  0.00     0.014 A 
ATOM     45  C   UNL     1       8.059   4.543   7.370  1.00  0.00     0.010 A 
ATOM     46  C   UNL     1       6.302   6.150   6.910  1.00  0.00     0.010 A 
ATOM     47  C   UNL     1       7.588   5.653   6.651  1.00  0.00    -0.014 A 
BRANCH  47  48
ATOM     48  C   UNL     1       8.422   6.337   5.633  1.00  0.00     0.031 A 
ATOM     49  C   UNL     1       8.789   7.783   5.828  1.00  0.00     0.074 A 
ATOM     50  C   UNL     1       8.771   5.689   4.504  1.00  0.00     0.049 A 
ATOM     51  N   UNL     1       9.393   8.599   5.006  1.00  0.00    -0.248 NA
ATOM     52  C   UNL     1       8.395   8.401   7.106  1.00  0.00     0.031 C 
ATOM     53  C   UNL     1       8.450   4.294   4.194  1.00  0.00     0.029 A 
ATOM     54  N   UNL     1       9.458   6.123   3.399  1.00  0.00    -0.354 N 
ATOM     55  C   UNL     1       9.438   9.825   5.657  1.00  0.00     0.074 A 
ATOM     56  C   UNL     1       8.746   9.664   6.916  1.00  0.00     0.031 C 
ATOM     57  C   UNL     1       8.956   3.984   2.990  1.00  0.00     0.029 A 
ATOM     58  C   UNL     1       9.585   5.169   2.417  1.00  0.00     0.049 A 
ATOM     59  H   UNL     1       9.826   7.033   3.317  1.00  0.00     0.167 HD
ATOM     60  C   UNL     1      10.021  10.977   5.249  1.00  0.00     0.037 A 
ATOM     61  C   UNL     1      10.127   5.248   1.185  1.00  0.00     0.037 A 
ATOM     62  C   UNL     1      10.717  11.119   3.998  1.00  0.00     0.049 A 
ATOM     63  C   UNL     1      10.730   6.552   0.734  1.00  0.00     0.074 A 
ATOM     64  C   UNL     1      11.384  12.228   3.510  1.00  0.00     0.029 A 
ATOM     65  N   UNL     1      10.829  10.127   3.034  1.00  0.00    -0.354 N 
ATOM     66  N   UNL     1      10.812   7.690   1.383  1.00  0.00    -0.248 NA
ATOM     67  C   UNL     1      11.318   6.588  -0.613  1.00  0.00     0.031 C 
ATOM     68  C   UNL     1      11.836  11.932   2.222  1.00  0.00     0.029 A 
ATOM     69  C   UNL     1      11.527  10.610   1.940  1.00  0.00     0.049 A 
ATOM     70  H   UNL     1      10.466   9.216   3.115  1.00  0.00     0.167 HD
ATOM     71  C   UNL     1      11.499   8.560   0.543  1.00  0.00     0.074 A 
ATOM     72  C   UNL     1      11.807   7.820  -0.662  1.00  0.00     0.031 C 
ATOM     73  C   UNL     1      11.851   9.851   0.756  1.00  0.00     0.037 A 
BRANCH  60  74
ATOM     74  C   UNL     1       9.921  12.175   6.153  1.00  0.00     0.058 A 
ATOM     75  C   UNL     1      10.575  12.226   7.395  1.00  0.00     0.135 A 
ATOM     76  C   UNL     1       9.196  13.309   5.751  1.00  0.00     0.135 A 
ATOM     77  F   UNL     1      11.270  11.166   7.839  1.00  0.00    -0.206 F 
ATOM     78  C   UNL     1      10.488  13.344   8.218  1.00  0.00     0.059 A 
ATOM     79  C   UNL     1       9.126  14.452   6.541  1.00  0.00     0.059 A 
ATOM     80  F   UNL     1       8.548  13.317   4.575  1.00  0.00    -0.206 F 
ATOM     81  C   UNL     1       9.764  14.454   7.780  1.00  0.00     0.060 A 
BRANCH  81  82
ATOM     82  S   UNL     1       9.674  15.899   8.857  1.00  0.00     0.124 S 
ATOM     83  O   UNL     1       8.840  15.399   9.946  1.00  0.00    -0.237 OA
ATOM     84  O   UNL     1      11.077  16.127   9.186  1.00  0.00    -0.237 OA
ATOM     85  O   UNL     1       9.056  16.916   8.012  1.00  0.00    -0.744 OA
ENDBRANCH  81  82
ENDBRANCH  60  74
BRANCH  61  86
ATOM     86  C   UNL     1      10.133   4.054   0.294  1.00  0.00     0.058 A 
ATOM     87  C   UNL     1      11.335   3.417  -0.052  1.00  0.00     0.135 A 
ATOM     88  C   UNL     1       8.942   3.523  -0.224  1.00  0.00     0.135 A 
ATOM     89  F   UNL     1      12.502   3.889   0.412  1.00  0.00    -0.206 F 
ATOM     90  C   UNL     1      11.358   2.311  -0.894  1.00  0.00     0.059 A 
ATOM     91  C   UNL     1       8.936   2.398  -1.043  1.00  0.00     0.059 A 
ATOM     92  F   UNL     1       7.762   4.080   0.091  1.00  0.00    -0.206 F 
ATOM     93  C   UNL     1      10.151   1.805  -1.381  1.00  0.00     0.060 A 
BRANCH  93  94
ATOM     94  S   UNL     1      10.190   0.336  -2.430  1.00  0.00     0.124 S 
ATOM     95  O   UNL     1      10.798   0.860  -3.648  1.00  0.00    -0.237 OA
ATOM     96  O   UNL     1      11.015  -0.576  -1.644  1.00  0.00    -0.237 OA
ATOM     97  O   UNL     1       8.782  -0.038  -2.536  1.00  0.00    -0.744 OA
ENDBRANCH  93  94
ENDBRANCH  61  86
BRANCH  73  98
ATOM     98  C   UNL     1      12.673  10.546  -0.296  1.00  0.00     0.058 A 
ATOM     99  C   UNL     1      12.130  10.945  -1.526  1.00  0.00     0.135 A 
ATOM    100  C   UNL     1      14.000  10.914  -0.014  1.00  0.00     0.135 A 
ATOM    101  F   UNL     1      10.871  10.612  -1.851  1.00  0.00    -0.206 F 
ATOM    102  C   UNL     1      12.875  11.685  -2.441  1.00  0.00     0.059 A 
ATOM    103  C   UNL     1      14.751  11.681  -0.898  1.00  0.00     0.059 A 
ATOM    104  F   UNL     1      14.566  10.562   1.152  1.00  0.00    -0.206 F 
ATOM    105  C   UNL     1      14.179  12.060  -2.111  1.00  0.00     0.060 A 
BRANCH 105 106
ATOM    106  S   UNL     1      15.101  13.092  -3.270  1.00  0.00     0.124 S 
ATOM    107  O   UNL     1      15.339  12.161  -4.369  1.00  0.00    -0.237 OA
ATOM    108  O   UNL     1      14.156  14.169  -3.544  1.00  0.00    -0.237 OA
ATOM    109  O   UNL     1      16.286  13.482  -2.512  1.00  0.00    -0.744 OA
ENDBRANCH 105 106
ENDBRANCH  73  98
ENDBRANCH  47  48
ENDBRANCH  39  42
ENDBRANCH  37  38
ENDBRANCH  36  37
ENDBRANCH  35  36
ENDBRANCH  34  35
ENDBRANCH   1  34
TORSDOF 23
