REMARK SMILES COc1ccc(/C=C2/C(=O)N(c3ccccc3)C(=O)[NH+]=C2NCCCCCCNC(=O)c2ccc(-c3c4nc(c(-c5c(F)cc(S(=O)(=O)[O-])cc5F)c5ccc([nH]5)c(-c5c(F)cc(S(=O)(=O)[O-])cc5F)c5nc(c(-c6c(F)cc(S(=O)(=O)[O-])cc6F)c6ccc3[nH]6)C=C5)C=C4)cc2)cc1C(=O)[O-]
REMARK SMILES IDX 26 1 25 2 24 3 23 4 22 5 7 6 8 7 9 8 21 9 10 10 11 11 20 12
REMARK SMILES IDX 18 13 19 16 6 17 3 18 4 19 99 20 5 21 98 22 2 23 1 24 100 25
REMARK SMILES IDX 101 26 102 27 12 28 13 29 17 30 14 31 16 32 15 33 27 34
REMARK SMILES IDX 28 35 29 36 30 37 31 39 32 40 33 41 97 42 34 43 96 44 35 45
REMARK SMILES IDX 36 46 37 47 90 48 38 49 95 50 89 51 91 52 39 53 94 54 88 55
REMARK SMILES IDX 87 56 40 58 74 59 53 60 73 61 54 62 57 63 72 64 92 65 55 66
REMARK SMILES IDX 56 67 71 69 93 70 58 71 41 72 42 73 51 74 43 75 44 76 50 77
REMARK SMILES IDX 52 78 45 79 46 80 47 81 48 82 49 83 75 84 76 85 85 86 77 87
REMARK SMILES IDX 78 88 84 89 86 90 79 91 80 92 81 93 82 94 83 95 59 96 60 97
REMARK SMILES IDX 69 98 61 99 62 100 68 101 70 102 63 103 64 104 65 105 66 106
REMARK SMILES IDX 67 107
REMARK H PARENT 20 14 22 15 29 38 91 57 57 68
REMARK Flexibility Score: inf
ROOT
ATOM      1  C   UNL     1      -2.183  -0.581  -2.049  1.00  0.00     0.002 C 
ENDROOT
BRANCH   1   2
ATOM      2  C   UNL     1      -1.148   0.419  -2.650  1.00  0.00     0.003 C 
BRANCH   2   3
ATOM      3  C   UNL     1       0.503   0.203  -3.276  1.00  0.00     0.037 C 
BRANCH   3   4
ATOM      4  C   UNL     1       1.552  -1.295  -4.497  1.00  0.00     0.194 C 
BRANCH   4   5
ATOM      5  N   UNL     1       1.040  -2.111  -5.825  1.00  0.00    -0.305 N 
ATOM      6  C   UNL     1       0.940   0.766  -6.760  1.00  0.00     0.030 C 
ATOM      7  C   UNL     1       1.116  -0.281  -7.573  1.00  0.00     0.129 C 
ATOM      8  C   UNL     1       1.488  -0.117  -8.986  1.00  0.00     0.328 C 
ATOM      9  C   UNL     1       0.836  -1.663  -7.119  1.00  0.00     0.236 C 
ATOM     10  O   UNL     1       2.196   0.818  -9.352  1.00  0.00    -0.249 OA
ATOM     11  N   UNL     1       0.934  -1.098  -9.786  1.00  0.00    -0.155 N 
ATOM     12  N   UNL     1       0.304  -2.486  -7.980  1.00  0.00    -0.209 N 
ATOM     13  C   UNL     1       0.028  -2.009  -9.250  1.00  0.00     0.448 C 
ATOM     14  H   UNL     1       0.105  -3.418  -7.734  1.00  0.00     0.270 HD
ATOM     15  H   UNL     1       0.848  -3.065  -5.679  1.00  0.00     0.256 HD
ATOM     16  O   UNL     1      -0.989  -2.356  -9.848  1.00  0.00    -0.212 OA
BRANCH   6  17
ATOM     17  C   UNL     1       0.759   0.444  -5.355  1.00  0.00    -0.024 A 
ATOM     18  C   UNL     1       1.439  -1.433  -2.348  1.00  0.00     0.127 A 
ATOM     19  C   UNL     1      -0.058  -1.782  -3.302  1.00  0.00     0.048 A 
ATOM     20  C   UNL     1       2.614  -0.221  -2.946  1.00  0.00     0.040 A 
ATOM     21  C   UNL     1      -0.456  -0.781  -4.777  1.00  0.00     0.012 A 
ATOM     22  C   UNL     1       2.259   0.739  -4.405  1.00  0.00     0.022 A 
BRANCH  18  23
ATOM     23  O   UNL     1       1.552  -2.008  -1.112  1.00  0.00    -0.496 OA
ATOM     24  C   UNL     1       1.743  -1.004  -0.104  1.00  0.00     0.278 C 
ENDBRANCH  18  23
BRANCH  20  25
ATOM     25  C   UNL     1       3.951  -0.022  -2.373  1.00  0.00     0.075 C 
ATOM     26  O   UNL     1       4.639   0.963  -2.553  1.00  0.00    -0.545 OA
ATOM     27  O   UNL     1       4.372  -1.103  -1.708  1.00  0.00    -0.545 OA
ENDBRANCH  20  25
ENDBRANCH   6  17
BRANCH  11  28
ATOM     28  C   UNL     1       1.050  -0.953 -11.186  1.00  0.00     0.111 A 
ATOM     29  C   UNL     1       0.213  -0.086 -11.896  1.00  0.00     0.044 A 
ATOM     30  C   UNL     1       2.097  -1.612 -11.838  1.00  0.00     0.044 A 
ATOM     31  C   UNL     1       0.434   0.123 -13.258  1.00  0.00     0.004 A 
ATOM     32  C   UNL     1       2.312  -1.400 -13.198  1.00  0.00     0.004 A 
ATOM     33  C   UNL     1       1.484  -0.529 -13.906  1.00  0.00     0.000 A 
ENDBRANCH  11  28
ENDBRANCH   4   5
ENDBRANCH   3   4
ENDBRANCH   2   3
ENDBRANCH   1   2
BRANCH   1  34
ATOM     34  C   UNL     1      -1.872  -1.424  -0.800  1.00  0.00     0.021 C 
BRANCH  34  35
ATOM     35  C   UNL     1      -1.534  -0.642   0.459  1.00  0.00     0.116 C 
BRANCH  35  36
ATOM     36  N   UNL     1      -2.629  -0.537   1.398  1.00  0.00    -0.352 N 
ATOM     37  C   UNL     1      -2.529  -0.443   2.769  1.00  0.00     0.251 C 
ATOM     38  H   UNL     1      -3.538  -0.532   1.019  1.00  0.00     0.163 HD
ATOM     39  O   UNL     1      -3.532  -0.555   3.467  1.00  0.00    -0.269 OA
BRANCH  37  40
ATOM     40  C   UNL     1      -1.200  -0.234   3.406  1.00  0.00     0.039 A 
ATOM     41  C   UNL     1      -0.857  -1.004   4.521  1.00  0.00     0.014 A 
ATOM     42  C   UNL     1      -0.312   0.743   2.942  1.00  0.00     0.014 A 
ATOM     43  C   UNL     1       0.369  -0.796   5.165  1.00  0.00     0.010 A 
ATOM     44  C   UNL     1       0.936   0.909   3.551  1.00  0.00     0.010 A 
ATOM     45  C   UNL     1       1.278   0.163   4.689  1.00  0.00    -0.014 A 
BRANCH  45  46
ATOM     46  C   UNL     1       2.546   0.434   5.426  1.00  0.00     0.031 A 
ATOM     47  C   UNL     1       2.750   1.756   6.125  1.00  0.00     0.074 A 
ATOM     48  C   UNL     1       3.513  -0.504   5.485  1.00  0.00     0.049 A 
ATOM     49  N   UNL     1       3.759   2.158   6.857  1.00  0.00    -0.248 NA
ATOM     50  C   UNL     1       1.689   2.762   5.968  1.00  0.00     0.031 C 
ATOM     51  C   UNL     1       3.462  -1.812   4.830  1.00  0.00     0.029 A 
ATOM     52  N   UNL     1       4.723  -0.505   6.136  1.00  0.00    -0.354 N 
ATOM     53  C   UNL     1       3.454   3.458   7.247  1.00  0.00     0.074 A 
ATOM     54  C   UNL     1       2.197   3.800   6.617  1.00  0.00     0.031 C 
ATOM     55  C   UNL     1       4.572  -2.502   5.143  1.00  0.00     0.029 A 
ATOM     56  C   UNL     1       5.425  -1.680   5.998  1.00  0.00     0.049 A 
ATOM     57  H   UNL     1       5.056   0.263   6.653  1.00  0.00     0.167 HD
ATOM     58  C   UNL     1       4.138   4.284   8.076  1.00  0.00     0.037 A 
ATOM     59  C   UNL     1       6.614  -2.058   6.510  1.00  0.00     0.037 A 
ATOM     60  C   UNL     1       5.380   3.942   8.720  1.00  0.00     0.049 A 
ATOM     61  C   UNL     1       7.366  -1.117   7.415  1.00  0.00     0.074 A 
ATOM     62  C   UNL     1       6.125   4.696   9.610  1.00  0.00     0.029 A 
ATOM     63  N   UNL     1       6.063   2.748   8.541  1.00  0.00    -0.354 N 
ATOM     64  N   UNL     1       7.030   0.084   7.821  1.00  0.00    -0.248 NA
ATOM     65  C   UNL     1       8.657  -1.588   7.938  1.00  0.00     0.031 C 
ATOM     66  C   UNL     1       7.280   3.977   9.936  1.00  0.00     0.029 A 
ATOM     67  C   UNL     1       7.231   2.753   9.288  1.00  0.00     0.049 A 
ATOM     68  H   UNL     1       5.762   2.006   7.969  1.00  0.00     0.167 HD
ATOM     69  C   UNL     1       8.051   0.498   8.670  1.00  0.00     0.074 A 
ATOM     70  C   UNL     1       9.012  -0.583   8.727  1.00  0.00     0.031 C 
ATOM     71  C   UNL     1       8.179   1.669   9.344  1.00  0.00     0.037 A 
BRANCH  58  72
ATOM     72  C   UNL     1       3.551   5.646   8.338  1.00  0.00     0.058 A 
ATOM     73  C   UNL     1       2.381   5.809   9.098  1.00  0.00     0.135 A 
ATOM     74  C   UNL     1       4.173   6.803   7.841  1.00  0.00     0.135 A 
ATOM     75  F   UNL     1       1.738   4.737   9.587  1.00  0.00    -0.206 F 
ATOM     76  C   UNL     1       1.827   7.065   9.322  1.00  0.00     0.059 A 
ATOM     77  C   UNL     1       3.653   8.072   8.078  1.00  0.00     0.059 A 
ATOM     78  F   UNL     1       5.296   6.707   7.112  1.00  0.00    -0.206 F 
ATOM     79  C   UNL     1       2.468   8.191   8.803  1.00  0.00     0.060 A 
BRANCH  79  80
ATOM     80  S   UNL     1       1.727   9.813   9.086  1.00  0.00     0.124 S 
ATOM     81  O   UNL     1       0.587   9.773   8.174  1.00  0.00    -0.237 OA
ATOM     82  O   UNL     1       1.402   9.765  10.508  1.00  0.00    -0.237 OA
ATOM     83  O   UNL     1       2.791  10.742   8.720  1.00  0.00    -0.744 OA
ENDBRANCH  79  80
ENDBRANCH  58  72
BRANCH  59  84
ATOM     84  C   UNL     1       7.157  -3.410   6.207  1.00  0.00     0.058 A 
ATOM     85  C   UNL     1       7.225  -4.400   7.199  1.00  0.00     0.135 A 
ATOM     86  C   UNL     1       7.616  -3.739   4.922  1.00  0.00     0.135 A 
ATOM     87  F   UNL     1       6.808  -4.130   8.445  1.00  0.00    -0.206 F 
ATOM     88  C   UNL     1       7.744  -5.663   6.934  1.00  0.00     0.059 A 
ATOM     89  C   UNL     1       8.115  -5.004   4.626  1.00  0.00     0.059 A 
ATOM     90  F   UNL     1       7.559  -2.833   3.934  1.00  0.00    -0.206 F 
ATOM     91  C   UNL     1       8.184  -5.956   5.642  1.00  0.00     0.060 A 
BRANCH  91  92
ATOM     92  S   UNL     1       8.811  -7.614   5.295  1.00  0.00     0.124 S 
ATOM     93  O   UNL     1      10.110  -7.582   5.958  1.00  0.00    -0.237 OA
ATOM     94  O   UNL     1       7.797  -8.461   5.916  1.00  0.00    -0.237 OA
ATOM     95  O   UNL     1       8.847  -7.659   3.837  1.00  0.00    -0.744 OA
ENDBRANCH  91  92
ENDBRANCH  59  84
BRANCH  71  96
ATOM     96  C   UNL     1       9.384   1.835  10.230  1.00  0.00     0.058 A 
ATOM     97  C   UNL     1      10.670   2.030   9.702  1.00  0.00     0.135 A 
ATOM     98  C   UNL     1       9.242   1.849  11.628  1.00  0.00     0.135 A 
ATOM     99  F   UNL     1      10.863   2.020   8.374  1.00  0.00    -0.206 F 
ATOM    100  C   UNL     1      11.776   2.210  10.527  1.00  0.00     0.059 A 
ATOM    101  C   UNL     1      10.330   2.054  12.472  1.00  0.00     0.059 A 
ATOM    102  F   UNL     1       8.033   1.678  12.187  1.00  0.00    -0.206 F 
ATOM    103  C   UNL     1      11.595   2.221  11.912  1.00  0.00     0.060 A 
BRANCH 103 104
ATOM    104  S   UNL     1      13.033   2.488  12.971  1.00  0.00     0.124 S 
ATOM    105  O   UNL     1      13.713   1.200  12.873  1.00  0.00    -0.237 OA
ATOM    106  O   UNL     1      13.701   3.608  12.316  1.00  0.00    -0.237 OA
ATOM    107  O   UNL     1      12.446   2.791  14.273  1.00  0.00    -0.744 OA
ENDBRANCH 103 104
ENDBRANCH  71  96
ENDBRANCH  45  46
ENDBRANCH  37  40
ENDBRANCH  35  36
ENDBRANCH  34  35
ENDBRANCH   1  34
TORSDOF 19
