REMARK SMILES O=C(NCCCCCCNC(=O)[C@@H]1CCCCC[C@@H]1NS(=O)(=O)c1cccc(F)c1)c1ccc(-c2c3nc(c(-c4c(F)cc(S(=O)(=O)[O-])cc4F)c4ccc([nH]4)c(-c4c(F)cc(S(=O)(=O)[O-])cc4F)c4nc(c(-c5c(F)cc(S(=O)(=O)[O-])cc5F)c5ccc2[nH]5)C=C4)C=C3)cc1
REMARK SMILES IDX 7 1 6 2 5 3 4 4 3 5 1 6 2 7 31 9 32 10 96 11 33 12 95 13
REMARK SMILES IDX 34 14 35 15 36 16 89 17 37 18 94 19 88 20 90 21 38 22 93 23
REMARK SMILES IDX 87 24 86 25 39 27 73 28 52 29 72 30 53 31 56 32 71 33 91 34
REMARK SMILES IDX 54 35 55 36 70 38 92 39 57 40 40 41 41 42 50 43 42 44 43 45
REMARK SMILES IDX 49 46 51 47 44 48 45 49 46 50 47 51 48 52 74 53 75 54 84 55
REMARK SMILES IDX 76 56 77 57 83 58 85 59 78 60 79 61 80 62 81 63 82 64 58 65
REMARK SMILES IDX 59 66 68 67 60 68 61 69 67 70 69 71 62 72 63 73 64 74 65 75
REMARK SMILES IDX 66 76 8 77 9 78 10 79 11 80 12 82 13 83 14 84 15 85 19 87
REMARK SMILES IDX 18 88 17 89 16 90 20 92 21 94 22 95 23 96 24 97 25 98 30 99
REMARK SMILES IDX 26 100 28 101 27 102 29 103
REMARK H PARENT 3 8 90 26 56 37 10 81 20 93
REMARK Flexibility Score: 100.00
ROOT
ATOM      1  C   UNL     1       4.813   1.415   4.116  1.00  0.00     0.002 C 
ENDROOT
BRANCH   1   2
ATOM      2  C   UNL     1       4.145   2.339   3.092  1.00  0.00     0.002 C 
BRANCH   2   3
ATOM      3  C   UNL     1       4.589   2.135   1.642  1.00  0.00     0.021 C 
BRANCH   3   4
ATOM      4  C   UNL     1       4.392   0.721   1.107  1.00  0.00     0.116 C 
BRANCH   4   5
ATOM      5  N   UNL     1       2.988   0.357   1.032  1.00  0.00    -0.352 N 
ATOM      6  O   UNL     1       1.065  -0.230   0.017  1.00  0.00    -0.269 OA
ATOM      7  C   UNL     1       2.289  -0.155  -0.033  1.00  0.00     0.251 C 
ATOM      8  H   UNL     1       2.467   0.496   1.855  1.00  0.00     0.163 HD
BRANCH   7   9
ATOM      9  C   UNL     1       3.015  -0.602  -1.242  1.00  0.00     0.039 A 
ATOM     10  C   UNL     1       4.157  -1.401  -1.134  1.00  0.00     0.014 A 
ATOM     11  C   UNL     1       2.524  -0.242  -2.500  1.00  0.00     0.014 A 
ATOM     12  C   UNL     1       4.859  -1.765  -2.279  1.00  0.00     0.010 A 
ATOM     13  C   UNL     1       3.195  -0.661  -3.652  1.00  0.00     0.010 A 
ATOM     14  C   UNL     1       4.372  -1.418  -3.550  1.00  0.00    -0.014 A 
BRANCH  14  15
ATOM     15  C   UNL     1       5.045  -1.945  -4.762  1.00  0.00     0.031 A 
ATOM     16  C   UNL     1       5.757  -1.032  -5.718  1.00  0.00     0.074 A 
ATOM     17  C   UNL     1       4.998  -3.272  -4.992  1.00  0.00     0.049 A 
ATOM     18  N   UNL     1       6.366  -1.332  -6.835  1.00  0.00    -0.248 NA
ATOM     19  C   UNL     1       5.789   0.400  -5.383  1.00  0.00     0.031 C 
ATOM     20  C   UNL     1       4.320  -4.249  -4.136  1.00  0.00     0.029 A 
ATOM     21  N   UNL     1       5.525  -4.031  -6.006  1.00  0.00    -0.354 N 
ATOM     22  C   UNL     1       6.840  -0.131  -7.347  1.00  0.00     0.074 A 
ATOM     23  C   UNL     1       6.437   0.908  -6.424  1.00  0.00     0.031 C 
ATOM     24  C   UNL     1       4.492  -5.477  -4.646  1.00  0.00     0.029 A 
ATOM     25  C   UNL     1       5.241  -5.371  -5.893  1.00  0.00     0.049 A 
ATOM     26  H   UNL     1       6.055  -3.652  -6.744  1.00  0.00     0.167 HD
ATOM     27  C   UNL     1       7.551   0.076  -8.480  1.00  0.00     0.037 A 
ATOM     28  C   UNL     1       5.525  -6.400  -6.713  1.00  0.00     0.037 A 
ATOM     29  C   UNL     1       7.964  -0.972  -9.379  1.00  0.00     0.049 A 
ATOM     30  C   UNL     1       6.287  -6.137  -7.977  1.00  0.00     0.074 A 
ATOM     31  C   UNL     1       8.740  -0.865 -10.521  1.00  0.00     0.029 A 
ATOM     32  N   UNL     1       7.630  -2.311  -9.247  1.00  0.00    -0.354 N 
ATOM     33  N   UNL     1       6.764  -4.999  -8.423  1.00  0.00    -0.248 NA
ATOM     34  C   UNL     1       6.540  -7.285  -8.857  1.00  0.00     0.031 C 
ATOM     35  C   UNL     1       8.840  -2.133 -11.102  1.00  0.00     0.029 A 
ATOM     36  C   UNL     1       8.159  -3.037 -10.302  1.00  0.00     0.049 A 
ATOM     37  H   UNL     1       7.097  -2.691  -8.512  1.00  0.00     0.167 HD
ATOM     38  C   UNL     1       7.372  -5.294  -9.636  1.00  0.00     0.074 A 
ATOM     39  C   UNL     1       7.223  -6.720  -9.845  1.00  0.00     0.031 C 
ATOM     40  C   UNL     1       7.992  -4.455 -10.500  1.00  0.00     0.037 A 
BRANCH  27  41
ATOM     41  C   UNL     1       7.940   1.484  -8.831  1.00  0.00     0.058 A 
ATOM     42  C   UNL     1       7.322   2.145  -9.905  1.00  0.00     0.135 A 
ATOM     43  C   UNL     1       8.997   2.137  -8.179  1.00  0.00     0.135 A 
ATOM     44  F   UNL     1       6.302   1.566 -10.558  1.00  0.00    -0.206 F 
ATOM     45  C   UNL     1       7.753   3.396 -10.335  1.00  0.00     0.059 A 
ATOM     46  C   UNL     1       9.434   3.396  -8.582  1.00  0.00     0.059 A 
ATOM     47  F   UNL     1       9.609   1.555  -7.135  1.00  0.00    -0.206 F 
ATOM     48  C   UNL     1       8.818   4.009  -9.673  1.00  0.00     0.060 A 
BRANCH  48  49
ATOM     49  S   UNL     1       9.370   5.631 -10.243  1.00  0.00     0.124 S 
ATOM     50  O   UNL     1      10.010   5.302 -11.511  1.00  0.00    -0.237 OA
ATOM     51  O   UNL     1       8.112   6.368 -10.335  1.00  0.00    -0.237 OA
ATOM     52  O   UNL     1      10.268   6.074  -9.180  1.00  0.00    -0.744 OA
ENDBRANCH  48  49
ENDBRANCH  27  41
BRANCH  28  53
ATOM     53  C   UNL     1       5.058  -7.764  -6.357  1.00  0.00     0.058 A 
ATOM     54  C   UNL     1       3.693  -8.092  -6.394  1.00  0.00     0.135 A 
ATOM     55  C   UNL     1       5.956  -8.744  -5.913  1.00  0.00     0.135 A 
ATOM     56  F   UNL     1       2.793  -7.184  -6.802  1.00  0.00    -0.206 F 
ATOM     57  C   UNL     1       3.231  -9.332  -5.970  1.00  0.00     0.059 A 
ATOM     58  C   UNL     1       5.520 -10.001  -5.506  1.00  0.00     0.059 A 
ATOM     59  F   UNL     1       7.271  -8.478  -5.871  1.00  0.00    -0.206 F 
ATOM     60  C   UNL     1       4.153 -10.277  -5.518  1.00  0.00     0.060 A 
BRANCH  60  61
ATOM     61  S   UNL     1       3.535 -11.875  -4.949  1.00  0.00     0.124 S 
ATOM     62  O   UNL     1       2.953 -11.517  -3.659  1.00  0.00    -0.237 OA
ATOM     63  O   UNL     1       2.585 -12.231  -5.998  1.00  0.00    -0.237 OA
ATOM     64  O   UNL     1       4.738 -12.699  -4.891  1.00  0.00    -0.744 OA
ENDBRANCH  60  61
ENDBRANCH  28  53
BRANCH  40  65
ATOM     65  C   UNL     1       8.553  -5.046 -11.760  1.00  0.00     0.058 A 
ATOM     66  C   UNL     1       9.938  -5.199 -11.923  1.00  0.00     0.135 A 
ATOM     67  C   UNL     1       7.720  -5.372 -12.840  1.00  0.00     0.135 A 
ATOM     68  F   UNL     1      10.776  -4.899 -10.918  1.00  0.00    -0.206 F 
ATOM     69  C   UNL     1      10.482  -5.629 -13.128  1.00  0.00     0.059 A 
ATOM     70  C   UNL     1       8.241  -5.825 -14.048  1.00  0.00     0.059 A 
ATOM     71  F   UNL     1       6.387  -5.257 -12.724  1.00  0.00    -0.206 F 
ATOM     72  C   UNL     1       9.625  -5.930 -14.188  1.00  0.00     0.060 A 
BRANCH  72  73
ATOM     73  S   UNL     1      10.348  -6.472 -15.751  1.00  0.00     0.124 S 
ATOM     74  O   UNL     1      10.935  -5.234 -16.253  1.00  0.00    -0.237 OA
ATOM     75  O   UNL     1      11.296  -7.493 -15.315  1.00  0.00    -0.237 OA
ATOM     76  O   UNL     1       9.199  -6.972 -16.500  1.00  0.00    -0.744 OA
ENDBRANCH  72  73
ENDBRANCH  40  65
ENDBRANCH  14  15
ENDBRANCH   7   9
ENDBRANCH   4   5
ENDBRANCH   3   4
ENDBRANCH   2   3
ENDBRANCH   1   2
BRANCH   1  77
ATOM     77  C   UNL     1       6.347   1.409   4.090  1.00  0.00     0.021 C 
BRANCH  77  78
ATOM     78  C   UNL     1       6.985   2.781   4.299  1.00  0.00     0.116 C 
BRANCH  78  79
ATOM     79  N   UNL     1       6.733   3.269   5.643  1.00  0.00    -0.356 N 
ATOM     80  C   UNL     1       7.592   3.583   6.650  1.00  0.00     0.224 C 
ATOM     81  H   UNL     1       5.781   3.393   5.862  1.00  0.00     0.163 HD
ATOM     82  O   UNL     1       7.105   3.952   7.721  1.00  0.00    -0.275 OA
BRANCH  80  83
ATOM     83  C   UNL     1       9.100   3.560   6.418  1.00  0.00     0.096 C 
BRANCH  83  84
ATOM     84  C   UNL     1       9.750   2.737   7.543  1.00  0.00     0.015 C 
BRANCH  84  85
ATOM     85  C   UNL     1      11.262   2.910   7.656  1.00  0.00     0.001 CG0
ATOM     86  G   UNL     1      11.659   4.069   8.570  1.00  0.00     0.000 G0
ENDBRANCH  84  85
ENDBRANCH  83  84
BRANCH  83  87
ATOM     87  C   UNL     1       9.648   4.998   6.251  1.00  0.00     0.082 C 
BRANCH  87  88
ATOM     88  C   UNL     1       9.911   5.710   7.586  1.00  0.00     0.021 C 
BRANCH  88  89
ATOM     89  C   UNL     1      11.351   5.476   8.056  1.00  0.00     0.002 C 
BRANCH  89  90
ATOM     90  C   UNL     1      11.659   4.069   8.570  1.00  0.00     0.000 CG0
ATOM     91  G   UNL     1      11.262   2.910   7.656  1.00  0.00     0.000 G0
ENDBRANCH  89  90
ENDBRANCH  88  89
ENDBRANCH  87  88
BRANCH  87  92
ATOM     92  N   UNL     1       8.754   5.785   5.368  1.00  0.00    -0.207 NA
ATOM     93  H   UNL     1       7.982   6.106   5.953  1.00  0.00     0.141 HD
BRANCH  92  94
ATOM     94  S   UNL     1       9.308   7.133   4.532  1.00  0.00     0.240 S 
ATOM     95  O   UNL     1       8.116   7.892   4.237  1.00  0.00    -0.207 OA
ATOM     96  O   UNL     1      10.426   7.708   5.250  1.00  0.00    -0.207 OA
BRANCH  94  97
ATOM     97  C   UNL     1       9.935   6.539   2.985  1.00  0.00     0.085 A 
ATOM     98  C   UNL     1      10.390   5.228   2.816  1.00  0.00     0.022 A 
ATOM     99  C   UNL     1      10.012   7.455   1.932  1.00  0.00     0.061 A 
ATOM    100  C   UNL     1      10.970   4.847   1.603  1.00  0.00     0.004 A 
ATOM    101  C   UNL     1      10.586   7.059   0.732  1.00  0.00     0.124 A 
ATOM    102  C   UNL     1      11.074   5.768   0.561  1.00  0.00     0.039 A 
ATOM    103  F   UNL     1      10.689   7.941  -0.269  1.00  0.00    -0.207 F 
ENDBRANCH  94  97
ENDBRANCH  92  94
ENDBRANCH  87  92
ENDBRANCH  83  87
ENDBRANCH  80  83
ENDBRANCH  78  79
ENDBRANCH  77  78
ENDBRANCH   1  77
TORSDOF 19
