REMARK SMILES O=C(NCCCCCCNC(=O)[C@@H]1CCCN1S(=O)(=O)c1ccc2[nH]c(=O)c(=O)[nH]c2c1)c1ccc(-c2c3nc(c(-c4c(F)cc(S(=O)(=O)[O-])cc4F)c4ccc([nH]4)c(-c4c(F)cc(S(=O)(=O)[O-])cc4F)c4nc(c(-c5c(F)cc(S(=O)(=O)[O-])cc5F)c5ccc2[nH]5)C=C4)C=C3)cc1
REMARK SMILES IDX 6 1 5 2 4 3 3 4 1 5 2 6 33 8 34 9 98 10 35 11 97 12 36 13
REMARK SMILES IDX 37 14 38 15 91 16 39 17 96 18 90 19 92 20 40 21 95 22 89 23
REMARK SMILES IDX 88 24 41 26 75 27 54 28 74 29 55 30 58 31 73 32 93 33 56 34
REMARK SMILES IDX 57 35 72 37 94 38 59 39 42 40 43 41 52 42 44 43 45 44 51 45
REMARK SMILES IDX 53 46 46 47 47 48 48 49 49 50 50 51 76 52 77 53 86 54 78 55
REMARK SMILES IDX 79 56 85 57 87 58 80 59 81 60 82 61 83 62 84 63 60 64 61 65
REMARK SMILES IDX 70 66 62 67 63 68 69 69 71 70 64 71 65 72 66 73 67 74 68 75
REMARK SMILES IDX 7 76 8 77 9 78 10 79 11 80 12 82 13 83 14 84 17 85 15 86
REMARK SMILES IDX 16 87 18 88 19 89 20 90 21 91 22 92 32 93 23 94 31 95 24 96
REMARK SMILES IDX 30 97 25 98 28 99 26 101 29 103 27 104
REMARK H PARENT 3 7 92 25 58 36 10 81 30 100 25 102
REMARK Flexibility Score: inf
ROOT
ATOM      1  C   UNL     1       4.317   3.932   0.583  1.00  0.00     0.002 C 
ENDROOT
BRANCH   1   2
ATOM      2  C   UNL     1       4.703   2.750  -0.306  1.00  0.00     0.021 C 
BRANCH   2   3
ATOM      3  C   UNL     1       4.459   1.381   0.310  1.00  0.00     0.116 C 
BRANCH   3   4
ATOM      4  N   UNL     1       3.044   1.069   0.411  1.00  0.00    -0.352 N 
ATOM      5  O   UNL     1       1.140  -0.032  -0.085  1.00  0.00    -0.269 OA
ATOM      6  C   UNL     1       2.367  -0.018  -0.091  1.00  0.00     0.251 C 
ATOM      7  H   UNL     1       2.497   1.722   0.904  1.00  0.00     0.163 HD
BRANCH   6   8
ATOM      8  C   UNL     1       3.126  -1.160  -0.650  1.00  0.00     0.039 A 
ATOM      9  C   UNL     1       4.242  -1.666   0.021  1.00  0.00     0.014 A 
ATOM     10  C   UNL     1       2.703  -1.745  -1.847  1.00  0.00     0.014 A 
ATOM     11  C   UNL     1       4.998  -2.681  -0.556  1.00  0.00     0.010 A 
ATOM     12  C   UNL     1       3.416  -2.821  -2.385  1.00  0.00     0.010 A 
ATOM     13  C   UNL     1       4.575  -3.291  -1.748  1.00  0.00    -0.014 A 
BRANCH  13  14
ATOM     14  C   UNL     1       5.288  -4.501  -2.232  1.00  0.00     0.031 A 
ATOM     15  C   UNL     1       6.040  -4.506  -3.532  1.00  0.00     0.074 A 
ATOM     16  C   UNL     1       5.246  -5.607  -1.461  1.00  0.00     0.049 A 
ATOM     17  N   UNL     1       6.710  -5.485  -4.085  1.00  0.00    -0.248 NA
ATOM     18  C   UNL     1       6.040  -3.263  -4.318  1.00  0.00     0.031 C 
ATOM     19  C   UNL     1       4.519  -5.720  -0.191  1.00  0.00     0.029 A 
ATOM     20  N   UNL     1       5.823  -6.840  -1.619  1.00  0.00    -0.354 N 
ATOM     21  C   UNL     1       7.195  -4.988  -5.288  1.00  0.00     0.074 A 
ATOM     22  C   UNL     1       6.732  -3.620  -5.394  1.00  0.00     0.031 C 
ATOM     23  C   UNL     1       4.719  -6.939   0.327  1.00  0.00     0.029 A 
ATOM     24  C   UNL     1       5.532  -7.716  -0.600  1.00  0.00     0.049 A 
ATOM     25  H   UNL     1       6.391  -7.075  -2.388  1.00  0.00     0.167 HD
ATOM     26  C   UNL     1       7.957  -5.620  -6.213  1.00  0.00     0.037 A 
ATOM     27  C   UNL     1       5.856  -9.012  -0.440  1.00  0.00     0.037 A 
ATOM     28  C   UNL     1       8.427  -6.977  -6.084  1.00  0.00     0.049 A 
ATOM     29  C   UNL     1       6.688  -9.686  -1.492  1.00  0.00     0.074 A 
ATOM     30  C   UNL     1       9.261  -7.681  -6.936  1.00  0.00     0.029 A 
ATOM     31  N   UNL     1       8.098  -7.839  -5.048  1.00  0.00    -0.354 N 
ATOM     32  N   UNL     1       7.190  -9.178  -2.591  1.00  0.00    -0.248 NA
ATOM     33  C   UNL     1       6.993 -11.108  -1.287  1.00  0.00     0.031 C 
ATOM     34  C   UNL     1       9.396  -8.983  -6.441  1.00  0.00     0.029 A 
ATOM     35  C   UNL     1       8.685  -9.076  -5.256  1.00  0.00     0.049 A 
ATOM     36  H   UNL     1       7.531  -7.605  -4.277  1.00  0.00     0.167 HD
ATOM     37  C   UNL     1       7.876 -10.217  -3.208  1.00  0.00     0.074 A 
ATOM     38  C   UNL     1       7.749 -11.373  -2.343  1.00  0.00     0.031 C 
ATOM     39  C   UNL     1       8.543 -10.217  -4.387  1.00  0.00     0.037 A 
BRANCH  26  40
ATOM     40  C   UNL     1       8.336  -4.871  -7.461  1.00  0.00     0.058 A 
ATOM     41  C   UNL     1       9.327  -3.878  -7.453  1.00  0.00     0.135 A 
ATOM     42  C   UNL     1       7.780  -5.232  -8.700  1.00  0.00     0.135 A 
ATOM     43  F   UNL     1       9.882  -3.486  -6.296  1.00  0.00    -0.206 F 
ATOM     44  C   UNL     1       9.755  -3.270  -8.630  1.00  0.00     0.059 A 
ATOM     45  C   UNL     1       8.206  -4.651  -9.891  1.00  0.00     0.059 A 
ATOM     46  F   UNL     1       6.827  -6.175  -8.763  1.00  0.00    -0.206 F 
ATOM     47  C   UNL     1       9.194  -3.669  -9.845  1.00  0.00     0.060 A 
BRANCH  47  48
ATOM     48  S   UNL     1       9.800  -2.905 -11.366  1.00  0.00     0.124 S 
ATOM     49  O   UNL     1       9.235  -1.563 -11.262  1.00  0.00    -0.237 OA
ATOM     50  O   UNL     1      11.247  -2.997 -11.205  1.00  0.00    -0.237 OA
ATOM     51  O   UNL     1       9.234  -3.744 -12.418  1.00  0.00    -0.744 OA
ENDBRANCH  47  48
ENDBRANCH  26  40
BRANCH  27  52
ATOM     52  C   UNL     1       5.358  -9.763   0.742  1.00  0.00     0.058 A 
ATOM     53  C   UNL     1       6.234 -10.213   1.740  1.00  0.00     0.135 A 
ATOM     54  C   UNL     1       3.991 -10.048   0.893  1.00  0.00     0.135 A 
ATOM     55  F   UNL     1       7.549  -9.966   1.639  1.00  0.00    -0.206 F 
ATOM     56  C   UNL     1       5.778 -10.944   2.832  1.00  0.00     0.059 A 
ATOM     57  C   UNL     1       3.507 -10.749   1.991  1.00  0.00     0.059 A 
ATOM     58  F   UNL     1       3.110  -9.620  -0.024  1.00  0.00    -0.206 F 
ATOM     59  C   UNL     1       4.412 -11.210   2.946  1.00  0.00     0.060 A 
BRANCH  59  60
ATOM     60  S   UNL     1       3.822 -12.143   4.374  1.00  0.00     0.124 S 
ATOM     61  O   UNL     1       4.207 -13.502   4.012  1.00  0.00    -0.237 OA
ATOM     62  O   UNL     1       4.572 -11.537   5.470  1.00  0.00    -0.237 OA
ATOM     63  O   UNL     1       2.388 -11.871   4.381  1.00  0.00    -0.744 OA
ENDBRANCH  59  60
ENDBRANCH  27  52
BRANCH  39  64
ATOM     64  C   UNL     1       9.195 -11.505  -4.801  1.00  0.00     0.058 A 
ATOM     65  C   UNL     1       8.438 -12.594  -5.260  1.00  0.00     0.135 A 
ATOM     66  C   UNL     1      10.592 -11.642  -4.768  1.00  0.00     0.135 A 
ATOM     67  F   UNL     1       7.098 -12.516  -5.300  1.00  0.00    -0.206 F 
ATOM     68  C   UNL     1       9.041 -13.785  -5.648  1.00  0.00     0.059 A 
ATOM     69  C   UNL     1      11.218 -12.814  -5.177  1.00  0.00     0.059 A 
ATOM     70  F   UNL     1      11.361 -10.627  -4.344  1.00  0.00    -0.206 F 
ATOM     71  C   UNL     1      10.433 -13.885  -5.603  1.00  0.00     0.060 A 
BRANCH  71  72
ATOM     72  S   UNL     1      11.207 -15.426  -6.135  1.00  0.00     0.124 S 
ATOM     73  O   UNL     1      10.928 -16.301  -5.000  1.00  0.00    -0.237 OA
ATOM     74  O   UNL     1      10.483 -15.732  -7.365  1.00  0.00    -0.237 OA
ATOM     75  O   UNL     1      12.608 -15.057  -6.314  1.00  0.00    -0.744 OA
ENDBRANCH  71  72
ENDBRANCH  39  64
ENDBRANCH  13  14
ENDBRANCH   6   8
ENDBRANCH   3   4
ENDBRANCH   2   3
ENDBRANCH   1   2
BRANCH   1  76
ATOM     76  C   UNL     1       5.038   4.014   1.935  1.00  0.00     0.002 C 
BRANCH  76  77
ATOM     77  C   UNL     1       6.570   3.908   1.896  1.00  0.00     0.021 C 
BRANCH  77  78
ATOM     78  C   UNL     1       7.259   4.842   0.905  1.00  0.00     0.116 C 
BRANCH  78  79
ATOM     79  N   UNL     1       7.031   6.240   1.196  1.00  0.00    -0.355 N 
ATOM     80  C   UNL     1       7.880   7.231   1.566  1.00  0.00     0.238 C 
ATOM     81  H   UNL     1       6.092   6.523   1.111  1.00  0.00     0.163 HD
ATOM     82  O   UNL     1       7.491   8.380   1.320  1.00  0.00    -0.273 OA
BRANCH  80  83
ATOM     83  C   UNL     1       9.261   7.008   2.169  1.00  0.00     0.162 C 
ATOM     84  C   UNL     1       9.692   5.692   2.798  1.00  0.00     0.032 C 
ATOM     85  N   UNL     1       9.700   8.030   3.200  1.00  0.00    -0.185 NA
ATOM     86  C   UNL     1      11.044   6.029   3.419  1.00  0.00     0.019 C 
ATOM     87  C   UNL     1      11.069   7.548   3.586  1.00  0.00     0.103 C 
BRANCH  85  88
ATOM     88  S   UNL     1       8.742   8.334   4.595  1.00  0.00     0.243 S 
ATOM     89  O   UNL     1       8.419   7.061   5.203  1.00  0.00    -0.207 OA
ATOM     90  O   UNL     1       9.451   9.335   5.372  1.00  0.00    -0.207 OA
BRANCH  88  91
ATOM     91  C   UNL     1       7.211   9.085   4.106  1.00  0.00     0.084 A 
ATOM     92  C   UNL     1       6.086   8.276   3.890  1.00  0.00     0.024 A 
ATOM     93  C   UNL     1       7.092  10.480   4.098  1.00  0.00     0.050 A 
ATOM     94  C   UNL     1       4.871   8.854   3.520  1.00  0.00     0.030 A 
ATOM     95  C   UNL     1       5.857  11.052   3.791  1.00  0.00     0.066 A 
ATOM     96  C   UNL     1       4.763  10.241   3.464  1.00  0.00     0.065 A 
ATOM     97  N   UNL     1       5.700  12.441   3.838  1.00  0.00    -0.316 N 
ATOM     98  N   UNL     1       3.550  10.823   3.089  1.00  0.00    -0.316 N 
ATOM     99  C   UNL     1       4.512  13.076   3.547  1.00  0.00     0.314 A 
ATOM    100  H   UNL     1       6.476  12.991   4.090  1.00  0.00     0.170 HD
ATOM    101  C   UNL     1       3.342  12.184   3.064  1.00  0.00     0.314 A 
ATOM    102  H   UNL     1       2.807  10.231   2.830  1.00  0.00     0.170 HD
ATOM    103  O   UNL     1       4.381  14.288   3.668  1.00  0.00    -0.263 OA
ATOM    104  O   UNL     1       2.281  12.667   2.690  1.00  0.00    -0.263 OA
ENDBRANCH  88  91
ENDBRANCH  85  88
ENDBRANCH  80  83
ENDBRANCH  78  79
ENDBRANCH  77  78
ENDBRANCH  76  77
ENDBRANCH   1  76
TORSDOF 18
