REMARK SMILES COC(=O)[C@H]1CCN(C(=O)N[C@H](C(=O)NCCCCCCNC(=O)c2ccc(-c3c4nc(c(-c5c(F)cc(S(=O)(=O)[O-])cc5F)c5ccc([nH]5)c(-c5c(F)cc(S(=O)(=O)[O-])cc5F)c5nc(c(-c6c(F)cc(S(=O)(=O)[O-])cc6F)c6ccc3[nH]6)C=C5)C=C4)cc2)C2CC2)C1
REMARK SMILES IDX 18 1 17 2 16 3 15 4 13 5 14 6 12 8 11 9 9 10 10 11 8 13 5 14
REMARK SMILES IDX 6 15 94 16 7 17 3 18 4 19 2 20 1 21 91 22 92 23 93 24 19 25
REMARK SMILES IDX 20 26 21 27 22 28 23 29 24 31 25 32 26 33 90 34 27 35 89 36
REMARK SMILES IDX 28 37 29 38 30 39 83 40 31 41 88 42 82 43 84 44 32 45 87 46
REMARK SMILES IDX 81 47 80 48 33 50 67 51 46 52 66 53 47 54 50 55 65 56 85 57
REMARK SMILES IDX 48 58 49 59 64 61 86 62 51 63 34 64 35 65 44 66 36 67 37 68
REMARK SMILES IDX 43 69 45 70 38 71 39 72 40 73 41 74 42 75 68 76 69 77 78 78
REMARK SMILES IDX 70 79 71 80 77 81 79 82 72 83 73 84 74 85 75 86 76 87 52 88
REMARK SMILES IDX 53 89 62 90 54 91 55 92 61 93 63 94 56 95 57 96 58 97 59 98
REMARK SMILES IDX 60 99
REMARK H PARENT 15 7 11 12 22 30 84 49 50 60
REMARK Flexibility Score: inf
ROOT
ATOM      1  C   UNL     1       0.551   6.311   1.400  1.00  0.00     0.002 C 
ENDROOT
BRANCH   1   2
ATOM      2  C   UNL     1       1.885   6.027   0.698  1.00  0.00     0.021 C 
BRANCH   2   3
ATOM      3  C   UNL     1       1.799   5.704  -0.792  1.00  0.00     0.116 C 
BRANCH   3   4
ATOM      4  N   UNL     1       1.262   6.787  -1.589  1.00  0.00    -0.354 N 
ATOM      5  C   UNL     1       1.895   7.591  -2.492  1.00  0.00     0.242 C 
ATOM      6  O   UNL     1       1.197   8.335  -3.190  1.00  0.00    -0.273 OA
ATOM      7  H   UNL     1       0.303   6.969  -1.462  1.00  0.00     0.163 HD
BRANCH   5   8
ATOM      8  C   UNL     1       3.455   7.652  -2.551  1.00  0.00     0.176 C 
BRANCH   8   9
ATOM      9  N   UNL     1       3.770   7.995  -3.938  1.00  0.00    -0.326 N 
ATOM     10  C   UNL     1       4.851   8.006  -4.729  1.00  0.00     0.318 C 
ATOM     11  O   UNL     1       4.720   8.571  -5.821  1.00  0.00    -0.249 OA
ATOM     12  H   UNL     1       2.969   8.300  -4.422  1.00  0.00     0.166 HD
BRANCH  10  13
ATOM     13  N   UNL     1       6.054   7.507  -4.353  1.00  0.00    -0.324 N 
ATOM     14  C   UNL     1       8.431   7.531  -4.193  1.00  0.00     0.120 C 
ATOM     15  C   UNL     1       7.804   6.958  -2.921  1.00  0.00     0.039 C 
ATOM     16  C   UNL     1       7.247   7.968  -5.055  1.00  0.00     0.136 C 
ATOM     17  C   UNL     1       6.435   6.496  -3.390  1.00  0.00     0.122 C 
BRANCH  14  18
ATOM     18  C   UNL     1       9.385   8.669  -3.916  1.00  0.00     0.310 C 
ATOM     19  O   UNL     1      10.585   8.611  -4.153  1.00  0.00    -0.252 OA
BRANCH  18  20
ATOM     20  O   UNL     1       8.756   9.741  -3.363  1.00  0.00    -0.469 OA
ATOM     21  C   UNL     1       9.613  10.854  -3.098  1.00  0.00     0.282 C 
ENDBRANCH  18  20
ENDBRANCH  14  18
ENDBRANCH  10  13
ENDBRANCH   8   9
BRANCH   8  22
ATOM     22  C   UNL     1       3.918   8.716  -1.571  1.00  0.00     0.021 C 
ATOM     23  C   UNL     1       5.107   8.474  -0.667  1.00  0.00     0.006 C 
ATOM     24  C   UNL     1       5.178   9.540  -1.720  1.00  0.00     0.006 C 
ENDBRANCH   8  22
ENDBRANCH   5   8
ENDBRANCH   3   4
ENDBRANCH   2   3
ENDBRANCH   1   2
BRANCH   1  25
ATOM     25  C   UNL     1      -0.571   5.293   1.171  1.00  0.00     0.002 C 
BRANCH  25  26
ATOM     26  C   UNL     1      -0.223   3.831   1.464  1.00  0.00     0.021 C 
BRANCH  26  27
ATOM     27  C   UNL     1       0.201   3.532   2.897  1.00  0.00     0.116 C 
BRANCH  27  28
ATOM     28  N   UNL     1      -0.868   3.761   3.854  1.00  0.00    -0.352 N 
ATOM     29  C   UNL     1      -1.376   2.924   4.818  1.00  0.00     0.251 C 
ATOM     30  H   UNL     1      -1.290   4.649   3.805  1.00  0.00     0.163 HD
ATOM     31  O   UNL     1      -2.400   3.243   5.417  1.00  0.00    -0.269 OA
BRANCH  29  32
ATOM     32  C   UNL     1      -0.713   1.634   5.123  1.00  0.00     0.039 A 
ATOM     33  C   UNL     1      -1.505   0.502   5.334  1.00  0.00     0.014 A 
ATOM     34  C   UNL     1       0.678   1.540   5.233  1.00  0.00     0.014 A 
ATOM     35  C   UNL     1      -0.902  -0.731   5.604  1.00  0.00     0.010 A 
ATOM     36  C   UNL     1       1.280   0.298   5.428  1.00  0.00     0.010 A 
ATOM     37  C   UNL     1       0.497  -0.850   5.627  1.00  0.00    -0.014 A 
BRANCH  37  38
ATOM     38  C   UNL     1       1.157  -2.159   5.878  1.00  0.00     0.031 A 
ATOM     39  C   UNL     1       2.007  -2.354   7.106  1.00  0.00     0.074 A 
ATOM     40  C   UNL     1       1.037  -3.154   4.976  1.00  0.00     0.049 A 
ATOM     41  N   UNL     1       2.714  -3.395   7.465  1.00  0.00    -0.248 NA
ATOM     42  C   UNL     1       2.098  -1.219   8.038  1.00  0.00     0.031 C 
ATOM     43  C   UNL     1       0.279  -3.076   3.726  1.00  0.00     0.029 A 
ATOM     44  N   UNL     1       1.559  -4.424   4.968  1.00  0.00    -0.354 N 
ATOM     45  C   UNL     1       3.342  -3.037   8.653  1.00  0.00     0.074 A 
ATOM     46  C   UNL     1       2.978  -1.663   8.924  1.00  0.00     0.031 C 
ATOM     47  C   UNL     1       0.368  -4.252   3.083  1.00  0.00     0.029 A 
ATOM     48  C   UNL     1       1.216  -5.156   3.855  1.00  0.00     0.049 A 
ATOM     49  H   UNL     1       2.126  -4.778   5.691  1.00  0.00     0.167 HD
ATOM     50  C   UNL     1       4.132  -3.789   9.457  1.00  0.00     0.037 A 
ATOM     51  C   UNL     1       1.550  -6.411   3.494  1.00  0.00     0.037 A 
ATOM     52  C   UNL     1       4.468  -5.165   9.198  1.00  0.00     0.049 A 
ATOM     53  C   UNL     1       2.420  -7.231   4.408  1.00  0.00     0.074 A 
ATOM     54  C   UNL     1       5.215  -6.030   9.979  1.00  0.00     0.029 A 
ATOM     55  N   UNL     1       4.076  -5.879   8.075  1.00  0.00    -0.354 N 
ATOM     56  N   UNL     1       2.960  -6.893   5.555  1.00  0.00    -0.248 NA
ATOM     57  C   UNL     1       2.719  -8.606   3.985  1.00  0.00     0.031 C 
ATOM     58  C   UNL     1       5.311  -7.254   9.308  1.00  0.00     0.029 A 
ATOM     59  C   UNL     1       4.579  -7.169   8.134  1.00  0.00     0.049 A 
ATOM     60  H   UNL     1       3.522  -5.522   7.344  1.00  0.00     0.167 HD
ATOM     61  C   UNL     1       3.633  -8.023   6.006  1.00  0.00     0.074 A 
ATOM     62  C   UNL     1       3.426  -9.056   5.012  1.00  0.00     0.031 C 
ATOM     63  C   UNL     1       4.355  -8.191   7.143  1.00  0.00     0.037 A 
BRANCH  50  64
ATOM     64  C   UNL     1       4.683  -3.140  10.698  1.00  0.00     0.058 A 
ATOM     65  C   UNL     1       3.858  -2.804  11.784  1.00  0.00     0.135 A 
ATOM     66  C   UNL     1       6.058  -2.880  10.819  1.00  0.00     0.135 A 
ATOM     67  F   UNL     1       2.534  -3.017  11.718  1.00  0.00    -0.206 F 
ATOM     68  C   UNL     1       4.369  -2.203  12.929  1.00  0.00     0.059 A 
ATOM     69  C   UNL     1       6.596  -2.307  11.967  1.00  0.00     0.059 A 
ATOM     70  F   UNL     1       6.894  -3.182   9.813  1.00  0.00    -0.206 F 
ATOM     71  C   UNL     1       5.741  -1.957  13.011  1.00  0.00     0.060 A 
BRANCH  71  72
ATOM     72  S   UNL     1       6.389  -1.175  14.504  1.00  0.00     0.124 S 
ATOM     73  O   UNL     1       5.923   0.199  14.337  1.00  0.00    -0.237 OA
ATOM     74  O   UNL     1       5.740  -1.939  15.564  1.00  0.00    -0.237 OA
ATOM     75  O   UNL     1       7.831  -1.367  14.389  1.00  0.00    -0.744 OA
ENDBRANCH  71  72
ENDBRANCH  50  64
BRANCH  51  76
ATOM     76  C   UNL     1       1.036  -6.979   2.219  1.00  0.00     0.058 A 
ATOM     77  C   UNL     1       0.067  -7.994   2.221  1.00  0.00     0.135 A 
ATOM     78  C   UNL     1       1.492  -6.514   0.976  1.00  0.00     0.135 A 
ATOM     79  F   UNL     1      -0.397  -8.476   3.384  1.00  0.00    -0.206 F 
ATOM     80  C   UNL     1      -0.418  -8.541   1.037  1.00  0.00     0.059 A 
ATOM     81  C   UNL     1       1.003  -7.027  -0.221  1.00  0.00     0.059 A 
ATOM     82  F   UNL     1       2.405  -5.532   0.919  1.00  0.00    -0.206 F 
ATOM     83  C   UNL     1       0.056  -8.049  -0.180  1.00  0.00     0.060 A 
BRANCH  83  84
ATOM     84  S   UNL     1      -0.615  -8.733  -1.711  1.00  0.00     0.124 S 
ATOM     85  O   UNL     1       0.023 -10.044  -1.751  1.00  0.00    -0.237 OA
ATOM     86  O   UNL     1      -2.050  -8.728  -1.446  1.00  0.00    -0.237 OA
ATOM     87  O   UNL     1      -0.170  -7.782  -2.725  1.00  0.00    -0.744 OA
ENDBRANCH  83  84
ENDBRANCH  51  76
BRANCH  63  88
ATOM     88  C   UNL     1       4.937  -9.554   7.399  1.00  0.00     0.058 A 
ATOM     89  C   UNL     1       6.030 -10.043   6.667  1.00  0.00     0.135 A 
ATOM     90  C   UNL     1       4.422 -10.361   8.427  1.00  0.00     0.135 A 
ATOM     91  F   UNL     1       6.557  -9.314   5.671  1.00  0.00    -0.206 F 
ATOM     92  C   UNL     1       6.575 -11.297   6.927  1.00  0.00     0.059 A 
ATOM     93  C   UNL     1       4.969 -11.605   8.723  1.00  0.00     0.059 A 
ATOM     94  F   UNL     1       3.384  -9.936   9.165  1.00  0.00    -0.206 F 
ATOM     95  C   UNL     1       6.038 -12.070   7.958  1.00  0.00     0.060 A 
BRANCH  95  96
ATOM     96  S   UNL     1       6.772 -13.683   8.304  1.00  0.00     0.124 S 
ATOM     97  O   UNL     1       6.274 -14.478   7.187  1.00  0.00    -0.237 OA
ATOM     98  O   UNL     1       8.201 -13.386   8.285  1.00  0.00    -0.237 OA
ATOM     99  O   UNL     1       6.228 -14.030   9.614  1.00  0.00    -0.744 OA
ENDBRANCH  95  96
ENDBRANCH  63  88
ENDBRANCH  37  38
ENDBRANCH  29  32
ENDBRANCH  27  28
ENDBRANCH  26  27
ENDBRANCH  25  26
ENDBRANCH   1  25
TORSDOF 21
