REMARK SMILES O=C(COc1ccccc1/C=N/NC(=O)C1CC1)NCCCCCCNC(=O)c1ccc(-c2c3nc(c(-c4c(F)cc(S(=O)(=O)[O-])cc4F)c4ccc([nH]4)c(-c4c(F)cc(S(=O)(=O)[O-])cc4F)c4nc(c(-c5c(F)cc(S(=O)(=O)[O-])cc5F)c5ccc2[nH]5)C=C4)C=C3)cc1
REMARK SMILES IDX 21 1 20 2 19 3 1 4 2 5 3 7 4 8 5 9 6 10 10 11 7 12 9 13 8 14
REMARK SMILES IDX 11 15 12 16 13 17 14 18 15 20 16 21 17 22 18 23 22 24 23 25
REMARK SMILES IDX 24 26 25 27 26 28 27 29 28 31 29 32 30 33 94 34 31 35 93 36
REMARK SMILES IDX 32 37 33 38 34 39 87 40 35 41 92 42 86 43 88 44 36 45 91 46
REMARK SMILES IDX 85 47 84 48 37 50 71 51 50 52 70 53 51 54 54 55 69 56 89 57
REMARK SMILES IDX 52 58 53 59 68 61 90 62 55 63 38 64 39 65 48 66 40 67 41 68
REMARK SMILES IDX 47 69 49 70 42 71 43 72 44 73 45 74 46 75 72 76 73 77 82 78
REMARK SMILES IDX 74 79 75 80 81 81 83 82 76 83 77 84 78 85 79 86 80 87 56 88
REMARK SMILES IDX 57 89 66 90 58 91 59 92 65 93 67 94 60 95 61 96 62 97 63 98
REMARK SMILES IDX 64 99
REMARK H PARENT 19 6 13 19 26 30 88 49 54 60
REMARK Flexibility Score: inf
ROOT
ATOM      1  C   UNL     1       3.464   2.368   2.393  1.00  0.00     0.021 C 
ENDROOT
BRANCH   1   2
ATOM      2  C   UNL     1       3.409   2.368   0.873  1.00  0.00     0.116 C 
BRANCH   2   3
ATOM      3  N   UNL     1       4.049   1.259   0.164  1.00  0.00    -0.353 N 
ATOM      4  O   UNL     1       2.412  -0.425   0.065  1.00  0.00    -0.271 OA
ATOM      5  C   UNL     1       3.427   0.135  -0.335  1.00  0.00     0.257 C 
ATOM      6  H   UNL     1       5.022   1.323   0.030  1.00  0.00     0.163 HD
BRANCH   5   7
ATOM      7  C   UNL     1       4.007  -0.425  -1.590  1.00  0.00     0.329 C 
BRANCH   7   8
ATOM      8  O   UNL     1       4.153   0.650  -2.486  1.00  0.00    -0.483 OA
BRANCH   8   9
ATOM      9  C   UNL     1       3.073   1.030  -3.245  1.00  0.00     0.128 A 
ATOM     10  C   UNL     1       3.507   1.196  -4.569  1.00  0.00     0.047 A 
ATOM     11  C   UNL     1       1.810   1.529  -2.837  1.00  0.00     0.037 A 
ATOM     12  C   UNL     1       2.765   1.932  -5.478  1.00  0.00     0.004 A 
ATOM     13  C   UNL     1       1.107   2.334  -3.751  1.00  0.00     0.013 A 
ATOM     14  C   UNL     1       1.595   2.550  -5.051  1.00  0.00     0.001 A 
BRANCH  11  15
ATOM     15  C   UNL     1       0.998   1.040  -1.667  1.00  0.00     0.145 C 
ATOM     16  N   UNL     1       0.702   1.733  -0.603  1.00  0.00    -0.181 NA
BRANCH  16  17
ATOM     17  N   UNL     1      -0.032   1.023   0.404  1.00  0.00    -0.247 N 
ATOM     18  C   UNL     1       0.509   0.819   1.702  1.00  0.00     0.243 C 
ATOM     19  H   UNL     1      -0.926   0.670   0.192  1.00  0.00     0.193 HD
ATOM     20  O   UNL     1       0.429   1.699   2.560  1.00  0.00    -0.273 OA
BRANCH  18  21
ATOM     21  C   UNL     1       0.891  -0.595   2.120  1.00  0.00     0.080 C 
ATOM     22  C   UNL     1       2.308  -1.068   2.472  1.00  0.00     0.014 C 
ATOM     23  C   UNL     1       1.318  -0.897   3.559  1.00  0.00     0.014 C 
ENDBRANCH  18  21
ENDBRANCH  16  17
ENDBRANCH  11  15
ENDBRANCH   8   9
ENDBRANCH   7   8
ENDBRANCH   5   7
ENDBRANCH   2   3
ENDBRANCH   1   2
BRANCH   1  24
ATOM     24  C   UNL     1       4.867   2.566   2.941  1.00  0.00     0.002 C 
BRANCH  24  25
ATOM     25  C   UNL     1       5.355   4.009   2.793  1.00  0.00     0.002 C 
BRANCH  25  26
ATOM     26  C   UNL     1       4.511   5.048   3.542  1.00  0.00     0.021 C 
BRANCH  26  27
ATOM     27  C   UNL     1       4.324   4.742   5.026  1.00  0.00     0.116 C 
BRANCH  27  28
ATOM     28  N   UNL     1       5.616   4.625   5.689  1.00  0.00    -0.352 N 
ATOM     29  C   UNL     1       6.194   5.489   6.581  1.00  0.00     0.251 C 
ATOM     30  H   UNL     1       6.141   3.822   5.468  1.00  0.00     0.163 HD
ATOM     31  O   UNL     1       7.408   5.480   6.758  1.00  0.00    -0.269 OA
BRANCH  29  32
ATOM     32  C   UNL     1       5.329   6.416   7.334  1.00  0.00     0.039 A 
ATOM     33  C   UNL     1       5.721   7.745   7.494  1.00  0.00     0.014 A 
ATOM     34  C   UNL     1       4.130   5.955   7.889  1.00  0.00     0.014 A 
ATOM     35  C   UNL     1       4.886   8.623   8.183  1.00  0.00     0.010 A 
ATOM     36  C   UNL     1       3.264   6.849   8.505  1.00  0.00     0.010 A 
ATOM     37  C   UNL     1       3.641   8.188   8.672  1.00  0.00    -0.014 A 
BRANCH  37  38
ATOM     38  C   UNL     1       2.724   9.134   9.352  1.00  0.00     0.031 A 
ATOM     39  C   UNL     1       2.369   8.944  10.801  1.00  0.00     0.074 A 
ATOM     40  C   UNL     1       2.185  10.146   8.643  1.00  0.00     0.049 A 
ATOM     41  N   UNL     1       1.620   9.691  11.571  1.00  0.00    -0.248 NA
ATOM     42  C   UNL     1       2.902   7.745  11.467  1.00  0.00     0.031 C 
ATOM     43  C   UNL     1       2.405  10.385   7.215  1.00  0.00     0.029 A 
ATOM     44  N   UNL     1       1.351  11.164   9.026  1.00  0.00    -0.354 N 
ATOM     45  C   UNL     1       1.584   9.050  12.804  1.00  0.00     0.074 A 
ATOM     46  C   UNL     1       2.337   7.824  12.663  1.00  0.00     0.031 C 
ATOM     47  C   UNL     1       1.766  11.508   6.854  1.00  0.00     0.029 A 
ATOM     48  C   UNL     1       1.062  12.047   8.013  1.00  0.00     0.049 A 
ATOM     49  H   UNL     1       0.993  11.254   9.938  1.00  0.00     0.167 HD
ATOM     50  C   UNL     1       0.997   9.460  13.954  1.00  0.00     0.037 A 
ATOM     51  C   UNL     1       0.322  13.172   8.022  1.00  0.00     0.037 A 
ATOM     52  C   UNL     1       0.261  10.693  14.080  1.00  0.00     0.049 A 
ATOM     53  C   UNL     1      -0.313  13.611   9.312  1.00  0.00     0.074 A 
ATOM     54  C   UNL     1      -0.310  11.243  15.214  1.00  0.00     0.029 A 
ATOM     55  N   UNL     1      -0.019  11.560  13.032  1.00  0.00    -0.354 N 
ATOM     56  N   UNL     1      -0.258  13.045  10.495  1.00  0.00    -0.248 NA
ATOM     57  C   UNL     1      -1.104  14.847   9.271  1.00  0.00     0.031 C 
ATOM     58  C   UNL     1      -0.987  12.410  14.840  1.00  0.00     0.029 A 
ATOM     59  C   UNL     1      -0.785  12.622  13.485  1.00  0.00     0.049 A 
ATOM     60  H   UNL     1       0.283  11.438  12.103  1.00  0.00     0.167 HD
ATOM     61  C   UNL     1      -0.990  13.866  11.345  1.00  0.00     0.074 A 
ATOM     62  C   UNL     1      -1.455  14.980  10.542  1.00  0.00     0.031 C 
ATOM     63  C   UNL     1      -1.256  13.714  12.667  1.00  0.00     0.037 A 
BRANCH  50  64
ATOM     64  C   UNL     1       1.118   8.563  15.158  1.00  0.00     0.058 A 
ATOM     65  C   UNL     1       2.348   8.343  15.801  1.00  0.00     0.135 A 
ATOM     66  C   UNL     1      -0.015   7.924  15.687  1.00  0.00     0.135 A 
ATOM     67  F   UNL     1       3.468   8.916  15.334  1.00  0.00    -0.206 F 
ATOM     68  C   UNL     1       2.456   7.493  16.898  1.00  0.00     0.059 A 
ATOM     69  C   UNL     1       0.064   7.095  16.803  1.00  0.00     0.059 A 
ATOM     70  F   UNL     1      -1.218   8.097  15.116  1.00  0.00    -0.206 F 
ATOM     71  C   UNL     1       1.308   6.871  17.390  1.00  0.00     0.060 A 
BRANCH  71  72
ATOM     72  S   UNL     1       1.467   5.764  18.807  1.00  0.00     0.124 S 
ATOM     73  O   UNL     1       2.137   4.615  18.207  1.00  0.00    -0.237 OA
ATOM     74  O   UNL     1       2.273   6.555  19.732  1.00  0.00    -0.237 OA
ATOM     75  O   UNL     1       0.085   5.539  19.221  1.00  0.00    -0.744 OA
ENDBRANCH  71  72
ENDBRANCH  50  64
BRANCH  51  76
ATOM     76  C   UNL     1       0.187  13.980   6.781  1.00  0.00     0.058 A 
ATOM     77  C   UNL     1       0.804  15.235   6.669  1.00  0.00     0.135 A 
ATOM     78  C   UNL     1      -0.533  13.506   5.673  1.00  0.00     0.135 A 
ATOM     79  F   UNL     1       1.500  15.734   7.702  1.00  0.00    -0.206 F 
ATOM     80  C   UNL     1       0.705  15.996   5.510  1.00  0.00     0.059 A 
ATOM     81  C   UNL     1      -0.624  14.237   4.493  1.00  0.00     0.059 A 
ATOM     82  F   UNL     1      -1.129  12.304   5.722  1.00  0.00    -0.206 F 
ATOM     83  C   UNL     1      -0.007  15.485   4.423  1.00  0.00     0.060 A 
BRANCH  83  84
ATOM     84  S   UNL     1      -0.077  16.456   2.902  1.00  0.00     0.124 S 
ATOM     85  O   UNL     1      -0.960  17.550   3.291  1.00  0.00    -0.237 OA
ATOM     86  O   UNL     1       1.325  16.808   2.700  1.00  0.00    -0.237 OA
ATOM     87  O   UNL     1      -0.627  15.517   1.929  1.00  0.00    -0.744 OA
ENDBRANCH  83  84
ENDBRANCH  51  76
BRANCH  63  88
ATOM     88  C   UNL     1      -2.077  14.790  13.325  1.00  0.00     0.058 A 
ATOM     89  C   UNL     1      -3.440  14.961  13.033  1.00  0.00     0.135 A 
ATOM     90  C   UNL     1      -1.497  15.655  14.267  1.00  0.00     0.135 A 
ATOM     91  F   UNL     1      -4.045  14.165  12.136  1.00  0.00    -0.206 F 
ATOM     92  C   UNL     1      -4.186  15.982  13.614  1.00  0.00     0.059 A 
ATOM     93  C   UNL     1      -2.232  16.659  14.887  1.00  0.00     0.059 A 
ATOM     94  F   UNL     1      -0.202  15.527  14.597  1.00  0.00    -0.206 F 
ATOM     95  C   UNL     1      -3.571  16.829  14.537  1.00  0.00     0.060 A 
BRANCH  95  96
ATOM     96  S   UNL     1      -4.547  18.153  15.280  1.00  0.00     0.124 S 
ATOM     97  O   UNL     1      -4.660  19.092  14.168  1.00  0.00    -0.237 OA
ATOM     98  O   UNL     1      -5.777  17.463  15.654  1.00  0.00    -0.237 OA
ATOM     99  O   UNL     1      -3.721  18.600  16.397  1.00  0.00    -0.744 OA
ENDBRANCH  95  96
ENDBRANCH  63  88
ENDBRANCH  37  38
ENDBRANCH  29  32
ENDBRANCH  27  28
ENDBRANCH  26  27
ENDBRANCH  25  26
ENDBRANCH  24  25
ENDBRANCH   1  24
TORSDOF 21
