REMARK SMILES O=C(CC1(CC(=O)NNc2ccc([N+](=O)[O-])cc2)CCCC1)NCCCCCCNC(=O)c1ccc(-c2c3nc(c(-c4c(F)cc(S(=O)(=O)[O-])cc4F)c4ccc([nH]4)c(-c4c(F)cc(S(=O)(=O)[O-])cc4F)c4nc(c(-c5c(F)cc(S(=O)(=O)[O-])cc5F)c5ccc2[nH]5)C=C4)C=C3)cc1
REMARK SMILES IDX 25 1 24 2 23 3 1 4 2 5 3 7 4 8 19 9 22 10 20 11 21 12 5 13
REMARK SMILES IDX 6 14 7 15 8 16 9 18 10 20 11 21 18 22 12 23 17 24 13 25
REMARK SMILES IDX 14 26 15 27 16 28 26 29 27 30 28 31 29 32 30 33 31 34 32 36
REMARK SMILES IDX 33 37 34 38 98 39 35 40 97 41 36 42 37 43 38 44 91 45 39 46
REMARK SMILES IDX 96 47 90 48 92 49 40 50 95 51 89 52 88 53 41 55 75 56 54 57
REMARK SMILES IDX 74 58 55 59 58 60 73 61 93 62 56 63 57 64 72 66 94 67 59 68
REMARK SMILES IDX 42 69 43 70 52 71 44 72 45 73 51 74 53 75 46 76 47 77 48 78
REMARK SMILES IDX 49 79 50 80 76 81 77 82 86 83 78 84 79 85 85 86 87 87 80 88
REMARK SMILES IDX 81 89 82 90 83 91 84 92 60 93 61 94 70 95 62 96 63 97 69 98
REMARK SMILES IDX 71 99 64 100 65 101 66 102 67 103 68 104
REMARK H PARENT 23 6 8 17 9 19 30 35 92 54 58 65
REMARK Flexibility Score: inf
ROOT
ATOM      1  C   UNL     1       2.687  -3.504  -0.064  1.00  0.00     0.021 C 
ENDROOT
BRANCH   1   2
ATOM      2  C   UNL     1       2.123  -2.302   0.689  1.00  0.00     0.116 C 
BRANCH   2   3
ATOM      3  N   UNL     1       2.809  -1.085   0.316  1.00  0.00    -0.356 N 
ATOM      4  O   UNL     1       1.141  -0.261  -1.013  1.00  0.00    -0.275 OA
ATOM      5  C   UNL     1       2.234  -0.124  -0.469  1.00  0.00     0.220 C 
ATOM      6  H   UNL     1       3.728  -0.943   0.640  1.00  0.00     0.163 HD
BRANCH   5   7
ATOM      7  C   UNL     1       3.088   1.103  -0.738  1.00  0.00     0.107 C 
BRANCH   7   8
ATOM      8  C   UNL     1       3.947   1.721   0.393  1.00  0.00    -0.012 C 
ATOM      9  C   UNL     1       5.336   1.049   0.545  1.00  0.00     0.008 C 
ATOM     10  C   UNL     1       4.421   3.112  -0.089  1.00  0.00     0.008 C 
ATOM     11  C   UNL     1       6.245   2.121   1.154  1.00  0.00     0.001 C 
ATOM     12  C   UNL     1       5.626   3.462   0.774  1.00  0.00     0.001 C 
BRANCH   8  13
ATOM     13  C   UNL     1       3.243   1.754   1.780  1.00  0.00     0.109 C 
BRANCH  13  14
ATOM     14  C   UNL     1       1.820   2.291   1.813  1.00  0.00     0.238 C 
ATOM     15  O   UNL     1       0.850   1.538   1.739  1.00  0.00    -0.273 OA
ATOM     16  N   UNL     1       1.619   3.637   1.970  1.00  0.00    -0.270 N 
ATOM     17  H   UNL     1       0.698   3.984   1.940  1.00  0.00     0.191 HD
BRANCH  16  18
ATOM     18  N   UNL     1       2.658   4.527   2.168  1.00  0.00    -0.299 N 
ATOM     19  H   UNL     1       3.553   4.228   2.450  1.00  0.00     0.188 HD
BRANCH  18  20
ATOM     20  C   UNL     1       2.366   5.881   1.946  1.00  0.00     0.055 A 
ATOM     21  C   UNL     1       3.206   6.624   1.106  1.00  0.00     0.034 A 
ATOM     22  C   UNL     1       1.388   6.548   2.692  1.00  0.00     0.034 A 
ATOM     23  C   UNL     1       3.061   8.007   0.983  1.00  0.00     0.088 A 
ATOM     24  C   UNL     1       1.238   7.934   2.590  1.00  0.00     0.088 A 
ATOM     25  C   UNL     1       2.083   8.659   1.740  1.00  0.00     0.269 A 
BRANCH  25  26
ATOM     26  N   UNL     1       1.972  10.121   1.674  1.00  0.00     0.062 N 
ATOM     27  O   UNL     1       2.742  10.724   0.912  1.00  0.00    -0.258 OA
ATOM     28  O   UNL     1       1.124  10.668   2.393  1.00  0.00    -0.258 OA
ENDBRANCH  25  26
ENDBRANCH  18  20
ENDBRANCH  16  18
ENDBRANCH  13  14
ENDBRANCH   8  13
ENDBRANCH   7   8
ENDBRANCH   5   7
ENDBRANCH   2   3
ENDBRANCH   1   2
BRANCH   1  29
ATOM     29  C   UNL     1       4.194  -3.724   0.138  1.00  0.00     0.002 C 
BRANCH  29  30
ATOM     30  C   UNL     1       4.639  -3.912   1.591  1.00  0.00     0.002 C 
BRANCH  30  31
ATOM     31  C   UNL     1       3.959  -5.064   2.333  1.00  0.00     0.021 C 
BRANCH  31  32
ATOM     32  C   UNL     1       4.106  -6.428   1.668  1.00  0.00     0.116 C 
BRANCH  32  33
ATOM     33  N   UNL     1       5.492  -6.867   1.606  1.00  0.00    -0.352 N 
ATOM     34  C   UNL     1       6.032  -8.074   1.976  1.00  0.00     0.251 C 
ATOM     35  H   UNL     1       6.130  -6.208   1.250  1.00  0.00     0.163 HD
ATOM     36  O   UNL     1       7.253  -8.210   2.021  1.00  0.00    -0.269 OA
BRANCH  34  37
ATOM     37  C   UNL     1       5.143  -9.198   2.343  1.00  0.00     0.039 A 
ATOM     38  C   UNL     1       5.444  -9.959   3.474  1.00  0.00     0.014 A 
ATOM     39  C   UNL     1       4.014  -9.499   1.575  1.00  0.00     0.014 A 
ATOM     40  C   UNL     1       4.582 -10.986   3.867  1.00  0.00     0.010 A 
ATOM     41  C   UNL     1       3.117 -10.470   2.011  1.00  0.00     0.010 A 
ATOM     42  C   UNL     1       3.394 -11.230   3.157  1.00  0.00    -0.014 A 
BRANCH  42  43
ATOM     43  C   UNL     1       2.440 -12.288   3.585  1.00  0.00     0.031 A 
ATOM     44  C   UNL     1       2.155 -13.455   2.676  1.00  0.00     0.074 A 
ATOM     45  C   UNL     1       1.795 -12.175   4.764  1.00  0.00     0.049 A 
ATOM     46  N   UNL     1       1.297 -14.431   2.828  1.00  0.00    -0.248 NA
ATOM     47  C   UNL     1       2.917 -13.521   1.417  1.00  0.00     0.031 C 
ATOM     48  C   UNL     1       1.952 -11.072   5.714  1.00  0.00     0.029 A 
ATOM     49  N   UNL     1       0.865 -12.992   5.360  1.00  0.00    -0.354 N 
ATOM     50  C   UNL     1       1.414 -15.221   1.691  1.00  0.00     0.074 A 
ATOM     51  C   UNL     1       2.378 -14.578   0.826  1.00  0.00     0.031 C 
ATOM     52  C   UNL     1       1.161 -11.287   6.777  1.00  0.00     0.029 A 
ATOM     53  C   UNL     1       0.407 -12.520   6.569  1.00  0.00     0.049 A 
ATOM     54  H   UNL     1       0.555 -13.836   4.960  1.00  0.00     0.167 HD
ATOM     55  C   UNL     1       0.799 -16.393   1.405  1.00  0.00     0.037 A 
ATOM     56  C   UNL     1      -0.526 -13.015   7.407  1.00  0.00     0.037 A 
ATOM     57  C   UNL     1      -0.145 -17.041   2.278  1.00  0.00     0.049 A 
ATOM     58  C   UNL     1      -1.212 -14.310   7.054  1.00  0.00     0.074 A 
ATOM     59  C   UNL     1      -0.803 -18.245   2.091  1.00  0.00     0.029 A 
ATOM     60  N   UNL     1      -0.561 -16.546   3.505  1.00  0.00    -0.354 N 
ATOM     61  N   UNL     1      -1.052 -15.067   5.994  1.00  0.00    -0.248 NA
ATOM     62  C   UNL     1      -2.198 -14.826   8.014  1.00  0.00     0.031 C 
ATOM     63  C   UNL     1      -1.647 -18.457   3.184  1.00  0.00     0.029 A 
ATOM     64  C   UNL     1      -1.473 -17.415   4.080  1.00  0.00     0.049 A 
ATOM     65  H   UNL     1      -0.253 -15.701   3.907  1.00  0.00     0.167 HD
ATOM     66  C   UNL     1      -1.886 -16.165   6.181  1.00  0.00     0.074 A 
ATOM     67  C   UNL     1      -2.539 -15.980   7.459  1.00  0.00     0.031 C 
ATOM     68  C   UNL     1      -2.094 -17.230   5.368  1.00  0.00     0.037 A 
BRANCH  55  69
ATOM     69  C   UNL     1       1.143 -17.071   0.107  1.00  0.00     0.058 A 
ATOM     70  C   UNL     1       2.399 -17.665  -0.098  1.00  0.00     0.135 A 
ATOM     71  C   UNL     1       0.187 -17.194  -0.915  1.00  0.00     0.135 A 
ATOM     72  F   UNL     1       3.356 -17.562   0.837  1.00  0.00    -0.206 F 
ATOM     73  C   UNL     1       2.700 -18.345  -1.273  1.00  0.00     0.059 A 
ATOM     74  C   UNL     1       0.457 -17.895  -2.088  1.00  0.00     0.059 A 
ATOM     75  F   UNL     1      -1.028 -16.642  -0.774  1.00  0.00    -0.206 F 
ATOM     76  C   UNL     1       1.719 -18.462  -2.259  1.00  0.00     0.060 A 
BRANCH  76  77
ATOM     77  S   UNL     1       2.116 -19.385  -3.759  1.00  0.00     0.124 S 
ATOM     78  O   UNL     1       3.066 -18.489  -4.410  1.00  0.00    -0.237 OA
ATOM     79  O   UNL     1       2.677 -20.621  -3.222  1.00  0.00    -0.237 OA
ATOM     80  O   UNL     1       0.826 -19.523  -4.426  1.00  0.00    -0.744 OA
ENDBRANCH  76  77
ENDBRANCH  55  69
BRANCH  56  81
ATOM     81  C   UNL     1      -0.875 -12.293   8.662  1.00  0.00     0.058 A 
ATOM     82  C   UNL     1      -0.588 -12.841   9.921  1.00  0.00     0.135 A 
ATOM     83  C   UNL     1      -1.536 -11.055   8.628  1.00  0.00     0.135 A 
ATOM     84  F   UNL     1       0.041 -14.024  10.010  1.00  0.00    -0.206 F 
ATOM     85  C   UNL     1      -0.981 -12.213  11.099  1.00  0.00     0.059 A 
ATOM     86  C   UNL     1      -1.910 -10.391   9.792  1.00  0.00     0.059 A 
ATOM     87  F   UNL     1      -1.817 -10.474   7.451  1.00  0.00    -0.206 F 
ATOM     88  C   UNL     1      -1.648 -10.990  11.023  1.00  0.00     0.060 A 
BRANCH  88  89
ATOM     89  S   UNL     1      -2.155 -10.181  12.556  1.00  0.00     0.124 S 
ATOM     90  O   UNL     1      -3.269 -11.024  12.976  1.00  0.00    -0.237 OA
ATOM     91  O   UNL     1      -0.944 -10.272  13.366  1.00  0.00    -0.237 OA
ATOM     92  O   UNL     1      -2.511  -8.834  12.123  1.00  0.00    -0.744 OA
ENDBRANCH  88  89
ENDBRANCH  56  81
BRANCH  68  93
ATOM     93  C   UNL     1      -3.016 -18.313   5.859  1.00  0.00     0.058 A 
ATOM     94  C   UNL     1      -4.404 -18.126   5.945  1.00  0.00     0.135 A 
ATOM     95  C   UNL     1      -2.503 -19.577   6.197  1.00  0.00     0.135 A 
ATOM     96  F   UNL     1      -4.947 -16.937   5.639  1.00  0.00    -0.206 F 
ATOM     97  C   UNL     1      -5.249 -19.145   6.376  1.00  0.00     0.059 A 
ATOM     98  C   UNL     1      -3.332 -20.619   6.599  1.00  0.00     0.059 A 
ATOM     99  F   UNL     1      -1.184 -19.814   6.121  1.00  0.00    -0.206 F 
ATOM    100  C   UNL     1      -4.703 -20.389   6.698  1.00  0.00     0.060 A 
BRANCH 100 101
ATOM    101  S   UNL     1      -5.814 -21.711   7.223  1.00  0.00     0.124 S 
ATOM    102  O   UNL     1      -6.187 -21.267   8.562  1.00  0.00    -0.237 OA
ATOM    103  O   UNL     1      -6.870 -21.649   6.217  1.00  0.00    -0.237 OA
ATOM    104  O   UNL     1      -4.974 -22.904   7.169  1.00  0.00    -0.744 OA
ENDBRANCH 100 101
ENDBRANCH  68  93
ENDBRANCH  42  43
ENDBRANCH  34  37
ENDBRANCH  32  33
ENDBRANCH  31  32
ENDBRANCH  30  31
ENDBRANCH  29  30
ENDBRANCH   1  29
TORSDOF 22
