REMARK SMILES CC(C)(C)N(CC(=O)NCCCCCCNC(=O)c1ccc(-c2c3nc(c(-c4c(F)cc(S(=O)(=O)[O-])cc4F)c4ccc([nH]4)c(-c4c(F)cc(S(=O)(=O)[O-])cc4F)c4nc(c(-c5c(F)cc(S(=O)(=O)[O-])cc5F)c5ccc2[nH]5)C=C4)C=C3)cc1)C(=O)NCCc1cnc[nH]1
REMARK SMILES IDX 11 1 10 2 9 3 7 4 8 5 6 7 5 8 2 9 1 10 3 11 4 12 85 13 86 14
REMARK SMILES IDX 87 15 88 17 89 18 90 19 91 20 94 21 92 22 93 23 12 25 13 26
REMARK SMILES IDX 14 27 15 28 16 29 17 30 18 32 19 33 20 34 84 35 21 36 83 37
REMARK SMILES IDX 22 38 23 39 24 40 77 41 25 42 82 43 76 44 78 45 26 46 81 47
REMARK SMILES IDX 75 48 74 49 27 51 61 52 40 53 60 54 41 55 44 56 59 57 79 58
REMARK SMILES IDX 42 59 43 60 58 62 80 63 45 64 28 65 29 66 38 67 30 68 31 69
REMARK SMILES IDX 37 70 39 71 32 72 33 73 34 74 35 75 36 76 62 77 63 78 72 79
REMARK SMILES IDX 64 80 65 81 71 82 73 83 66 84 67 85 68 86 69 87 70 88 46 89
REMARK SMILES IDX 47 90 56 91 48 92 49 93 55 94 57 95 50 96 51 97 52 98 53 99
REMARK SMILES IDX 54 100
REMARK H PARENT 9 6 87 16 94 24 16 31 78 50 44 61
REMARK Flexibility Score: inf
ROOT
ATOM      1  C   UNL     1       3.840   1.573   2.720  1.00  0.00     0.021 C 
ENDROOT
BRANCH   1   2
ATOM      2  C   UNL     1       3.811   0.542   1.597  1.00  0.00     0.116 C 
BRANCH   2   3
ATOM      3  N   UNL     1       4.055  -0.799   2.063  1.00  0.00    -0.355 N 
ATOM      4  C   UNL     1       3.240  -1.883   1.942  1.00  0.00     0.239 C 
ATOM      5  O   UNL     1       3.764  -2.997   2.063  1.00  0.00    -0.273 OA
ATOM      6  H   UNL     1       4.912  -0.950   2.523  1.00  0.00     0.163 HD
BRANCH   4   7
ATOM      7  C   UNL     1       1.765  -1.752   1.508  1.00  0.00     0.221 C 
BRANCH   7   8
ATOM      8  N   UNL     1       0.934  -0.713   2.144  1.00  0.00    -0.311 N 
BRANCH   8   9
ATOM      9  C   UNL     1       0.125   0.241   1.254  1.00  0.00     0.037 C 
ATOM     10  C   UNL     1       0.413   0.111  -0.269  1.00  0.00     0.034 C 
ATOM     11  C   UNL     1       0.376   1.733   1.597  1.00  0.00     0.034 C 
ATOM     12  C   UNL     1      -1.389  -0.053   1.402  1.00  0.00     0.034 C 
ENDBRANCH   8   9
BRANCH   8  13
ATOM     13  C   UNL     1       0.639  -0.718   3.492  1.00  0.00     0.318 C 
ATOM     14  O   UNL     1      -0.017   0.178   4.033  1.00  0.00    -0.249 OA
ATOM     15  N   UNL     1       0.998  -1.677   4.359  1.00  0.00    -0.338 N 
ATOM     16  H   UNL     1       0.720  -1.422   5.268  1.00  0.00     0.165 HD
BRANCH  15  17
ATOM     17  C   UNL     1       1.666  -2.975   4.396  1.00  0.00     0.124 C 
BRANCH  17  18
ATOM     18  C   UNL     1       3.045  -2.887   5.066  1.00  0.00     0.077 C 
BRANCH  18  19
ATOM     19  C   UNL     1       2.958  -2.986   6.551  1.00  0.00     0.036 A 
ATOM     20  C   UNL     1       2.998  -4.076   7.395  1.00  0.00     0.134 A 
ATOM     21  N   UNL     1       2.822  -1.905   7.385  1.00  0.00    -0.348 N 
ATOM     22  N   UNL     1       2.869  -3.688   8.702  1.00  0.00    -0.245 NA
ATOM     23  C   UNL     1       2.765  -2.379   8.665  1.00  0.00     0.196 A 
ATOM     24  H   UNL     1       2.774  -0.960   7.111  1.00  0.00     0.167 HD
ENDBRANCH  18  19
ENDBRANCH  17  18
ENDBRANCH  15  17
ENDBRANCH   8  13
ENDBRANCH   7   8
ENDBRANCH   4   7
ENDBRANCH   2   3
ENDBRANCH   1   2
BRANCH   1  25
ATOM     25  C   UNL     1       5.245   1.904   3.229  1.00  0.00     0.002 C 
BRANCH  25  26
ATOM     26  C   UNL     1       6.246   2.332   2.148  1.00  0.00     0.002 C 
BRANCH  26  27
ATOM     27  C   UNL     1       5.776   3.460   1.224  1.00  0.00     0.021 C 
BRANCH  27  28
ATOM     28  C   UNL     1       5.410   4.759   1.935  1.00  0.00     0.116 C 
BRANCH  28  29
ATOM     29  N   UNL     1       6.539   5.314   2.665  1.00  0.00    -0.352 N 
ATOM     30  C   UNL     1       7.197   6.505   2.485  1.00  0.00     0.251 C 
ATOM     31  H   UNL     1       6.883   4.752   3.397  1.00  0.00     0.163 HD
ATOM     32  O   UNL     1       8.272   6.703   3.046  1.00  0.00    -0.269 OA
BRANCH  30  33
ATOM     33  C   UNL     1       6.620   7.539   1.601  1.00  0.00     0.039 A 
ATOM     34  C   UNL     1       7.444   8.171   0.667  1.00  0.00     0.014 A 
ATOM     35  C   UNL     1       5.266   7.876   1.688  1.00  0.00     0.014 A 
ATOM     36  C   UNL     1       6.892   9.080  -0.238  1.00  0.00     0.010 A 
ATOM     37  C   UNL     1       4.705   8.732   0.745  1.00  0.00     0.010 A 
ATOM     38  C   UNL     1       5.509   9.329  -0.237  1.00  0.00    -0.014 A 
BRANCH  38  39
ATOM     39  C   UNL     1       4.873  10.158  -1.293  1.00  0.00     0.031 A 
ATOM     40  C   UNL     1       4.185  11.446  -0.945  1.00  0.00     0.074 A 
ATOM     41  C   UNL     1       4.840   9.694  -2.558  1.00  0.00     0.049 A 
ATOM     42  N   UNL     1       3.509  12.256  -1.718  1.00  0.00    -0.248 NA
ATOM     43  C   UNL     1       4.246  11.868   0.463  1.00  0.00     0.031 C 
ATOM     44  C   UNL     1       5.447   8.441  -3.013  1.00  0.00     0.029 A 
ATOM     45  N   UNL     1       4.265  10.213  -3.690  1.00  0.00    -0.354 N 
ATOM     46  C   UNL     1       3.053  13.277  -0.893  1.00  0.00     0.074 A 
ATOM     47  C   UNL     1       3.490  12.956   0.450  1.00  0.00     0.031 C 
ATOM     48  C   UNL     1       5.238   8.304  -4.331  1.00  0.00     0.029 A 
ATOM     49  C   UNL     1       4.439   9.429  -4.806  1.00  0.00     0.049 A 
ATOM     50  H   UNL     1       3.774  11.066  -3.703  1.00  0.00     0.167 HD
ATOM     51  C   UNL     1       2.348  14.385  -1.228  1.00  0.00     0.037 A 
ATOM     52  C   UNL     1       3.994   9.588  -6.068  1.00  0.00     0.037 A 
ATOM     53  C   UNL     1       1.918  14.691  -2.569  1.00  0.00     0.049 A 
ATOM     54  C   UNL     1       3.162  10.794  -6.404  1.00  0.00     0.074 A 
ATOM     55  C   UNL     1       1.257  15.818  -3.026  1.00  0.00     0.029 A 
ATOM     56  N   UNL     1       2.084  13.856  -3.666  1.00  0.00    -0.354 N 
ATOM     57  N   UNL     1       2.806  11.791  -5.630  1.00  0.00    -0.248 NA
ATOM     58  C   UNL     1       2.664  10.893  -7.783  1.00  0.00     0.031 C 
ATOM     59  C   UNL     1       0.964  15.634  -4.381  1.00  0.00     0.029 A 
ATOM     60  C   UNL     1       1.495  14.420  -4.787  1.00  0.00     0.049 A 
ATOM     61  H   UNL     1       2.551  12.989  -3.650  1.00  0.00     0.167 HD
ATOM     62  C   UNL     1       2.058  12.646  -6.431  1.00  0.00     0.074 A 
ATOM     63  C   UNL     1       2.024  12.055  -7.753  1.00  0.00     0.031 C 
ATOM     64  C   UNL     1       1.456  13.816  -6.098  1.00  0.00     0.037 A 
BRANCH  51  65
ATOM     65  C   UNL     1       1.976  15.331  -0.117  1.00  0.00     0.058 A 
ATOM     66  C   UNL     1       2.941  16.080   0.577  1.00  0.00     0.135 A 
ATOM     67  C   UNL     1       0.633  15.489   0.265  1.00  0.00     0.135 A 
ATOM     68  F   UNL     1       4.241  15.966   0.262  1.00  0.00    -0.206 F 
ATOM     69  C   UNL     1       2.596  16.904   1.644  1.00  0.00     0.059 A 
ATOM     70  C   UNL     1       0.261  16.335   1.306  1.00  0.00     0.059 A 
ATOM     71  F   UNL     1      -0.335  14.806  -0.367  1.00  0.00    -0.206 F 
ATOM     72  C   UNL     1       1.254  17.017   2.007  1.00  0.00     0.060 A 
BRANCH  72  73
ATOM     73  S   UNL     1       0.828  18.052   3.424  1.00  0.00     0.124 S 
ATOM     74  O   UNL     1       1.318  17.239   4.533  1.00  0.00    -0.237 OA
ATOM     75  O   UNL     1       1.578  19.274   3.155  1.00  0.00    -0.237 OA
ATOM     76  O   UNL     1      -0.623  18.176   3.332  1.00  0.00    -0.744 OA
ENDBRANCH  72  73
ENDBRANCH  51  65
BRANCH  52  77
ATOM     77  C   UNL     1       4.358   8.589  -7.106  1.00  0.00     0.058 A 
ATOM     78  C   UNL     1       5.274   8.914  -8.117  1.00  0.00     0.135 A 
ATOM     79  C   UNL     1       3.846   7.282  -7.082  1.00  0.00     0.135 A 
ATOM     80  F   UNL     1       5.782  10.153  -8.188  1.00  0.00    -0.206 F 
ATOM     81  C   UNL     1       5.676   7.978  -9.064  1.00  0.00     0.059 A 
ATOM     82  C   UNL     1       4.252   6.321  -8.003  1.00  0.00     0.059 A 
ATOM     83  F   UNL     1       2.976   6.917  -6.127  1.00  0.00    -0.206 F 
ATOM     84  C   UNL     1       5.168   6.679  -8.991  1.00  0.00     0.060 A 
BRANCH  84  85
ATOM     85  S   UNL     1       5.767   5.452 -10.172  1.00  0.00     0.124 S 
ATOM     86  O   UNL     1       5.160   5.916 -11.414  1.00  0.00    -0.237 OA
ATOM     87  O   UNL     1       7.214   5.612 -10.068  1.00  0.00    -0.237 OA
ATOM     88  O   UNL     1       5.243   4.195  -9.644  1.00  0.00    -0.744 OA
ENDBRANCH  84  85
ENDBRANCH  52  77
BRANCH  64  89
ATOM     89  C   UNL     1       0.708  14.544  -7.182  1.00  0.00     0.058 A 
ATOM     90  C   UNL     1      -0.522  14.074  -7.669  1.00  0.00     0.135 A 
ATOM     91  C   UNL     1       1.190  15.761  -7.690  1.00  0.00     0.135 A 
ATOM     92  F   UNL     1      -1.023  12.909  -7.228  1.00  0.00    -0.206 F 
ATOM     93  C   UNL     1      -1.243  14.780  -8.626  1.00  0.00     0.059 A 
ATOM     94  C   UNL     1       0.473  16.499  -8.626  1.00  0.00     0.059 A 
ATOM     95  F   UNL     1       2.360  16.258  -7.256  1.00  0.00    -0.206 F 
ATOM     96  C   UNL     1      -0.742  15.998  -9.092  1.00  0.00     0.060 A 
BRANCH  96  97
ATOM     97  S   UNL     1      -1.720  16.932 -10.288  1.00  0.00     0.124 S 
ATOM     98  O   UNL     1      -1.578  16.116 -11.489  1.00  0.00    -0.237 OA
ATOM     99  O   UNL     1      -3.044  16.931  -9.673  1.00  0.00    -0.237 OA
ATOM    100  O   UNL     1      -1.056  18.232 -10.330  1.00  0.00    -0.744 OA
ENDBRANCH  96  97
ENDBRANCH  64  89
ENDBRANCH  38  39
ENDBRANCH  30  33
ENDBRANCH  28  29
ENDBRANCH  27  28
ENDBRANCH  26  27
ENDBRANCH  25  26
ENDBRANCH   1  25
TORSDOF 22
