REMARK SMILES C[C@H](CCCO)NS(=O)(=O)c1cc(Cl)cc(C(=O)NCCCCCCNC(=O)c2ccc(-c3c4nc(c(-c5c(F)cc(S(=O)(=O)[O-])cc5F)c5ccc([nH]5)c(-c5c(F)cc(S(=O)(=O)[O-])cc5F)c5nc(c(-c6c(F)cc(S(=O)(=O)[O-])cc6F)c6ccc3[nH]6)C=C5)C=C4)cc2)c1Cl
REMARK SMILES IDX 20 1 19 2 17 3 18 4 16 6 11 7 12 8 95 9 13 10 96 11 14 12
REMARK SMILES IDX 15 13 8 14 9 15 10 16 7 17 2 19 1 20 3 21 4 22 5 23 6 24
REMARK SMILES IDX 21 26 22 27 23 28 24 29 25 30 26 31 27 32 28 34 29 35 30 36
REMARK SMILES IDX 94 37 31 38 93 39 32 40 33 41 34 42 87 43 35 44 92 45 86 46
REMARK SMILES IDX 88 47 36 48 91 49 85 50 84 51 37 53 71 54 50 55 70 56 51 57
REMARK SMILES IDX 54 58 69 59 89 60 52 61 53 62 68 64 90 65 55 66 38 67 39 68
REMARK SMILES IDX 48 69 40 70 41 71 47 72 49 73 42 74 43 75 44 76 45 77 46 78
REMARK SMILES IDX 72 79 73 80 82 81 74 82 75 83 81 84 83 85 76 86 77 87 78 88
REMARK SMILES IDX 79 89 80 90 56 91 57 92 66 93 58 94 59 95 65 96 67 97 60 98
REMARK SMILES IDX 61 99 62 100 63 101 64 102
REMARK H PARENT 19 5 7 18 6 25 26 33 88 52 54 63
REMARK Flexibility Score: inf
ROOT
ATOM      1  C   UNL     1      -1.831   6.961   3.441  1.00  0.00     0.116 C 
ENDROOT
BRANCH   1   2
ATOM      2  N   UNL     1      -0.872   6.886   4.533  1.00  0.00    -0.352 N 
ATOM      3  C   UNL     1      -0.098   5.830   4.970  1.00  0.00     0.252 C 
ATOM      4  O   UNL     1       0.714   6.017   5.875  1.00  0.00    -0.269 OA
ATOM      5  H   UNL     1      -0.756   7.721   5.040  1.00  0.00     0.163 HD
BRANCH   3   6
ATOM      6  C   UNL     1      -0.296   4.441   4.473  1.00  0.00     0.061 A 
ATOM      7  C   UNL     1      -0.935   2.815   2.812  1.00  0.00     0.103 A 
ATOM      8  C   UNL     1      -0.984   1.814   3.792  1.00  0.00     0.044 A 
ATOM      9  C   UNL     1      -0.459   4.095   3.126  1.00  0.00     0.073 A 
ATOM     10  C   UNL     1      -0.604   2.114   5.093  1.00  0.00     0.043 A 
ATOM     11  Cl  UNL     1       0.241   5.119   1.917  1.00  0.00    -0.082 Cl
ATOM     12  Cl  UNL     1      -0.554   0.871   6.278  1.00  0.00    -0.084 Cl
ATOM     13  C   UNL     1      -0.313   3.428   5.448  1.00  0.00     0.036 A 
BRANCH   7  14
ATOM     14  S   UNL     1      -1.794   2.488   1.294  1.00  0.00     0.242 S 
ATOM     15  O   UNL     1      -1.898   3.687   0.509  1.00  0.00    -0.207 OA
ATOM     16  O   UNL     1      -3.001   1.770   1.663  1.00  0.00    -0.207 OA
BRANCH  14  17
ATOM     17  N   UNL     1      -0.841   1.377   0.470  1.00  0.00    -0.208 NA
ATOM     18  H   UNL     1      -0.939   0.494   0.971  1.00  0.00     0.141 HD
BRANCH  17  19
ATOM     19  C   UNL     1       0.610   1.573   0.264  1.00  0.00     0.067 C 
ATOM     20  C   UNL     1       0.898   2.744  -0.659  1.00  0.00     0.025 C 
BRANCH  19  21
ATOM     21  C   UNL     1       1.184   0.202  -0.182  1.00  0.00     0.022 C 
BRANCH  21  22
ATOM     22  C   UNL     1       1.826   0.081  -1.571  1.00  0.00     0.030 C 
BRANCH  22  23
ATOM     23  C   UNL     1       3.197   0.732  -1.736  1.00  0.00     0.156 C 
BRANCH  23  24
ATOM     24  O   UNL     1       4.045   0.417  -0.641  1.00  0.00    -0.396 OA
ATOM     25  H   UNL     1       3.650   0.750   0.179  1.00  0.00     0.210 HD
ENDBRANCH  23  24
ENDBRANCH  22  23
ENDBRANCH  21  22
ENDBRANCH  19  21
ENDBRANCH  17  19
ENDBRANCH  14  17
ENDBRANCH   7  14
ENDBRANCH   3   6
ENDBRANCH   1   2
BRANCH   1  26
ATOM     26  C   UNL     1      -2.974   7.950   3.645  1.00  0.00     0.021 C 
BRANCH  26  27
ATOM     27  C   UNL     1      -2.599   9.433   3.720  1.00  0.00     0.002 C 
BRANCH  27  28
ATOM     28  C   UNL     1      -1.688   9.991   2.621  1.00  0.00     0.002 C 
BRANCH  28  29
ATOM     29  C   UNL     1      -2.094   9.724   1.170  1.00  0.00     0.021 C 
BRANCH  29  30
ATOM     30  C   UNL     1      -3.513  10.120   0.776  1.00  0.00     0.116 C 
BRANCH  30  31
ATOM     31  N   UNL     1      -3.776  11.541   0.934  1.00  0.00    -0.352 N 
ATOM     32  C   UNL     1      -4.296  12.439   0.032  1.00  0.00     0.251 C 
ATOM     33  H   UNL     1      -3.550  11.915   1.817  1.00  0.00     0.163 HD
ATOM     34  O   UNL     1      -4.337  13.634   0.312  1.00  0.00    -0.269 OA
BRANCH  32  35
ATOM     35  C   UNL     1      -4.776  11.974  -1.289  1.00  0.00     0.039 A 
ATOM     36  C   UNL     1      -4.380  12.668  -2.437  1.00  0.00     0.014 A 
ATOM     37  C   UNL     1      -5.610  10.858  -1.401  1.00  0.00     0.014 A 
ATOM     38  C   UNL     1      -4.755  12.199  -3.700  1.00  0.00     0.010 A 
ATOM     39  C   UNL     1      -5.929  10.355  -2.660  1.00  0.00     0.010 A 
ATOM     40  C   UNL     1      -5.500  11.016  -3.823  1.00  0.00    -0.014 A 
BRANCH  40  41
ATOM     41  C   UNL     1      -5.842  10.437  -5.149  1.00  0.00     0.031 A 
ATOM     42  C   UNL     1      -7.283  10.324  -5.566  1.00  0.00     0.074 A 
ATOM     43  C   UNL     1      -4.870   9.927  -5.930  1.00  0.00     0.049 A 
ATOM     44  N   UNL     1      -7.799   9.709  -6.598  1.00  0.00    -0.248 NA
ATOM     45  C   UNL     1      -8.276  10.965  -4.689  1.00  0.00     0.031 C 
ATOM     46  C   UNL     1      -3.438   9.951  -5.625  1.00  0.00     0.029 A 
ATOM     47  N   UNL     1      -4.939   9.263  -7.131  1.00  0.00    -0.354 N 
ATOM     48  C   UNL     1      -9.175   9.867  -6.484  1.00  0.00     0.074 A 
ATOM     49  C   UNL     1      -9.415  10.603  -5.261  1.00  0.00     0.031 C 
ATOM     50  C   UNL     1      -2.766   9.335  -6.611  1.00  0.00     0.029 A 
ATOM     51  C   UNL     1      -3.719   8.830  -7.595  1.00  0.00     0.049 A 
ATOM     52  H   UNL     1      -5.784   9.111  -7.614  1.00  0.00     0.167 HD
ATOM     53  C   UNL     1     -10.148   9.448  -7.328  1.00  0.00     0.037 A 
ATOM     54  C   UNL     1      -3.404   8.090  -8.677  1.00  0.00     0.037 A 
ATOM     55  C   UNL     1      -9.898   8.741  -8.556  1.00  0.00     0.049 A 
ATOM     56  C   UNL     1      -4.502   7.624  -9.595  1.00  0.00     0.074 A 
ATOM     57  C   UNL     1     -10.812   8.319  -9.506  1.00  0.00     0.029 A 
ATOM     58  N   UNL     1      -8.645   8.352  -9.006  1.00  0.00    -0.354 N 
ATOM     59  N   UNL     1      -5.795   7.819  -9.494  1.00  0.00    -0.248 NA
ATOM     60  C   UNL     1      -4.103   6.838 -10.772  1.00  0.00     0.031 C 
ATOM     61  C   UNL     1     -10.116   7.639 -10.510  1.00  0.00     0.029 A 
ATOM     62  C   UNL     1      -8.763   7.680 -10.211  1.00  0.00     0.049 A 
ATOM     63  H   UNL     1      -7.797   8.527  -8.538  1.00  0.00     0.167 HD
ATOM     64  C   UNL     1      -6.360   7.212 -10.610  1.00  0.00     0.074 A 
ATOM     65  C   UNL     1      -5.269   6.640 -11.373  1.00  0.00     0.031 C 
ATOM     66  C   UNL     1      -7.664   7.140 -10.972  1.00  0.00     0.037 A 
BRANCH  53  67
ATOM     67  C   UNL     1     -11.574   9.743  -6.952  1.00  0.00     0.058 A 
ATOM     68  C   UNL     1     -12.093  11.046  -6.994  1.00  0.00     0.135 A 
ATOM     69  C   UNL     1     -12.444   8.704  -6.581  1.00  0.00     0.135 A 
ATOM     70  F   UNL     1     -11.303  12.079  -7.330  1.00  0.00    -0.206 F 
ATOM     71  C   UNL     1     -13.414  11.315  -6.651  1.00  0.00     0.059 A 
ATOM     72  C   UNL     1     -13.777   8.945  -6.261  1.00  0.00     0.059 A 
ATOM     73  F   UNL     1     -12.000   7.438  -6.526  1.00  0.00    -0.206 F 
ATOM     74  C   UNL     1     -14.248  10.257  -6.284  1.00  0.00     0.060 A 
BRANCH  74  75
ATOM     75  S   UNL     1     -15.960  10.623  -5.841  1.00  0.00     0.124 S 
ATOM     76  O   UNL     1     -15.795  11.232  -4.525  1.00  0.00    -0.237 OA
ATOM     77  O   UNL     1     -16.374  11.526  -6.910  1.00  0.00    -0.237 OA
ATOM     78  O   UNL     1     -16.600   9.311  -5.849  1.00  0.00    -0.744 OA
ENDBRANCH  74  75
ENDBRANCH  53  67
BRANCH  54  79
ATOM     79  C   UNL     1      -1.982   7.749  -8.954  1.00  0.00     0.058 A 
ATOM     80  C   UNL     1      -1.297   8.338 -10.027  1.00  0.00     0.135 A 
ATOM     81  C   UNL     1      -1.276   6.845  -8.146  1.00  0.00     0.135 A 
ATOM     82  F   UNL     1      -1.931   9.203 -10.834  1.00  0.00    -0.206 F 
ATOM     83  C   UNL     1       0.034   8.035 -10.297  1.00  0.00     0.059 A 
ATOM     84  C   UNL     1       0.062   6.543  -8.381  1.00  0.00     0.059 A 
ATOM     85  F   UNL     1      -1.881   6.265  -7.098  1.00  0.00    -0.206 F 
ATOM     86  C   UNL     1       0.706   7.137  -9.466  1.00  0.00     0.060 A 
BRANCH  86  87
ATOM     87  S   UNL     1       2.447   6.786  -9.795  1.00  0.00     0.124 S 
ATOM     88  O   UNL     1       2.357   5.942 -10.981  1.00  0.00    -0.237 OA
ATOM     89  O   UNL     1       2.996   8.122 -10.001  1.00  0.00    -0.237 OA
ATOM     90  O   UNL     1       2.889   6.116  -8.576  1.00  0.00    -0.744 OA
ENDBRANCH  86  87
ENDBRANCH  54  79
BRANCH  66  91
ATOM     91  C   UNL     1      -7.997   6.466 -12.273  1.00  0.00     0.058 A 
ATOM     92  C   UNL     1      -7.989   5.070 -12.405  1.00  0.00     0.135 A 
ATOM     93  C   UNL     1      -8.435   7.229 -13.368  1.00  0.00     0.135 A 
ATOM     94  F   UNL     1      -7.570   4.297 -11.390  1.00  0.00    -0.206 F 
ATOM     95  C   UNL     1      -8.408   4.451 -13.579  1.00  0.00     0.059 A 
ATOM     96  C   UNL     1      -8.880   6.631 -14.543  1.00  0.00     0.059 A 
ATOM     97  F   UNL     1      -8.467   8.569 -13.289  1.00  0.00    -0.206 F 
ATOM     98  C   UNL     1      -8.862   5.240 -14.638  1.00  0.00     0.060 A 
BRANCH  98  99
ATOM     99  S   UNL     1      -9.483   4.421 -16.123  1.00  0.00     0.124 S 
ATOM    100  O   UNL     1      -8.246   3.951 -16.739  1.00  0.00    -0.237 OA
ATOM    101  O   UNL     1     -10.349   3.385 -15.569  1.00  0.00    -0.237 OA
ATOM    102  O   UNL     1     -10.173   5.490 -16.838  1.00  0.00    -0.744 OA
ENDBRANCH  98  99
ENDBRANCH  66  91
ENDBRANCH  40  41
ENDBRANCH  32  35
ENDBRANCH  30  31
ENDBRANCH  29  30
ENDBRANCH  28  29
ENDBRANCH  27  28
ENDBRANCH  26  27
ENDBRANCH   1  26
TORSDOF 23
