REMARK SMILES CCc1cc(/C=C/C(=O)NCCCCCCNC(=O)c2ccc(-c3c4nc(c(-c5c(F)cc(S(=O)(=O)[O-])cc5F)c5ccc([nH]5)c(-c5c(F)cc(S(=O)(=O)[O-])cc5F)c5nc(c(-c6c(F)cc(S(=O)(=O)[O-])cc6F)c6ccc3[nH]6)C=C5)C=C4)cc2)cc(C(=O)c2ccccc2)c1
REMARK SMILES IDX 13 1 12 2 11 3 10 4 8 5 9 6 7 8 6 9 5 10 3 11 4 12 96 13
REMARK SMILES IDX 87 14 86 15 2 16 1 17 88 18 89 19 90 20 91 21 95 22 92 23
REMARK SMILES IDX 94 24 93 25 14 26 15 27 16 28 17 29 18 30 19 32 20 33 21 34
REMARK SMILES IDX 85 35 22 36 84 37 23 38 24 39 25 40 78 41 26 42 83 43 77 44
REMARK SMILES IDX 79 45 27 46 82 47 76 48 75 49 28 51 62 52 41 53 61 54 42 55
REMARK SMILES IDX 45 56 60 57 80 58 43 59 44 60 59 62 81 63 46 64 29 65 30 66
REMARK SMILES IDX 39 67 31 68 32 69 38 70 40 71 33 72 34 73 35 74 36 75 37 76
REMARK SMILES IDX 63 77 64 78 73 79 65 80 66 81 72 82 74 83 67 84 68 85 69 86
REMARK SMILES IDX 70 87 71 88 47 89 48 90 57 91 49 92 50 93 56 94 58 95 51 96
REMARK SMILES IDX 52 97 53 98 54 99 55 100
REMARK H PARENT 10 7 17 31 79 50 45 61
REMARK Flexibility Score: inf
ROOT
ATOM      1  C   UNL     1      -1.441  -9.825   4.255  1.00  0.00     0.002 C 
ENDROOT
BRANCH   1   2
ATOM      2  C   UNL     1      -0.880  -8.422   3.982  1.00  0.00     0.021 C 
BRANCH   2   3
ATOM      3  C   UNL     1       0.293  -8.408   3.002  1.00  0.00     0.116 C 
BRANCH   3   4
ATOM      4  N   UNL     1      -0.177  -8.561   1.637  1.00  0.00    -0.353 N 
ATOM      5  C   UNL     1      -0.180  -7.694   0.593  1.00  0.00     0.243 C 
ATOM      6  O   UNL     1      -0.553  -8.080  -0.514  1.00  0.00    -0.270 OA
ATOM      7  H   UNL     1      -0.561  -9.444   1.434  1.00  0.00     0.163 HD
BRANCH   5   8
ATOM      8  C   UNL     1       0.331  -6.311   0.730  1.00  0.00     0.072 C 
ATOM      9  C   UNL     1       0.062  -5.482   1.749  1.00  0.00     0.014 C 
BRANCH   9  10
ATOM     10  C   UNL     1       0.532  -4.093   1.811  1.00  0.00    -0.024 A 
ATOM     11  C   UNL     1       0.808  -1.886   0.783  1.00  0.00    -0.047 A 
ATOM     12  C   UNL     1       0.427  -3.236   0.706  1.00  0.00     0.011 A 
ATOM     13  C   UNL     1       1.310  -1.405   1.997  1.00  0.00     0.016 A 
ATOM     14  C   UNL     1       1.384  -2.236   3.124  1.00  0.00     0.023 A 
ATOM     15  C   UNL     1       1.009  -3.582   3.022  1.00  0.00     0.020 A 
BRANCH  11  16
ATOM     16  C   UNL     1       0.612  -1.020  -0.442  1.00  0.00     0.032 C 
ATOM     17  C   UNL     1       1.022   0.443  -0.325  1.00  0.00     0.009 C 
ENDBRANCH  11  16
BRANCH  14  18
ATOM     18  C   UNL     1       1.871  -1.728   4.438  1.00  0.00     0.193 C 
ATOM     19  O   UNL     1       2.349  -2.509   5.255  1.00  0.00    -0.289 OA
BRANCH  18  20
ATOM     20  C   UNL     1       1.810  -0.283   4.768  1.00  0.00     0.022 A 
ATOM     21  C   UNL     1       2.936   0.323   5.335  1.00  0.00     0.012 A 
ATOM     22  C   UNL     1       0.657   0.472   4.518  1.00  0.00     0.012 A 
ATOM     23  C   UNL     1       2.927   1.693   5.598  1.00  0.00     0.001 A 
ATOM     24  C   UNL     1       0.654   1.843   4.781  1.00  0.00     0.001 A 
ATOM     25  C   UNL     1       1.792   2.453   5.311  1.00  0.00     0.000 A 
ENDBRANCH  18  20
ENDBRANCH  14  18
ENDBRANCH   9  10
ENDBRANCH   5   8
ENDBRANCH   3   4
ENDBRANCH   2   3
ENDBRANCH   1   2
BRANCH   1  26
ATOM     26  C   UNL     1      -0.443 -10.815   4.868  1.00  0.00     0.002 C 
BRANCH  26  27
ATOM     27  C   UNL     1       0.256 -10.332   6.144  1.00  0.00     0.021 C 
BRANCH  27  28
ATOM     28  C   UNL     1      -0.684 -10.024   7.306  1.00  0.00     0.116 C 
BRANCH  28  29
ATOM     29  N   UNL     1      -1.396 -11.210   7.747  1.00  0.00    -0.352 N 
ATOM     30  C   UNL     1      -1.512 -11.745   9.004  1.00  0.00     0.251 C 
ATOM     31  H   UNL     1      -1.866 -11.704   7.036  1.00  0.00     0.163 HD
ATOM     32  O   UNL     1      -1.958 -12.881   9.135  1.00  0.00    -0.269 OA
BRANCH  30  33
ATOM     33  C   UNL     1      -1.107 -10.966  10.195  1.00  0.00     0.039 A 
ATOM     34  C   UNL     1      -0.477 -11.634  11.249  1.00  0.00     0.014 A 
ATOM     35  C   UNL     1      -1.408  -9.605  10.313  1.00  0.00     0.014 A 
ATOM     36  C   UNL     1      -0.135 -10.936  12.409  1.00  0.00     0.010 A 
ATOM     37  C   UNL     1      -1.008  -8.895  11.444  1.00  0.00     0.010 A 
ATOM     38  C   UNL     1      -0.393  -9.560  12.514  1.00  0.00    -0.014 A 
BRANCH  38  39
ATOM     39  C   UNL     1      -0.067  -8.823  13.761  1.00  0.00     0.031 A 
ATOM     40  C   UNL     1      -1.172  -8.262  14.618  1.00  0.00     0.074 A 
ATOM     41  C   UNL     1       1.221  -8.641  14.111  1.00  0.00     0.049 A 
ATOM     42  N   UNL     1      -1.090  -7.597  15.742  1.00  0.00    -0.248 NA
ATOM     43  C   UNL     1      -2.549  -8.453  14.135  1.00  0.00     0.031 C 
ATOM     44  C   UNL     1       2.379  -9.089  13.335  1.00  0.00     0.029 A 
ATOM     45  N   UNL     1       1.773  -8.033  15.210  1.00  0.00    -0.354 N 
ATOM     46  C   UNL     1      -2.397  -7.280  16.092  1.00  0.00     0.074 A 
ATOM     47  C   UNL     1      -3.250  -7.778  15.035  1.00  0.00     0.031 C 
ATOM     48  C   UNL     1       3.503  -8.765  13.995  1.00  0.00     0.029 A 
ATOM     49  C   UNL     1       3.147  -8.070  15.228  1.00  0.00     0.049 A 
ATOM     50  H   UNL     1       1.236  -7.610  15.918  1.00  0.00     0.167 HD
ATOM     51  C   UNL     1      -2.850  -6.655  17.206  1.00  0.00     0.037 A 
ATOM     52  C   UNL     1       4.019  -7.604  16.142  1.00  0.00     0.037 A 
ATOM     53  C   UNL     1      -1.999  -6.189  18.270  1.00  0.00     0.049 A 
ATOM     54  C   UNL     1       3.491  -6.949  17.390  1.00  0.00     0.074 A 
ATOM     55  C   UNL     1      -2.359  -5.592  19.465  1.00  0.00     0.029 A 
ATOM     56  N   UNL     1      -0.614  -6.276  18.268  1.00  0.00    -0.354 N 
ATOM     57  N   UNL     1       2.248  -6.712  17.734  1.00  0.00    -0.248 NA
ATOM     58  C   UNL     1       4.485  -6.515  18.381  1.00  0.00     0.031 C 
ATOM     59  C   UNL     1      -1.190  -5.290  20.173  1.00  0.00     0.029 A 
ATOM     60  C   UNL     1      -0.104  -5.736  19.437  1.00  0.00     0.049 A 
ATOM     61  H   UNL     1      -0.073  -6.664  17.543  1.00  0.00     0.167 HD
ATOM     62  C   UNL     1       2.308  -6.124  18.993  1.00  0.00     0.074 A 
ATOM     63  C   UNL     1       3.709  -6.057  19.354  1.00  0.00     0.031 C 
ATOM     64  C   UNL     1       1.295  -5.680  19.779  1.00  0.00     0.037 A 
BRANCH  51  65
ATOM     65  C   UNL     1      -4.336  -6.449  17.331  1.00  0.00     0.058 A 
ATOM     66  C   UNL     1      -5.211  -7.523  17.561  1.00  0.00     0.135 A 
ATOM     67  C   UNL     1      -4.891  -5.162  17.239  1.00  0.00     0.135 A 
ATOM     68  F   UNL     1      -4.736  -8.776  17.642  1.00  0.00    -0.206 F 
ATOM     69  C   UNL     1      -6.585  -7.335  17.661  1.00  0.00     0.059 A 
ATOM     70  C   UNL     1      -6.262  -4.947  17.363  1.00  0.00     0.059 A 
ATOM     71  F   UNL     1      -4.102  -4.099  17.020  1.00  0.00    -0.206 F 
ATOM     72  C   UNL     1      -7.102  -6.043  17.557  1.00  0.00     0.060 A 
BRANCH  72  73
ATOM     73  S   UNL     1      -8.889  -5.814  17.685  1.00  0.00     0.124 S 
ATOM     74  O   UNL     1      -9.338  -6.296  16.383  1.00  0.00    -0.237 OA
ATOM     75  O   UNL     1      -9.233  -6.656  18.826  1.00  0.00    -0.237 OA
ATOM     76  O   UNL     1      -9.032  -4.378  17.906  1.00  0.00    -0.744 OA
ENDBRANCH  72  73
ENDBRANCH  51  65
BRANCH  52  77
ATOM     77  C   UNL     1       5.480  -7.782  15.932  1.00  0.00     0.058 A 
ATOM     78  C   UNL     1       6.210  -8.704  16.696  1.00  0.00     0.135 A 
ATOM     79  C   UNL     1       6.170  -7.050  14.955  1.00  0.00     0.135 A 
ATOM     80  F   UNL     1       5.594  -9.426  17.645  1.00  0.00    -0.206 F 
ATOM     81  C   UNL     1       7.578  -8.882  16.513  1.00  0.00     0.059 A 
ATOM     82  C   UNL     1       7.533  -7.226  14.737  1.00  0.00     0.059 A 
ATOM     83  F   UNL     1       5.512  -6.169  14.185  1.00  0.00    -0.206 F 
ATOM     84  C   UNL     1       8.231  -8.137  15.530  1.00  0.00     0.060 A 
BRANCH  84  85
ATOM     85  S   UNL     1       9.997  -8.408  15.266  1.00  0.00     0.124 S 
ATOM     86  O   UNL     1      10.574  -7.716  16.413  1.00  0.00    -0.237 OA
ATOM     87  O   UNL     1      10.092  -9.865  15.286  1.00  0.00    -0.237 OA
ATOM     88  O   UNL     1      10.240  -7.790  13.966  1.00  0.00    -0.744 OA
ENDBRANCH  84  85
ENDBRANCH  52  77
BRANCH  64  89
ATOM     89  C   UNL     1       1.671  -5.113  21.119  1.00  0.00     0.058 A 
ATOM     90  C   UNL     1       2.288  -3.858  21.242  1.00  0.00     0.135 A 
ATOM     91  C   UNL     1       1.395  -5.827  22.296  1.00  0.00     0.135 A 
ATOM     92  F   UNL     1       2.576  -3.137  20.147  1.00  0.00    -0.206 F 
ATOM     93  C   UNL     1       2.654  -3.348  22.483  1.00  0.00     0.059 A 
ATOM     94  C   UNL     1       1.728  -5.324  23.549  1.00  0.00     0.059 A 
ATOM     95  F   UNL     1       0.793  -7.026  22.234  1.00  0.00    -0.206 F 
ATOM     96  C   UNL     1       2.375  -4.092  23.631  1.00  0.00     0.060 A 
BRANCH  96  97
ATOM     97  S   UNL     1       2.853  -3.422  25.238  1.00  0.00     0.124 S 
ATOM     98  O   UNL     1       4.286  -3.692  25.253  1.00  0.00    -0.237 OA
ATOM     99  O   UNL     1       2.474  -2.018  25.120  1.00  0.00    -0.237 OA
ATOM    100  O   UNL     1       2.056  -4.202  26.180  1.00  0.00    -0.744 OA
ENDBRANCH  96  97
ENDBRANCH  64  89
ENDBRANCH  38  39
ENDBRANCH  30  33
ENDBRANCH  28  29
ENDBRANCH  27  28
ENDBRANCH  26  27
ENDBRANCH   1  26
TORSDOF 20
