REMARK SMILES COc1ccc(-c2cc([C@@H]3CC[N@@H+](CC(=O)NCCCCCCNC(=O)c4ccc(-c5c6nc(c(-c7c(F)cc(S(=O)(=O)[O-])cc7F)c7ccc([nH]7)c(-c7c(F)cc(S(=O)(=O)[O-])cc7F)c7nc(c(-c8c(F)cc(S(=O)(=O)[O-])cc8F)c8ccc5[nH]8)C=C7)C=C6)cc4)C3)ccn2)c2ccc(C)nc12
REMARK SMILES IDX 20 1 19 2 18 3 17 4 15 5 16 6 14 8 13 9 10 10 11 11 93 12
REMARK SMILES IDX 12 13 9 15 7 16 8 17 96 18 95 19 94 20 6 21 3 22 4 23 103 24
REMARK SMILES IDX 5 25 97 26 102 27 98 28 100 29 99 30 101 31 2 32 1 33 21 34
REMARK SMILES IDX 22 35 23 36 24 37 25 38 26 40 27 41 28 42 92 43 29 44 91 45
REMARK SMILES IDX 30 46 31 47 32 48 85 49 33 50 90 51 84 52 86 53 34 54 89 55
REMARK SMILES IDX 83 56 82 57 35 59 69 60 48 61 68 62 49 63 52 64 67 65 87 66
REMARK SMILES IDX 50 67 51 68 66 70 88 71 53 72 36 73 37 74 46 75 38 76 39 77
REMARK SMILES IDX 45 78 47 79 40 80 41 81 42 82 43 83 44 84 70 85 71 86 80 87
REMARK SMILES IDX 72 88 73 89 79 90 81 91 74 92 75 93 76 94 77 95 78 96 54 97
REMARK SMILES IDX 55 98 64 99 56 100 57 101 63 102 65 103 58 104 59 105 60 106
REMARK SMILES IDX 61 107 62 108
REMARK H PARENT 17 7 13 14 24 39 86 58 52 69
REMARK Flexibility Score: inf
ROOT
ATOM      1  C   UNL     1       2.350  -2.119 -12.125  1.00  0.00     0.002 C 
ENDROOT
BRANCH   1   2
ATOM      2  C   UNL     1       3.070  -2.846 -10.984  1.00  0.00     0.021 C 
BRANCH   2   3
ATOM      3  C   UNL     1       4.582  -3.063 -11.168  1.00  0.00     0.116 C 
BRANCH   3   4
ATOM      4  N   UNL     1       5.323  -1.860 -11.526  1.00  0.00    -0.351 N 
ATOM      5  C   UNL     1       6.163  -1.043 -10.823  1.00  0.00     0.275 C 
ATOM      6  O   UNL     1       6.603  -0.049 -11.411  1.00  0.00    -0.269 OA
ATOM      7  H   UNL     1       5.192  -1.581 -12.461  1.00  0.00     0.163 HD
BRANCH   5   8
ATOM      8  C   UNL     1       6.543  -1.325  -9.364  1.00  0.00     0.363 C 
BRANCH   8   9
ATOM      9  N   UNL     1       5.744  -0.614  -8.338  1.00  0.00    -0.327 N 
ATOM     10  C   UNL     1       4.370   1.329  -8.919  1.00  0.00     0.080 C 
ATOM     11  C   UNL     1       3.652   0.018  -9.244  1.00  0.00     0.075 C 
ATOM     12  C   UNL     1       5.756   0.862  -8.415  1.00  0.00     0.271 C 
ATOM     13  C   UNL     1       4.343  -1.011  -8.358  1.00  0.00     0.263 C 
ATOM     14  H   UNL     1       6.214  -0.893  -7.477  1.00  0.00     0.348 HD
BRANCH  10  15
ATOM     15  C   UNL     1       3.479   2.102  -7.963  1.00  0.00    -0.035 A 
ATOM     16  C   UNL     1       2.158   2.146  -5.926  1.00  0.00     0.071 A 
ATOM     17  C   UNL     1       3.191   1.605  -6.691  1.00  0.00     0.033 A 
ATOM     18  N   UNL     1       1.426   3.194  -6.360  1.00  0.00    -0.256 NA
ATOM     19  C   UNL     1       1.742   3.703  -7.573  1.00  0.00     0.112 A 
ATOM     20  C   UNL     1       2.739   3.200  -8.400  1.00  0.00     0.024 A 
BRANCH  16  21
ATOM     21  C   UNL     1       1.756   1.499  -4.660  1.00  0.00     0.010 A 
ATOM     22  C   UNL     1       0.970  -0.000  -2.433  1.00  0.00     0.145 A 
ATOM     23  C   UNL     1       0.035   0.322  -3.418  1.00  0.00     0.049 A 
ATOM     24  C   UNL     1       2.320   0.375  -2.533  1.00  0.00     0.113 A 
ATOM     25  C   UNL     1       0.426   1.069  -4.522  1.00  0.00     0.015 A 
ATOM     26  C   UNL     1       2.701   1.171  -3.637  1.00  0.00     0.013 A 
ATOM     27  N   UNL     1       3.230  -0.031  -1.612  1.00  0.00    -0.249 NA
ATOM     28  C   UNL     1       4.049   1.596  -3.670  1.00  0.00     0.013 A 
ATOM     29  C   UNL     1       4.527   0.330  -1.727  1.00  0.00     0.038 A 
ATOM     30  C   UNL     1       4.970   1.167  -2.728  1.00  0.00     0.024 A 
ATOM     31  C   UNL     1       5.472  -0.190  -0.689  1.00  0.00     0.067 C 
BRANCH  22  32
ATOM     32  O   UNL     1       0.466  -0.759  -1.397  1.00  0.00    -0.494 OA
ATOM     33  C   UNL     1       0.705  -0.162  -0.123  1.00  0.00     0.278 C 
ENDBRANCH  22  32
ENDBRANCH  16  21
ENDBRANCH  10  15
ENDBRANCH   8   9
ENDBRANCH   5   8
ENDBRANCH   3   4
ENDBRANCH   2   3
ENDBRANCH   1   2
BRANCH   1  34
ATOM     34  C   UNL     1       1.662  -3.048 -13.123  1.00  0.00     0.002 C 
BRANCH  34  35
ATOM     35  C   UNL     1       0.592  -3.972 -12.528  1.00  0.00     0.021 C 
BRANCH  35  36
ATOM     36  C   UNL     1      -0.531  -3.264 -11.772  1.00  0.00     0.116 C 
BRANCH  36  37
ATOM     37  N   UNL     1      -1.419  -2.561 -12.680  1.00  0.00    -0.352 N 
ATOM     38  C   UNL     1      -2.768  -2.749 -12.862  1.00  0.00     0.251 C 
ATOM     39  H   UNL     1      -1.003  -1.862 -13.234  1.00  0.00     0.163 HD
ATOM     40  O   UNL     1      -3.327  -2.282 -13.848  1.00  0.00    -0.269 OA
BRANCH  38  41
ATOM     41  C   UNL     1      -3.540  -3.519 -11.861  1.00  0.00     0.039 A 
ATOM     42  C   UNL     1      -4.441  -4.494 -12.297  1.00  0.00     0.014 A 
ATOM     43  C   UNL     1      -3.401  -3.249 -10.496  1.00  0.00     0.014 A 
ATOM     44  C   UNL     1      -5.189  -5.213 -11.361  1.00  0.00     0.010 A 
ATOM     45  C   UNL     1      -4.106  -4.005  -9.562  1.00  0.00     0.010 A 
ATOM     46  C   UNL     1      -5.026  -4.976  -9.986  1.00  0.00    -0.014 A 
BRANCH  46  47
ATOM     47  C   UNL     1      -5.859  -5.692  -8.985  1.00  0.00     0.031 A 
ATOM     48  C   UNL     1      -6.879  -4.931  -8.180  1.00  0.00     0.074 A 
ATOM     49  C   UNL     1      -5.683  -7.012  -8.780  1.00  0.00     0.049 A 
ATOM     50  N   UNL     1      -7.689  -5.363  -7.248  1.00  0.00    -0.248 NA
ATOM     51  C   UNL     1      -6.985  -3.486  -8.442  1.00  0.00     0.031 C 
ATOM     52  C   UNL     1      -4.700  -7.852  -9.466  1.00  0.00     0.029 A 
ATOM     53  N   UNL     1      -6.326  -7.878  -7.932  1.00  0.00    -0.354 N 
ATOM     54  C   UNL     1      -8.389  -4.246  -6.806  1.00  0.00     0.074 A 
ATOM     55  C   UNL     1      -7.869  -3.108  -7.532  1.00  0.00     0.031 C 
ATOM     56  C   UNL     1      -4.823  -9.117  -9.030  1.00  0.00     0.029 A 
ATOM     57  C   UNL     1      -5.876  -9.174  -8.020  1.00  0.00     0.049 A 
ATOM     58  H   UNL     1      -7.044  -7.598  -7.319  1.00  0.00     0.167 HD
ATOM     59  C   UNL     1      -9.392  -4.176  -5.898  1.00  0.00     0.037 A 
ATOM     60  C   UNL     1      -6.273 -10.283  -7.365  1.00  0.00     0.037 A 
ATOM     61  C   UNL     1      -9.926  -5.316  -5.199  1.00  0.00     0.049 A 
ATOM     62  C   UNL     1      -7.404 -10.186  -6.377  1.00  0.00     0.074 A 
ATOM     63  C   UNL     1     -10.968  -5.359  -4.288  1.00  0.00     0.029 A 
ATOM     64  N   UNL     1      -9.462  -6.616  -5.338  1.00  0.00    -0.354 N 
ATOM     65  N   UNL     1      -8.089  -9.129  -6.007  1.00  0.00    -0.248 NA
ATOM     66  C   UNL     1      -7.827 -11.434  -5.727  1.00  0.00     0.031 C 
ATOM     67  C   UNL     1     -11.116  -6.683  -3.857  1.00  0.00     0.029 A 
ATOM     68  C   UNL     1     -10.193  -7.469  -4.528  1.00  0.00     0.049 A 
ATOM     69  H   UNL     1      -8.722  -6.891  -5.925  1.00  0.00     0.167 HD
ATOM     70  C   UNL     1      -9.045  -9.591  -5.108  1.00  0.00     0.074 A 
ATOM     71  C   UNL     1      -8.853 -11.023  -4.995  1.00  0.00     0.031 C 
ATOM     72  C   UNL     1      -9.997  -8.894  -4.440  1.00  0.00     0.037 A 
BRANCH  59  73
ATOM     73  C   UNL     1      -9.981  -2.820  -5.621  1.00  0.00     0.058 A 
ATOM     74  C   UNL     1     -10.769  -2.154  -6.574  1.00  0.00     0.135 A 
ATOM     75  C   UNL     1      -9.763  -2.180  -4.391  1.00  0.00     0.135 A 
ATOM     76  F   UNL     1     -10.997  -2.712  -7.773  1.00  0.00    -0.206 F 
ATOM     77  C   UNL     1     -11.288  -0.886  -6.332  1.00  0.00     0.059 A 
ATOM     78  C   UNL     1     -10.295  -0.923  -4.117  1.00  0.00     0.059 A 
ATOM     79  F   UNL     1      -9.018  -2.771  -3.443  1.00  0.00    -0.206 F 
ATOM     80  C   UNL     1     -11.040  -0.276  -5.102  1.00  0.00     0.060 A 
BRANCH  80  81
ATOM     81  S   UNL     1     -11.709   1.375  -4.806  1.00  0.00     0.124 S 
ATOM     82  O   UNL     1     -10.800   2.201  -5.596  1.00  0.00    -0.237 OA
ATOM     83  O   UNL     1     -13.069   1.261  -5.322  1.00  0.00    -0.237 OA
ATOM     84  O   UNL     1     -11.602   1.530  -3.359  1.00  0.00    -0.744 OA
ENDBRANCH  80  81
ENDBRANCH  59  73
BRANCH  60  85
ATOM     85  C   UNL     1      -5.631 -11.590  -7.662  1.00  0.00     0.058 A 
ATOM     86  C   UNL     1      -6.318 -12.582  -8.378  1.00  0.00     0.135 A 
ATOM     87  C   UNL     1      -4.320 -11.871  -7.249  1.00  0.00     0.135 A 
ATOM     88  F   UNL     1      -7.576 -12.361  -8.790  1.00  0.00    -0.206 F 
ATOM     89  C   UNL     1      -5.736 -13.812  -8.662  1.00  0.00     0.059 A 
ATOM     90  C   UNL     1      -3.708 -13.087  -7.540  1.00  0.00     0.059 A 
ATOM     91  F   UNL     1      -3.615 -10.950  -6.575  1.00  0.00    -0.206 F 
ATOM     92  C   UNL     1      -4.428 -14.055  -8.239  1.00  0.00     0.060 A 
BRANCH  92  93
ATOM     93  S   UNL     1      -3.661 -15.636  -8.657  1.00  0.00     0.124 S 
ATOM     94  O   UNL     1      -4.316 -16.538  -7.717  1.00  0.00    -0.237 OA
ATOM     95  O   UNL     1      -4.030 -15.797 -10.060  1.00  0.00    -0.237 OA
ATOM     96  O   UNL     1      -2.242 -15.393  -8.416  1.00  0.00    -0.744 OA
ENDBRANCH  92  93
ENDBRANCH  60  85
BRANCH  72  97
ATOM     97  C   UNL     1     -10.936  -9.676  -3.565  1.00  0.00     0.058 A 
ATOM     98  C   UNL     1     -10.528 -10.207  -2.332  1.00  0.00     0.135 A 
ATOM     99  C   UNL     1     -12.273  -9.863  -3.951  1.00  0.00     0.135 A 
ATOM    100  F   UNL     1      -9.259 -10.060  -1.919  1.00  0.00    -0.206 F 
ATOM    101  C   UNL     1     -11.407 -10.921  -1.524  1.00  0.00     0.059 A 
ATOM    102  C   UNL     1     -13.175 -10.552  -3.148  1.00  0.00     0.059 A 
ATOM    103  F   UNL     1     -12.716  -9.364  -5.117  1.00  0.00    -0.206 F 
ATOM    104  C   UNL     1     -12.728 -11.091  -1.942  1.00  0.00     0.060 A 
BRANCH 104 105
ATOM    105  S   UNL     1     -13.867 -12.002  -0.877  1.00  0.00     0.124 S 
ATOM    106  O   UNL     1     -13.463 -13.382  -1.129  1.00  0.00    -0.237 OA
ATOM    107  O   UNL     1     -13.546 -11.480   0.448  1.00  0.00    -0.237 OA
ATOM    108  O   UNL     1     -15.182 -11.629  -1.389  1.00  0.00    -0.744 OA
ENDBRANCH 104 105
ENDBRANCH  72  97
ENDBRANCH  46  47
ENDBRANCH  38  41
ENDBRANCH  36  37
ENDBRANCH  35  36
ENDBRANCH  34  35
ENDBRANCH   1  34
TORSDOF 20
