REMARK SMILES CC(C)C(=O)Nc1ccc2c([C@H](C(=O)NCCCCCCNC(=O)c3ccc(-c4c5nc(c(-c6c(F)cc(S(=O)(=O)[O-])cc6F)c6ccc([nH]6)c(-c6c(F)cc(S(=O)(=O)[O-])cc6F)c6nc(c(-c7c(F)cc(S(=O)(=O)[O-])cc7F)c7ccc4[nH]7)C=C6)C=C5)cc3)[NH+]3CC[NH+](CC(=O)N(C)C)CC3)c[nH]c2c1
REMARK SMILES IDX 18 1 17 2 16 3 15 4 13 5 14 6 12 8 11 9 7 10 8 11 106 12
REMARK SMILES IDX 9 13 105 14 10 15 104 16 103 17 6 19 4 20 5 21 2 23 1 24
REMARK SMILES IDX 3 25 91 26 92 27 102 28 93 30 101 31 94 32 95 34 96 35 97 36
REMARK SMILES IDX 98 37 99 38 100 39 19 40 20 41 21 42 22 43 23 44 24 46 25 47
REMARK SMILES IDX 26 48 90 49 27 50 89 51 28 52 29 53 30 54 83 55 31 56 88 57
REMARK SMILES IDX 82 58 84 59 32 60 87 61 81 62 80 63 33 65 67 66 46 67 66 68
REMARK SMILES IDX 47 69 50 70 65 71 85 72 48 73 49 74 64 76 86 77 51 78 34 79
REMARK SMILES IDX 35 80 44 81 36 82 37 83 43 84 45 85 38 86 39 87 40 88 41 89
REMARK SMILES IDX 42 90 68 91 69 92 78 93 70 94 71 95 77 96 79 97 72 98 73 99
REMARK SMILES IDX 74 100 75 101 76 102 52 103 53 104 62 105 54 106 55 107
REMARK SMILES IDX 61 108 63 109 56 110 57 111 58 112 59 113 60 114
REMARK H PARENT 15 7 104 18 6 22 91 29 94 33 22 45 84 64 50 75
REMARK Flexibility Score: inf
ROOT
ATOM      1  C   UNL     1      -0.407  -5.939   4.180  1.00  0.00     0.002 C 
ENDROOT
BRANCH   1   2
ATOM      2  C   UNL     1       0.070  -4.792   5.087  1.00  0.00     0.021 C 
BRANCH   2   3
ATOM      3  C   UNL     1       0.172  -3.436   4.380  1.00  0.00     0.116 C 
BRANCH   3   4
ATOM      4  N   UNL     1      -0.394  -2.319   5.124  1.00  0.00    -0.351 N 
ATOM      5  C   UNL     1       0.117  -1.218   5.746  1.00  0.00     0.283 C 
ATOM      6  O   UNL     1      -0.675  -0.256   5.745  1.00  0.00    -0.268 OA
ATOM      7  H   UNL     1      -1.375  -2.372   5.196  1.00  0.00     0.163 HD
BRANCH   5   8
ATOM      8  C   UNL     1       1.525  -1.076   6.466  1.00  0.00     0.308 C 
BRANCH   8   9
ATOM      9  C   UNL     1       1.320  -0.458   7.859  1.00  0.00     0.044 A 
ATOM     10  C   UNL     1       3.509   2.164  10.372  1.00  0.00     0.043 A 
ATOM     11  C   UNL     1       4.215   1.602   9.317  1.00  0.00     0.027 A 
ATOM     12  C   UNL     1       2.201   1.743  10.636  1.00  0.00     0.052 A 
ATOM     13  C   UNL     1       3.598   0.738   8.403  1.00  0.00     0.013 A 
ATOM     14  C   UNL     1       1.601   0.857   9.726  1.00  0.00     0.048 A 
ATOM     15  C   UNL     1       2.254   0.363   8.594  1.00  0.00     0.009 A 
ATOM     16  N   UNL     1       0.331   0.336   9.714  1.00  0.00    -0.361 N 
ATOM     17  C   UNL     1       0.161  -0.470   8.623  1.00  0.00     0.094 A 
ATOM     18  H   UNL     1      -0.358   0.516  10.393  1.00  0.00     0.166 HD
BRANCH  10  19
ATOM     19  N   UNL     1       4.076   3.109  11.235  1.00  0.00    -0.326 N 
ATOM     20  C   UNL     1       4.901   4.171  10.999  1.00  0.00     0.226 C 
ATOM     21  O   UNL     1       5.412   4.718  11.986  1.00  0.00    -0.274 OA
ATOM     22  H   UNL     1       3.837   2.986  12.182  1.00  0.00     0.169 HD
BRANCH  20  23
ATOM     23  C   UNL     1       5.114   4.789   9.611  1.00  0.00     0.072 C 
ATOM     24  C   UNL     1       6.178   4.118   8.755  1.00  0.00     0.018 C 
ATOM     25  C   UNL     1       3.817   5.055   8.851  1.00  0.00     0.018 C 
ENDBRANCH  20  23
ENDBRANCH  10  19
ENDBRANCH   8   9
BRANCH   8  26
ATOM     26  N   UNL     1       2.292  -2.340   6.448  1.00  0.00    -0.312 N 
ATOM     27  C   UNL     1       3.091  -2.706   7.633  1.00  0.00     0.325 C 
ATOM     28  C   UNL     1       3.237  -2.356   5.313  1.00  0.00     0.325 C 
ATOM     29  H   UNL     1       1.535  -3.021   6.394  1.00  0.00     0.349 HD
ATOM     30  C   UNL     1       3.752  -4.113   7.487  1.00  0.00     0.325 C 
ATOM     31  C   UNL     1       3.643  -3.814   5.050  1.00  0.00     0.325 C 
ATOM     32  N   UNL     1       4.264  -4.519   6.164  1.00  0.00    -0.318 N 
ATOM     33  H   UNL     1       3.943  -5.484   6.080  1.00  0.00     0.348 HD
BRANCH  32  34
ATOM     34  C   UNL     1       5.722  -4.664   6.054  1.00  0.00     0.364 C 
BRANCH  34  35
ATOM     35  C   UNL     1       6.459  -3.320   6.029  1.00  0.00     0.277 C 
ATOM     36  O   UNL     1       6.729  -2.768   7.102  1.00  0.00    -0.268 OA
ATOM     37  N   UNL     1       6.748  -2.715   4.806  1.00  0.00    -0.344 N 
ATOM     38  C   UNL     1       6.545  -3.277   3.474  1.00  0.00     0.146 C 
ATOM     39  C   UNL     1       7.333  -1.386   4.822  1.00  0.00     0.146 C 
ENDBRANCH  34  35
ENDBRANCH  32  34
ENDBRANCH   8  26
ENDBRANCH   5   8
ENDBRANCH   3   4
ENDBRANCH   2   3
ENDBRANCH   1   2
BRANCH   1  40
ATOM     40  C   UNL     1       0.379  -6.225   2.893  1.00  0.00     0.002 C 
BRANCH  40  41
ATOM     41  C   UNL     1       1.792  -6.801   3.028  1.00  0.00     0.021 C 
BRANCH  41  42
ATOM     42  C   UNL     1       1.952  -8.040   3.910  1.00  0.00     0.116 C 
BRANCH  42  43
ATOM     43  N   UNL     1       1.047  -9.117   3.539  1.00  0.00    -0.352 N 
ATOM     44  C   UNL     1       1.282 -10.380   3.056  1.00  0.00     0.251 C 
ATOM     45  H   UNL     1       0.094  -8.900   3.654  1.00  0.00     0.163 HD
ATOM     46  O   UNL     1       0.330 -11.047   2.654  1.00  0.00    -0.269 OA
BRANCH  44  47
ATOM     47  C   UNL     1       2.647 -10.952   2.995  1.00  0.00     0.039 A 
ATOM     48  C   UNL     1       3.002 -11.713   1.874  1.00  0.00     0.014 A 
ATOM     49  C   UNL     1       3.551 -10.818   4.051  1.00  0.00     0.014 A 
ATOM     50  C   UNL     1       4.275 -12.285   1.785  1.00  0.00     0.010 A 
ATOM     51  C   UNL     1       4.841 -11.344   3.938  1.00  0.00     0.010 A 
ATOM     52  C   UNL     1       5.218 -12.080   2.804  1.00  0.00    -0.014 A 
BRANCH  52  53
ATOM     53  C   UNL     1       6.602 -12.615   2.693  1.00  0.00     0.031 A 
ATOM     54  C   UNL     1       7.091 -13.673   3.645  1.00  0.00     0.074 A 
ATOM     55  C   UNL     1       7.442 -12.097   1.775  1.00  0.00     0.049 A 
ATOM     56  N   UNL     1       8.287 -14.192   3.760  1.00  0.00    -0.248 NA
ATOM     57  C   UNL     1       6.113 -14.201   4.609  1.00  0.00     0.031 C 
ATOM     58  C   UNL     1       7.100 -11.043   0.817  1.00  0.00     0.029 A 
ATOM     59  N   UNL     1       8.760 -12.373   1.506  1.00  0.00    -0.354 N 
ATOM     60  C   UNL     1       8.212 -15.092   4.817  1.00  0.00     0.074 A 
ATOM     61  C   UNL     1       6.862 -15.021   5.334  1.00  0.00     0.031 C 
ATOM     62  C   UNL     1       8.176 -10.768   0.063  1.00  0.00     0.029 A 
ATOM     63  C   UNL     1       9.294 -11.596   0.505  1.00  0.00     0.049 A 
ATOM     64  H   UNL     1       9.275 -13.062   1.986  1.00  0.00     0.167 HD
ATOM     65  C   UNL     1       9.175 -15.914   5.301  1.00  0.00     0.037 A 
ATOM     66  C   UNL     1      10.545 -11.545   0.007  1.00  0.00     0.037 A 
ATOM     67  C   UNL     1      10.510 -16.000   4.767  1.00  0.00     0.049 A 
ATOM     68  C   UNL     1      11.597 -12.466   0.560  1.00  0.00     0.074 A 
ATOM     69  C   UNL     1      11.538 -16.845   5.150  1.00  0.00     0.029 A 
ATOM     70  N   UNL     1      11.005 -15.214   3.737  1.00  0.00    -0.354 N 
ATOM     71  N   UNL     1      11.492 -13.350   1.523  1.00  0.00    -0.248 NA
ATOM     72  C   UNL     1      12.936 -12.386  -0.041  1.00  0.00     0.031 C 
ATOM     73  C   UNL     1      12.665 -16.542   4.379  1.00  0.00     0.029 A 
ATOM     74  C   UNL     1      12.328 -15.539   3.485  1.00  0.00     0.049 A 
ATOM     75  H   UNL     1      10.491 -14.525   3.256  1.00  0.00     0.167 HD
ATOM     76  C   UNL     1      12.743 -13.949   1.627  1.00  0.00     0.074 A 
ATOM     77  C   UNL     1      13.586 -13.333   0.623  1.00  0.00     0.031 C 
ATOM     78  C   UNL     1      13.155 -14.921   2.478  1.00  0.00     0.037 A 
BRANCH  65  79
ATOM     79  C   UNL     1       8.821 -16.791   6.472  1.00  0.00     0.058 A 
ATOM     80  C   UNL     1       7.959 -17.890   6.335  1.00  0.00     0.135 A 
ATOM     81  C   UNL     1       9.379 -16.552   7.739  1.00  0.00     0.135 A 
ATOM     82  F   UNL     1       7.388 -18.158   5.149  1.00  0.00    -0.206 F 
ATOM     83  C   UNL     1       7.637 -18.703   7.417  1.00  0.00     0.059 A 
ATOM     84  C   UNL     1       9.092 -17.368   8.830  1.00  0.00     0.059 A 
ATOM     85  F   UNL     1      10.213 -15.517   7.926  1.00  0.00    -0.206 F 
ATOM     86  C   UNL     1       8.207 -18.432   8.662  1.00  0.00     0.060 A 
BRANCH  86  87
ATOM     87  S   UNL     1       7.779 -19.495  10.057  1.00  0.00     0.124 S 
ATOM     88  O   UNL     1       6.422 -19.049  10.356  1.00  0.00    -0.237 OA
ATOM     89  O   UNL     1       7.894 -20.831   9.481  1.00  0.00    -0.237 OA
ATOM     90  O   UNL     1       8.786 -19.161  11.061  1.00  0.00    -0.744 OA
ENDBRANCH  86  87
ENDBRANCH  65  79
BRANCH  66  91
ATOM     91  C   UNL     1      10.866 -10.591  -1.088  1.00  0.00     0.058 A 
ATOM     92  C   UNL     1      11.100 -11.045  -2.394  1.00  0.00     0.135 A 
ATOM     93  C   UNL     1      10.921  -9.208  -0.856  1.00  0.00     0.135 A 
ATOM     94  F   UNL     1      11.065 -12.358  -2.664  1.00  0.00    -0.206 F 
ATOM     95  C   UNL     1      11.388 -10.163  -3.431  1.00  0.00     0.059 A 
ATOM     96  C   UNL     1      11.185  -8.305  -1.881  1.00  0.00     0.059 A 
ATOM     97  F   UNL     1      10.687  -8.722   0.373  1.00  0.00    -0.206 F 
ATOM     98  C   UNL     1      11.425  -8.793  -3.164  1.00  0.00     0.060 A 
BRANCH  98  99
ATOM     99  S   UNL     1      11.737  -7.651  -4.528  1.00  0.00     0.124 S 
ATOM    100  O   UNL     1      13.170  -7.825  -4.735  1.00  0.00    -0.237 OA
ATOM    101  O   UNL     1      10.870  -8.178  -5.576  1.00  0.00    -0.237 OA
ATOM    102  O   UNL     1      11.330  -6.360  -3.980  1.00  0.00    -0.744 OA
ENDBRANCH  98  99
ENDBRANCH  66  91
BRANCH  78 103
ATOM    103  C   UNL     1      14.572 -15.404   2.344  1.00  0.00     0.058 A 
ATOM    104  C   UNL     1      15.657 -14.633   2.790  1.00  0.00     0.135 A 
ATOM    105  C   UNL     1      14.843 -16.677   1.816  1.00  0.00     0.135 A 
ATOM    106  F   UNL     1      15.452 -13.406   3.294  1.00  0.00    -0.206 F 
ATOM    107  C   UNL     1      16.964 -15.101   2.702  1.00  0.00     0.059 A 
ATOM    108  C   UNL     1      16.140 -17.174   1.741  1.00  0.00     0.059 A 
ATOM    109  F   UNL     1      13.839 -17.456   1.383  1.00  0.00    -0.206 F 
ATOM    110  C   UNL     1      17.195 -16.375   2.178  1.00  0.00     0.060 A 
BRANCH 110 111
ATOM    111  S   UNL     1      18.892 -16.988   2.107  1.00  0.00     0.124 S 
ATOM    112  O   UNL     1      19.430 -16.235   0.979  1.00  0.00    -0.237 OA
ATOM    113  O   UNL     1      19.413 -16.621   3.420  1.00  0.00    -0.237 OA
ATOM    114  O   UNL     1      18.726 -18.421   1.883  1.00  0.00    -0.744 OA
ENDBRANCH 110 111
ENDBRANCH  78 103
ENDBRANCH  52  53
ENDBRANCH  44  47
ENDBRANCH  42  43
ENDBRANCH  41  42
ENDBRANCH  40  41
ENDBRANCH   1  40
TORSDOF 22
