REMARK SMILES CCCOC(=O)c1c(NC(=O)[C@@H]2CC=CC[C@H]2C(=O)NCCCCCCNC(=O)c2ccc(-c3c4nc(c(-c5c(F)cc(S(=O)(=O)[O-])cc5F)c5ccc([nH]5)c(-c5c(F)cc(S(=O)(=O)[O-])cc5F)c5nc(c(-c6c(F)cc(S(=O)(=O)[O-])cc6F)c6ccc3[nH]6)C=C5)C=C4)cc2)sc2c1CCCC2
REMARK SMILES IDX 22 1 21 2 20 3 18 4 19 5 17 7 12 8 13 9 14 10 16 11 15 12
REMARK SMILES IDX 10 13 9 14 11 16 8 17 7 18 98 19 96 20 97 21 99 22 102 23
REMARK SMILES IDX 100 24 101 25 5 26 6 27 4 28 3 29 2 30 1 31 23 32 24 33
REMARK SMILES IDX 25 34 26 35 27 36 28 37 29 39 30 40 31 41 95 42 32 43 94 44
REMARK SMILES IDX 33 45 34 46 35 47 88 48 36 49 93 50 87 51 89 52 37 53 92 54
REMARK SMILES IDX 86 55 85 56 38 58 72 59 51 60 71 61 52 62 55 63 70 64 90 65
REMARK SMILES IDX 53 66 54 67 69 69 91 70 56 71 39 72 40 73 49 74 41 75 42 76
REMARK SMILES IDX 48 77 50 78 43 79 44 80 45 81 46 82 47 83 73 84 74 85 83 86
REMARK SMILES IDX 75 87 76 88 82 89 84 90 77 91 78 92 79 93 80 94 81 95 57 96
REMARK SMILES IDX 58 97 67 98 59 99 60 100 66 101 68 102 61 103 62 104 63 105
REMARK SMILES IDX 64 106 65 107
REMARK H PARENT 20 6 9 15 27 38 89 57 55 68
REMARK Flexibility Score: inf
ROOT
ATOM      1  C   UNL     1      -2.114  -2.402   3.015  1.00  0.00     0.021 C 
ENDROOT
BRANCH   1   2
ATOM      2  C   UNL     1      -2.174  -3.320   1.792  1.00  0.00     0.116 C 
BRANCH   2   3
ATOM      3  N   UNL     1      -2.643  -2.563   0.663  1.00  0.00    -0.356 N 
ATOM      4  C   UNL     1      -1.843  -1.582   0.175  1.00  0.00     0.224 C 
ATOM      5  O   UNL     1      -2.189  -0.405   0.227  1.00  0.00    -0.275 OA
ATOM      6  H   UNL     1      -3.519  -2.751   0.256  1.00  0.00     0.163 HD
BRANCH   4   7
ATOM      7  C   UNL     1      -0.653  -2.026  -0.608  1.00  0.00     0.095 C 
ATOM      8  C   UNL     1       1.032  -1.051  -0.301  1.00  0.00     0.095 C 
ATOM      9  C   UNL     1       2.646  -1.834  -1.109  1.00  0.00     0.041 C 
ATOM     10  C   UNL     1       2.573  -3.661  -1.677  1.00  0.00    -0.030 C 
ATOM     11  C   UNL     1      -0.451  -3.871  -1.269  1.00  0.00     0.041 C 
ATOM     12  C   UNL     1       1.310  -4.483  -1.784  1.00  0.00    -0.030 C 
BRANCH   8  13
ATOM     13  C   UNL     1       1.040   0.411  -0.602  1.00  0.00     0.229 C 
ATOM     14  N   UNL     1       0.624   0.915  -1.774  1.00  0.00    -0.317 N 
ATOM     15  H   UNL     1       0.758   1.884  -1.889  1.00  0.00     0.170 HD
ATOM     16  O   UNL     1       1.488   1.198   0.241  1.00  0.00    -0.274 OA
BRANCH  14  17
ATOM     17  C   UNL     1       0.044   0.277  -2.828  1.00  0.00     0.110 A 
ATOM     18  C   UNL     1      -0.031  -1.007  -3.335  1.00  0.00     0.098 A 
ATOM     19  C   UNL     1      -1.209  -1.074  -4.209  1.00  0.00    -0.017 A 
ATOM     20  S   UNL     1      -0.887   1.408  -3.703  1.00  0.00    -0.122 S 
ATOM     21  C   UNL     1      -1.741   0.174  -4.474  1.00  0.00     0.011 A 
ATOM     22  C   UNL     1      -1.909  -2.315  -4.695  1.00  0.00     0.038 C 
ATOM     23  C   UNL     1      -2.926   0.469  -5.338  1.00  0.00     0.047 C 
ATOM     24  C   UNL     1      -2.852  -2.018  -5.872  1.00  0.00     0.005 C 
ATOM     25  C   UNL     1      -3.746  -0.799  -5.600  1.00  0.00     0.006 C 
BRANCH  18  26
ATOM     26  C   UNL     1       0.780  -2.203  -2.973  1.00  0.00     0.341 C 
ATOM     27  O   UNL     1       1.155  -2.937  -3.883  1.00  0.00    -0.246 OA
BRANCH  26  28
ATOM     28  O   UNL     1       0.904  -2.487  -1.550  1.00  0.00    -0.462 OA
BRANCH  28  29
ATOM     29  C   UNL     1       1.235  -3.285   0.201  1.00  0.00     0.233 C 
BRANCH  29  30
ATOM     30  C   UNL     1       2.487  -3.195   1.181  1.00  0.00     0.038 C 
ATOM     31  C   UNL     1       2.025  -3.044   2.642  1.00  0.00     0.007 C 
ENDBRANCH  29  30
ENDBRANCH  28  29
ENDBRANCH  26  28
ENDBRANCH  18  26
ENDBRANCH  14  17
ENDBRANCH   8  13
ENDBRANCH   4   7
ENDBRANCH   2   3
ENDBRANCH   1   2
BRANCH   1  32
ATOM     32  C   UNL     1      -3.484  -1.801   3.368  1.00  0.00     0.002 C 
BRANCH  32  33
ATOM     33  C   UNL     1      -4.611  -2.838   3.421  1.00  0.00     0.002 C 
BRANCH  33  34
ATOM     34  C   UNL     1      -4.276  -4.060   4.278  1.00  0.00     0.021 C 
BRANCH  34  35
ATOM     35  C   UNL     1      -3.824  -3.692   5.678  1.00  0.00     0.116 C 
BRANCH  35  36
ATOM     36  N   UNL     1      -4.882  -2.995   6.381  1.00  0.00    -0.352 N 
ATOM     37  C   UNL     1      -5.522  -3.401   7.516  1.00  0.00     0.251 C 
ATOM     38  H   UNL     1      -5.171  -2.136   5.997  1.00  0.00     0.163 HD
ATOM     39  O   UNL     1      -6.624  -2.941   7.810  1.00  0.00    -0.269 OA
BRANCH  37  40
ATOM     40  C   UNL     1      -4.862  -4.403   8.370  1.00  0.00     0.039 A 
ATOM     41  C   UNL     1      -5.621  -5.441   8.903  1.00  0.00     0.014 A 
ATOM     42  C   UNL     1      -3.484  -4.321   8.614  1.00  0.00     0.014 A 
ATOM     43  C   UNL     1      -4.990  -6.407   9.680  1.00  0.00     0.010 A 
ATOM     44  C   UNL     1      -2.843  -5.343   9.299  1.00  0.00     0.010 A 
ATOM     45  C   UNL     1      -3.596  -6.376   9.867  1.00  0.00    -0.014 A 
BRANCH  45  46
ATOM     46  C   UNL     1      -2.935  -7.426  10.673  1.00  0.00     0.031 A 
ATOM     47  C   UNL     1      -2.231  -7.077  11.953  1.00  0.00     0.074 A 
ATOM     48  C   UNL     1      -2.971  -8.698  10.235  1.00  0.00     0.049 A 
ATOM     49  N   UNL     1      -1.689  -7.874  12.837  1.00  0.00    -0.248 NA
ATOM     50  C   UNL     1      -2.089  -5.647  12.271  1.00  0.00     0.031 C 
ATOM     51  C   UNL     1      -3.546  -9.133   8.960  1.00  0.00     0.029 A 
ATOM     52  N   UNL     1      -2.528  -9.856  10.815  1.00  0.00    -0.354 N 
ATOM     53  C   UNL     1      -1.143  -7.045  13.810  1.00  0.00     0.074 A 
ATOM     54  C   UNL     1      -1.353  -5.684  13.370  1.00  0.00     0.031 C 
ATOM     55  C   UNL     1      -3.463 -10.469   8.876  1.00  0.00     0.029 A 
ATOM     56  C   UNL     1      -2.802 -10.979  10.073  1.00  0.00     0.049 A 
ATOM     57  H   UNL     1      -2.059  -9.882  11.680  1.00  0.00     0.167 HD
ATOM     58  C   UNL     1      -0.547  -7.389  14.977  1.00  0.00     0.037 A 
ATOM     59  C   UNL     1      -2.556 -12.276  10.333  1.00  0.00     0.037 A 
ATOM     60  C   UNL     1      -0.345  -8.753  15.395  1.00  0.00     0.049 A 
ATOM     61  C   UNL     1      -1.932 -12.643  11.648  1.00  0.00     0.074 A 
ATOM     62  C   UNL     1       0.185  -9.222  16.582  1.00  0.00     0.029 A 
ATOM     63  N   UNL     1      -0.650  -9.870  14.626  1.00  0.00    -0.354 N 
ATOM     64  N   UNL     1      -1.513 -11.853  12.610  1.00  0.00    -0.248 NA
ATOM     65  C   UNL     1      -1.768 -14.073  11.924  1.00  0.00     0.031 C 
ATOM     66  C   UNL     1       0.260 -10.618  16.506  1.00  0.00     0.029 A 
ATOM     67  C   UNL     1      -0.288 -11.026  15.300  1.00  0.00     0.049 A 
ATOM     68  H   UNL     1      -1.064  -9.844  13.733  1.00  0.00     0.167 HD
ATOM     69  C   UNL     1      -1.040 -12.692  13.612  1.00  0.00     0.074 A 
ATOM     70  C   UNL     1      -1.257 -14.049  13.148  1.00  0.00     0.031 C 
ATOM     71  C   UNL     1      -0.479 -12.370  14.806  1.00  0.00     0.037 A 
BRANCH  58  72
ATOM     72  C   UNL     1      -0.059  -6.269  15.859  1.00  0.00     0.058 A 
ATOM     73  C   UNL     1      -0.942  -5.362  16.471  1.00  0.00     0.135 A 
ATOM     74  C   UNL     1       1.316  -6.085  16.081  1.00  0.00     0.135 A 
ATOM     75  F   UNL     1      -2.267  -5.478  16.286  1.00  0.00    -0.206 F 
ATOM     76  C   UNL     1      -0.479  -4.283  17.219  1.00  0.00     0.059 A 
ATOM     77  C   UNL     1       1.800  -5.035  16.856  1.00  0.00     0.059 A 
ATOM     78  F   UNL     1       2.208  -6.920  15.526  1.00  0.00    -0.206 F 
ATOM     79  C   UNL     1       0.895  -4.123  17.399  1.00  0.00     0.060 A 
BRANCH  79  80
ATOM     80  S   UNL     1       1.483  -2.698  18.337  1.00  0.00     0.124 S 
ATOM     81  O   UNL     1       1.230  -1.609  17.398  1.00  0.00    -0.237 OA
ATOM     82  O   UNL     1       0.627  -2.726  19.518  1.00  0.00    -0.237 OA
ATOM     83  O   UNL     1       2.889  -3.005  18.577  1.00  0.00    -0.744 OA
ENDBRANCH  79  80
ENDBRANCH  58  72
BRANCH  59  84
ATOM     84  C   UNL     1      -2.941 -13.299   9.328  1.00  0.00     0.058 A 
ATOM     85  C   UNL     1      -4.035 -14.151   9.533  1.00  0.00     0.135 A 
ATOM     86  C   UNL     1      -2.269 -13.380   8.097  1.00  0.00     0.135 A 
ATOM     87  F   UNL     1      -4.708 -14.113  10.693  1.00  0.00    -0.206 F 
ATOM     88  C   UNL     1      -4.456 -15.043   8.551  1.00  0.00     0.059 A 
ATOM     89  C   UNL     1      -2.687 -14.244   7.091  1.00  0.00     0.059 A 
ATOM     90  F   UNL     1      -1.229 -12.570   7.845  1.00  0.00    -0.206 F 
ATOM     91  C   UNL     1      -3.784 -15.071   7.327  1.00  0.00     0.060 A 
BRANCH  91  92
ATOM     92  S   UNL     1      -4.405 -16.152   6.021  1.00  0.00     0.124 S 
ATOM     93  O   UNL     1      -4.035 -17.469   6.526  1.00  0.00    -0.237 OA
ATOM     94  O   UNL     1      -5.831 -15.843   6.022  1.00  0.00    -0.237 OA
ATOM     95  O   UNL     1      -3.676 -15.701   4.838  1.00  0.00    -0.744 OA
ENDBRANCH  91  92
ENDBRANCH  59  84
BRANCH  71  96
ATOM     96  C   UNL     1      -0.064 -13.517  15.690  1.00  0.00     0.058 A 
ATOM     97  C   UNL     1       1.001 -14.367  15.348  1.00  0.00     0.135 A 
ATOM     98  C   UNL     1      -0.745 -13.773  16.891  1.00  0.00     0.135 A 
ATOM     99  F   UNL     1       1.686 -14.170  14.211  1.00  0.00    -0.206 F 
ATOM    100  C   UNL     1       1.336 -15.465  16.135  1.00  0.00     0.059 A 
ATOM    101  C   UNL     1      -0.402 -14.842  17.712  1.00  0.00     0.059 A 
ATOM    102  F   UNL     1      -1.758 -12.982  17.277  1.00  0.00    -0.206 F 
ATOM    103  C   UNL     1       0.622 -15.698  17.311  1.00  0.00     0.060 A 
BRANCH 103 104
ATOM    104  S   UNL     1       1.044 -17.143  18.307  1.00  0.00     0.124 S 
ATOM    105  O   UNL     1       0.492 -18.226  17.499  1.00  0.00    -0.237 OA
ATOM    106  O   UNL     1       2.501 -17.070  18.362  1.00  0.00    -0.237 OA
ATOM    107  O   UNL     1       0.361 -16.893  19.573  1.00  0.00    -0.744 OA
ENDBRANCH 103 104
ENDBRANCH  71  96
ENDBRANCH  45  46
ENDBRANCH  37  40
ENDBRANCH  35  36
ENDBRANCH  34  35
ENDBRANCH  33  34
ENDBRANCH  32  33
ENDBRANCH   1  32
TORSDOF 22
