REMARK SMILES Cc1ccccc1NC(=O)C[NH+]1CCC(CC(=O)NCCCCCCNC(=O)c2ccc(-c3c4nc(c(-c5c(F)cc(S(=O)(=O)[O-])cc5F)c5ccc([nH]5)c(-c5c(F)cc(S(=O)(=O)[O-])cc5F)c5nc(c(-c6c(F)cc(S(=O)(=O)[O-])cc6F)c6ccc3[nH]6)C=C5)C=C4)cc2)CC1
REMARK SMILES IDX 22 1 21 2 20 3 19 4 17 5 18 6 16 8 15 9 12 10 13 11 96 12
REMARK SMILES IDX 14 14 95 15 11 16 9 17 8 18 10 20 7 21 1 22 2 23 3 24 4 25
REMARK SMILES IDX 6 26 5 27 23 28 24 29 25 30 26 31 27 32 28 34 29 35 30 36
REMARK SMILES IDX 94 37 31 38 93 39 32 40 33 41 34 42 87 43 35 44 92 45 86 46
REMARK SMILES IDX 88 47 36 48 91 49 85 50 84 51 37 53 71 54 50 55 70 56 51 57
REMARK SMILES IDX 54 58 69 59 89 60 52 61 53 62 68 64 90 65 55 66 38 67 39 68
REMARK SMILES IDX 48 69 40 70 41 71 47 72 49 73 42 74 43 75 44 76 45 77 46 78
REMARK SMILES IDX 72 79 73 80 82 81 74 82 75 83 81 84 83 85 76 86 77 87 78 88
REMARK SMILES IDX 79 89 80 90 56 91 57 92 66 93 58 94 59 95 65 96 67 97 60 98
REMARK SMILES IDX 61 99 62 100 63 101 64 102
REMARK H PARENT 19 7 12 13 8 19 26 33 88 52 54 63
REMARK Flexibility Score: inf
ROOT
ATOM      1  C   UNL     1      -0.969   6.012  -7.267  1.00  0.00     0.002 C 
ENDROOT
BRANCH   1   2
ATOM      2  C   UNL     1      -1.315   5.004  -6.169  1.00  0.00     0.021 C 
BRANCH   2   3
ATOM      3  C   UNL     1      -2.045   3.741  -6.637  1.00  0.00     0.116 C 
BRANCH   3   4
ATOM      4  N   UNL     1      -1.125   2.641  -6.891  1.00  0.00    -0.356 N 
ATOM      5  C   UNL     1      -0.981   1.450  -6.242  1.00  0.00     0.220 C 
ATOM      6  O   UNL     1      -0.109   0.665  -6.621  1.00  0.00    -0.275 OA
ATOM      7  H   UNL     1      -0.512   2.778  -7.650  1.00  0.00     0.163 HD
BRANCH   5   8
ATOM      8  C   UNL     1      -1.885   1.098  -5.075  1.00  0.00     0.104 C 
BRANCH   8   9
ATOM      9  C   UNL     1      -1.291   1.444  -3.701  1.00  0.00     0.009 C 
ATOM     10  N   UNL     1      -1.499   2.884  -1.147  1.00  0.00    -0.327 N 
ATOM     11  C   UNL     1      -0.499   3.301  -2.130  1.00  0.00     0.262 C 
ATOM     12  C   UNL     1      -1.761   1.450  -1.222  1.00  0.00     0.262 C 
ATOM     13  H   UNL     1      -2.377   3.340  -1.394  1.00  0.00     0.348 HD
ATOM     14  C   UNL     1      -0.945   2.928  -3.542  1.00  0.00     0.066 C 
ATOM     15  C   UNL     1      -2.279   1.041  -2.598  1.00  0.00     0.066 C 
BRANCH  10  16
ATOM     16  C   UNL     1      -1.198   3.375   0.223  1.00  0.00     0.363 C 
BRANCH  16  17
ATOM     17  C   UNL     1       0.277   3.323   0.650  1.00  0.00     0.279 C 
ATOM     18  N   UNL     1       0.915   2.179   1.038  1.00  0.00    -0.321 N 
ATOM     19  H   UNL     1       1.863   2.298   1.274  1.00  0.00     0.170 HD
ATOM     20  O   UNL     1       0.977   4.340   0.559  1.00  0.00    -0.268 OA
BRANCH  18  21
ATOM     21  C   UNL     1       0.446   0.865   1.155  1.00  0.00     0.044 A 
ATOM     22  C   UNL     1       2.592  -0.012   0.040  1.00  0.00     0.046 C 
ATOM     23  C   UNL     1       1.215  -0.190   0.624  1.00  0.00    -0.027 A 
ATOM     24  C   UNL     1       0.660  -1.482   0.592  1.00  0.00     0.005 A 
ATOM     25  C   UNL     1      -0.615  -1.728   1.098  1.00  0.00     0.000 A 
ATOM     26  C   UNL     1      -0.793   0.588   1.742  1.00  0.00     0.026 A 
ATOM     27  C   UNL     1      -1.331  -0.699   1.698  1.00  0.00     0.002 A 
ENDBRANCH  18  21
ENDBRANCH  16  17
ENDBRANCH  10  16
ENDBRANCH   8   9
ENDBRANCH   5   8
ENDBRANCH   3   4
ENDBRANCH   2   3
ENDBRANCH   1   2
BRANCH   1  28
ATOM     28  C   UNL     1      -2.145   6.602  -8.060  1.00  0.00     0.002 C 
BRANCH  28  29
ATOM     29  C   UNL     1      -3.356   7.070  -7.250  1.00  0.00     0.021 C 
BRANCH  29  30
ATOM     30  C   UNL     1      -3.078   8.208  -6.283  1.00  0.00     0.116 C 
BRANCH  30  31
ATOM     31  N   UNL     1      -3.089   9.541  -6.864  1.00  0.00    -0.352 N 
ATOM     32  C   UNL     1      -3.544  10.583  -6.055  1.00  0.00     0.251 C 
ATOM     33  H   UNL     1      -2.788   9.702  -7.787  1.00  0.00     0.163 HD
ATOM     34  O   UNL     1      -4.703  10.942  -5.955  1.00  0.00    -0.269 OA
BRANCH  32  35
ATOM     35  C   UNL     1      -2.527  11.003  -5.065  1.00  0.00     0.039 A 
ATOM     36  C   UNL     1      -1.610  12.016  -5.338  1.00  0.00     0.014 A 
ATOM     37  C   UNL     1      -2.359  10.144  -3.976  1.00  0.00     0.014 A 
ATOM     38  C   UNL     1      -0.436  12.084  -4.583  1.00  0.00     0.010 A 
ATOM     39  C   UNL     1      -1.164  10.161  -3.293  1.00  0.00     0.010 A 
ATOM     40  C   UNL     1      -0.182  11.105  -3.621  1.00  0.00    -0.014 A 
BRANCH  40  41
ATOM     41  C   UNL     1       1.090  10.916  -2.928  1.00  0.00     0.031 A 
ATOM     42  C   UNL     1       1.204  11.228  -1.487  1.00  0.00     0.074 A 
ATOM     43  C   UNL     1       2.087  10.249  -3.547  1.00  0.00     0.049 A 
ATOM     44  N   UNL     1       2.301  11.203  -0.808  1.00  0.00    -0.248 NA
ATOM     45  C   UNL     1       0.058  11.662  -0.701  1.00  0.00     0.031 C 
ATOM     46  C   UNL     1       3.209   9.559  -2.921  1.00  0.00     0.029 A 
ATOM     47  N   UNL     1       2.398  10.258  -4.908  1.00  0.00    -0.354 N 
ATOM     48  C   UNL     1       1.980  11.319   0.527  1.00  0.00     0.074 A 
ATOM     49  C   UNL     1       0.590  11.708   0.523  1.00  0.00     0.031 C 
ATOM     50  C   UNL     1       4.198   9.437  -3.818  1.00  0.00     0.029 A 
ATOM     51  C   UNL     1       3.808  10.196  -4.992  1.00  0.00     0.049 A 
ATOM     52  H   UNL     1       1.764  10.300  -5.659  1.00  0.00     0.167 HD
ATOM     53  C   UNL     1       2.907  10.949   1.463  1.00  0.00     0.037 A 
ATOM     54  C   UNL     1       4.513  11.251  -5.504  1.00  0.00     0.037 A 
ATOM     55  C   UNL     1       4.225  10.747   0.843  1.00  0.00     0.049 A 
ATOM     56  C   UNL     1       5.437  11.942  -4.519  1.00  0.00     0.074 A 
ATOM     57  C   UNL     1       4.999   9.651   0.495  1.00  0.00     0.029 A 
ATOM     58  N   UNL     1       4.834  11.836   0.241  1.00  0.00    -0.354 N 
ATOM     59  N   UNL     1       5.590  11.593  -3.270  1.00  0.00    -0.248 NA
ATOM     60  C   UNL     1       6.215  13.136  -4.856  1.00  0.00     0.031 C 
ATOM     61  C   UNL     1       6.058  10.100  -0.353  1.00  0.00     0.029 A 
ATOM     62  C   UNL     1       5.930  11.468  -0.514  1.00  0.00     0.049 A 
ATOM     63  H   UNL     1       4.523  12.765   0.341  1.00  0.00     0.167 HD
ATOM     64  C   UNL     1       6.378  12.515  -2.631  1.00  0.00     0.074 A 
ATOM     65  C   UNL     1       6.771  13.446  -3.672  1.00  0.00     0.031 C 
ATOM     66  C   UNL     1       6.616  12.492  -1.288  1.00  0.00     0.037 A 
BRANCH  53  67
ATOM     67  C   UNL     1       2.590  10.561   2.906  1.00  0.00     0.058 A 
ATOM     68  C   UNL     1       3.499   9.777   3.656  1.00  0.00     0.135 A 
ATOM     69  C   UNL     1       1.390  10.842   3.592  1.00  0.00     0.135 A 
ATOM     70  F   UNL     1       4.727   9.495   3.196  1.00  0.00    -0.206 F 
ATOM     71  C   UNL     1       3.197   9.235   4.913  1.00  0.00     0.059 A 
ATOM     72  C   UNL     1       1.049  10.284   4.827  1.00  0.00     0.059 A 
ATOM     73  F   UNL     1       0.494  11.717   3.136  1.00  0.00    -0.206 F 
ATOM     74  C   UNL     1       1.952   9.465   5.477  1.00  0.00     0.060 A 
BRANCH  74  75
ATOM     75  S   UNL     1       1.531   8.709   7.057  1.00  0.00     0.124 S 
ATOM     76  O   UNL     1       1.674   7.286   6.765  1.00  0.00    -0.237 OA
ATOM     77  O   UNL     1       2.535   9.281   7.948  1.00  0.00    -0.237 OA
ATOM     78  O   UNL     1       0.161   9.156   7.296  1.00  0.00    -0.744 OA
ENDBRANCH  74  75
ENDBRANCH  53  67
BRANCH  54  79
ATOM     79  C   UNL     1       3.792  11.903  -6.635  1.00  0.00     0.058 A 
ATOM     80  C   UNL     1       3.600  11.135  -7.801  1.00  0.00     0.135 A 
ATOM     81  C   UNL     1       2.910  12.968  -6.406  1.00  0.00     0.135 A 
ATOM     82  F   UNL     1       4.439  10.125  -8.084  1.00  0.00    -0.206 F 
ATOM     83  C   UNL     1       2.460  11.273  -8.584  1.00  0.00     0.059 A 
ATOM     84  C   UNL     1       1.769  13.137  -7.193  1.00  0.00     0.059 A 
ATOM     85  F   UNL     1       3.052  13.743  -5.321  1.00  0.00    -0.206 F 
ATOM     86  C   UNL     1       1.508  12.220  -8.212  1.00  0.00     0.060 A 
BRANCH  86  87
ATOM     87  S   UNL     1      -0.140  12.107  -8.953  1.00  0.00     0.124 S 
ATOM     88  O   UNL     1       0.165  12.045 -10.378  1.00  0.00    -0.237 OA
ATOM     89  O   UNL     1      -0.657  10.871  -8.359  1.00  0.00    -0.237 OA
ATOM     90  O   UNL     1      -0.793  13.331  -8.502  1.00  0.00    -0.744 OA
ENDBRANCH  86  87
ENDBRANCH  54  79
BRANCH  66  91
ATOM     91  C   UNL     1       7.510  13.484  -0.596  1.00  0.00     0.058 A 
ATOM     92  C   UNL     1       8.803  13.774  -1.061  1.00  0.00     0.135 A 
ATOM     93  C   UNL     1       7.140  14.081   0.628  1.00  0.00     0.135 A 
ATOM     94  F   UNL     1       9.262  13.220  -2.195  1.00  0.00    -0.206 F 
ATOM     95  C   UNL     1       9.664  14.631  -0.374  1.00  0.00     0.059 A 
ATOM     96  C   UNL     1       7.999  14.900   1.355  1.00  0.00     0.059 A 
ATOM     97  F   UNL     1       5.913  13.909   1.143  1.00  0.00    -0.206 F 
ATOM     98  C   UNL     1       9.254  15.187   0.836  1.00  0.00     0.060 A 
BRANCH  98  99
ATOM     99  S   UNL     1      10.376  16.266   1.748  1.00  0.00     0.124 S 
ATOM    100  O   UNL     1      11.684  15.678   1.471  1.00  0.00    -0.237 OA
ATOM    101  O   UNL     1      10.118  17.555   1.115  1.00  0.00    -0.237 OA
ATOM    102  O   UNL     1       9.920  16.138   3.128  1.00  0.00    -0.744 OA
ENDBRANCH  98  99
ENDBRANCH  66  91
ENDBRANCH  40  41
ENDBRANCH  32  35
ENDBRANCH  30  31
ENDBRANCH  29  30
ENDBRANCH  28  29
ENDBRANCH   1  28
TORSDOF 20
