REMARK SMILES CCOc1ccc(C[N@H+]2CC[NH2+][C@H](C(=O)NCCCCCCNC(=O)c3ccc(-c4c5nc(c(-c6c(F)cc(S(=O)(=O)[O-])cc6F)c6ccc([nH]6)c(-c6c(F)cc(S(=O)(=O)[O-])cc6F)c6nc(c(-c7c(F)cc(S(=O)(=O)[O-])cc7F)c7ccc4[nH]7)C=C6)C=C5)cc3)C2)c(OCC)c1C
REMARK SMILES IDX 19 1 18 2 17 3 16 4 14 5 15 6 13 8 9 9 10 10 92 11 11 13
REMARK SMILES IDX 12 14 8 17 7 18 4 19 5 20 97 21 6 22 93 23 98 24 3 25 2 26
REMARK SMILES IDX 1 27 94 28 95 29 96 30 20 31 21 32 22 33 23 34 24 35 25 37
REMARK SMILES IDX 26 38 27 39 91 40 28 41 90 42 29 43 30 44 31 45 84 46 32 47
REMARK SMILES IDX 89 48 83 49 85 50 33 51 88 52 82 53 81 54 34 56 68 57 47 58
REMARK SMILES IDX 67 59 48 60 51 61 66 62 86 63 49 64 50 65 65 67 87 68 52 69
REMARK SMILES IDX 35 70 36 71 45 72 37 73 38 74 44 75 46 76 39 77 40 78 41 79
REMARK SMILES IDX 42 80 43 81 69 82 70 83 79 84 71 85 72 86 78 87 80 88 73 89
REMARK SMILES IDX 74 90 75 91 76 92 77 93 53 94 54 95 63 96 55 97 56 98 62 99
REMARK SMILES IDX 64 100 57 101 58 102 59 103 60 104 61 105
REMARK H PARENT 16 7 9 12 12 15 12 16 23 36 85 55 51 66
REMARK Flexibility Score: inf
ROOT
ATOM      1  C   UNL     1       5.389 -10.520  -3.305  1.00  0.00     0.002 C 
ENDROOT
BRANCH   1   2
ATOM      2  C   UNL     1       5.405  -9.134  -2.661  1.00  0.00     0.021 C 
BRANCH   2   3
ATOM      3  C   UNL     1       6.420  -8.140  -3.216  1.00  0.00     0.116 C 
BRANCH   3   4
ATOM      4  N   UNL     1       6.061  -7.579  -4.502  1.00  0.00    -0.351 N 
ATOM      5  C   UNL     1       5.761  -6.289  -4.848  1.00  0.00     0.284 C 
ATOM      6  O   UNL     1       5.773  -6.003  -6.051  1.00  0.00    -0.268 OA
ATOM      7  H   UNL     1       6.028  -8.226  -5.243  1.00  0.00     0.163 HD
BRANCH   5   8
ATOM      8  C   UNL     1       5.477  -5.211  -3.783  1.00  0.00     0.328 C 
ATOM      9  N   UNL     1       6.656  -3.830  -1.974  1.00  0.00    -0.321 N 
ATOM     10  C   UNL     1       5.605  -4.325  -1.066  1.00  0.00     0.324 C 
ATOM     11  C   UNL     1       6.797  -4.731  -3.125  1.00  0.00     0.339 C 
ATOM     12  H   UNL     1       7.522  -3.873  -1.437  1.00  0.00     0.348 HD
ATOM     13  C   UNL     1       4.267  -4.732  -1.735  1.00  0.00     0.323 C 
ATOM     14  N   UNL     1       4.413  -5.667  -2.855  1.00  0.00    -0.327 N 
ATOM     15  H   UNL     1       3.529  -5.723  -3.361  1.00  0.00     0.347 HD
ATOM     16  H   UNL     1       4.668  -6.583  -2.487  1.00  0.00     0.347 HD
BRANCH   9  17
ATOM     17  C   UNL     1       6.675  -2.386  -2.279  1.00  0.00     0.303 C 
BRANCH  17  18
ATOM     18  C   UNL     1       5.339  -1.681  -2.422  1.00  0.00     0.049 A 
ATOM     19  C   UNL     1       2.595  -1.154  -2.112  1.00  0.00     0.125 A 
ATOM     20  C   UNL     1       3.447  -0.966  -1.036  1.00  0.00     0.047 A 
ATOM     21  C   UNL     1       3.114  -1.468  -3.381  1.00  0.00     0.034 A 
ATOM     22  C   UNL     1       4.804  -1.210  -1.196  1.00  0.00     0.017 A 
ATOM     23  C   UNL     1       4.516  -1.658  -3.562  1.00  0.00     0.134 A 
ATOM     24  C   UNL     1       2.167  -1.810  -4.509  1.00  0.00     0.052 C 
BRANCH  19  25
ATOM     25  O   UNL     1       1.250  -1.269  -1.877  1.00  0.00    -0.493 OA
BRANCH  25  26
ATOM     26  C   UNL     1       0.585  -0.027  -1.643  1.00  0.00     0.226 C 
ATOM     27  C   UNL     1       0.519   0.314  -0.163  1.00  0.00     0.049 C 
ENDBRANCH  25  26
ENDBRANCH  19  25
BRANCH  23  28
ATOM     28  O   UNL     1       4.843  -1.870  -4.871  1.00  0.00    -0.493 OA
BRANCH  28  29
ATOM     29  C   UNL     1       6.159  -1.963  -5.388  1.00  0.00     0.226 C 
ATOM     30  C   UNL     1       6.933  -0.659  -5.392  1.00  0.00     0.049 C 
ENDBRANCH  28  29
ENDBRANCH  23  28
ENDBRANCH  17  18
ENDBRANCH   9  17
ENDBRANCH   5   8
ENDBRANCH   3   4
ENDBRANCH   2   3
ENDBRANCH   1   2
BRANCH   1  31
ATOM     31  C   UNL     1       6.733 -11.246  -3.482  1.00  0.00     0.002 C 
BRANCH  31  32
ATOM     32  C   UNL     1       7.746 -11.186  -2.333  1.00  0.00     0.021 C 
BRANCH  32  33
ATOM     33  C   UNL     1       7.251 -11.722  -1.006  1.00  0.00     0.116 C 
BRANCH  33  34
ATOM     34  N   UNL     1       7.617 -13.096  -0.713  1.00  0.00    -0.352 N 
ATOM     35  C   UNL     1       7.803 -13.448   0.628  1.00  0.00     0.251 C 
ATOM     36  H   UNL     1       7.729 -13.757  -1.434  1.00  0.00     0.163 HD
ATOM     37  O   UNL     1       8.866 -13.509   1.196  1.00  0.00    -0.269 OA
BRANCH  35  38
ATOM     38  C   UNL     1       6.524 -13.476   1.379  1.00  0.00     0.039 A 
ATOM     39  C   UNL     1       5.787 -14.652   1.503  1.00  0.00     0.014 A 
ATOM     40  C   UNL     1       5.970 -12.232   1.684  1.00  0.00     0.014 A 
ATOM     41  C   UNL     1       4.429 -14.566   1.810  1.00  0.00     0.010 A 
ATOM     42  C   UNL     1       4.612 -12.143   1.875  1.00  0.00     0.010 A 
ATOM     43  C   UNL     1       3.836 -13.308   1.916  1.00  0.00    -0.014 A 
BRANCH  43  44
ATOM     44  C   UNL     1       2.405 -13.068   2.041  1.00  0.00     0.031 A 
ATOM     45  C   UNL     1       1.852 -12.617   3.338  1.00  0.00     0.074 A 
ATOM     46  C   UNL     1       1.639 -13.059   0.929  1.00  0.00     0.049 A 
ATOM     47  N   UNL     1       0.600 -12.621   3.643  1.00  0.00    -0.248 NA
ATOM     48  C   UNL     1       2.700 -12.136   4.424  1.00  0.00     0.031 C 
ATOM     49  C   UNL     1       0.323 -12.450   0.766  1.00  0.00     0.029 A 
ATOM     50  N   UNL     1       1.838 -13.775  -0.251  1.00  0.00    -0.354 N 
ATOM     51  C   UNL     1       0.445 -11.901   4.808  1.00  0.00     0.074 A 
ATOM     52  C   UNL     1       1.790 -11.667   5.281  1.00  0.00     0.031 C 
ATOM     53  C   UNL     1      -0.279 -12.991  -0.304  1.00  0.00     0.029 A 
ATOM     54  C   UNL     1       0.563 -14.083  -0.763  1.00  0.00     0.049 A 
ATOM     55  H   UNL     1       2.704 -14.020  -0.650  1.00  0.00     0.167 HD
ATOM     56  C   UNL     1      -0.800 -11.468   5.166  1.00  0.00     0.037 A 
ATOM     57  C   UNL     1       0.147 -15.382  -0.862  1.00  0.00     0.037 A 
ATOM     58  C   UNL     1      -1.810 -11.976   4.236  1.00  0.00     0.049 A 
ATOM     59  C   UNL     1      -1.051 -15.703   0.002  1.00  0.00     0.074 A 
ATOM     60  C   UNL     1      -2.426 -11.414   3.130  1.00  0.00     0.029 A 
ATOM     61  N   UNL     1      -2.072 -13.342   4.180  1.00  0.00    -0.354 N 
ATOM     62  N   UNL     1      -1.433 -14.985   1.023  1.00  0.00    -0.248 NA
ATOM     63  C   UNL     1      -1.919 -16.855  -0.223  1.00  0.00     0.031 C 
ATOM     64  C   UNL     1      -3.002 -12.459   2.368  1.00  0.00     0.029 A 
ATOM     65  C   UNL     1      -2.756 -13.655   3.020  1.00  0.00     0.049 A 
ATOM     66  H   UNL     1      -1.809 -13.993   4.870  1.00  0.00     0.167 HD
ATOM     67  C   UNL     1      -2.540 -15.555   1.600  1.00  0.00     0.074 A 
ATOM     68  C   UNL     1      -2.818 -16.710   0.767  1.00  0.00     0.031 C 
ATOM     69  C   UNL     1      -3.134 -15.028   2.714  1.00  0.00     0.037 A 
BRANCH  56  70
ATOM     70  C   UNL     1      -1.051 -10.347   6.159  1.00  0.00     0.058 A 
ATOM     71  C   UNL     1      -2.153  -9.475   6.003  1.00  0.00     0.135 A 
ATOM     72  C   UNL     1      -0.213 -10.034   7.248  1.00  0.00     0.135 A 
ATOM     73  F   UNL     1      -3.100  -9.697   5.082  1.00  0.00    -0.206 F 
ATOM     74  C   UNL     1      -2.335  -8.326   6.776  1.00  0.00     0.059 A 
ATOM     75  C   UNL     1      -0.341  -8.860   8.001  1.00  0.00     0.059 A 
ATOM     76  F   UNL     1       0.735 -10.885   7.662  1.00  0.00    -0.206 F 
ATOM     77  C   UNL     1      -1.401  -8.002   7.748  1.00  0.00     0.060 A 
BRANCH  77  78
ATOM     78  S   UNL     1      -1.603  -6.467   8.672  1.00  0.00     0.124 S 
ATOM     79  O   UNL     1      -1.691  -5.474   7.606  1.00  0.00    -0.237 OA
ATOM     80  O   UNL     1      -2.837  -6.717   9.410  1.00  0.00    -0.237 OA
ATOM     81  O   UNL     1      -0.392  -6.396   9.484  1.00  0.00    -0.744 OA
ENDBRANCH  77  78
ENDBRANCH  56  70
BRANCH  57  82
ATOM     82  C   UNL     1       1.261 -16.316  -1.196  1.00  0.00     0.058 A 
ATOM     83  C   UNL     1       1.849 -16.183  -2.469  1.00  0.00     0.135 A 
ATOM     84  C   UNL     1       2.030 -16.915  -0.187  1.00  0.00     0.135 A 
ATOM     85  F   UNL     1       1.144 -15.648  -3.480  1.00  0.00    -0.206 F 
ATOM     86  C   UNL     1       3.202 -16.433  -2.679  1.00  0.00     0.059 A 
ATOM     87  C   UNL     1       3.387 -17.188  -0.382  1.00  0.00     0.059 A 
ATOM     88  F   UNL     1       1.521 -17.085   1.041  1.00  0.00    -0.206 F 
ATOM     89  C   UNL     1       3.978 -16.851  -1.601  1.00  0.00     0.060 A 
BRANCH  89  90
ATOM     90  S   UNL     1       5.779 -16.765  -1.768  1.00  0.00     0.124 S 
ATOM     91  O   UNL     1       6.011 -17.507  -3.002  1.00  0.00    -0.237 OA
ATOM     92  O   UNL     1       6.010 -15.320  -1.843  1.00  0.00    -0.237 OA
ATOM     93  O   UNL     1       6.261 -17.404  -0.549  1.00  0.00    -0.744 OA
ENDBRANCH  89  90
ENDBRANCH  57  82
BRANCH  69  94
ATOM     94  C   UNL     1      -4.204 -15.697   3.551  1.00  0.00     0.058 A 
ATOM     95  C   UNL     1      -4.365 -17.088   3.661  1.00  0.00     0.135 A 
ATOM     96  C   UNL     1      -5.041 -14.924   4.396  1.00  0.00     0.135 A 
ATOM     97  F   UNL     1      -3.553 -17.939   3.018  1.00  0.00    -0.206 F 
ATOM     98  C   UNL     1      -5.338 -17.671   4.477  1.00  0.00     0.059 A 
ATOM     99  C   UNL     1      -5.977 -15.486   5.262  1.00  0.00     0.059 A 
ATOM    100  F   UNL     1      -4.968 -13.585   4.423  1.00  0.00    -0.206 F 
ATOM    101  C   UNL     1      -6.143 -16.862   5.272  1.00  0.00     0.060 A 
BRANCH 101 102
ATOM    102  S   UNL     1      -7.365 -17.607   6.366  1.00  0.00     0.124 S 
ATOM    103  O   UNL     1      -8.547 -17.626   5.511  1.00  0.00    -0.237 OA
ATOM    104  O   UNL     1      -6.783 -18.912   6.665  1.00  0.00    -0.237 OA
ATOM    105  O   UNL     1      -7.412 -16.679   7.492  1.00  0.00    -0.744 OA
ENDBRANCH 101 102
ENDBRANCH  69  94
ENDBRANCH  43  44
ENDBRANCH  35  38
ENDBRANCH  33  34
ENDBRANCH  32  33
ENDBRANCH  31  32
ENDBRANCH   1  31
TORSDOF 22
