REMARK SMILES CC[C@@H](C)c1ccccc1NC(=O)[C@@H]1[C@@H](C(=O)NCCCCCCNC(=O)c2ccc(-c3c4nc(c(-c5c(F)cc(S(=O)(=O)[O-])cc5F)c5ccc([nH]5)c(-c5c(F)cc(S(=O)(=O)[O-])cc5F)c5nc(c(-c6c(F)cc(S(=O)(=O)[O-])cc6F)c6ccc3[nH]6)C=C5)C=C4)cc2)[C@@H]2C=C[C@H]1C2
REMARK SMILES IDX 21 1 20 2 19 3 18 4 16 5 17 6 15 8 14 9 97 10 94 11 96 12
REMARK SMILES IDX 98 13 95 14 12 15 11 16 13 18 10 19 5 20 6 21 7 22 9 23 8 24
REMARK SMILES IDX 3 25 4 26 2 27 1 28 22 29 23 30 24 31 25 32 26 33 27 35
REMARK SMILES IDX 28 36 29 37 93 38 30 39 92 40 31 41 32 42 33 43 86 44 34 45
REMARK SMILES IDX 91 46 85 47 87 48 35 49 90 50 84 51 83 52 36 54 70 55 49 56
REMARK SMILES IDX 69 57 50 58 53 59 68 60 88 61 51 62 52 63 67 65 89 66 54 67
REMARK SMILES IDX 37 68 38 69 47 70 39 71 40 72 46 73 48 74 41 75 42 76 43 77
REMARK SMILES IDX 44 78 45 79 71 80 72 81 81 82 73 83 74 84 80 85 82 86 75 87
REMARK SMILES IDX 76 88 77 89 78 90 79 91 55 92 56 93 65 94 57 95 58 96 64 97
REMARK SMILES IDX 66 98 59 99 60 100 61 101 62 102 63 103
REMARK H PARENT 18 7 11 17 25 34 87 53 53 64
REMARK Flexibility Score: inf
ROOT
ATOM      1  C   UNL     1       5.093 -10.270   1.350  1.00  0.00     0.002 C 
ENDROOT
BRANCH   1   2
ATOM      2  C   UNL     1       4.685  -8.800   1.173  1.00  0.00     0.021 C 
BRANCH   2   3
ATOM      3  C   UNL     1       4.663  -8.325  -0.280  1.00  0.00     0.116 C 
BRANCH   3   4
ATOM      4  N   UNL     1       3.650  -9.035  -1.027  1.00  0.00    -0.356 N 
ATOM      5  C   UNL     1       2.512  -8.596  -1.616  1.00  0.00     0.224 C 
ATOM      6  O   UNL     1       1.794  -9.460  -2.127  1.00  0.00    -0.275 OA
ATOM      7  H   UNL     1       3.814 -10.001  -1.124  1.00  0.00     0.163 HD
BRANCH   5   8
ATOM      8  C   UNL     1       2.176  -7.106  -1.690  1.00  0.00     0.098 C 
ATOM      9  C   UNL     1       1.785  -6.440  -0.310  1.00  0.00     0.099 C 
ATOM     10  C   UNL     1       0.306  -6.015  -0.571  1.00  0.00     0.025 C 
ATOM     11  C   UNL     1       0.864  -6.947  -2.515  1.00  0.00     0.025 C 
ATOM     12  C   UNL     1       0.267  -4.925  -1.616  1.00  0.00    -0.027 C 
ATOM     13  C   UNL     1      -0.200  -7.167  -1.433  1.00  0.00     0.017 C 
ATOM     14  C   UNL     1       0.627  -5.480  -2.780  1.00  0.00    -0.027 C 
BRANCH   9  15
ATOM     15  C   UNL     1       2.697  -5.257   0.069  1.00  0.00     0.228 C 
ATOM     16  N   UNL     1       2.380  -4.394   1.088  1.00  0.00    -0.326 N 
ATOM     17  H   UNL     1       3.000  -3.640   1.209  1.00  0.00     0.169 HD
ATOM     18  O   UNL     1       3.739  -5.021  -0.550  1.00  0.00    -0.274 OA
BRANCH  16  19
ATOM     19  C   UNL     1       1.300  -4.431   1.983  1.00  0.00     0.044 A 
ATOM     20  C   UNL     1       0.559  -3.261   2.253  1.00  0.00    -0.022 A 
ATOM     21  C   UNL     1      -0.681  -3.419   2.905  1.00  0.00     0.006 A 
ATOM     22  C   UNL     1      -1.093  -4.657   3.403  1.00  0.00     0.000 A 
ATOM     23  C   UNL     1       0.932  -5.646   2.579  1.00  0.00     0.026 A 
ATOM     24  C   UNL     1      -0.261  -5.760   3.287  1.00  0.00     0.002 A 
BRANCH  20  25
ATOM     25  C   UNL     1       1.022  -1.860   1.841  1.00  0.00     0.018 C 
ATOM     26  C   UNL     1       0.707  -0.814   2.925  1.00  0.00     0.013 C 
BRANCH  25  27
ATOM     27  C   UNL     1       0.461  -1.458   0.464  1.00  0.00     0.005 C 
ATOM     28  C   UNL     1       0.870  -0.060   0.012  1.00  0.00     0.004 C 
ENDBRANCH  25  27
ENDBRANCH  20  25
ENDBRANCH  16  19
ENDBRANCH   9  15
ENDBRANCH   5   8
ENDBRANCH   3   4
ENDBRANCH   2   3
ENDBRANCH   1   2
BRANCH   1  29
ATOM     29  C   UNL     1       6.458 -10.646   0.763  1.00  0.00     0.002 C 
BRANCH  29  30
ATOM     30  C   UNL     1       7.632  -9.787   1.239  1.00  0.00     0.021 C 
BRANCH  30  31
ATOM     31  C   UNL     1       7.842  -9.763   2.750  1.00  0.00     0.116 C 
BRANCH  31  32
ATOM     32  N   UNL     1       8.162 -11.077   3.281  1.00  0.00    -0.352 N 
ATOM     33  C   UNL     1       9.183 -11.454   4.113  1.00  0.00     0.251 C 
ATOM     34  H   UNL     1       7.558 -11.802   3.001  1.00  0.00     0.163 HD
ATOM     35  O   UNL     1       9.399 -12.653   4.301  1.00  0.00    -0.269 OA
BRANCH  33  36
ATOM     36  C   UNL     1      10.036 -10.440   4.771  1.00  0.00     0.039 A 
ATOM     37  C   UNL     1      11.415 -10.661   4.828  1.00  0.00     0.014 A 
ATOM     38  C   UNL     1       9.488  -9.296   5.361  1.00  0.00     0.014 A 
ATOM     39  C   UNL     1      12.245  -9.718   5.436  1.00  0.00     0.010 A 
ATOM     40  C   UNL     1      10.324  -8.326   5.915  1.00  0.00     0.010 A 
ATOM     41  C   UNL     1      11.710  -8.531   5.966  1.00  0.00    -0.014 A 
BRANCH  41  42
ATOM     42  C   UNL     1      12.604  -7.507   6.563  1.00  0.00     0.031 A 
ATOM     43  C   UNL     1      12.555  -7.208   8.037  1.00  0.00     0.074 A 
ATOM     44  C   UNL     1      13.450  -6.827   5.765  1.00  0.00     0.049 A 
ATOM     45  N   UNL     1      13.290  -6.381   8.735  1.00  0.00    -0.248 NA
ATOM     46  C   UNL     1      11.533  -7.913   8.826  1.00  0.00     0.031 C 
ATOM     47  C   UNL     1      13.543  -6.976   4.310  1.00  0.00     0.029 A 
ATOM     48  N   UNL     1      14.397  -5.880   6.062  1.00  0.00    -0.354 N 
ATOM     49  C   UNL     1      12.820  -6.461  10.040  1.00  0.00     0.074 A 
ATOM     50  C   UNL     1      11.701  -7.379  10.028  1.00  0.00     0.031 C 
ATOM     51  C   UNL     1      14.515  -6.174   3.847  1.00  0.00     0.029 A 
ATOM     52  C   UNL     1      15.102  -5.444   4.966  1.00  0.00     0.049 A 
ATOM     53  H   UNL     1      14.556  -5.544   6.973  1.00  0.00     0.167 HD
ATOM     54  C   UNL     1      13.292  -5.845  11.152  1.00  0.00     0.037 A 
ATOM     55  C   UNL     1      16.119  -4.565   4.874  1.00  0.00     0.037 A 
ATOM     56  C   UNL     1      14.420  -4.949  11.163  1.00  0.00     0.049 A 
ATOM     57  C   UNL     1      16.654  -3.929   6.127  1.00  0.00     0.074 A 
ATOM     58  C   UNL     1      15.014  -4.323  12.246  1.00  0.00     0.029 A 
ATOM     59  N   UNL     1      15.126  -4.551  10.037  1.00  0.00    -0.354 N 
ATOM     60  N   UNL     1      16.245  -4.075   7.364  1.00  0.00    -0.248 NA
ATOM     61  C   UNL     1      17.799  -3.023   5.971  1.00  0.00     0.031 C 
ATOM     62  C   UNL     1      16.060  -3.522  11.771  1.00  0.00     0.029 A 
ATOM     63  C   UNL     1      16.141  -3.678  10.396  1.00  0.00     0.049 A 
ATOM     64  H   UNL     1      14.935  -4.846   9.118  1.00  0.00     0.167 HD
ATOM     65  C   UNL     1      17.092  -3.289   8.138  1.00  0.00     0.074 A 
ATOM     66  C   UNL     1      18.049  -2.690   7.230  1.00  0.00     0.031 C 
ATOM     67  C   UNL     1      17.077  -3.081   9.478  1.00  0.00     0.037 A 
BRANCH  54  68
ATOM     68  C   UNL     1      12.591  -6.130  12.452  1.00  0.00     0.058 A 
ATOM     69  C   UNL     1      12.709  -7.374  13.092  1.00  0.00     0.135 A 
ATOM     70  C   UNL     1      11.814  -5.143  13.080  1.00  0.00     0.135 A 
ATOM     71  F   UNL     1      13.428  -8.358  12.528  1.00  0.00    -0.206 F 
ATOM     72  C   UNL     1      12.058  -7.641  14.292  1.00  0.00     0.059 A 
ATOM     73  C   UNL     1      11.173  -5.380  14.293  1.00  0.00     0.059 A 
ATOM     74  F   UNL     1      11.668  -3.935  12.513  1.00  0.00    -0.206 F 
ATOM     75  C   UNL     1      11.288  -6.638  14.883  1.00  0.00     0.060 A 
BRANCH  75  76
ATOM     76  S   UNL     1      10.445  -6.998  16.439  1.00  0.00     0.124 S 
ATOM     77  O   UNL     1       9.331  -7.822  15.981  1.00  0.00    -0.237 OA
ATOM     78  O   UNL     1      11.476  -7.696  17.201  1.00  0.00    -0.237 OA
ATOM     79  O   UNL     1      10.084  -5.677  16.943  1.00  0.00    -0.744 OA
ENDBRANCH  75  76
ENDBRANCH  54  68
BRANCH  55  80
ATOM     80  C   UNL     1      16.727  -4.275   3.550  1.00  0.00     0.058 A 
ATOM     81  C   UNL     1      17.995  -4.773   3.215  1.00  0.00     0.135 A 
ATOM     82  C   UNL     1      16.046  -3.515   2.588  1.00  0.00     0.135 A 
ATOM     83  F   UNL     1      18.685  -5.501   4.106  1.00  0.00    -0.206 F 
ATOM     84  C   UNL     1      18.574  -4.516   1.977  1.00  0.00     0.059 A 
ATOM     85  C   UNL     1      16.595  -3.263   1.335  1.00  0.00     0.059 A 
ATOM     86  F   UNL     1      14.822  -3.032   2.855  1.00  0.00    -0.206 F 
ATOM     87  C   UNL     1      17.865  -3.761   1.042  1.00  0.00     0.060 A 
BRANCH  87  88
ATOM     88  S   UNL     1      18.598  -3.480  -0.584  1.00  0.00     0.124 S 
ATOM     89  O   UNL     1      19.581  -2.444  -0.288  1.00  0.00    -0.237 OA
ATOM     90  O   UNL     1      19.137  -4.797  -0.912  1.00  0.00    -0.237 OA
ATOM     91  O   UNL     1      17.459  -3.059  -1.395  1.00  0.00    -0.744 OA
ENDBRANCH  87  88
ENDBRANCH  55  80
BRANCH  67  92
ATOM     92  C   UNL     1      18.138  -2.172  10.034  1.00  0.00     0.058 A 
ATOM     93  C   UNL     1      18.092  -0.784   9.834  1.00  0.00     0.135 A 
ATOM     94  C   UNL     1      19.210  -2.695  10.774  1.00  0.00     0.135 A 
ATOM     95  F   UNL     1      17.090  -0.235   9.129  1.00  0.00    -0.206 F 
ATOM     96  C   UNL     1      19.096   0.052  10.311  1.00  0.00     0.059 A 
ATOM     97  C   UNL     1      20.212  -1.875  11.283  1.00  0.00     0.059 A 
ATOM     98  F   UNL     1      19.293  -4.015  11.005  1.00  0.00    -0.206 F 
ATOM     99  C   UNL     1      20.157  -0.505  11.027  1.00  0.00     0.060 A 
BRANCH  99 100
ATOM    100  S   UNL     1      21.463   0.584  11.636  1.00  0.00     0.124 S 
ATOM    101  O   UNL     1      22.253   0.796  10.427  1.00  0.00    -0.237 OA
ATOM    102  O   UNL     1      20.713   1.741  12.114  1.00  0.00    -0.237 OA
ATOM    103  O   UNL     1      22.107  -0.211  12.677  1.00  0.00    -0.744 OA
ENDBRANCH  99 100
ENDBRANCH  67  92
ENDBRANCH  41  42
ENDBRANCH  33  36
ENDBRANCH  31  32
ENDBRANCH  30  31
ENDBRANCH  29  30
ENDBRANCH   1  29
TORSDOF 20
