REMARK SMILES Cc1cc(OCC(=O)N[C@@H](Cc2ccc(Cl)cc2)C(=O)NCCCCCCNC(=O)c2ccc(-c3c4nc(c(-c5c(F)cc(S(=O)(=O)[O-])cc5F)c5ccc([nH]5)c(-c5c(F)cc(S(=O)(=O)[O-])cc5F)c5nc(c(-c6c(F)cc(S(=O)(=O)[O-])cc6F)c6ccc3[nH]6)C=C5)C=C4)cc2)c2c(C)c(C)c(=O)oc2c1
REMARK SMILES IDX 24 1 23 2 22 3 21 4 19 5 20 6 10 8 9 9 7 10 8 11 6 13 5 14
REMARK SMILES IDX 4 15 1 16 2 17 3 18 106 19 105 20 97 21 104 22 98 23 102 24
REMARK SMILES IDX 99 25 100 26 103 27 101 28 11 29 12 30 13 31 18 32 14 33
REMARK SMILES IDX 17 34 15 35 16 36 25 37 26 38 27 39 28 40 29 41 30 43 31 44
REMARK SMILES IDX 32 45 96 46 33 47 95 48 34 49 35 50 36 51 89 52 37 53 94 54
REMARK SMILES IDX 88 55 90 56 38 57 93 58 87 59 86 60 39 62 73 63 52 64 72 65
REMARK SMILES IDX 53 66 56 67 71 68 91 69 54 70 55 71 70 73 92 74 57 75 40 76
REMARK SMILES IDX 41 77 50 78 42 79 43 80 49 81 51 82 44 83 45 84 46 85 47 86
REMARK SMILES IDX 48 87 74 88 75 89 84 90 76 91 77 92 83 93 85 94 78 95 79 96
REMARK SMILES IDX 80 97 81 98 82 99 58 100 59 101 68 102 60 103 61 104 67 105
REMARK SMILES IDX 69 106 62 107 63 108 64 109 65 110 66 111
REMARK H PARENT 21 7 9 12 28 42 90 61 56 72
REMARK Flexibility Score: inf
ROOT
ATOM      1  C   UNL     1       5.033   6.834   6.263  1.00  0.00     0.002 C 
ENDROOT
BRANCH   1   2
ATOM      2  C   UNL     1       4.337   5.940   5.228  1.00  0.00     0.021 C 
BRANCH   2   3
ATOM      3  C   UNL     1       3.885   4.577   5.741  1.00  0.00     0.116 C 
BRANCH   3   4
ATOM      4  N   UNL     1       2.674   4.614   6.535  1.00  0.00    -0.354 N 
ATOM      5  C   UNL     1       1.734   3.652   6.761  1.00  0.00     0.242 C 
ATOM      6  O   UNL     1       1.041   3.792   7.778  1.00  0.00    -0.273 OA
ATOM      7  H   UNL     1       2.501   5.473   6.984  1.00  0.00     0.163 HD
BRANCH   5   8
ATOM      8  C   UNL     1       1.557   2.377   5.895  1.00  0.00     0.175 C 
BRANCH   8   9
ATOM      9  N   UNL     1       1.761   2.574   4.464  1.00  0.00    -0.341 N 
ATOM     10  C   UNL     1       0.824   2.910   3.532  1.00  0.00     0.258 C 
ATOM     11  O   UNL     1       1.196   3.404   2.466  1.00  0.00    -0.271 OA
ATOM     12  H   UNL     1       2.679   2.450   4.133  1.00  0.00     0.164 HD
BRANCH  10  13
ATOM     13  C   UNL     1      -0.664   2.628   3.807  1.00  0.00     0.329 C 
BRANCH  13  14
ATOM     14  O   UNL     1      -1.028   1.292   4.151  1.00  0.00    -0.483 OA
BRANCH  14  15
ATOM     15  C   UNL     1      -0.540   0.257   3.392  1.00  0.00     0.131 A 
ATOM     16  C   UNL     1       0.891  -0.268  -0.121  1.00  0.00     0.044 C 
ATOM     17  C   UNL     1       0.393  -0.543   1.266  1.00  0.00    -0.044 A 
ATOM     18  C   UNL     1      -0.169   0.469   2.045  1.00  0.00     0.050 A 
ATOM     19  C   UNL     1       0.531  -1.802   1.828  1.00  0.00     0.051 A 
ATOM     20  C   UNL     1       0.103  -2.028   3.141  1.00  0.00     0.142 A 
ATOM     21  C   UNL     1      -0.429  -1.031   3.974  1.00  0.00     0.063 A 
ATOM     22  O   UNL     1       0.245  -3.364   3.554  1.00  0.00    -0.422 OA
ATOM     23  C   UNL     1      -0.794  -1.446   5.364  1.00  0.00    -0.026 A 
ATOM     24  C   UNL     1      -0.209  -3.794   4.777  1.00  0.00     0.339 A 
ATOM     25  C   UNL     1      -1.272  -0.455   6.394  1.00  0.00     0.046 C 
ATOM     26  C   UNL     1      -0.693  -2.751   5.715  1.00  0.00     0.038 A 
ATOM     27  O   UNL     1      -0.193  -4.983   5.080  1.00  0.00    -0.246 OA
ATOM     28  C   UNL     1      -1.055  -3.330   7.061  1.00  0.00     0.052 C 
ENDBRANCH  14  15
ENDBRANCH  13  14
ENDBRANCH  10  13
ENDBRANCH   8   9
BRANCH   8  29
ATOM     29  C   UNL     1       2.264   1.131   6.463  1.00  0.00     0.070 C 
BRANCH  29  30
ATOM     30  C   UNL     1       3.758   1.043   6.271  1.00  0.00    -0.045 A 
ATOM     31  C   UNL     1       4.626   1.698   7.153  1.00  0.00     0.005 A 
ATOM     32  C   UNL     1       4.301   0.288   5.221  1.00  0.00     0.005 A 
ATOM     33  C   UNL     1       6.007   1.670   6.941  1.00  0.00     0.021 A 
ATOM     34  C   UNL     1       5.685   0.237   5.025  1.00  0.00     0.021 A 
ATOM     35  C   UNL     1       6.530   0.950   5.872  1.00  0.00     0.041 A 
ATOM     36  Cl  UNL     1       8.226   0.963   5.587  1.00  0.00    -0.084 Cl
ENDBRANCH  29  30
ENDBRANCH   8  29
ENDBRANCH   5   8
ENDBRANCH   3   4
ENDBRANCH   2   3
ENDBRANCH   1   2
BRANCH   1  37
ATOM     37  C   UNL     1       6.195   6.212   7.051  1.00  0.00     0.002 C 
BRANCH  37  38
ATOM     38  C   UNL     1       7.244   5.447   6.241  1.00  0.00     0.021 C 
BRANCH  38  39
ATOM     39  C   UNL     1       7.944   6.247   5.150  1.00  0.00     0.116 C 
BRANCH  39  40
ATOM     40  N   UNL     1       8.787   7.307   5.678  1.00  0.00    -0.352 N 
ATOM     41  C   UNL     1      10.139   7.514   5.534  1.00  0.00     0.251 C 
ATOM     42  H   UNL     1       8.318   7.980   6.221  1.00  0.00     0.163 HD
ATOM     43  O   UNL     1      10.687   8.403   6.182  1.00  0.00    -0.269 OA
BRANCH  41  44
ATOM     44  C   UNL     1      10.942   6.654   4.634  1.00  0.00     0.039 A 
ATOM     45  C   UNL     1      10.480   6.305   3.363  1.00  0.00     0.014 A 
ATOM     46  C   UNL     1      12.189   6.193   5.069  1.00  0.00     0.014 A 
ATOM     47  C   UNL     1      11.182   5.375   2.599  1.00  0.00     0.010 A 
ATOM     48  C   UNL     1      12.934   5.324   4.264  1.00  0.00     0.010 A 
ATOM     49  C   UNL     1      12.419   4.876   3.038  1.00  0.00    -0.014 A 
BRANCH  49  50
ATOM     50  C   UNL     1      13.168   3.906   2.195  1.00  0.00     0.031 A 
ATOM     51  C   UNL     1      13.428   2.503   2.678  1.00  0.00     0.074 A 
ATOM     52  C   UNL     1      13.586   4.284   0.970  1.00  0.00     0.049 A 
ATOM     53  N   UNL     1      14.113   1.548   2.103  1.00  0.00    -0.248 NA
ATOM     54  C   UNL     1      12.845   2.123   3.976  1.00  0.00     0.031 C 
ATOM     55  C   UNL     1      13.376   5.609   0.379  1.00  0.00     0.029 A 
ATOM     56  N   UNL     1      14.256   3.590  -0.006  1.00  0.00    -0.354 N 
ATOM     57  C   UNL     1      14.063   0.463   2.972  1.00  0.00     0.074 A 
ATOM     58  C   UNL     1      13.295   0.883   4.124  1.00  0.00     0.031 C 
ATOM     59  C   UNL     1      13.863   5.616  -0.871  1.00  0.00     0.029 A 
ATOM     60  C   UNL     1      14.481   4.324  -1.147  1.00  0.00     0.049 A 
ATOM     61  H   UNL     1      14.547   2.656   0.101  1.00  0.00     0.167 HD
ATOM     62  C   UNL     1      14.603  -0.770   2.817  1.00  0.00     0.037 A 
ATOM     63  C   UNL     1      15.131   4.004  -2.282  1.00  0.00     0.037 A 
ATOM     64  C   UNL     1      15.345  -1.190   1.655  1.00  0.00     0.049 A 
ATOM     65  C   UNL     1      15.745   2.640  -2.414  1.00  0.00     0.074 A 
ATOM     66  C   UNL     1      15.943  -2.416   1.412  1.00  0.00     0.029 A 
ATOM     67  N   UNL     1      15.578  -0.406   0.535  1.00  0.00    -0.354 N 
ATOM     68  N   UNL     1      15.729   1.645  -1.560  1.00  0.00    -0.248 NA
ATOM     69  C   UNL     1      16.474   2.358  -3.658  1.00  0.00     0.031 C 
ATOM     70  C   UNL     1      16.559  -2.364   0.157  1.00  0.00     0.029 A 
ATOM     71  C   UNL     1      16.310  -1.121  -0.400  1.00  0.00     0.049 A 
ATOM     72  H   UNL     1      15.269   0.521   0.421  1.00  0.00     0.167 HD
ATOM     73  C   UNL     1      16.431   0.613  -2.169  1.00  0.00     0.074 A 
ATOM     74  C   UNL     1      16.846   1.099  -3.470  1.00  0.00     0.031 C 
ATOM     75  C   UNL     1      16.709  -0.625  -1.692  1.00  0.00     0.037 A 
BRANCH  62  76
ATOM     76  C   UNL     1      14.421  -1.766   3.929  1.00  0.00     0.058 A 
ATOM     77  C   UNL     1      13.196  -2.416   4.142  1.00  0.00     0.135 A 
ATOM     78  C   UNL     1      15.508  -2.136   4.739  1.00  0.00     0.135 A 
ATOM     79  F   UNL     1      12.121  -2.089   3.407  1.00  0.00    -0.206 F 
ATOM     80  C   UNL     1      13.052  -3.395   5.121  1.00  0.00     0.059 A 
ATOM     81  C   UNL     1      15.393  -3.127   5.710  1.00  0.00     0.059 A 
ATOM     82  F   UNL     1      16.702  -1.544   4.579  1.00  0.00    -0.206 F 
ATOM     83  C   UNL     1      14.158  -3.748   5.897  1.00  0.00     0.060 A 
BRANCH  83  84
ATOM     84  S   UNL     1      13.964  -5.048   7.135  1.00  0.00     0.124 S 
ATOM     85  O   UNL     1      13.157  -4.371   8.146  1.00  0.00    -0.237 OA
ATOM     86  O   UNL     1      13.286  -6.098   6.382  1.00  0.00    -0.237 OA
ATOM     87  O   UNL     1      15.336  -5.351   7.530  1.00  0.00    -0.744 OA
ENDBRANCH  83  84
ENDBRANCH  62  76
BRANCH  63  88
ATOM     88  C   UNL     1      15.236   5.001  -3.378  1.00  0.00     0.058 A 
ATOM     89  C   UNL     1      14.523   4.835  -4.574  1.00  0.00     0.135 A 
ATOM     90  C   UNL     1      16.025   6.153  -3.240  1.00  0.00     0.135 A 
ATOM     91  F   UNL     1      13.760   3.746  -4.755  1.00  0.00    -0.206 F 
ATOM     92  C   UNL     1      14.592   5.773  -5.598  1.00  0.00     0.059 A 
ATOM     93  C   UNL     1      16.091   7.118  -4.240  1.00  0.00     0.059 A 
ATOM     94  F   UNL     1      16.715   6.364  -2.108  1.00  0.00    -0.206 F 
ATOM     95  C   UNL     1      15.376   6.915  -5.419  1.00  0.00     0.060 A 
BRANCH  95  96
ATOM     96  S   UNL     1      15.411   8.158  -6.729  1.00  0.00     0.124 S 
ATOM     97  O   UNL     1      16.259   7.512  -7.723  1.00  0.00    -0.237 OA
ATOM     98  O   UNL     1      13.998   8.279  -7.075  1.00  0.00    -0.237 OA
ATOM     99  O   UNL     1      15.987   9.324  -6.067  1.00  0.00    -0.744 OA
ENDBRANCH  95  96
ENDBRANCH  63  88
BRANCH  75 100
ATOM    100  C   UNL     1      17.468  -1.554  -2.597  1.00  0.00     0.058 A 
ATOM    101  C   UNL     1      18.844  -1.401  -2.820  1.00  0.00     0.135 A 
ATOM    102  C   UNL     1      16.814  -2.630  -3.218  1.00  0.00     0.135 A 
ATOM    103  F   UNL     1      19.512  -0.383  -2.255  1.00  0.00    -0.206 F 
ATOM    104  C   UNL     1      19.544  -2.270  -3.651  1.00  0.00     0.059 A 
ATOM    105  C   UNL     1      17.499  -3.525  -4.034  1.00  0.00     0.059 A 
ATOM    106  F   UNL     1      15.500  -2.823  -3.028  1.00  0.00    -0.206 F 
ATOM    107  C   UNL     1      18.861  -3.328  -4.254  1.00  0.00     0.060 A 
BRANCH 107 108
ATOM    108  S   UNL     1      19.784  -4.460  -5.315  1.00  0.00     0.124 S 
ATOM    109  O   UNL     1      19.974  -3.650  -6.514  1.00  0.00    -0.237 OA
ATOM    110  O   UNL     1      20.986  -4.718  -4.528  1.00  0.00    -0.237 OA
ATOM    111  O   UNL     1      18.883  -5.599  -5.463  1.00  0.00    -0.744 OA
ENDBRANCH 107 108
ENDBRANCH  75 100
ENDBRANCH  49  50
ENDBRANCH  41  44
ENDBRANCH  39  40
ENDBRANCH  38  39
ENDBRANCH  37  38
ENDBRANCH   1  37
TORSDOF 22
