REMARK SMILES CC(C)CC(=O)Nc1ccc(NC(=O)[C@@H]2CCCC[C@@H]2C(=O)NCCCCCCNC(=O)c2ccc(-c3c4nc(c(-c5c(F)cc(S(=O)(=O)[O-])cc5F)c5ccc([nH]5)c(-c5c(F)cc(S(=O)(=O)[O-])cc5F)c5nc(c(-c6c(F)cc(S(=O)(=O)[O-])cc6F)c6ccc3[nH]6)C=C5)C=C4)cc2)cc1
REMARK SMILES IDX 25 1 24 2 23 3 21 4 22 5 20 7 15 8 16 9 17 10 19 11 18 12
REMARK SMILES IDX 13 13 12 14 14 16 11 17 8 18 9 19 100 20 10 21 99 22 7 23
REMARK SMILES IDX 5 24 6 25 4 27 2 28 1 29 3 30 26 31 27 32 28 33 29 34 30 35
REMARK SMILES IDX 31 36 32 38 33 39 34 40 98 41 35 42 97 43 36 44 37 45 38 46
REMARK SMILES IDX 91 47 39 48 96 49 90 50 92 51 40 52 95 53 89 54 88 55 41 57
REMARK SMILES IDX 75 58 54 59 74 60 55 61 58 62 73 63 93 64 56 65 57 66 72 68
REMARK SMILES IDX 94 69 59 70 42 71 43 72 52 73 44 74 45 75 51 76 53 77 46 78
REMARK SMILES IDX 47 79 48 80 49 81 50 82 76 83 77 84 86 85 78 86 79 87 85 88
REMARK SMILES IDX 87 89 80 90 81 91 82 92 83 93 84 94 60 95 61 96 70 97 62 98
REMARK SMILES IDX 63 99 69 100 71 101 64 102 65 103 66 104 67 105 68 106
REMARK H PARENT 23 6 12 15 7 26 30 37 92 56 58 67
REMARK Flexibility Score: inf
ROOT
ATOM      1  C   UNL     1       2.303   7.201   5.541  1.00  0.00     0.021 C 
ENDROOT
BRANCH   1   2
ATOM      2  C   UNL     1       2.141   5.831   4.891  1.00  0.00     0.116 C 
BRANCH   2   3
ATOM      3  N   UNL     1       0.803   5.330   5.038  1.00  0.00    -0.356 N 
ATOM      4  C   UNL     1      -0.220   5.157   4.184  1.00  0.00     0.223 C 
ATOM      5  O   UNL     1      -1.247   4.714   4.725  1.00  0.00    -0.275 OA
ATOM      6  H   UNL     1       0.590   5.056   5.959  1.00  0.00     0.163 HD
BRANCH   4   7
ATOM      7  C   UNL     1      -0.220   5.346   2.649  1.00  0.00     0.091 C 
ATOM      8  C   UNL     1       0.843   6.067   1.791  1.00  0.00     0.091 C 
ATOM      9  C   UNL     1       0.960   7.553   2.135  1.00  0.00     0.014 C 
ATOM     10  C   UNL     1      -0.378   8.235   1.850  1.00  0.00     0.001 C 
ATOM     11  C   UNL     1      -1.573   6.024   2.291  1.00  0.00     0.014 C 
ATOM     12  C   UNL     1      -1.537   7.533   2.559  1.00  0.00     0.001 C 
BRANCH   8  13
ATOM     13  C   UNL     1       2.150   5.335   1.538  1.00  0.00     0.228 C 
ATOM     14  N   UNL     1       2.190   4.125   0.921  1.00  0.00    -0.326 N 
ATOM     15  H   UNL     1       3.080   3.708   0.974  1.00  0.00     0.169 HD
ATOM     16  O   UNL     1       3.237   5.821   1.865  1.00  0.00    -0.274 OA
BRANCH  14  17
ATOM     17  C   UNL     1       1.268   3.327   0.228  1.00  0.00     0.041 A 
ATOM     18  C   UNL     1      -0.441   1.446  -0.998  1.00  0.00     0.041 A 
ATOM     19  C   UNL     1      -0.884   2.740  -0.791  1.00  0.00     0.028 A 
ATOM     20  C   UNL     1       0.892   1.169  -0.754  1.00  0.00     0.028 A 
ATOM     21  C   UNL     1      -0.019   3.678  -0.198  1.00  0.00     0.028 A 
ATOM     22  C   UNL     1       1.730   2.063  -0.105  1.00  0.00     0.028 A 
BRANCH  18  23
ATOM     23  N   UNL     1      -1.279   0.454  -1.523  1.00  0.00    -0.326 N 
ATOM     24  C   UNL     1      -1.145  -0.912  -1.378  1.00  0.00     0.224 C 
ATOM     25  O   UNL     1      -1.662  -1.664  -2.207  1.00  0.00    -0.275 OA
ATOM     26  H   UNL     1      -2.048   0.765  -2.053  1.00  0.00     0.169 HD
BRANCH  24  27
ATOM     27  C   UNL     1      -0.565  -1.459  -0.064  1.00  0.00     0.103 C 
BRANCH  27  28
ATOM     28  C   UNL     1       0.597  -2.476  -0.135  1.00  0.00    -0.008 C 
ATOM     29  C   UNL     1       1.998  -1.859  -0.204  1.00  0.00     0.008 C 
ATOM     30  C   UNL     1       0.558  -3.348   1.127  1.00  0.00     0.008 C 
ENDBRANCH  27  28
ENDBRANCH  24  27
ENDBRANCH  18  23
ENDBRANCH  14  17
ENDBRANCH   8  13
ENDBRANCH   4   7
ENDBRANCH   2   3
ENDBRANCH   1   2
BRANCH   1  31
ATOM     31  C   UNL     1       2.861   7.145   6.961  1.00  0.00     0.002 C 
BRANCH  31  32
ATOM     32  C   UNL     1       4.215   6.437   7.090  1.00  0.00     0.002 C 
BRANCH  32  33
ATOM     33  C   UNL     1       5.294   6.910   6.112  1.00  0.00     0.021 C 
BRANCH  33  34
ATOM     34  C   UNL     1       5.566   8.411   6.149  1.00  0.00     0.116 C 
BRANCH  34  35
ATOM     35  N   UNL     1       5.869   8.865   7.499  1.00  0.00    -0.352 N 
ATOM     36  C   UNL     1       7.004   9.460   7.974  1.00  0.00     0.251 C 
ATOM     37  H   UNL     1       5.156   8.724   8.162  1.00  0.00     0.163 HD
ATOM     38  O   UNL     1       7.200   9.534   9.189  1.00  0.00    -0.269 OA
BRANCH  36  39
ATOM     39  C   UNL     1       7.986  10.011   7.025  1.00  0.00     0.039 A 
ATOM     40  C   UNL     1       9.345   9.767   7.229  1.00  0.00     0.014 A 
ATOM     41  C   UNL     1       7.557  10.777   5.937  1.00  0.00     0.014 A 
ATOM     42  C   UNL     1      10.275  10.257   6.312  1.00  0.00     0.010 A 
ATOM     43  C   UNL     1       8.477  11.200   4.987  1.00  0.00     0.010 A 
ATOM     44  C   UNL     1       9.846  10.955   5.171  1.00  0.00    -0.014 A 
BRANCH  44  45
ATOM     45  C   UNL     1      10.809  11.455   4.161  1.00  0.00     0.031 A 
ATOM     46  C   UNL     1      10.940  12.934   3.926  1.00  0.00     0.074 A 
ATOM     47  C   UNL     1      11.502  10.577   3.411  1.00  0.00     0.049 A 
ATOM     48  N   UNL     1      11.643  13.568   3.023  1.00  0.00    -0.248 NA
ATOM     49  C   UNL     1      10.155  13.819   4.804  1.00  0.00     0.031 C 
ATOM     50  C   UNL     1      11.424   9.119   3.526  1.00  0.00     0.029 A 
ATOM     51  N   UNL     1      12.398  10.781   2.392  1.00  0.00    -0.354 N 
ATOM     52  C   UNL     1      11.372  14.918   3.212  1.00  0.00     0.074 A 
ATOM     53  C   UNL     1      10.401  15.010   4.280  1.00  0.00     0.031 C 
ATOM     54  C   UNL     1      12.249   8.562   2.625  1.00  0.00     0.029 A 
ATOM     55  C   UNL     1      12.879   9.618   1.839  1.00  0.00     0.049 A 
ATOM     56  H   UNL     1      12.670  11.676   2.085  1.00  0.00     0.167 HD
ATOM     57  C   UNL     1      11.903  15.983   2.568  1.00  0.00     0.037 A 
ATOM     58  C   UNL     1      13.721   9.426   0.806  1.00  0.00     0.037 A 
ATOM     59  C   UNL     1      12.885  15.877   1.520  1.00  0.00     0.049 A 
ATOM     60  C   UNL     1      14.290  10.626   0.097  1.00  0.00     0.074 A 
ATOM     61  C   UNL     1      13.525  16.894   0.835  1.00  0.00     0.029 A 
ATOM     62  N   UNL     1      13.368  14.681   1.006  1.00  0.00    -0.354 N 
ATOM     63  N   UNL     1      14.066  11.899   0.323  1.00  0.00    -0.248 NA
ATOM     64  C   UNL     1      15.230  10.367  -1.002  1.00  0.00     0.031 C 
ATOM     65  C   UNL     1      14.357  16.314  -0.128  1.00  0.00     0.029 A 
ATOM     66  C   UNL     1      14.284  14.936  -0.001  1.00  0.00     0.049 A 
ATOM     67  H   UNL     1      13.100  13.785   1.312  1.00  0.00     0.167 HD
ATOM     68  C   UNL     1      14.866  12.592  -0.579  1.00  0.00     0.074 A 
ATOM     69  C   UNL     1      15.580  11.597  -1.351  1.00  0.00     0.031 C 
ATOM     70  C   UNL     1      15.001  13.931  -0.747  1.00  0.00     0.037 A 
BRANCH  57  71
ATOM     71  C   UNL     1      11.434  17.354   2.975  1.00  0.00     0.058 A 
ATOM     72  C   UNL     1      11.760  17.906   4.224  1.00  0.00     0.135 A 
ATOM     73  C   UNL     1      10.680  18.143   2.090  1.00  0.00     0.135 A 
ATOM     74  F   UNL     1      12.465  17.192   5.117  1.00  0.00    -0.206 F 
ATOM     75  C   UNL     1      11.331  19.177   4.594  1.00  0.00     0.059 A 
ATOM     76  C   UNL     1      10.267  19.429   2.426  1.00  0.00     0.059 A 
ATOM     77  F   UNL     1      10.338  17.666   0.883  1.00  0.00    -0.206 F 
ATOM     78  C   UNL     1      10.585  19.931   3.687  1.00  0.00     0.060 A 
BRANCH  78  79
ATOM     79  S   UNL     1      10.045  21.581   4.179  1.00  0.00     0.124 S 
ATOM     80  O   UNL     1       9.011  21.268   5.161  1.00  0.00    -0.237 OA
ATOM     81  O   UNL     1      11.271  22.164   4.715  1.00  0.00    -0.237 OA
ATOM     82  O   UNL     1       9.566  22.170   2.932  1.00  0.00    -0.744 OA
ENDBRANCH  78  79
ENDBRANCH  57  71
BRANCH  58  83
ATOM     83  C   UNL     1      14.090   8.044   0.394  1.00  0.00     0.058 A 
ATOM     84  C   UNL     1      15.386   7.551   0.601  1.00  0.00     0.135 A 
ATOM     85  C   UNL     1      13.152   7.184  -0.198  1.00  0.00     0.135 A 
ATOM     86  F   UNL     1      16.321   8.335   1.161  1.00  0.00    -0.206 F 
ATOM     87  C   UNL     1      15.747   6.263   0.219  1.00  0.00     0.059 A 
ATOM     88  C   UNL     1      13.480   5.883  -0.564  1.00  0.00     0.059 A 
ATOM     89  F   UNL     1      11.892   7.600  -0.402  1.00  0.00    -0.206 F 
ATOM     90  C   UNL     1      14.784   5.435  -0.361  1.00  0.00     0.060 A 
BRANCH  90  91
ATOM     91  S   UNL     1      15.252   3.750  -0.815  1.00  0.00     0.124 S 
ATOM     92  O   UNL     1      16.104   3.984  -1.975  1.00  0.00    -0.237 OA
ATOM     93  O   UNL     1      15.929   3.285   0.392  1.00  0.00    -0.237 OA
ATOM     94  O   UNL     1      13.970   3.109  -1.091  1.00  0.00    -0.744 OA
ENDBRANCH  90  91
ENDBRANCH  58  83
BRANCH  70  95
ATOM     95  C   UNL     1      15.998  14.408  -1.766  1.00  0.00     0.058 A 
ATOM     96  C   UNL     1      15.764  14.298  -3.145  1.00  0.00     0.135 A 
ATOM     97  C   UNL     1      17.175  15.054  -1.350  1.00  0.00     0.135 A 
ATOM     98  F   UNL     1      14.659  13.683  -3.596  1.00  0.00    -0.206 F 
ATOM     99  C   UNL     1      16.668  14.797  -4.076  1.00  0.00     0.059 A 
ATOM    100  C   UNL     1      18.078  15.587  -2.263  1.00  0.00     0.059 A 
ATOM    101  F   UNL     1      17.442  15.194  -0.042  1.00  0.00    -0.206 F 
ATOM    102  C   UNL     1      17.820  15.446  -3.625  1.00  0.00     0.060 A 
BRANCH 102 103
ATOM    103  S   UNL     1      18.959  16.135  -4.845  1.00  0.00     0.124 S 
ATOM    104  O   UNL     1      19.573  14.928  -5.388  1.00  0.00    -0.237 OA
ATOM    105  O   UNL     1      18.057  16.848  -5.744  1.00  0.00    -0.237 OA
ATOM    106  O   UNL     1      19.840  16.983  -4.047  1.00  0.00    -0.744 OA
ENDBRANCH 102 103
ENDBRANCH  70  95
ENDBRANCH  44  45
ENDBRANCH  36  39
ENDBRANCH  34  35
ENDBRANCH  33  34
ENDBRANCH  32  33
ENDBRANCH  31  32
ENDBRANCH   1  31
TORSDOF 21
