REMARK SMILES O=C(NCCCCCCNC(=O)c1ccc(-c2c3nc(c(-c4c(F)cc(S(=O)(=O)[O-])cc4F)c4ccc([nH]4)c(-c4c(F)cc(S(=O)(=O)[O-])cc4F)c4nc(c(-c5c(F)cc(S(=O)(=O)[O-])cc5F)c5ccc2[nH]5)C=C4)C=C3)cc1)c1ccc(NC(=O)[C@H]2CCS(=O)(=O)C2)cc1
REMARK SMILES IDX 7 1 6 2 5 3 4 4 3 5 1 6 2 7 79 9 80 10 94 11 81 12 93 13
REMARK SMILES IDX 82 14 83 15 84 16 85 18 86 19 87 20 92 21 88 22 89 23 90 24
REMARK SMILES IDX 91 25 8 26 9 27 10 28 11 29 12 31 13 32 14 33 78 34 15 35
REMARK SMILES IDX 77 36 16 37 17 38 18 39 71 40 19 41 76 42 70 43 72 44 20 45
REMARK SMILES IDX 75 46 69 47 68 48 21 50 55 51 34 52 54 53 35 54 38 55 53 56
REMARK SMILES IDX 73 57 36 58 37 59 52 61 74 62 39 63 22 64 23 65 32 66 24 67
REMARK SMILES IDX 25 68 31 69 33 70 26 71 27 72 28 73 29 74 30 75 56 76 57 77
REMARK SMILES IDX 66 78 58 79 59 80 65 81 67 82 60 83 61 84 62 85 63 86 64 87
REMARK SMILES IDX 40 88 41 89 50 90 42 91 43 92 49 93 51 94 44 95 45 96 46 97
REMARK SMILES IDX 47 98 48 99
REMARK H PARENT 3 8 83 17 10 30 72 49 38 60
REMARK Flexibility Score: inf
ROOT
ATOM      1  C   UNL     1       1.827   6.106  -3.069  1.00  0.00     0.002 C 
ENDROOT
BRANCH   1   2
ATOM      2  C   UNL     1       3.114   6.918  -3.239  1.00  0.00     0.002 C 
BRANCH   2   3
ATOM      3  C   UNL     1       4.171   6.685  -2.158  1.00  0.00     0.021 C 
BRANCH   3   4
ATOM      4  C   UNL     1       4.659   5.242  -2.059  1.00  0.00     0.116 C 
BRANCH   4   5
ATOM      5  N   UNL     1       5.360   4.825  -3.271  1.00  0.00    -0.352 N 
ATOM      6  O   UNL     1       7.197   4.287  -4.498  1.00  0.00    -0.269 OA
ATOM      7  C   UNL     1       6.663   4.406  -3.403  1.00  0.00     0.251 C 
ATOM      8  H   UNL     1       4.831   4.847  -4.101  1.00  0.00     0.163 HD
BRANCH   7   9
ATOM      9  C   UNL     1       7.408   4.092  -2.173  1.00  0.00     0.039 A 
ATOM     10  C   UNL     1       6.877   3.151  -1.300  1.00  0.00     0.016 A 
ATOM     11  C   UNL     1       8.567   4.785  -1.837  1.00  0.00     0.016 A 
ATOM     12  C   UNL     1       7.418   3.022  -0.027  1.00  0.00     0.027 A 
ATOM     13  C   UNL     1       9.106   4.631  -0.551  1.00  0.00     0.027 A 
ATOM     14  C   UNL     1       8.484   3.801   0.397  1.00  0.00     0.041 A 
BRANCH  14  15
ATOM     15  N   UNL     1       8.975   3.842   1.713  1.00  0.00    -0.326 N 
ATOM     16  C   UNL     1       8.566   3.419   2.939  1.00  0.00     0.228 C 
ATOM     17  H   UNL     1       9.846   4.299   1.759  1.00  0.00     0.169 HD
ATOM     18  O   UNL     1       9.348   3.659   3.870  1.00  0.00    -0.274 OA
BRANCH  16  19
ATOM     19  C   UNL     1       7.267   2.696   3.274  1.00  0.00     0.095 C 
ATOM     20  C   UNL     1       5.985   3.419   2.848  1.00  0.00     0.030 C 
ATOM     21  C   UNL     1       7.293   1.242   2.834  1.00  0.00     0.150 C 
ATOM     22  C   UNL     1       4.893   2.414   2.502  1.00  0.00     0.138 C 
ATOM     23  S   UNL     1       5.616   0.788   2.461  1.00  0.00     0.151 S 
ATOM     24  O   UNL     1       5.096   0.016   3.569  1.00  0.00    -0.229 OA
ATOM     25  O   UNL     1       5.574   0.303   1.097  1.00  0.00    -0.229 OA
ENDBRANCH  16  19
ENDBRANCH  14  15
ENDBRANCH   7   9
ENDBRANCH   4   5
ENDBRANCH   3   4
ENDBRANCH   2   3
ENDBRANCH   1   2
BRANCH   1  26
ATOM     26  C   UNL     1       1.083   6.331  -1.751  1.00  0.00     0.021 C 
BRANCH  26  27
ATOM     27  C   UNL     1       0.709   7.783  -1.466  1.00  0.00     0.116 C 
BRANCH  27  28
ATOM     28  N   UNL     1      -0.174   8.336  -2.481  1.00  0.00    -0.352 N 
ATOM     29  C   UNL     1      -1.378   8.979  -2.333  1.00  0.00     0.251 C 
ATOM     30  H   UNL     1       0.137   8.235  -3.409  1.00  0.00     0.163 HD
ATOM     31  O   UNL     1      -2.070   9.217  -3.319  1.00  0.00    -0.269 OA
BRANCH  29  32
ATOM     32  C   UNL     1      -1.849   9.362  -0.984  1.00  0.00     0.039 A 
ATOM     33  C   UNL     1      -3.182   9.121  -0.639  1.00  0.00     0.014 A 
ATOM     34  C   UNL     1      -0.983   9.957  -0.062  1.00  0.00     0.014 A 
ATOM     35  C   UNL     1      -3.627   9.419   0.651  1.00  0.00     0.010 A 
ATOM     36  C   UNL     1      -1.408  10.182   1.244  1.00  0.00     0.010 A 
ATOM     37  C   UNL     1      -2.735   9.918   1.615  1.00  0.00    -0.014 A 
BRANCH  37  38
ATOM     38  C   UNL     1      -3.171  10.161   3.016  1.00  0.00     0.031 A 
ATOM     39  C   UNL     1      -3.140  11.553   3.589  1.00  0.00     0.074 A 
ATOM     40  C   UNL     1      -3.535   9.120   3.790  1.00  0.00     0.049 A 
ATOM     41  N   UNL     1      -3.426  11.953   4.802  1.00  0.00    -0.248 NA
ATOM     42  C   UNL     1      -2.705  12.634   2.690  1.00  0.00     0.031 C 
ATOM     43  C   UNL     1      -3.566   7.719   3.363  1.00  0.00     0.029 A 
ATOM     44  N   UNL     1      -3.942   9.074   5.100  1.00  0.00    -0.354 N 
ATOM     45  C   UNL     1      -3.193  13.323   4.816  1.00  0.00     0.074 A 
ATOM     46  C   UNL     1      -2.690  13.677   3.506  1.00  0.00     0.031 C 
ATOM     47  C   UNL     1      -3.998   6.957   4.381  1.00  0.00     0.029 A 
ATOM     48  C   UNL     1      -4.232   7.805   5.546  1.00  0.00     0.049 A 
ATOM     49  H   UNL     1      -4.020   9.874   5.668  1.00  0.00     0.167 HD
ATOM     50  C   UNL     1      -3.399  14.208   5.820  1.00  0.00     0.037 A 
ATOM     51  C   UNL     1      -4.634   7.372   6.757  1.00  0.00     0.037 A 
ATOM     52  C   UNL     1      -3.921  13.850   7.114  1.00  0.00     0.049 A 
ATOM     53  C   UNL     1      -4.840   8.373   7.862  1.00  0.00     0.074 A 
ATOM     54  C   UNL     1      -4.227  14.681   8.177  1.00  0.00     0.029 A 
ATOM     55  N   UNL     1      -4.206  12.556   7.526  1.00  0.00    -0.354 N 
ATOM     56  N   UNL     1      -4.683   9.675   7.835  1.00  0.00    -0.248 NA
ATOM     57  C   UNL     1      -5.282   7.847   9.161  1.00  0.00     0.031 C 
ATOM     58  C   UNL     1      -4.640  13.885   9.251  1.00  0.00     0.029 A 
ATOM     59  C   UNL     1      -4.654  12.563   8.837  1.00  0.00     0.049 A 
ATOM     60  H   UNL     1      -4.104  11.751   6.968  1.00  0.00     0.167 HD
ATOM     61  C   UNL     1      -5.039  10.127   9.102  1.00  0.00     0.074 A 
ATOM     62  C   UNL     1      -5.429   8.960   9.866  1.00  0.00     0.031 C 
ATOM     63  C   UNL     1      -5.046  11.394   9.586  1.00  0.00     0.037 A 
BRANCH  50  64
ATOM     64  C   UNL     1      -3.052  15.651   5.566  1.00  0.00     0.058 A 
ATOM     65  C   UNL     1      -3.788  16.445   4.670  1.00  0.00     0.135 A 
ATOM     66  C   UNL     1      -1.990  16.261   6.255  1.00  0.00     0.135 A 
ATOM     67  F   UNL     1      -4.805  15.913   3.974  1.00  0.00    -0.206 F 
ATOM     68  C   UNL     1      -3.463  17.778   4.442  1.00  0.00     0.059 A 
ATOM     69  C   UNL     1      -1.668  17.602   6.066  1.00  0.00     0.059 A 
ATOM     70  F   UNL     1      -1.252  15.552   7.124  1.00  0.00    -0.206 F 
ATOM     71  C   UNL     1      -2.400  18.348   5.145  1.00  0.00     0.060 A 
BRANCH  71  72
ATOM     72  S   UNL     1      -1.992  20.078   4.835  1.00  0.00     0.124 S 
ATOM     73  O   UNL     1      -1.411  20.005   3.498  1.00  0.00    -0.237 OA
ATOM     74  O   UNL     1      -3.296  20.727   4.925  1.00  0.00    -0.237 OA
ATOM     75  O   UNL     1      -1.057  20.405   5.907  1.00  0.00    -0.744 OA
ENDBRANCH  71  72
ENDBRANCH  50  64
BRANCH  51  76
ATOM     76  C   UNL     1      -4.893   5.923   6.982  1.00  0.00     0.058 A 
ATOM     77  C   UNL     1      -6.196   5.450   7.197  1.00  0.00     0.135 A 
ATOM     78  C   UNL     1      -3.850   4.984   6.982  1.00  0.00     0.135 A 
ATOM     79  F   UNL     1      -7.227   6.309   7.213  1.00  0.00    -0.206 F 
ATOM     80  C   UNL     1      -6.455   4.102   7.421  1.00  0.00     0.059 A 
ATOM     81  C   UNL     1      -4.087   3.627   7.175  1.00  0.00     0.059 A 
ATOM     82  F   UNL     1      -2.586   5.382   6.765  1.00  0.00    -0.206 F 
ATOM     83  C   UNL     1      -5.393   3.197   7.405  1.00  0.00     0.060 A 
BRANCH  83  84
ATOM     84  S   UNL     1      -5.747   1.444   7.653  1.00  0.00     0.124 S 
ATOM     85  O   UNL     1      -6.087   1.411   9.070  1.00  0.00    -0.237 OA
ATOM     86  O   UNL     1      -6.851   1.222   6.724  1.00  0.00    -0.237 OA
ATOM     87  O   UNL     1      -4.491   0.794   7.289  1.00  0.00    -0.744 OA
ENDBRANCH  83  84
ENDBRANCH  51  76
BRANCH  63  88
ATOM     88  C   UNL     1      -5.527  11.596  10.998  1.00  0.00     0.058 A 
ATOM     89  C   UNL     1      -4.771  11.185  12.106  1.00  0.00     0.135 A 
ATOM     90  C   UNL     1      -6.740  12.261  11.243  1.00  0.00     0.135 A 
ATOM     91  F   UNL     1      -3.607  10.539  11.928  1.00  0.00    -0.206 F 
ATOM     92  C   UNL     1      -5.212  11.402  13.408  1.00  0.00     0.059 A 
ATOM     93  C   UNL     1      -7.185  12.517  12.536  1.00  0.00     0.059 A 
ATOM     94  F   UNL     1      -7.499  12.685  10.220  1.00  0.00    -0.206 F 
ATOM     95  C   UNL     1      -6.419  12.073  13.613  1.00  0.00     0.060 A 
BRANCH  95  96
ATOM     96  S   UNL     1      -6.961  12.380  15.307  1.00  0.00     0.124 S 
ATOM     97  O   UNL     1      -7.357  11.043  15.736  1.00  0.00    -0.237 OA
ATOM     98  O   UNL     1      -5.753  12.913  15.928  1.00  0.00    -0.237 OA
ATOM     99  O   UNL     1      -8.052  13.337  15.148  1.00  0.00    -0.744 OA
ENDBRANCH  95  96
ENDBRANCH  63  88
ENDBRANCH  37  38
ENDBRANCH  29  32
ENDBRANCH  27  28
ENDBRANCH  26  27
ENDBRANCH   1  26
TORSDOF 18
