REMARK SMILES C[NH2+][C@]1(C(=O)NCCCCCCNC(=O)c2ccc(-c3c4nc(c(-c5c(F)cc(S(=O)(=O)[O-])cc5F)c5ccc([nH]5)c(-c5c(F)cc(S(=O)(=O)[O-])cc5F)c5nc(c(-c6c(F)cc(S(=O)(=O)[O-])cc6F)c6ccc3[nH]6)C=C5)C=C4)cc2)CC[C@H](SC2CCCCC2)C1
REMARK SMILES IDX 10 1 9 2 8 3 7 4 6 5 4 6 5 7 3 9 82 10 92 11 83 12 84 13
REMARK SMILES IDX 2 14 1 15 85 18 86 19 87 20 91 21 88 22 90 23 89 24 11 25
REMARK SMILES IDX 12 26 13 27 14 28 15 30 16 31 17 32 81 33 18 34 80 35 19 36
REMARK SMILES IDX 20 37 21 38 74 39 22 40 79 41 73 42 75 43 23 44 78 45 72 46
REMARK SMILES IDX 71 47 24 49 58 50 37 51 57 52 38 53 41 54 56 55 76 56 39 57
REMARK SMILES IDX 40 58 55 60 77 61 42 62 25 63 26 64 35 65 27 66 28 67 34 68
REMARK SMILES IDX 36 69 29 70 30 71 31 72 32 73 33 74 59 75 60 76 69 77 61 78
REMARK SMILES IDX 62 79 68 80 70 81 63 82 64 83 65 84 66 85 67 86 43 87 44 88
REMARK SMILES IDX 53 89 45 90 46 91 52 92 54 93 47 94 48 95 49 96 50 97 51 98
REMARK H PARENT 6 8 2 16 2 17 13 29 75 48 41 59
REMARK Flexibility Score: inf
ROOT
ATOM      1  C   UNL     1       3.151   1.135  -4.291  1.00  0.00     0.002 C 
ENDROOT
BRANCH   1   2
ATOM      2  C   UNL     1       2.540   1.543  -2.949  1.00  0.00     0.002 C 
BRANCH   2   3
ATOM      3  C   UNL     1       1.050   1.220  -2.800  1.00  0.00     0.021 C 
BRANCH   3   4
ATOM      4  C   UNL     1       0.723  -0.274  -2.916  1.00  0.00     0.116 C 
BRANCH   4   5
ATOM      5  N   UNL     1       1.172  -0.982  -1.731  1.00  0.00    -0.351 N 
ATOM      6  C   UNL     1       0.552  -1.333  -0.567  1.00  0.00     0.281 C 
ATOM      7  O   UNL     1       1.328  -1.738   0.307  1.00  0.00    -0.268 OA
ATOM      8  H   UNL     1       2.113  -1.267  -1.777  1.00  0.00     0.163 HD
BRANCH   6   9
ATOM      9  C   UNL     1      -1.009  -1.307  -0.385  1.00  0.00     0.176 C 
ATOM     10  C   UNL     1      -1.632   0.052  -0.744  1.00  0.00     0.080 C 
ATOM     11  C   UNL     1      -1.710  -2.273  -1.363  1.00  0.00     0.093 C 
ATOM     12  C   UNL     1      -3.050  -0.237  -1.211  1.00  0.00     0.022 C 
ATOM     13  C   UNL     1      -3.121  -1.713  -1.611  1.00  0.00     0.054 C 
BRANCH   9  14
ATOM     14  N   UNL     1      -1.422  -1.522   1.036  1.00  0.00    -0.336 N 
ATOM     15  C   UNL     1      -1.083  -2.808   1.627  1.00  0.00     0.331 C 
ATOM     16  H   UNL     1      -0.979  -0.797   1.600  1.00  0.00     0.346 HD
ATOM     17  H   UNL     1      -2.441  -1.491   1.027  1.00  0.00     0.346 HD
ENDBRANCH   9  14
BRANCH  13  18
ATOM     18  S   UNL     1      -4.383  -2.637  -0.641  1.00  0.00    -0.155 SA
BRANCH  18  19
ATOM     19  C   UNL     1      -5.987  -2.045  -1.347  1.00  0.00     0.047 C 
ATOM     20  C   UNL     1      -6.220  -0.543  -1.157  1.00  0.00     0.014 C 
ATOM     21  C   UNL     1      -6.190  -2.472  -2.805  1.00  0.00     0.014 C 
ATOM     22  C   UNL     1      -7.583  -0.106  -1.682  1.00  0.00     0.001 C 
ATOM     23  C   UNL     1      -7.546  -1.999  -3.340  1.00  0.00     0.001 C 
ATOM     24  C   UNL     1      -7.742  -0.498  -3.147  1.00  0.00     0.000 C 
ENDBRANCH  18  19
ENDBRANCH  13  18
ENDBRANCH   6   9
ENDBRANCH   4   5
ENDBRANCH   3   4
ENDBRANCH   2   3
ENDBRANCH   1   2
BRANCH   1  25
ATOM     25  C   UNL     1       2.433   1.703  -5.518  1.00  0.00     0.021 C 
BRANCH  25  26
ATOM     26  C   UNL     1       2.425   3.227  -5.586  1.00  0.00     0.116 C 
BRANCH  26  27
ATOM     27  N   UNL     1       3.771   3.760  -5.727  1.00  0.00    -0.352 N 
ATOM     28  C   UNL     1       4.289   4.545  -6.726  1.00  0.00     0.251 C 
ATOM     29  H   UNL     1       4.397   3.525  -5.004  1.00  0.00     0.163 HD
ATOM     30  O   UNL     1       5.503   4.690  -6.827  1.00  0.00    -0.269 OA
BRANCH  28  31
ATOM     31  C   UNL     1       3.376   5.208  -7.681  1.00  0.00     0.039 A 
ATOM     32  C   UNL     1       3.687   5.193  -9.042  1.00  0.00     0.014 A 
ATOM     33  C   UNL     1       2.220   5.851  -7.227  1.00  0.00     0.014 A 
ATOM     34  C   UNL     1       2.810   5.782  -9.955  1.00  0.00     0.010 A 
ATOM     35  C   UNL     1       1.312   6.371  -8.144  1.00  0.00     0.010 A 
ATOM     36  C   UNL     1       1.601   6.349  -9.517  1.00  0.00    -0.014 A 
BRANCH  36  37
ATOM     37  C   UNL     1       0.630   6.930 -10.478  1.00  0.00     0.031 A 
ATOM     38  C   UNL     1       0.303   8.398 -10.428  1.00  0.00     0.074 A 
ATOM     39  C   UNL     1      -0.001   6.123 -11.354  1.00  0.00     0.049 A 
ATOM     40  N   UNL     1      -0.562   9.076 -11.136  1.00  0.00    -0.248 NA
ATOM     41  C   UNL     1       1.026   9.206  -9.431  1.00  0.00     0.031 C 
ATOM     42  C   UNL     1       0.198   4.676 -11.466  1.00  0.00     0.029 A 
ATOM     43  N   UNL     1      -0.945   6.402 -12.311  1.00  0.00    -0.354 N 
ATOM     44  C   UNL     1      -0.497  10.382 -10.666  1.00  0.00     0.074 A 
ATOM     45  C   UNL     1       0.450  10.391  -9.573  1.00  0.00     0.031 C 
ATOM     46  C   UNL     1      -0.580   4.200 -12.451  1.00  0.00     0.029 A 
ATOM     47  C   UNL     1      -1.363   5.296 -13.013  1.00  0.00     0.049 A 
ATOM     48  H   UNL     1      -1.290   7.309 -12.478  1.00  0.00     0.167 HD
ATOM     49  C   UNL     1      -1.150  11.479 -11.119  1.00  0.00     0.037 A 
ATOM     50  C   UNL     1      -2.280   5.178 -13.993  1.00  0.00     0.037 A 
ATOM     51  C   UNL     1      -2.076  11.464 -12.223  1.00  0.00     0.049 A 
ATOM     52  C   UNL     1      -2.998   6.409 -14.475  1.00  0.00     0.074 A 
ATOM     53  C   UNL     1      -2.748  12.530 -12.795  1.00  0.00     0.029 A 
ATOM     54  N   UNL     1      -2.462  10.328 -12.919  1.00  0.00    -0.354 N 
ATOM     55  N   UNL     1      -2.879   7.648 -14.060  1.00  0.00    -0.248 NA
ATOM     56  C   UNL     1      -3.970   6.229 -15.561  1.00  0.00     0.031 C 
ATOM     57  C   UNL     1      -3.577  12.031 -13.805  1.00  0.00     0.029 A 
ATOM     58  C   UNL     1      -3.380  10.662 -13.900  1.00  0.00     0.049 A 
ATOM     59  H   UNL     1      -2.131   9.417 -12.742  1.00  0.00     0.167 HD
ATOM     60  C   UNL     1      -3.738   8.400 -14.854  1.00  0.00     0.074 A 
ATOM     61  C   UNL     1      -4.362   7.477 -15.781  1.00  0.00     0.031 C 
ATOM     62  C   UNL     1      -3.987   9.732 -14.820  1.00  0.00     0.037 A 
BRANCH  49  63
ATOM     63  C   UNL     1      -0.885  12.788 -10.426  1.00  0.00     0.058 A 
ATOM     64  C   UNL     1       0.352  13.445 -10.536  1.00  0.00     0.135 A 
ATOM     65  C   UNL     1      -1.891  13.415  -9.672  1.00  0.00     0.135 A 
ATOM     66  F   UNL     1       1.355  12.885 -11.231  1.00  0.00    -0.206 F 
ATOM     67  C   UNL     1       0.592  14.659  -9.900  1.00  0.00     0.059 A 
ATOM     68  C   UNL     1      -1.683  14.644  -9.053  1.00  0.00     0.059 A 
ATOM     69  F   UNL     1      -3.093  12.833  -9.532  1.00  0.00    -0.206 F 
ATOM     70  C   UNL     1      -0.433  15.251  -9.161  1.00  0.00     0.060 A 
BRANCH  70  71
ATOM     71  S   UNL     1      -0.107  16.830  -8.349  1.00  0.00     0.124 S 
ATOM     72  O   UNL     1       0.779  16.421  -7.263  1.00  0.00    -0.237 OA
ATOM     73  O   UNL     1       0.516  17.606  -9.416  1.00  0.00    -0.237 OA
ATOM     74  O   UNL     1      -1.433  17.283  -7.939  1.00  0.00    -0.744 OA
ENDBRANCH  70  71
ENDBRANCH  49  63
BRANCH  50  75
ATOM     75  C   UNL     1      -2.554   3.846 -14.598  1.00  0.00     0.058 A 
ATOM     76  C   UNL     1      -2.167   3.558 -15.915  1.00  0.00     0.135 A 
ATOM     77  C   UNL     1      -3.195   2.832 -13.870  1.00  0.00     0.135 A 
ATOM     78  F   UNL     1      -1.556   4.497 -16.655  1.00  0.00    -0.206 F 
ATOM     79  C   UNL     1      -2.421   2.320 -16.497  1.00  0.00     0.059 A 
ATOM     80  C   UNL     1      -3.436   1.577 -14.419  1.00  0.00     0.059 A 
ATOM     81  F   UNL     1      -3.569   3.049 -12.599  1.00  0.00    -0.206 F 
ATOM     82  C   UNL     1      -3.054   1.334 -15.738  1.00  0.00     0.060 A 
BRANCH  82  83
ATOM     83  S   UNL     1      -3.339  -0.285 -16.486  1.00  0.00     0.124 S 
ATOM     84  O   UNL     1      -4.414   0.011 -17.426  1.00  0.00    -0.237 OA
ATOM     85  O   UNL     1      -2.037  -0.582 -17.076  1.00  0.00    -0.237 OA
ATOM     86  O   UNL     1      -3.708  -1.120 -15.347  1.00  0.00    -0.744 OA
ENDBRANCH  82  83
ENDBRANCH  50  75
BRANCH  62  87
ATOM     87  C   UNL     1      -4.948  10.284 -15.838  1.00  0.00     0.058 A 
ATOM     88  C   UNL     1      -6.328  10.044 -15.758  1.00  0.00     0.135 A 
ATOM     89  C   UNL     1      -4.484  11.109 -16.876  1.00  0.00     0.135 A 
ATOM     90  F   UNL     1      -6.823   9.257 -14.790  1.00  0.00    -0.206 F 
ATOM     91  C   UNL     1      -7.213  10.583 -16.686  1.00  0.00     0.059 A 
ATOM     92  C   UNL     1      -5.354  11.683 -17.797  1.00  0.00     0.059 A 
ATOM     93  F   UNL     1      -3.174  11.380 -16.992  1.00  0.00    -0.206 F 
ATOM     94  C   UNL     1      -6.717  11.404 -17.701  1.00  0.00     0.060 A 
BRANCH  94  95
ATOM     95  S   UNL     1      -7.881  12.126 -18.877  1.00  0.00     0.124 S 
ATOM     96  O   UNL     1      -8.237  10.965 -19.687  1.00  0.00    -0.237 OA
ATOM     97  O   UNL     1      -8.932  12.635 -18.002  1.00  0.00    -0.237 OA
ATOM     98  O   UNL     1      -7.090  13.147 -19.556  1.00  0.00    -0.744 OA
ENDBRANCH  94  95
ENDBRANCH  62  87
ENDBRANCH  36  37
ENDBRANCH  28  31
ENDBRANCH  26  27
ENDBRANCH  25  26
ENDBRANCH   1  25
TORSDOF 19
