REMARK SMILES O=C(CN(CC(F)(F)F)c1nc(-c2ccccc2)cs1)NCCCCCCNC(=O)c1ccc(-c2c3nc(c(-c4c(F)cc(S(=O)(=O)[O-])cc4F)c4ccc([nH]4)c(-c4c(F)cc(S(=O)(=O)[O-])cc4F)c4nc(c(-c5c(F)cc(S(=O)(=O)[O-])cc5F)c5ccc2[nH]5)C=C4)C=C3)cc1
REMARK SMILES IDX 24 1 23 2 22 3 21 4 1 5 2 6 3 8 4 9 5 10 6 11 7 12 8 13 9 14
REMARK SMILES IDX 10 15 11 16 20 17 12 18 19 19 13 20 14 21 18 22 15 23 17 24
REMARK SMILES IDX 16 25 25 26 26 27 27 28 28 29 29 30 30 32 31 33 32 34 96 35
REMARK SMILES IDX 33 36 95 37 34 38 35 39 36 40 89 41 37 42 94 43 88 44 90 45
REMARK SMILES IDX 38 46 93 47 87 48 86 49 39 51 73 52 52 53 72 54 53 55 56 56
REMARK SMILES IDX 71 57 91 58 54 59 55 60 70 62 92 63 57 64 40 65 41 66 50 67
REMARK SMILES IDX 42 68 43 69 49 70 51 71 44 72 45 73 46 74 47 75 48 76 74 77
REMARK SMILES IDX 75 78 84 79 76 80 77 81 83 82 85 83 78 84 79 85 80 86 81 87
REMARK SMILES IDX 82 88 58 89 59 90 68 91 60 92 61 93 67 94 69 95 62 96 63 97
REMARK SMILES IDX 64 98 65 99 66 100
REMARK H PARENT 21 7 28 31 90 50 56 61
REMARK Flexibility Score: inf
ROOT
ATOM      1  C   UNL     1       4.199  -0.922   3.574  1.00  0.00     0.002 C 
ENDROOT
BRANCH   1   2
ATOM      2  C   UNL     1       2.700  -1.005   3.257  1.00  0.00     0.021 C 
BRANCH   2   3
ATOM      3  C   UNL     1       2.157   0.150   2.415  1.00  0.00     0.116 C 
BRANCH   3   4
ATOM      4  N   UNL     1       2.788   0.234   1.115  1.00  0.00    -0.355 N 
ATOM      5  O   UNL     1       1.078  -0.753  -0.059  1.00  0.00    -0.273 OA
ATOM      6  C   UNL     1       2.166  -0.180  -0.043  1.00  0.00     0.239 C 
ATOM      7  H   UNL     1       3.700   0.601   1.056  1.00  0.00     0.163 HD
BRANCH   6   8
ATOM      8  C   UNL     1       3.001  -0.012  -1.323  1.00  0.00     0.219 C 
BRANCH   8   9
ATOM      9  N   UNL     1       3.875   1.177  -1.341  1.00  0.00    -0.330 N 
BRANCH   9  10
ATOM     10  C   UNL     1       5.334   0.993  -1.474  1.00  0.00     0.234 C 
BRANCH  10  11
ATOM     11  C   UNL     1       5.958   1.104  -2.876  1.00  0.00     0.406 C 
ATOM     12  F   UNL     1       6.258   2.379  -3.206  1.00  0.00    -0.169 F 
ATOM     13  F   UNL     1       7.126   0.414  -2.917  1.00  0.00    -0.169 F 
ATOM     14  F   UNL     1       5.161   0.592  -3.839  1.00  0.00    -0.169 F 
ENDBRANCH  10  11
ENDBRANCH   9  10
BRANCH   9  15
ATOM     15  C   UNL     1       3.278   2.399  -1.427  1.00  0.00     0.186 A 
ATOM     16  N   UNL     1       2.351   2.796  -0.585  1.00  0.00    -0.220 NA
ATOM     17  S   UNL     1       3.617   3.541  -2.679  1.00  0.00    -0.105 S 
ATOM     18  C   UNL     1       1.881   4.054  -0.920  1.00  0.00     0.083 A 
ATOM     19  C   UNL     1       2.450   4.608  -2.046  1.00  0.00     0.097 A 
BRANCH  18  20
ATOM     20  C   UNL     1       0.909   4.763  -0.107  1.00  0.00     0.001 A 
ATOM     21  C   UNL     1      -0.202   5.385  -0.693  1.00  0.00     0.010 A 
ATOM     22  C   UNL     1       1.108   4.873   1.274  1.00  0.00     0.010 A 
ATOM     23  C   UNL     1      -1.085   6.132   0.089  1.00  0.00     0.001 A 
ATOM     24  C   UNL     1       0.229   5.629   2.052  1.00  0.00     0.001 A 
ATOM     25  C   UNL     1      -0.863   6.262   1.459  1.00  0.00     0.000 A 
ENDBRANCH  18  20
ENDBRANCH   9  15
ENDBRANCH   8   9
ENDBRANCH   6   8
ENDBRANCH   3   4
ENDBRANCH   2   3
ENDBRANCH   1   2
BRANCH   1  26
ATOM     26  C   UNL     1       4.651   0.347   4.304  1.00  0.00     0.002 C 
BRANCH  26  27
ATOM     27  C   UNL     1       3.954   0.625   5.638  1.00  0.00     0.021 C 
BRANCH  27  28
ATOM     28  C   UNL     1       4.104  -0.471   6.689  1.00  0.00     0.116 C 
BRANCH  28  29
ATOM     29  N   UNL     1       5.487  -0.661   7.103  1.00  0.00    -0.352 N 
ATOM     30  C   UNL     1       6.029  -0.661   8.365  1.00  0.00     0.251 C 
ATOM     31  H   UNL     1       6.128  -0.811   6.371  1.00  0.00     0.163 HD
ATOM     32  O   UNL     1       7.252  -0.665   8.504  1.00  0.00    -0.269 OA
BRANCH  30  33
ATOM     33  C   UNL     1       5.150  -0.633   9.555  1.00  0.00     0.039 A 
ATOM     34  C   UNL     1       5.471   0.218  10.616  1.00  0.00     0.014 A 
ATOM     35  C   UNL     1       4.013  -1.442   9.629  1.00  0.00     0.014 A 
ATOM     36  C   UNL     1       4.618   0.305  11.720  1.00  0.00     0.010 A 
ATOM     37  C   UNL     1       3.125  -1.297  10.693  1.00  0.00     0.010 A 
ATOM     38  C   UNL     1       3.417  -0.423  11.751  1.00  0.00    -0.014 A 
BRANCH  38  39
ATOM     39  C   UNL     1       2.453  -0.277  12.874  1.00  0.00     0.031 A 
ATOM     40  C   UNL     1       2.127  -1.454  13.755  1.00  0.00     0.074 A 
ATOM     41  C   UNL     1       1.824   0.900  13.064  1.00  0.00     0.049 A 
ATOM     42  N   UNL     1       1.277  -1.535  14.747  1.00  0.00    -0.248 NA
ATOM     43  C   UNL     1       2.830  -2.714  13.465  1.00  0.00     0.031 C 
ATOM     44  C   UNL     1       2.022   2.104  12.254  1.00  0.00     0.029 A 
ATOM     45  N   UNL     1       0.887   1.278  13.993  1.00  0.00    -0.354 N 
ATOM     46  C   UNL     1       1.333  -2.852  15.190  1.00  0.00     0.074 A 
ATOM     47  C   UNL     1       2.258  -3.548  14.322  1.00  0.00     0.031 C 
ATOM     48  C   UNL     1       1.255   3.094  12.741  1.00  0.00     0.029 A 
ATOM     49  C   UNL     1       0.478   2.586  13.867  1.00  0.00     0.049 A 
ATOM     50  H   UNL     1       0.539   0.670  14.685  1.00  0.00     0.167 HD
ATOM     51  C   UNL     1       0.691  -3.423  16.237  1.00  0.00     0.037 A 
ATOM     52  C   UNL     1      -0.424   3.295  14.574  1.00  0.00     0.037 A 
ATOM     53  C   UNL     1      -0.219  -2.719  17.105  1.00  0.00     0.049 A 
ATOM     54  C   UNL     1      -1.146   2.631  15.716  1.00  0.00     0.074 A 
ATOM     55  C   UNL     1      -0.875  -3.192  18.228  1.00  0.00     0.029 A 
ATOM     56  N   UNL     1      -0.609  -1.397  16.943  1.00  0.00    -0.354 N 
ATOM     57  N   UNL     1      -1.027   1.404  16.167  1.00  0.00    -0.248 NA
ATOM     58  C   UNL     1      -2.122   3.448  16.449  1.00  0.00     0.031 C 
ATOM     59  C   UNL     1      -1.706  -2.175  18.710  1.00  0.00     0.029 A 
ATOM     60  C   UNL     1      -1.520  -1.047  17.926  1.00  0.00     0.049 A 
ATOM     61  H   UNL     1      -0.285  -0.796  16.233  1.00  0.00     0.167 HD
ATOM     62  C   UNL     1      -1.887   1.314  17.256  1.00  0.00     0.074 A 
ATOM     63  C   UNL     1      -2.512   2.612  17.402  1.00  0.00     0.031 C 
ATOM     64  C   UNL     1      -2.132   0.253  18.065  1.00  0.00     0.037 A 
BRANCH  51  65
ATOM     65  C   UNL     1       0.942  -4.886  16.495  1.00  0.00     0.058 A 
ATOM     66  C   UNL     1       2.190  -5.358  16.937  1.00  0.00     0.135 A 
ATOM     67  C   UNL     1      -0.084  -5.829  16.317  1.00  0.00     0.135 A 
ATOM     68  F   UNL     1       3.212  -4.505  17.114  1.00  0.00    -0.206 F 
ATOM     69  C   UNL     1       2.424  -6.713  17.150  1.00  0.00     0.059 A 
ATOM     70  C   UNL     1       0.118  -7.186  16.557  1.00  0.00     0.059 A 
ATOM     71  F   UNL     1      -1.298  -5.437  15.901  1.00  0.00    -0.206 F 
ATOM     72  C   UNL     1       1.382  -7.620  16.953  1.00  0.00     0.060 A 
BRANCH  72  73
ATOM     73  S   UNL     1       1.707  -9.376  17.218  1.00  0.00     0.124 S 
ATOM     74  O   UNL     1       2.543  -9.693  16.064  1.00  0.00    -0.237 OA
ATOM     75  O   UNL     1       2.385  -9.376  18.510  1.00  0.00    -0.237 OA
ATOM     76  O   UNL     1       0.376  -9.974  17.211  1.00  0.00    -0.744 OA
ENDBRANCH  72  73
ENDBRANCH  51  65
BRANCH  52  77
ATOM     77  C   UNL     1      -0.674   4.724  14.243  1.00  0.00     0.058 A 
ATOM     78  C   UNL     1      -0.274   5.745  15.118  1.00  0.00     0.135 A 
ATOM     79  C   UNL     1      -1.306   5.101  13.047  1.00  0.00     0.135 A 
ATOM     80  F   UNL     1       0.328   5.436  16.277  1.00  0.00    -0.206 F 
ATOM     81  C   UNL     1      -0.504   7.086  14.830  1.00  0.00     0.059 A 
ATOM     82  C   UNL     1      -1.522   6.437  12.723  1.00  0.00     0.059 A 
ATOM     83  F   UNL     1      -1.696   4.165  12.168  1.00  0.00    -0.206 F 
ATOM     84  C   UNL     1      -1.126   7.423  13.627  1.00  0.00     0.060 A 
BRANCH  84  85
ATOM     85  S   UNL     1      -1.375   9.169  13.242  1.00  0.00     0.124 S 
ATOM     86  O   UNL     1      -2.426   9.532  14.184  1.00  0.00    -0.237 OA
ATOM     87  O   UNL     1      -0.054   9.732  13.509  1.00  0.00    -0.237 OA
ATOM     88  O   UNL     1      -1.766   9.150  11.835  1.00  0.00    -0.744 OA
ENDBRANCH  84  85
ENDBRANCH  52  77
BRANCH  64  89
ATOM     89  C   UNL     1      -3.089   0.458  19.209  1.00  0.00     0.058 A 
ATOM     90  C   UNL     1      -4.469   0.616  19.005  1.00  0.00     0.135 A 
ATOM     91  C   UNL     1      -2.621   0.447  20.534  1.00  0.00     0.135 A 
ATOM     92  F   UNL     1      -4.970   0.642  17.760  1.00  0.00    -0.206 F 
ATOM     93  C   UNL     1      -5.347   0.781  20.072  1.00  0.00     0.059 A 
ATOM     94  C   UNL     1      -3.485   0.578  21.617  1.00  0.00     0.059 A 
ATOM     95  F   UNL     1      -1.312   0.290  20.788  1.00  0.00    -0.206 F 
ATOM     96  C   UNL     1      -4.846   0.757  21.375  1.00  0.00     0.060 A 
BRANCH  96  97
ATOM     97  S   UNL     1      -6.001   0.937  22.750  1.00  0.00     0.124 S 
ATOM     98  O   UNL     1      -6.351   2.351  22.657  1.00  0.00    -0.237 OA
ATOM     99  O   UNL     1      -7.059  -0.003  22.393  1.00  0.00    -0.237 OA
ATOM    100  O   UNL     1      -5.205   0.563  23.915  1.00  0.00    -0.744 OA
ENDBRANCH  96  97
ENDBRANCH  64  89
ENDBRANCH  38  39
ENDBRANCH  30  33
ENDBRANCH  28  29
ENDBRANCH  27  28
ENDBRANCH  26  27
ENDBRANCH   1  26
TORSDOF 21
