REMARK SMILES CCc1sc(NC(=O)[C@H]2CC(C)=C(C)C[C@H]2C(=O)NCCCCCCNC(=O)c2ccc(-c3c4nc(c(-c5c(F)cc(S(=O)(=O)[O-])cc5F)c5ccc([nH]5)c(-c5c(F)cc(S(=O)(=O)[O-])cc5F)c5nc(c(-c6c(F)cc(S(=O)(=O)[O-])cc6F)c6ccc3[nH]6)C=C5)C=C4)cc2)nc1-c1ccccc1
REMARK SMILES IDX 22 1 21 2 20 3 19 4 17 5 18 6 16 8 9 9 10 10 11 11 15 12
REMARK SMILES IDX 12 13 13 14 14 15 7 16 6 17 8 19 5 20 3 21 4 22 96 23 95 24
REMARK SMILES IDX 2 25 1 26 97 27 98 28 102 29 99 30 101 31 100 32 23 33 24 34
REMARK SMILES IDX 25 35 26 36 27 37 28 39 29 40 30 41 94 42 31 43 93 44 32 45
REMARK SMILES IDX 33 46 34 47 87 48 35 49 92 50 86 51 88 52 36 53 91 54 85 55
REMARK SMILES IDX 84 56 37 58 71 59 50 60 70 61 51 62 54 63 69 64 89 65 52 66
REMARK SMILES IDX 53 67 68 69 90 70 55 71 38 72 39 73 48 74 40 75 41 76 47 77
REMARK SMILES IDX 49 78 42 79 43 80 44 81 45 82 46 83 72 84 73 85 82 86 74 87
REMARK SMILES IDX 75 88 81 89 83 90 76 91 77 92 78 93 79 94 80 95 56 96 57 97
REMARK SMILES IDX 66 98 58 99 59 100 65 101 67 102 60 103 61 104 62 105 63 106
REMARK SMILES IDX 64 107
REMARK H PARENT 19 7 6 18 26 38 88 57 54 68
REMARK Flexibility Score: inf
ROOT
ATOM      1  C   UNL     1       5.214  -6.360   5.511  1.00  0.00     0.002 C 
ENDROOT
BRANCH   1   2
ATOM      2  C   UNL     1       4.270  -6.059   4.348  1.00  0.00     0.021 C 
BRANCH   2   3
ATOM      3  C   UNL     1       3.796  -7.301   3.607  1.00  0.00     0.116 C 
BRANCH   3   4
ATOM      4  N   UNL     1       2.816  -8.050   4.350  1.00  0.00    -0.356 N 
ATOM      5  C   UNL     1       1.516  -8.321   4.076  1.00  0.00     0.224 C 
ATOM      6  O   UNL     1       0.952  -9.144   4.809  1.00  0.00    -0.275 OA
ATOM      7  H   UNL     1       3.145  -8.428   5.197  1.00  0.00     0.163 HD
BRANCH   5   8
ATOM      8  C   UNL     1       0.769  -7.741   2.864  1.00  0.00     0.095 C 
ATOM      9  C   UNL     1       0.625  -6.198   2.709  1.00  0.00     0.095 C 
ATOM     10  C   UNL     1       1.543  -5.602   1.621  1.00  0.00     0.045 C 
ATOM     11  C   UNL     1       2.221  -6.491   0.614  1.00  0.00    -0.074 C 
ATOM     12  C   UNL     1       1.169  -8.524   1.600  1.00  0.00     0.045 C 
ATOM     13  C   UNL     1       3.098  -5.728  -0.351  1.00  0.00     0.039 C 
ATOM     14  C   UNL     1       2.064  -7.827   0.610  1.00  0.00    -0.074 C 
ATOM     15  C   UNL     1       2.794  -8.723  -0.357  1.00  0.00     0.039 C 
BRANCH   9  16
ATOM     16  C   UNL     1       0.678  -5.461   4.078  1.00  0.00     0.230 C 
ATOM     17  N   UNL     1       0.900  -4.130   4.247  1.00  0.00    -0.302 N 
ATOM     18  H   UNL     1       1.224  -3.896   5.146  1.00  0.00     0.172 HD
ATOM     19  O   UNL     1       0.509  -6.087   5.132  1.00  0.00    -0.274 OA
BRANCH  17  20
ATOM     20  C   UNL     1       0.765  -3.055   3.420  1.00  0.00     0.190 A 
ATOM     21  C   UNL     1       0.422  -1.634   1.514  1.00  0.00     0.034 A 
ATOM     22  S   UNL     1      -0.342  -3.055   2.135  1.00  0.00    -0.101 S 
ATOM     23  C   UNL     1       1.114  -1.054   2.570  1.00  0.00     0.087 A 
ATOM     24  N   UNL     1       1.337  -1.899   3.652  1.00  0.00    -0.220 NA
BRANCH  21  25
ATOM     25  C   UNL     1       0.177  -1.299   0.073  1.00  0.00     0.046 C 
ATOM     26  C   UNL     1       0.965  -0.141  -0.509  1.00  0.00     0.010 C 
ENDBRANCH  21  25
BRANCH  23  27
ATOM     27  C   UNL     1       1.596   0.316   2.581  1.00  0.00     0.001 A 
ATOM     28  C   UNL     1       0.670   1.366   2.489  1.00  0.00     0.010 A 
ATOM     29  C   UNL     1       2.960   0.607   2.666  1.00  0.00     0.010 A 
ATOM     30  C   UNL     1       1.107   2.689   2.413  1.00  0.00     0.001 A 
ATOM     31  C   UNL     1       3.395   1.935   2.595  1.00  0.00     0.001 A 
ATOM     32  C   UNL     1       2.470   2.971   2.455  1.00  0.00     0.000 A 
ENDBRANCH  23  27
ENDBRANCH  17  20
ENDBRANCH   9  16
ENDBRANCH   5   8
ENDBRANCH   3   4
ENDBRANCH   2   3
ENDBRANCH   1   2
BRANCH   1  33
ATOM     33  C   UNL     1       6.457  -7.173   5.135  1.00  0.00     0.002 C 
BRANCH  33  34
ATOM     34  C   UNL     1       7.264  -6.614   3.960  1.00  0.00     0.021 C 
BRANCH  34  35
ATOM     35  C   UNL     1       7.741  -5.180   4.153  1.00  0.00     0.116 C 
BRANCH  35  36
ATOM     36  N   UNL     1       8.633  -5.059   5.296  1.00  0.00    -0.352 N 
ATOM     37  C   UNL     1       9.921  -4.589   5.330  1.00  0.00     0.251 C 
ATOM     38  H   UNL     1       8.262  -5.352   6.160  1.00  0.00     0.163 HD
ATOM     39  O   UNL     1      10.622  -4.755   6.324  1.00  0.00    -0.269 OA
BRANCH  37  40
ATOM     40  C   UNL     1      10.456  -3.892   4.145  1.00  0.00     0.039 A 
ATOM     41  C   UNL     1      11.687  -4.282   3.615  1.00  0.00     0.014 A 
ATOM     42  C   UNL     1       9.711  -2.874   3.542  1.00  0.00     0.014 A 
ATOM     43  C   UNL     1      12.146  -3.691   2.437  1.00  0.00     0.010 A 
ATOM     44  C   UNL     1      10.137  -2.337   2.334  1.00  0.00     0.010 A 
ATOM     45  C   UNL     1      11.358  -2.738   1.771  1.00  0.00    -0.014 A 
BRANCH  45  46
ATOM     46  C   UNL     1      11.782  -2.129   0.486  1.00  0.00     0.031 A 
ATOM     47  C   UNL     1      12.026  -0.647   0.416  1.00  0.00     0.074 A 
ATOM     48  C   UNL     1      11.841  -2.882  -0.629  1.00  0.00     0.049 A 
ATOM     49  N   UNL     1      12.229   0.109  -0.630  1.00  0.00    -0.248 NA
ATOM     50  C   UNL     1      12.005   0.083   1.694  1.00  0.00     0.031 C 
ATOM     51  C   UNL     1      11.590  -4.324  -0.691  1.00  0.00     0.029 A 
ATOM     52  N   UNL     1      12.101  -2.535  -1.931  1.00  0.00    -0.354 N 
ATOM     53  C   UNL     1      12.341   1.405  -0.141  1.00  0.00     0.074 A 
ATOM     54  C   UNL     1      12.129   1.338   1.289  1.00  0.00     0.031 C 
ATOM     55  C   UNL     1      11.706  -4.736  -1.964  1.00  0.00     0.029 A 
ATOM     56  C   UNL     1      11.993  -3.583  -2.813  1.00  0.00     0.049 A 
ATOM     57  H   UNL     1      12.343  -1.621  -2.207  1.00  0.00     0.167 HD
ATOM     58  C   UNL     1      12.616   2.544  -0.820  1.00  0.00     0.037 A 
ATOM     59  C   UNL     1      12.087  -3.610  -4.158  1.00  0.00     0.037 A 
ATOM     60  C   UNL     1      12.842   2.595  -2.240  1.00  0.00     0.049 A 
ATOM     61  C   UNL     1      12.380  -2.332  -4.897  1.00  0.00     0.074 A 
ATOM     62  C   UNL     1      13.165   3.690  -3.021  1.00  0.00     0.029 A 
ATOM     63  N   UNL     1      12.769   1.502  -3.092  1.00  0.00    -0.354 N 
ATOM     64  N   UNL     1      12.525  -1.120  -4.417  1.00  0.00    -0.248 NA
ATOM     65  C   UNL     1      12.527  -2.422  -6.356  1.00  0.00     0.031 C 
ATOM     66  C   UNL     1      13.246   3.268  -4.351  1.00  0.00     0.029 A 
ATOM     67  C   UNL     1      13.026   1.900  -4.393  1.00  0.00     0.049 A 
ATOM     68  H   UNL     1      12.564   0.581  -2.813  1.00  0.00     0.167 HD
ATOM     69  C   UNL     1      12.810  -0.308  -5.509  1.00  0.00     0.074 A 
ATOM     70  C   UNL     1      12.818  -1.167  -6.676  1.00  0.00     0.031 C 
ATOM     71  C   UNL     1      13.049   1.026  -5.541  1.00  0.00     0.037 A 
BRANCH  58  72
ATOM     72  C   UNL     1      12.684   3.822  -0.029  1.00  0.00     0.058 A 
ATOM     73  C   UNL     1      13.720   4.066   0.887  1.00  0.00     0.135 A 
ATOM     74  C   UNL     1      11.709   4.818  -0.194  1.00  0.00     0.135 A 
ATOM     75  F   UNL     1      14.672   3.142   1.095  1.00  0.00    -0.206 F 
ATOM     76  C   UNL     1      13.762   5.232   1.645  1.00  0.00     0.059 A 
ATOM     77  C   UNL     1      11.749   6.006   0.530  1.00  0.00     0.059 A 
ATOM     78  F   UNL     1      10.697   4.639  -1.058  1.00  0.00    -0.206 F 
ATOM     79  C   UNL     1      12.768   6.194   1.463  1.00  0.00     0.060 A 
BRANCH  79  80
ATOM     80  S   UNL     1      12.823   7.691   2.469  1.00  0.00     0.124 S 
ATOM     81  O   UNL     1      12.398   7.181   3.770  1.00  0.00    -0.237 OA
ATOM     82  O   UNL     1      14.225   8.084   2.370  1.00  0.00    -0.237 OA
ATOM     83  O   UNL     1      11.877   8.582   1.806  1.00  0.00    -0.744 OA
ENDBRANCH  79  80
ENDBRANCH  58  72
BRANCH  59  84
ATOM     84  C   UNL     1      11.904  -4.895  -4.883  1.00  0.00     0.058 A 
ATOM     85  C   UNL     1      12.990  -5.548  -5.483  1.00  0.00     0.135 A 
ATOM     86  C   UNL     1      10.646  -5.515  -4.958  1.00  0.00     0.135 A 
ATOM     87  F   UNL     1      14.211  -4.992  -5.444  1.00  0.00    -0.206 F 
ATOM     88  C   UNL     1      12.837  -6.765  -6.139  1.00  0.00     0.059 A 
ATOM     89  C   UNL     1      10.473  -6.744  -5.587  1.00  0.00     0.059 A 
ATOM     90  F   UNL     1       9.578  -4.940  -4.385  1.00  0.00    -0.206 F 
ATOM     91  C   UNL     1      11.574  -7.358  -6.181  1.00  0.00     0.060 A 
BRANCH  91  92
ATOM     92  S   UNL     1      11.398  -8.969  -6.979  1.00  0.00     0.124 S 
ATOM     93  O   UNL     1      11.522  -8.614  -8.387  1.00  0.00    -0.237 OA
ATOM     94  O   UNL     1      12.514  -9.717  -6.407  1.00  0.00    -0.237 OA
ATOM     95  O   UNL     1      10.074  -9.411  -6.552  1.00  0.00    -0.744 OA
ENDBRANCH  91  92
ENDBRANCH  59  84
BRANCH  71  96
ATOM     96  C   UNL     1      13.386   1.648  -6.867  1.00  0.00     0.058 A 
ATOM     97  C   UNL     1      12.405   1.889  -7.840  1.00  0.00     0.135 A 
ATOM     98  C   UNL     1      14.690   2.105  -7.119  1.00  0.00     0.135 A 
ATOM     99  F   UNL     1      11.146   1.464  -7.651  1.00  0.00    -0.206 F 
ATOM    100  C   UNL     1      12.705   2.566  -9.018  1.00  0.00     0.059 A 
ATOM    101  C   UNL     1      15.007   2.805  -8.278  1.00  0.00     0.059 A 
ATOM    102  F   UNL     1      15.663   1.903  -6.216  1.00  0.00    -0.206 F 
ATOM    103  C   UNL     1      14.006   3.030  -9.223  1.00  0.00     0.060 A 
BRANCH 103 104
ATOM    104  S   UNL     1      14.360   3.981 -10.716  1.00  0.00     0.124 S 
ATOM    105  O   UNL     1      14.335   2.941 -11.740  1.00  0.00    -0.237 OA
ATOM    106  O   UNL     1      13.252   4.931 -10.750  1.00  0.00    -0.237 OA
ATOM    107  O   UNL     1      15.671   4.565 -10.446  1.00  0.00    -0.744 OA
ENDBRANCH 103 104
ENDBRANCH  71  96
ENDBRANCH  45  46
ENDBRANCH  37  40
ENDBRANCH  35  36
ENDBRANCH  34  35
ENDBRANCH  33  34
ENDBRANCH   1  33
TORSDOF 20
