REMARK SMILES CC(=O)N1C[C@@H]2C[N@H+](CC(=O)NCc3ccccc3)C[C@]2(C(=O)NCCCCCCNC(=O)c2ccc(-c3c4nc(c(-c5c(F)cc(S(=O)(=O)[O-])cc5F)c5ccc([nH]5)c(-c5c(F)cc(S(=O)(=O)[O-])cc5F)c5nc(c(-c6c(F)cc(S(=O)(=O)[O-])cc6F)c6ccc3[nH]6)C=C5)C=C4)cc2)C1
REMARK SMILES IDX 27 1 26 2 25 3 24 4 22 5 23 6 21 8 4 9 5 10 100 11 6 12 7 13
REMARK SMILES IDX 20 14 8 15 2 17 1 18 3 19 9 20 10 21 11 22 12 23 13 25 14 26
REMARK SMILES IDX 15 27 19 28 16 29 18 30 17 31 28 32 29 33 30 34 31 35 32 36
REMARK SMILES IDX 33 38 34 39 35 40 99 41 36 42 98 43 37 44 38 45 39 46 92 47
REMARK SMILES IDX 40 48 97 49 91 50 93 51 41 52 96 53 90 54 89 55 42 57 76 58
REMARK SMILES IDX 55 59 75 60 56 61 59 62 74 63 94 64 57 65 58 66 73 68 95 69
REMARK SMILES IDX 60 70 43 71 44 72 53 73 45 74 46 75 52 76 54 77 47 78 48 79
REMARK SMILES IDX 49 80 50 81 51 82 77 83 78 84 87 85 79 86 80 87 86 88 88 89
REMARK SMILES IDX 81 90 82 91 83 92 84 93 85 94 61 95 62 96 71 97 63 98 64 99
REMARK SMILES IDX 70 100 72 101 65 102 66 103 67 104 68 105 69 106
REMARK H PARENT 24 7 8 16 12 24 31 37 93 56 59 67
REMARK Flexibility Score: inf
ROOT
ATOM      1  C   UNL     1       6.176  -8.092   0.407  1.00  0.00     0.002 C 
ENDROOT
BRANCH   1   2
ATOM      2  C   UNL     1       5.113  -7.912  -0.697  1.00  0.00     0.021 C 
BRANCH   2   3
ATOM      3  C   UNL     1       4.377  -6.578  -0.591  1.00  0.00     0.116 C 
BRANCH   3   4
ATOM      4  N   UNL     1       4.355  -5.674  -1.749  1.00  0.00    -0.355 N 
ATOM      5  C   UNL     1       3.358  -4.868  -2.311  1.00  0.00     0.234 C 
ATOM      6  O   UNL     1       3.711  -4.233  -3.311  1.00  0.00    -0.274 OA
ATOM      7  H   UNL     1       5.215  -5.624  -2.226  1.00  0.00     0.163 HD
BRANCH   5   8
ATOM      8  C   UNL     1       1.854  -4.812  -1.721  1.00  0.00     0.125 C 
ATOM      9  N   UNL     1       0.476  -2.654  -1.490  1.00  0.00    -0.341 N 
ATOM     10  C   UNL     1      -0.496  -3.663  -1.612  1.00  0.00     0.130 C 
ATOM     11  C   UNL     1       1.772  -3.184  -1.940  1.00  0.00     0.143 C 
ATOM     12  C   UNL     1       0.267  -4.757  -2.307  1.00  0.00     0.087 C 
ATOM     13  C   UNL     1      -0.492  -6.052  -2.017  1.00  0.00     0.269 C 
ATOM     14  C   UNL     1       1.706  -6.299  -2.203  1.00  0.00     0.282 C 
ATOM     15  N   UNL     1       0.565  -6.880  -1.502  1.00  0.00    -0.326 N 
ATOM     16  H   UNL     1       0.439  -7.878  -1.672  1.00  0.00     0.348 HD
BRANCH   9  17
ATOM     17  C   UNL     1       0.207  -1.620  -0.622  1.00  0.00     0.219 C 
ATOM     18  C   UNL     1       0.467  -0.233  -1.135  1.00  0.00     0.114 C 
ATOM     19  O   UNL     1      -0.379  -1.781   0.450  1.00  0.00    -0.275 OA
ENDBRANCH   9  17
BRANCH  15  20
ATOM     20  C   UNL     1       0.673  -6.943  -0.006  1.00  0.00     0.363 C 
BRANCH  20  21
ATOM     21  C   UNL     1       0.254  -5.715   0.838  1.00  0.00     0.275 C 
ATOM     22  O   UNL     1      -0.947  -5.557   1.098  1.00  0.00    -0.268 OA
ATOM     23  N   UNL     1       1.097  -4.760   1.339  1.00  0.00    -0.347 N 
ATOM     24  H   UNL     1       0.629  -3.945   1.632  1.00  0.00     0.164 HD
BRANCH  23  25
ATOM     25  C   UNL     1       2.540  -4.693   1.530  1.00  0.00     0.151 C 
BRANCH  25  26
ATOM     26  C   UNL     1       3.214  -3.367   1.206  1.00  0.00    -0.029 A 
ATOM     27  C   UNL     1       4.507  -3.324   0.644  1.00  0.00     0.005 A 
ATOM     28  C   UNL     1       2.613  -2.133   1.458  1.00  0.00     0.005 A 
ATOM     29  C   UNL     1       5.078  -2.143   0.156  1.00  0.00     0.000 A 
ATOM     30  C   UNL     1       3.201  -0.937   1.012  1.00  0.00     0.000 A 
ATOM     31  C   UNL     1       4.405  -0.946   0.313  1.00  0.00     0.000 A 
ENDBRANCH  25  26
ENDBRANCH  23  25
ENDBRANCH  20  21
ENDBRANCH  15  20
ENDBRANCH   5   8
ENDBRANCH   3   4
ENDBRANCH   2   3
ENDBRANCH   1   2
BRANCH   1  32
ATOM     32  C   UNL     1       5.729  -7.898   1.870  1.00  0.00     0.002 C 
BRANCH  32  33
ATOM     33  C   UNL     1       4.663  -8.855   2.407  1.00  0.00     0.021 C 
BRANCH  33  34
ATOM     34  C   UNL     1       4.976 -10.339   2.251  1.00  0.00     0.116 C 
BRANCH  34  35
ATOM     35  N   UNL     1       6.276 -10.701   2.794  1.00  0.00    -0.352 N 
ATOM     36  C   UNL     1       6.636 -11.778   3.569  1.00  0.00     0.251 C 
ATOM     37  H   UNL     1       7.009 -10.081   2.574  1.00  0.00     0.163 HD
ATOM     38  O   UNL     1       7.758 -11.835   4.049  1.00  0.00    -0.269 OA
BRANCH  36  39
ATOM     39  C   UNL     1       5.653 -12.852   3.833  1.00  0.00     0.039 A 
ATOM     40  C   UNL     1       5.546 -13.364   5.129  1.00  0.00     0.014 A 
ATOM     41  C   UNL     1       4.849 -13.357   2.809  1.00  0.00     0.014 A 
ATOM     42  C   UNL     1       4.592 -14.344   5.407  1.00  0.00     0.010 A 
ATOM     43  C   UNL     1       3.847 -14.276   3.104  1.00  0.00     0.010 A 
ATOM     44  C   UNL     1       3.713 -14.785   4.404  1.00  0.00    -0.014 A 
BRANCH  44  45
ATOM     45  C   UNL     1       2.663 -15.795   4.689  1.00  0.00     0.031 A 
ATOM     46  C   UNL     1       2.704 -17.133   4.000  1.00  0.00     0.074 A 
ATOM     47  C   UNL     1       1.655 -15.490   5.530  1.00  0.00     0.049 A 
ATOM     48  N   UNL     1       1.845 -18.117   4.056  1.00  0.00    -0.248 NA
ATOM     49  C   UNL     1       3.851 -17.390   3.111  1.00  0.00     0.031 C 
ATOM     50  C   UNL     1       1.490 -14.213   6.229  1.00  0.00     0.029 A 
ATOM     51  N   UNL     1       0.572 -16.229   5.937  1.00  0.00    -0.354 N 
ATOM     52  C   UNL     1       2.347 -19.106   3.217  1.00  0.00     0.074 A 
ATOM     53  C   UNL     1       3.547 -18.578   2.609  1.00  0.00     0.031 C 
ATOM     54  C   UNL     1       0.389 -14.268   6.996  1.00  0.00     0.029 A 
ATOM     55  C   UNL     1      -0.255 -15.563   6.812  1.00  0.00     0.049 A 
ATOM     56  H   UNL     1       0.403 -17.149   5.631  1.00  0.00     0.167 HD
ATOM     57  C   UNL     1       1.870 -20.355   3.002  1.00  0.00     0.037 A 
ATOM     58  C   UNL     1      -1.408 -15.953   7.391  1.00  0.00     0.037 A 
ATOM     59  C   UNL     1       0.683 -20.880   3.625  1.00  0.00     0.049 A 
ATOM     60  C   UNL     1      -1.939 -17.333   7.097  1.00  0.00     0.074 A 
ATOM     61  C   UNL     1       0.123 -22.137   3.487  1.00  0.00     0.029 A 
ATOM     62  N   UNL     1      -0.122 -20.178   4.510  1.00  0.00    -0.354 N 
ATOM     63  N   UNL     1      -1.426 -18.270   6.335  1.00  0.00    -0.248 NA
ATOM     64  C   UNL     1      -3.201 -17.712   7.747  1.00  0.00     0.031 C 
ATOM     65  C   UNL     1      -1.043 -22.184   4.257  1.00  0.00     0.029 A 
ATOM     66  C   UNL     1      -1.179 -20.974   4.918  1.00  0.00     0.049 A 
ATOM     67  H   UNL     1       0.035 -19.252   4.805  1.00  0.00     0.167 HD
ATOM     68  C   UNL     1      -2.280 -19.362   6.450  1.00  0.00     0.074 A 
ATOM     69  C   UNL     1      -3.334 -18.973   7.362  1.00  0.00     0.031 C 
ATOM     70  C   UNL     1      -2.202 -20.577   5.853  1.00  0.00     0.037 A 
BRANCH  57  71
ATOM     71  C   UNL     1       2.645 -21.253   2.077  1.00  0.00     0.058 A 
ATOM     72  C   UNL     1       3.898 -21.772   2.444  1.00  0.00     0.135 A 
ATOM     73  C   UNL     1       2.108 -21.654   0.843  1.00  0.00     0.135 A 
ATOM     74  F   UNL     1       4.468 -21.407   3.604  1.00  0.00    -0.206 F 
ATOM     75  C   UNL     1       4.596 -22.643   1.616  1.00  0.00     0.059 A 
ATOM     76  C   UNL     1       2.777 -22.548   0.011  1.00  0.00     0.059 A 
ATOM     77  F   UNL     1       0.917 -21.185   0.439  1.00  0.00    -0.206 F 
ATOM     78  C   UNL     1       4.024 -23.032   0.404  1.00  0.00     0.060 A 
BRANCH  78  79
ATOM     79  S   UNL     1       4.930 -24.194  -0.638  1.00  0.00     0.124 S 
ATOM     80  O   UNL     1       6.042 -23.367  -1.099  1.00  0.00    -0.237 OA
ATOM     81  O   UNL     1       5.276 -25.252   0.305  1.00  0.00    -0.237 OA
ATOM     82  O   UNL     1       3.958 -24.563  -1.663  1.00  0.00    -0.744 OA
ENDBRANCH  78  79
ENDBRANCH  57  71
BRANCH  58  83
ATOM     83  C   UNL     1      -2.143 -15.042   8.312  1.00  0.00     0.058 A 
ATOM     84  C   UNL     1      -2.287 -15.353   9.673  1.00  0.00     0.135 A 
ATOM     85  C   UNL     1      -2.758 -13.869   7.844  1.00  0.00     0.135 A 
ATOM     86  F   UNL     1      -1.719 -16.463  10.170  1.00  0.00    -0.206 F 
ATOM     87  C   UNL     1      -3.052 -14.565  10.526  1.00  0.00     0.059 A 
ATOM     88  C   UNL     1      -3.500 -13.046   8.686  1.00  0.00     0.059 A 
ATOM     89  F   UNL     1      -2.634 -13.511   6.557  1.00  0.00    -0.206 F 
ATOM     90  C   UNL     1      -3.662 -13.416  10.020  1.00  0.00     0.060 A 
BRANCH  90  91
ATOM     91  S   UNL     1      -4.666 -12.408  11.131  1.00  0.00     0.124 S 
ATOM     92  O   UNL     1      -5.848 -13.246  11.297  1.00  0.00    -0.237 OA
ATOM     93  O   UNL     1      -3.801 -12.285  12.300  1.00  0.00    -0.237 OA
ATOM     94  O   UNL     1      -4.867 -11.175  10.376  1.00  0.00    -0.744 OA
ENDBRANCH  90  91
ENDBRANCH  58  83
BRANCH  70  95
ATOM     95  C   UNL     1      -3.247 -21.597   6.216  1.00  0.00     0.058 A 
ATOM     96  C   UNL     1      -4.577 -21.483   5.785  1.00  0.00     0.135 A 
ATOM     97  C   UNL     1      -2.895 -22.733   6.964  1.00  0.00     0.135 A 
ATOM     98  F   UNL     1      -4.968 -20.415   5.072  1.00  0.00    -0.206 F 
ATOM     99  C   UNL     1      -5.529 -22.445   6.105  1.00  0.00     0.059 A 
ATOM    100  C   UNL     1      -3.822 -23.724   7.268  1.00  0.00     0.059 A 
ATOM    101  F   UNL     1      -1.633 -22.897   7.391  1.00  0.00    -0.206 F 
ATOM    102  C   UNL     1      -5.140 -23.565   6.845  1.00  0.00     0.060 A 
BRANCH 102 103
ATOM    103  S   UNL     1      -6.378 -24.823   7.221  1.00  0.00     0.124 S 
ATOM    104  O   UNL     1      -7.189 -24.148   8.228  1.00  0.00    -0.237 OA
ATOM    105  O   UNL     1      -7.017 -25.028   5.925  1.00  0.00    -0.237 OA
ATOM    106  O   UNL     1      -5.583 -25.948   7.706  1.00  0.00    -0.744 OA
ENDBRANCH 102 103
ENDBRANCH  70  95
ENDBRANCH  44  45
ENDBRANCH  36  39
ENDBRANCH  34  35
ENDBRANCH  33  34
ENDBRANCH  32  33
ENDBRANCH   1  32
TORSDOF 21
