REMARK SMILES Cc1ccc([C@@H](C)Nc2ccccc2C(=O)NCCCCCCNC(=O)c2ccc(-c3c4nc(c(-c5c(F)cc(S(=O)(=O)[O-])cc5F)c5ccc([nH]5)c(-c5c(F)cc(S(=O)(=O)[O-])cc5F)c5nc(c(-c6c(F)cc(S(=O)(=O)[O-])cc6F)c6ccc3[nH]6)C=C5)C=C4)cc2)cc1F
REMARK SMILES IDX 20 1 19 2 18 3 17 4 15 5 16 6 14 8 9 9 10 10 11 11 13 12
REMARK SMILES IDX 12 13 8 14 6 16 7 17 5 18 1 19 2 20 3 21 94 22 4 23 93 24
REMARK SMILES IDX 95 25 21 26 22 27 23 28 24 29 25 30 26 32 27 33 28 34 92 35
REMARK SMILES IDX 29 36 91 37 30 38 31 39 32 40 85 41 33 42 90 43 84 44 86 45
REMARK SMILES IDX 34 46 89 47 83 48 82 49 35 51 69 52 48 53 68 54 49 55 52 56
REMARK SMILES IDX 67 57 87 58 50 59 51 60 66 62 88 63 53 64 36 65 37 66 46 67
REMARK SMILES IDX 38 68 39 69 45 70 47 71 40 72 41 73 42 74 43 75 44 76 70 77
REMARK SMILES IDX 71 78 80 79 72 80 73 81 79 82 81 83 74 84 75 85 76 86 77 87
REMARK SMILES IDX 78 88 54 89 55 90 64 91 56 92 57 93 63 94 65 95 58 96 59 97
REMARK SMILES IDX 60 98 61 99 62 100
REMARK H PARENT 17 7 8 15 24 31 86 50 52 61
REMARK Flexibility Score: inf
ROOT
ATOM      1  C   UNL     1      -2.879  -4.136  -2.806  1.00  0.00     0.002 C 
ENDROOT
BRANCH   1   2
ATOM      2  C   UNL     1      -2.690  -4.771  -1.416  1.00  0.00     0.021 C 
BRANCH   2   3
ATOM      3  C   UNL     1      -3.411  -4.206  -0.186  1.00  0.00     0.116 C 
BRANCH   3   4
ATOM      4  N   UNL     1      -4.755  -3.712  -0.412  1.00  0.00    -0.352 N 
ATOM      5  C   UNL     1      -5.614  -3.051   0.440  1.00  0.00     0.253 C 
ATOM      6  O   UNL     1      -6.731  -2.746   0.012  1.00  0.00    -0.269 OA
ATOM      7  H   UNL     1      -5.111  -3.876  -1.316  1.00  0.00     0.163 HD
BRANCH   5   8
ATOM      8  C   UNL     1      -5.302  -2.759   1.871  1.00  0.00     0.062 A 
ATOM      9  C   UNL     1      -4.101  -2.251   2.394  1.00  0.00     0.047 A 
ATOM     10  C   UNL     1      -3.954  -2.231   3.802  1.00  0.00     0.026 A 
ATOM     11  C   UNL     1      -4.984  -2.597   4.667  1.00  0.00     0.002 A 
ATOM     12  C   UNL     1      -6.361  -3.066   2.759  1.00  0.00     0.016 A 
ATOM     13  C   UNL     1      -6.208  -2.976   4.143  1.00  0.00     0.001 A 
BRANCH   9  14
ATOM     14  N   UNL     1      -3.052  -1.675   1.684  1.00  0.00    -0.378 N 
ATOM     15  H   UNL     1      -2.170  -2.112   1.721  1.00  0.00     0.161 HD
BRANCH  14  16
ATOM     16  C   UNL     1      -3.185  -0.452   0.881  1.00  0.00     0.106 C 
ATOM     17  C   UNL     1      -3.738  -0.707  -0.510  1.00  0.00     0.036 C 
BRANCH  16  18
ATOM     18  C   UNL     1      -1.810   0.195   0.700  1.00  0.00    -0.023 A 
ATOM     19  C   UNL     1       2.001   2.081  -0.091  1.00  0.00     0.047 C 
ATOM     20  C   UNL     1       0.675   1.448   0.190  1.00  0.00    -0.015 A 
ATOM     21  C   UNL     1      -0.513   2.185   0.143  1.00  0.00     0.007 A 
ATOM     22  C   UNL     1       0.605   0.085   0.468  1.00  0.00     0.126 A 
ATOM     23  C   UNL     1      -1.739   1.567   0.404  1.00  0.00     0.006 A 
ATOM     24  C   UNL     1      -0.612  -0.540   0.709  1.00  0.00     0.045 A 
ATOM     25  F   UNL     1       1.724  -0.652   0.493  1.00  0.00    -0.207 F 
ENDBRANCH  16  18
ENDBRANCH  14  16
ENDBRANCH   9  14
ENDBRANCH   5   8
ENDBRANCH   3   4
ENDBRANCH   2   3
ENDBRANCH   1   2
BRANCH   1  26
ATOM     26  C   UNL     1      -2.459  -2.688  -3.106  1.00  0.00     0.002 C 
BRANCH  26  27
ATOM     27  C   UNL     1      -1.200  -2.152  -2.421  1.00  0.00     0.021 C 
BRANCH  27  28
ATOM     28  C   UNL     1       0.060  -2.811  -2.927  1.00  0.00     0.116 C 
BRANCH  28  29
ATOM     29  N   UNL     1       0.401  -2.356  -4.267  1.00  0.00    -0.352 N 
ATOM     30  C   UNL     1       1.676  -2.170  -4.774  1.00  0.00     0.251 C 
ATOM     31  H   UNL     1      -0.350  -2.161  -4.874  1.00  0.00     0.163 HD
ATOM     32  O   UNL     1       1.934  -1.175  -5.425  1.00  0.00    -0.269 OA
BRANCH  30  33
ATOM     33  C   UNL     1       2.683  -3.220  -4.490  1.00  0.00     0.039 A 
ATOM     34  C   UNL     1       4.038  -3.062  -4.818  1.00  0.00     0.014 A 
ATOM     35  C   UNL     1       2.233  -4.427  -3.971  1.00  0.00     0.014 A 
ATOM     36  C   UNL     1       4.928  -4.113  -4.597  1.00  0.00     0.010 A 
ATOM     37  C   UNL     1       3.108  -5.386  -3.599  1.00  0.00     0.010 A 
ATOM     38  C   UNL     1       4.438  -5.260  -3.986  1.00  0.00    -0.014 A 
BRANCH  38  39
ATOM     39  C   UNL     1       5.180  -6.439  -3.609  1.00  0.00     0.031 A 
ATOM     40  C   UNL     1       5.921  -6.392  -2.347  1.00  0.00     0.074 A 
ATOM     41  C   UNL     1       4.701  -7.562  -4.187  1.00  0.00     0.049 A 
ATOM     42  N   UNL     1       6.660  -7.345  -1.918  1.00  0.00    -0.248 NA
ATOM     43  C   UNL     1       5.882  -5.242  -1.444  1.00  0.00     0.031 C 
ATOM     44  C   UNL     1       4.629  -8.927  -3.696  1.00  0.00     0.029 A 
ATOM     45  N   UNL     1       4.154  -7.649  -5.468  1.00  0.00    -0.354 N 
ATOM     46  C   UNL     1       6.895  -7.103  -0.581  1.00  0.00     0.074 A 
ATOM     47  C   UNL     1       6.533  -5.722  -0.379  1.00  0.00     0.031 C 
ATOM     48  C   UNL     1       4.370  -9.742  -4.739  1.00  0.00     0.029 A 
ATOM     49  C   UNL     1       4.443  -8.932  -5.950  1.00  0.00     0.049 A 
ATOM     50  H   UNL     1       3.660  -6.942  -5.943  1.00  0.00     0.167 HD
ATOM     51  C   UNL     1       7.204  -8.169   0.212  1.00  0.00     0.037 A 
ATOM     52  C   UNL     1       5.434  -9.007  -6.898  1.00  0.00     0.037 A 
ATOM     53  C   UNL     1       7.202  -9.393  -0.598  1.00  0.00     0.049 A 
ATOM     54  C   UNL     1       6.729  -9.583  -6.346  1.00  0.00     0.074 A 
ATOM     55  C   UNL     1       6.279 -10.396  -0.840  1.00  0.00     0.029 A 
ATOM     56  N   UNL     1       8.146  -9.504  -1.593  1.00  0.00    -0.354 N 
ATOM     57  N   UNL     1       6.935  -9.857  -5.085  1.00  0.00    -0.248 NA
ATOM     58  C   UNL     1       7.901  -9.884  -7.163  1.00  0.00     0.031 C 
ATOM     59  C   UNL     1       6.674 -11.075  -2.036  1.00  0.00     0.029 A 
ATOM     60  C   UNL     1       7.834 -10.485  -2.508  1.00  0.00     0.049 A 
ATOM     61  H   UNL     1       8.955  -8.945  -1.644  1.00  0.00     0.167 HD
ATOM     62  C   UNL     1       8.208 -10.308  -4.897  1.00  0.00     0.074 A 
ATOM     63  C   UNL     1       8.779 -10.306  -6.234  1.00  0.00     0.031 C 
ATOM     64  C   UNL     1       8.707 -10.629  -3.665  1.00  0.00     0.037 A 
BRANCH  51  65
ATOM     65  C   UNL     1       7.319  -8.201   1.720  1.00  0.00     0.058 A 
ATOM     66  C   UNL     1       7.315  -9.450   2.384  1.00  0.00     0.135 A 
ATOM     67  C   UNL     1       7.456  -7.088   2.574  1.00  0.00     0.135 A 
ATOM     68  F   UNL     1       7.246 -10.607   1.711  1.00  0.00    -0.206 F 
ATOM     69  C   UNL     1       7.391  -9.583   3.768  1.00  0.00     0.059 A 
ATOM     70  C   UNL     1       7.508  -7.194   3.970  1.00  0.00     0.059 A 
ATOM     71  F   UNL     1       7.597  -5.845   2.103  1.00  0.00    -0.206 F 
ATOM     72  C   UNL     1       7.475  -8.449   4.558  1.00  0.00     0.060 A 
BRANCH  72  73
ATOM     73  S   UNL     1       7.574  -8.659   6.342  1.00  0.00     0.124 S 
ATOM     74  O   UNL     1       6.329  -9.363   6.634  1.00  0.00    -0.237 OA
ATOM     75  O   UNL     1       8.796  -9.443   6.489  1.00  0.00    -0.237 OA
ATOM     76  O   UNL     1       7.646  -7.290   6.844  1.00  0.00    -0.744 OA
ENDBRANCH  72  73
ENDBRANCH  51  65
BRANCH  52  77
ATOM     77  C   UNL     1       5.310  -7.859  -7.876  1.00  0.00     0.058 A 
ATOM     78  C   UNL     1       4.120  -7.814  -8.638  1.00  0.00     0.135 A 
ATOM     79  C   UNL     1       5.951  -6.633  -7.621  1.00  0.00     0.135 A 
ATOM     80  F   UNL     1       3.474  -8.953  -8.937  1.00  0.00    -0.206 F 
ATOM     81  C   UNL     1       3.476  -6.612  -8.922  1.00  0.00     0.059 A 
ATOM     82  C   UNL     1       5.326  -5.414  -7.911  1.00  0.00     0.059 A 
ATOM     83  F   UNL     1       7.099  -6.603  -6.927  1.00  0.00    -0.206 F 
ATOM     84  C   UNL     1       4.051  -5.423  -8.480  1.00  0.00     0.060 A 
BRANCH  84  85
ATOM     85  S   UNL     1       3.017  -3.934  -8.485  1.00  0.00     0.124 S 
ATOM     86  O   UNL     1       2.583  -3.867  -9.877  1.00  0.00    -0.237 OA
ATOM     87  O   UNL     1       1.979  -4.303  -7.523  1.00  0.00    -0.237 OA
ATOM     88  O   UNL     1       3.941  -2.886  -8.066  1.00  0.00    -0.744 OA
ENDBRANCH  84  85
ENDBRANCH  52  77
BRANCH  64  89
ATOM     89  C   UNL     1      10.123 -11.082  -3.454  1.00  0.00     0.058 A 
ATOM     90  C   UNL     1      10.699 -12.091  -4.236  1.00  0.00     0.135 A 
ATOM     91  C   UNL     1      10.917 -10.584  -2.395  1.00  0.00     0.135 A 
ATOM     92  F   UNL     1       9.998 -12.686  -5.215  1.00  0.00    -0.206 F 
ATOM     93  C   UNL     1      12.011 -12.515  -4.037  1.00  0.00     0.059 A 
ATOM     94  C   UNL     1      12.195 -11.047  -2.128  1.00  0.00     0.059 A 
ATOM     95  F   UNL     1      10.504  -9.585  -1.603  1.00  0.00    -0.206 F 
ATOM     96  C   UNL     1      12.753 -11.979  -2.985  1.00  0.00     0.060 A 
BRANCH  96  97
ATOM     97  S   UNL     1      14.464 -12.477  -2.759  1.00  0.00     0.124 S 
ATOM     98  O   UNL     1      14.410 -13.914  -3.009  1.00  0.00    -0.237 OA
ATOM     99  O   UNL     1      15.130 -11.681  -3.785  1.00  0.00    -0.237 OA
ATOM    100  O   UNL     1      14.753 -12.095  -1.380  1.00  0.00    -0.744 OA
ENDBRANCH  96  97
ENDBRANCH  64  89
ENDBRANCH  38  39
ENDBRANCH  30  33
ENDBRANCH  28  29
ENDBRANCH  27  28
ENDBRANCH  26  27
ENDBRANCH   1  26
TORSDOF 19
