REMARK SMILES COC(=O)[C@@H]([NH2+]CC(C)(C)C(=O)NCCCCCCNC(=O)c1ccc(-c2c3nc(c(-c4c(F)cc(S(=O)(=O)[O-])cc4F)c4ccc([nH]4)c(-c4c(F)cc(S(=O)(=O)[O-])cc4F)c4nc(c(-c5c(F)cc(S(=O)(=O)[O-])cc5F)c5ccc2[nH]5)C=C4)C=C3)cc1)c1ccccc1
REMARK SMILES IDX 15 1 14 2 13 3 11 4 12 5 8 7 9 8 10 9 7 10 6 11 5 14 3 15
REMARK SMILES IDX 4 16 2 17 1 18 89 19 90 20 94 21 91 22 93 23 92 24 16 25
REMARK SMILES IDX 17 26 18 27 19 28 20 29 21 30 22 32 23 33 24 34 88 35 25 36
REMARK SMILES IDX 87 37 26 38 27 39 28 40 81 41 29 42 86 43 80 44 82 45 30 46
REMARK SMILES IDX 85 47 79 48 78 49 31 51 65 52 44 53 64 54 45 55 48 56 63 57
REMARK SMILES IDX 83 58 46 59 47 60 62 62 84 63 49 64 32 65 33 66 42 67 34 68
REMARK SMILES IDX 35 69 41 70 43 71 36 72 37 73 38 74 39 75 40 76 66 77 67 78
REMARK SMILES IDX 76 79 68 80 69 81 75 82 77 83 70 84 71 85 72 86 73 87 74 88
REMARK SMILES IDX 50 89 51 90 60 91 52 92 53 93 59 94 61 95 54 96 55 97 56 98
REMARK SMILES IDX 57 99 58 100
REMARK H PARENT 13 6 6 12 6 13 20 31 82 50 48 61
REMARK Flexibility Score: inf
ROOT
ATOM      1  C   UNL     1       1.075   8.896  -4.261  1.00  0.00     0.021 C 
ENDROOT
BRANCH   1   2
ATOM      2  C   UNL     1       2.127   7.791  -4.096  1.00  0.00     0.116 C 
BRANCH   2   3
ATOM      3  N   UNL     1       1.669   6.781  -3.164  1.00  0.00    -0.355 N 
ATOM      4  C   UNL     1       0.837   5.737  -3.410  1.00  0.00     0.231 C 
ATOM      5  O   UNL     1      -0.124   5.647  -2.645  1.00  0.00    -0.274 OA
ATOM      6  H   UNL     1       2.001   6.861  -2.241  1.00  0.00     0.163 HD
BRANCH   4   7
ATOM      7  C   UNL     1       1.069   4.756  -4.569  1.00  0.00     0.092 C 
ATOM      8  C   UNL     1       2.564   4.463  -4.774  1.00  0.00     0.027 C 
ATOM      9  C   UNL     1       0.469   5.361  -5.854  1.00  0.00     0.027 C 
BRANCH   7  10
ATOM     10  C   UNL     1       0.292   3.410  -4.311  1.00  0.00     0.277 C 
BRANCH  10  11
ATOM     11  N   UNL     1       0.739   2.473  -3.261  1.00  0.00    -0.330 N 
ATOM     12  H   UNL     1       0.522   1.524  -3.568  1.00  0.00     0.347 HD
ATOM     13  H   UNL     1       1.738   2.635  -3.135  1.00  0.00     0.347 HD
BRANCH  11  14
ATOM     14  C   UNL     1       0.106   2.684  -1.928  1.00  0.00     0.324 C 
BRANCH  14  15
ATOM     15  C   UNL     1       0.816   1.808  -0.869  1.00  0.00     0.369 C 
ATOM     16  O   UNL     1       1.648   2.252  -0.079  1.00  0.00    -0.245 OA
BRANCH  15  17
ATOM     17  O   UNL     1       0.484   0.487  -0.948  1.00  0.00    -0.464 OA
ATOM     18  C   UNL     1       1.108  -0.331   0.041  1.00  0.00     0.282 C 
ENDBRANCH  15  17
ENDBRANCH  14  15
BRANCH  14  19
ATOM     19  C   UNL     1      -1.414   2.528  -1.922  1.00  0.00     0.021 A 
ATOM     20  C   UNL     1      -2.224   3.639  -1.623  1.00  0.00     0.010 A 
ATOM     21  C   UNL     1      -2.054   1.325  -2.256  1.00  0.00     0.010 A 
ATOM     22  C   UNL     1      -3.616   3.562  -1.677  1.00  0.00     0.001 A 
ATOM     23  C   UNL     1      -3.450   1.236  -2.271  1.00  0.00     0.001 A 
ATOM     24  C   UNL     1      -4.230   2.356  -1.993  1.00  0.00     0.000 A 
ENDBRANCH  14  19
ENDBRANCH  11  14
ENDBRANCH  10  11
ENDBRANCH   7  10
ENDBRANCH   4   7
ENDBRANCH   2   3
ENDBRANCH   1   2
BRANCH   1  25
ATOM     25  C   UNL     1       0.581   9.541  -2.954  1.00  0.00     0.002 C 
BRANCH  25  26
ATOM     26  C   UNL     1       1.662  10.019  -1.979  1.00  0.00     0.002 C 
BRANCH  26  27
ATOM     27  C   UNL     1       2.738  10.921  -2.580  1.00  0.00     0.021 C 
BRANCH  27  28
ATOM     28  C   UNL     1       2.211  12.179  -3.251  1.00  0.00     0.116 C 
BRANCH  28  29
ATOM     29  N   UNL     1       1.681  13.139  -2.296  1.00  0.00    -0.352 N 
ATOM     30  C   UNL     1       1.946  14.486  -2.222  1.00  0.00     0.251 C 
ATOM     31  H   UNL     1       1.057  12.782  -1.623  1.00  0.00     0.163 HD
ATOM     32  O   UNL     1       1.549  15.151  -1.269  1.00  0.00    -0.269 OA
BRANCH  30  33
ATOM     33  C   UNL     1       2.747  15.114  -3.294  1.00  0.00     0.039 A 
ATOM     34  C   UNL     1       3.870  15.870  -2.952  1.00  0.00     0.014 A 
ATOM     35  C   UNL     1       2.418  14.898  -4.636  1.00  0.00     0.014 A 
ATOM     36  C   UNL     1       4.704  16.359  -3.961  1.00  0.00     0.010 A 
ATOM     37  C   UNL     1       3.287  15.326  -5.634  1.00  0.00     0.010 A 
ATOM     38  C   UNL     1       4.436  16.063  -5.307  1.00  0.00    -0.014 A 
BRANCH  38  39
ATOM     39  C   UNL     1       5.330  16.527  -6.399  1.00  0.00     0.031 A 
ATOM     40  C   UNL     1       4.806  17.496  -7.424  1.00  0.00     0.074 A 
ATOM     41  C   UNL     1       6.574  16.023  -6.515  1.00  0.00     0.049 A 
ATOM     42  N   UNL     1       5.374  17.928  -8.519  1.00  0.00    -0.248 NA
ATOM     43  C   UNL     1       3.451  18.027  -7.200  1.00  0.00     0.031 C 
ATOM     44  C   UNL     1       7.184  15.050  -5.605  1.00  0.00     0.029 A 
ATOM     45  N   UNL     1       7.547  16.248  -7.457  1.00  0.00    -0.354 N 
ATOM     46  C   UNL     1       4.442  18.764  -9.123  1.00  0.00     0.074 A 
ATOM     47  C   UNL     1       3.254  18.739  -8.299  1.00  0.00     0.031 C 
ATOM     48  C   UNL     1       8.430  14.775  -6.025  1.00  0.00     0.029 A 
ATOM     49  C   UNL     1       8.695  15.520  -7.252  1.00  0.00     0.049 A 
ATOM     50  H   UNL     1       7.433  16.873  -8.209  1.00  0.00     0.167 HD
ATOM     51  C   UNL     1       4.573  19.503 -10.251  1.00  0.00     0.037 A 
ATOM     52  C   UNL     1       9.829  15.452  -7.979  1.00  0.00     0.037 A 
ATOM     53  C   UNL     1       5.769  19.550 -11.048  1.00  0.00     0.049 A 
ATOM     54  C   UNL     1       9.950  16.281  -9.229  1.00  0.00     0.074 A 
ATOM     55  C   UNL     1       6.018  20.302 -12.182  1.00  0.00     0.029 A 
ATOM     56  N   UNL     1       6.921  18.821 -10.790  1.00  0.00    -0.354 N 
ATOM     57  N   UNL     1       9.072  17.096  -9.765  1.00  0.00    -0.248 NA
ATOM     58  C   UNL     1      11.214  16.185  -9.973  1.00  0.00     0.031 C 
ATOM     59  C   UNL     1       7.310  20.005 -12.628  1.00  0.00     0.029 A 
ATOM     60  C   UNL     1       7.880  19.098 -11.748  1.00  0.00     0.049 A 
ATOM     61  H   UNL     1       7.038  18.199 -10.036  1.00  0.00     0.167 HD
ATOM     62  C   UNL     1       9.689  17.632 -10.890  1.00  0.00     0.074 A 
ATOM     63  C   UNL     1      11.015  17.053 -10.957  1.00  0.00     0.031 C 
ATOM     64  C   UNL     1       9.202  18.525 -11.786  1.00  0.00     0.037 A 
BRANCH  51  65
ATOM     65  C   UNL     1       3.392  20.328 -10.680  1.00  0.00     0.058 A 
ATOM     66  C   UNL     1       3.002  21.474  -9.969  1.00  0.00     0.135 A 
ATOM     67  C   UNL     1       2.658  19.986 -11.826  1.00  0.00     0.135 A 
ATOM     68  F   UNL     1       3.659  21.836  -8.856  1.00  0.00    -0.206 F 
ATOM     69  C   UNL     1       1.907  22.235 -10.362  1.00  0.00     0.059 A 
ATOM     70  C   UNL     1       1.575  20.748 -12.253  1.00  0.00     0.059 A 
ATOM     71  F   UNL     1       2.988  18.898 -12.541  1.00  0.00    -0.206 F 
ATOM     72  C   UNL     1       1.197  21.862 -11.505  1.00  0.00     0.060 A 
BRANCH  72  73
ATOM     73  S   UNL     1      -0.222  22.860 -12.003  1.00  0.00     0.124 S 
ATOM     74  O   UNL     1      -1.221  22.453 -11.019  1.00  0.00    -0.237 OA
ATOM     75  O   UNL     1       0.286  24.221 -11.863  1.00  0.00    -0.237 OA
ATOM     76  O   UNL     1      -0.478  22.427 -13.373  1.00  0.00    -0.744 OA
ENDBRANCH  72  73
ENDBRANCH  51  65
BRANCH  52  77
ATOM     77  C   UNL     1      10.950  14.582  -7.533  1.00  0.00     0.058 A 
ATOM     78  C   UNL     1      12.133  15.139  -7.025  1.00  0.00     0.135 A 
ATOM     79  C   UNL     1      10.862  13.183  -7.603  1.00  0.00     0.135 A 
ATOM     80  F   UNL     1      12.265  16.472  -6.945  1.00  0.00    -0.206 F 
ATOM     81  C   UNL     1      13.198  14.342  -6.619  1.00  0.00     0.059 A 
ATOM     82  C   UNL     1      11.906  12.364  -7.182  1.00  0.00     0.059 A 
ATOM     83  F   UNL     1       9.745  12.601  -8.066  1.00  0.00    -0.206 F 
ATOM     84  C   UNL     1      13.075  12.954  -6.702  1.00  0.00     0.060 A 
BRANCH  84  85
ATOM     85  S   UNL     1      14.447  11.926  -6.135  1.00  0.00     0.124 S 
ATOM     86  O   UNL     1      15.400  12.080  -7.229  1.00  0.00    -0.237 OA
ATOM     87  O   UNL     1      14.812  12.565  -4.875  1.00  0.00    -0.237 OA
ATOM     88  O   UNL     1      13.842  10.604  -6.006  1.00  0.00    -0.744 OA
ENDBRANCH  84  85
ENDBRANCH  52  77
BRANCH  64  89
ATOM     89  C   UNL     1      10.116  18.969 -12.892  1.00  0.00     0.058 A 
ATOM     90  C   UNL     1      10.393  18.145 -13.993  1.00  0.00     0.135 A 
ATOM     91  C   UNL     1      10.656  20.265 -12.886  1.00  0.00     0.135 A 
ATOM     92  F   UNL     1       9.906  16.895 -14.041  1.00  0.00    -0.206 F 
ATOM     93  C   UNL     1      11.184  18.588 -15.048  1.00  0.00     0.059 A 
ATOM     94  C   UNL     1      11.431  20.737 -13.941  1.00  0.00     0.059 A 
ATOM     95  F   UNL     1      10.412  21.095 -11.859  1.00  0.00    -0.206 F 
ATOM     96  C   UNL     1      11.694  19.888 -15.015  1.00  0.00     0.060 A 
BRANCH  96  97
ATOM     97  S   UNL     1      12.670  20.471 -16.418  1.00  0.00     0.124 S 
ATOM     98  O   UNL     1      13.940  19.786 -16.197  1.00  0.00    -0.237 OA
ATOM     99  O   UNL     1      11.888  20.005 -17.559  1.00  0.00    -0.237 OA
ATOM    100  O   UNL     1      12.697  21.919 -16.234  1.00  0.00    -0.744 OA
ENDBRANCH  96  97
ENDBRANCH  64  89
ENDBRANCH  38  39
ENDBRANCH  30  33
ENDBRANCH  28  29
ENDBRANCH  27  28
ENDBRANCH  26  27
ENDBRANCH  25  26
ENDBRANCH   1  25
TORSDOF 22
