REMARK SMILES C[C@@H](O)[C@@H](NC(=O)Nc1ccc(F)cc1F)C(=O)NCCCCCCNC(=O)c1ccc(-c2c3nc(c(-c4c(F)cc(S(=O)(=O)[O-])cc4F)c4ccc([nH]4)c(-c4c(F)cc(S(=O)(=O)[O-])cc4F)c4nc(c(-c5c(F)cc(S(=O)(=O)[O-])cc5F)c5ccc2[nH]5)C=C4)C=C3)cc1
REMARK SMILES IDX 23 1 22 2 21 3 20 4 19 5 17 6 18 7 4 9 2 10 1 11 3 12 5 14
REMARK SMILES IDX 6 15 7 17 8 18 9 20 10 21 15 22 11 23 14 24 16 25 12 26
REMARK SMILES IDX 13 27 24 28 25 29 26 30 27 31 28 33 29 34 30 35 94 36 31 37
REMARK SMILES IDX 93 38 32 39 33 40 34 41 87 42 35 43 92 44 86 45 88 46 36 47
REMARK SMILES IDX 91 48 85 49 84 50 37 52 71 53 50 54 70 55 51 56 54 57 69 58
REMARK SMILES IDX 89 59 52 60 53 61 68 63 90 64 55 65 38 66 39 67 48 68 40 69
REMARK SMILES IDX 41 70 47 71 49 72 42 73 43 74 44 75 45 76 46 77 72 78 73 79
REMARK SMILES IDX 82 80 74 81 75 82 81 83 83 84 76 85 77 86 78 87 79 88 80 89
REMARK SMILES IDX 56 90 57 91 66 92 58 93 59 94 65 95 67 96 60 97 61 98 62 99
REMARK SMILES IDX 63 100 64 101
REMARK H PARENT 19 8 3 13 5 16 8 19 26 32 88 51 54 62
REMARK Flexibility Score: inf
ROOT
ATOM      1  C   UNL     1      -0.144  -5.083  -4.873  1.00  0.00     0.002 C 
ENDROOT
BRANCH   1   2
ATOM      2  C   UNL     1       0.925  -5.018  -3.776  1.00  0.00     0.002 C 
BRANCH   2   3
ATOM      3  C   UNL     1       1.469  -3.611  -3.463  1.00  0.00     0.021 C 
BRANCH   3   4
ATOM      4  C   UNL     1       0.385  -2.562  -3.203  1.00  0.00     0.116 C 
BRANCH   4   5
ATOM      5  N   UNL     1      -0.511  -3.042  -2.179  1.00  0.00    -0.354 N 
ATOM      6  C   UNL     1      -0.281  -2.827  -0.849  1.00  0.00     0.245 C 
ATOM      7  O   UNL     1       0.237  -3.707  -0.161  1.00  0.00    -0.273 OA
ATOM      8  H   UNL     1      -1.315  -3.542  -2.447  1.00  0.00     0.163 HD
BRANCH   6   9
ATOM      9  C   UNL     1      -0.616  -1.438  -0.282  1.00  0.00     0.201 C 
BRANCH   9  10
ATOM     10  C   UNL     1       0.757  -0.747  -0.065  1.00  0.00     0.143 C 
ATOM     11  C   UNL     1       0.681   0.753   0.176  1.00  0.00     0.041 C 
BRANCH  10  12
ATOM     12  O   UNL     1       1.394  -1.305   1.098  1.00  0.00    -0.391 OA
ATOM     13  H   UNL     1       0.856  -1.118   1.883  1.00  0.00     0.211 HD
ENDBRANCH  10  12
ENDBRANCH   9  10
BRANCH   9  14
ATOM     14  N   UNL     1      -1.593  -0.706  -1.105  1.00  0.00    -0.323 N 
ATOM     15  C   UNL     1      -2.818  -1.022  -1.586  1.00  0.00     0.320 C 
ATOM     16  H   UNL     1      -1.294   0.198  -1.357  1.00  0.00     0.166 HD
ATOM     17  O   UNL     1      -3.376  -0.184  -2.299  1.00  0.00    -0.248 OA
ATOM     18  N   UNL     1      -3.359  -2.258  -1.489  1.00  0.00    -0.305 N 
ATOM     19  H   UNL     1      -3.966  -2.487  -2.230  1.00  0.00     0.171 HD
BRANCH  18  20
ATOM     20  C   UNL     1      -3.220  -3.273  -0.534  1.00  0.00     0.079 A 
ATOM     21  C   UNL     1      -3.139  -2.999   0.830  1.00  0.00     0.032 A 
ATOM     22  C   UNL     1      -3.110  -4.600  -0.978  1.00  0.00     0.149 A 
ATOM     23  C   UNL     1      -2.824  -4.027   1.721  1.00  0.00     0.041 A 
ATOM     24  C   UNL     1      -2.770  -5.622  -0.101  1.00  0.00     0.080 A 
ATOM     25  F   UNL     1      -3.181  -4.872  -2.291  1.00  0.00    -0.205 F 
ATOM     26  C   UNL     1      -2.613  -5.319   1.244  1.00  0.00     0.126 A 
ATOM     27  F   UNL     1      -2.245  -6.282   2.098  1.00  0.00    -0.207 F 
ENDBRANCH  18  20
ENDBRANCH   9  14
ENDBRANCH   6   9
ENDBRANCH   4   5
ENDBRANCH   3   4
ENDBRANCH   2   3
ENDBRANCH   1   2
BRANCH   1  28
ATOM     28  C   UNL     1       0.245  -4.417  -6.190  1.00  0.00     0.021 C 
BRANCH  28  29
ATOM     29  C   UNL     1       1.574  -4.886  -6.753  1.00  0.00     0.116 C 
BRANCH  29  30
ATOM     30  N   UNL     1       1.551  -6.279  -7.161  1.00  0.00    -0.352 N 
ATOM     31  C   UNL     1       2.228  -6.834  -8.223  1.00  0.00     0.251 C 
ATOM     32  H   UNL     1       0.994  -6.888  -6.624  1.00  0.00     0.163 HD
ATOM     33  O   UNL     1       2.042  -7.992  -8.563  1.00  0.00    -0.269 OA
BRANCH  31  34
ATOM     34  C   UNL     1       3.164  -5.961  -8.963  1.00  0.00     0.039 A 
ATOM     35  C   UNL     1       2.962  -5.751 -10.327  1.00  0.00     0.014 A 
ATOM     36  C   UNL     1       4.162  -5.271  -8.268  1.00  0.00     0.014 A 
ATOM     37  C   UNL     1       3.742  -4.805 -10.994  1.00  0.00     0.010 A 
ATOM     38  C   UNL     1       4.885  -4.279  -8.918  1.00  0.00     0.010 A 
ATOM     39  C   UNL     1       4.690  -4.044 -10.289  1.00  0.00    -0.014 A 
BRANCH  39  40
ATOM     40  C   UNL     1       5.532  -3.027 -10.966  1.00  0.00     0.031 A 
ATOM     41  C   UNL     1       7.021  -3.232 -11.021  1.00  0.00     0.074 A 
ATOM     42  C   UNL     1       4.977  -1.904 -11.462  1.00  0.00     0.049 A 
ATOM     43  N   UNL     1       7.953  -2.416 -11.438  1.00  0.00    -0.248 NA
ATOM     44  C   UNL     1       7.531  -4.515 -10.508  1.00  0.00     0.031 C 
ATOM     45  C   UNL     1       3.548  -1.584 -11.444  1.00  0.00     0.029 A 
ATOM     46  N   UNL     1       5.553  -0.816 -12.069  1.00  0.00    -0.354 N 
ATOM     47  C   UNL     1       9.156  -3.076 -11.216  1.00  0.00     0.074 A 
ATOM     48  C   UNL     1       8.840  -4.335 -10.580  1.00  0.00     0.031 C 
ATOM     49  C   UNL     1       3.358  -0.392 -12.035  1.00  0.00     0.029 A 
ATOM     50  C   UNL     1       4.651   0.156 -12.434  1.00  0.00     0.049 A 
ATOM     51  H   UNL     1       6.521  -0.739 -12.230  1.00  0.00     0.167 HD
ATOM     52  C   UNL     1      10.409  -2.679 -11.539  1.00  0.00     0.037 A 
ATOM     53  C   UNL     1       4.848   1.357 -13.014  1.00  0.00     0.037 A 
ATOM     54  C   UNL     1      10.709  -1.442 -12.207  1.00  0.00     0.049 A 
ATOM     55  C   UNL     1       6.251   1.780 -13.361  1.00  0.00     0.074 A 
ATOM     56  C   UNL     1      11.940  -0.960 -12.612  1.00  0.00     0.029 A 
ATOM     57  N   UNL     1       9.764  -0.496 -12.580  1.00  0.00    -0.354 N 
ATOM     58  N   UNL     1       7.377   1.136 -13.164  1.00  0.00    -0.248 NA
ATOM     59  C   UNL     1       6.414   3.090 -14.007  1.00  0.00     0.031 C 
ATOM     60  C   UNL     1      11.745   0.293 -13.200  1.00  0.00     0.029 A 
ATOM     61  C   UNL     1      10.387   0.571 -13.204  1.00  0.00     0.049 A 
ATOM     62  H   UNL     1       8.795  -0.572 -12.424  1.00  0.00     0.167 HD
ATOM     63  C   UNL     1       8.377   1.946 -13.691  1.00  0.00     0.074 A 
ATOM     64  C   UNL     1       7.724   3.128 -14.214  1.00  0.00     0.031 C 
ATOM     65  C   UNL     1       9.714   1.728 -13.739  1.00  0.00     0.037 A 
BRANCH  52  66
ATOM     66  C   UNL     1      11.544  -3.597 -11.181  1.00  0.00     0.058 A 
ATOM     67  C   UNL     1      12.460  -3.244 -10.177  1.00  0.00     0.135 A 
ATOM     68  C   UNL     1      11.742  -4.815 -11.850  1.00  0.00     0.135 A 
ATOM     69  F   UNL     1      12.315  -2.092  -9.503  1.00  0.00    -0.206 F 
ATOM     70  C   UNL     1      13.534  -4.065  -9.848  1.00  0.00     0.059 A 
ATOM     71  C   UNL     1      12.791  -5.664 -11.518  1.00  0.00     0.059 A 
ATOM     72  F   UNL     1      10.885  -5.210 -12.805  1.00  0.00    -0.206 F 
ATOM     73  C   UNL     1      13.683  -5.280 -10.515  1.00  0.00     0.060 A 
BRANCH  73  74
ATOM     74  S   UNL     1      15.040  -6.396 -10.100  1.00  0.00     0.124 S 
ATOM     75  O   UNL     1      14.329  -7.485  -9.437  1.00  0.00    -0.237 OA
ATOM     76  O   UNL     1      15.597  -6.709 -11.412  1.00  0.00    -0.237 OA
ATOM     77  O   UNL     1      15.893  -5.587  -9.235  1.00  0.00    -0.744 OA
ENDBRANCH  73  74
ENDBRANCH  52  66
BRANCH  53  78
ATOM     78  C   UNL     1       3.685   2.227 -13.331  1.00  0.00     0.058 A 
ATOM     79  C   UNL     1       2.947   2.863 -12.320  1.00  0.00     0.135 A 
ATOM     80  C   UNL     1       3.272   2.418 -14.658  1.00  0.00     0.135 A 
ATOM     81  F   UNL     1       3.291   2.700 -11.033  1.00  0.00    -0.206 F 
ATOM     82  C   UNL     1       1.832   3.645 -12.610  1.00  0.00     0.059 A 
ATOM     83  C   UNL     1       2.176   3.214 -14.975  1.00  0.00     0.059 A 
ATOM     84  F   UNL     1       3.950   1.838 -15.661  1.00  0.00    -0.206 F 
ATOM     85  C   UNL     1       1.458   3.819 -13.942  1.00  0.00     0.060 A 
BRANCH  85  86
ATOM     86  S   UNL     1       0.004   4.803 -14.364  1.00  0.00     0.124 S 
ATOM     87  O   UNL     1       0.609   5.962 -15.010  1.00  0.00    -0.237 OA
ATOM     88  O   UNL     1      -0.733   3.896 -15.238  1.00  0.00    -0.237 OA
ATOM     89  O   UNL     1      -0.618   5.057 -13.068  1.00  0.00    -0.744 OA
ENDBRANCH  85  86
ENDBRANCH  53  78
BRANCH  65  90
ATOM     90  C   UNL     1      10.569   2.758 -14.419  1.00  0.00     0.058 A 
ATOM     91  C   UNL     1      11.161   2.474 -15.661  1.00  0.00     0.135 A 
ATOM     92  C   UNL     1      10.893   3.973 -13.798  1.00  0.00     0.135 A 
ATOM     93  F   UNL     1      10.890   1.319 -16.291  1.00  0.00    -0.206 F 
ATOM     94  C   UNL     1      12.065   3.348 -16.255  1.00  0.00     0.059 A 
ATOM     95  C   UNL     1      11.776   4.873 -14.385  1.00  0.00     0.059 A 
ATOM     96  F   UNL     1      10.347   4.293 -12.614  1.00  0.00    -0.206 F 
ATOM     97  C   UNL     1      12.366   4.546 -15.609  1.00  0.00     0.060 A 
BRANCH  97  98
ATOM     98  S   UNL     1      13.567   5.691 -16.320  1.00  0.00     0.124 S 
ATOM     99  O   UNL     1      12.712   6.802 -16.723  1.00  0.00    -0.237 OA
ATOM    100  O   UNL     1      14.454   5.951 -15.189  1.00  0.00    -0.237 OA
ATOM    101  O   UNL     1      14.161   4.927 -17.413  1.00  0.00    -0.744 OA
ENDBRANCH  97  98
ENDBRANCH  65  90
ENDBRANCH  39  40
ENDBRANCH  31  34
ENDBRANCH  29  30
ENDBRANCH  28  29
ENDBRANCH   1  28
TORSDOF 20
