REMARK SMILES Cc1cc(/C=C2/C(=O)NC(=S)[NH+]=C2NCCCCCCNC(=O)c2ccc(-c3c4nc(c(-c5c(F)cc(S(=O)(=O)[O-])cc5F)c5ccc([nH]5)c(-c5c(F)cc(S(=O)(=O)[O-])cc5F)c5nc(c(-c6c(F)cc(S(=O)(=O)[O-])cc6F)c6ccc3[nH]6)C=C5)C=C4)cc2)c(C)n1-c1cccc(C(=O)[O-])c1
REMARK SMILES IDX 18 1 17 2 16 3 15 4 14 5 5 6 6 7 7 8 13 9 8 10 9 11 12 12
REMARK SMILES IDX 10 13 11 17 4 18 1 19 2 20 3 21 92 22 90 23 91 24 93 25
REMARK SMILES IDX 94 26 101 27 95 28 97 29 96 30 98 31 99 32 100 33 19 34
REMARK SMILES IDX 20 35 21 36 22 37 23 39 24 40 25 41 89 42 26 43 88 44 27 45
REMARK SMILES IDX 28 46 29 47 82 48 30 49 87 50 81 51 83 52 31 53 86 54 80 55
REMARK SMILES IDX 79 56 32 58 66 59 45 60 65 61 46 62 49 63 64 64 84 65 47 66
REMARK SMILES IDX 48 67 63 69 85 70 50 71 33 72 34 73 43 74 35 75 36 76 42 77
REMARK SMILES IDX 44 78 37 79 38 80 39 81 40 82 41 83 67 84 68 85 77 86 69 87
REMARK SMILES IDX 70 88 76 89 78 90 71 91 72 92 73 93 74 94 75 95 51 96 52 97
REMARK SMILES IDX 61 98 53 99 54 100 60 101 62 102 55 103 56 104 57 105 58 106
REMARK SMILES IDX 59 107
REMARK H PARENT 9 14 12 15 14 16 21 38 83 57 49 68
REMARK Flexibility Score: inf
ROOT
ATOM      1  C   UNL     1       1.761   3.730  -1.524  1.00  0.00     0.002 C 
ENDROOT
BRANCH   1   2
ATOM      2  C   UNL     1       2.736   3.511  -3.000  1.00  0.00     0.003 C 
BRANCH   2   3
ATOM      3  C   UNL     1       2.673   2.293  -3.977  1.00  0.00     0.037 C 
BRANCH   3   4
ATOM      4  C   UNL     1       1.291   1.837  -4.410  1.00  0.00     0.194 C 
BRANCH   4   5
ATOM      5  N   UNL     1       0.856   2.103  -5.754  1.00  0.00    -0.305 N 
ATOM      6  C   UNL     1      -1.399  -0.218  -4.795  1.00  0.00     0.032 C 
ATOM      7  C   UNL     1      -1.091   0.359  -5.980  1.00  0.00     0.128 C 
ATOM      8  C   UNL     1      -1.776  -0.341  -7.114  1.00  0.00     0.319 C 
ATOM      9  C   UNL     1      -0.221   1.532  -6.410  1.00  0.00     0.234 C 
ATOM     10  O   UNL     1      -2.217  -1.486  -7.065  1.00  0.00    -0.250 OA
ATOM     11  N   UNL     1      -1.920   0.404  -8.239  1.00  0.00    -0.229 N 
ATOM     12  N   UNL     1      -0.433   2.101  -7.576  1.00  0.00    -0.236 N 
ATOM     13  C   UNL     1      -1.373   1.634  -8.449  1.00  0.00     0.295 C 
ATOM     14  H   UNL     1      -2.466   0.024  -8.965  1.00  0.00     0.268 HD
ATOM     15  H   UNL     1       0.102   2.888  -7.827  1.00  0.00     0.268 HD
ATOM     16  H   UNL     1       1.380   2.764  -6.262  1.00  0.00     0.256 HD
ATOM     17  S   UNL     1      -1.851   2.454  -9.834  1.00  0.00    -0.005 S 
BRANCH   6  18
ATOM     18  C   UNL     1      -0.949   0.013  -3.464  1.00  0.00    -0.003 A 
ATOM     19  C   UNL     1       0.712  -1.042  -0.341  1.00  0.00     0.065 C 
ATOM     20  C   UNL     1       0.116  -0.392  -1.530  1.00  0.00     0.020 A 
ATOM     21  C   UNL     1      -0.342  -0.991  -2.680  1.00  0.00     0.031 A 
ATOM     22  N   UNL     1      -0.094   0.965  -1.658  1.00  0.00    -0.318 N 
ATOM     23  C   UNL     1      -1.065   1.146  -2.665  1.00  0.00     0.027 A 
ATOM     24  C   UNL     1      -1.828   2.405  -2.932  1.00  0.00     0.065 C 
BRANCH  22  25
ATOM     25  C   UNL     1       0.706   1.980  -1.063  1.00  0.00     0.046 A 
ATOM     26  C   UNL     1      -0.110   3.473  -0.475  1.00  0.00     0.026 A 
ATOM     27  C   UNL     1       2.530   1.890  -1.090  1.00  0.00     0.036 A 
ATOM     28  C   UNL     1       0.867   4.838   0.119  1.00  0.00     0.003 A 
ATOM     29  C   UNL     1       3.505   3.316  -0.480  1.00  0.00    -0.001 A 
ATOM     30  C   UNL     1       2.662   4.790   0.102  1.00  0.00     0.010 A 
BRANCH  29  31
ATOM     31  C   UNL     1       4.966   3.396  -0.401  1.00  0.00     0.072 C 
ATOM     32  O   UNL     1       5.572   4.411  -0.115  1.00  0.00    -0.545 OA
ATOM     33  O   UNL     1       5.546   2.217  -0.624  1.00  0.00    -0.545 OA
ENDBRANCH  29  31
ENDBRANCH  22  25
ENDBRANCH   6  18
ENDBRANCH   4   5
ENDBRANCH   3   4
ENDBRANCH   2   3
ENDBRANCH   1   2
BRANCH   1  34
ATOM     34  C   UNL     1       1.750   2.892   0.508  1.00  0.00     0.021 C 
BRANCH  34  35
ATOM     35  C   UNL     1       2.420   1.384   1.253  1.00  0.00     0.116 C 
BRANCH  35  36
ATOM     36  N   UNL     1       3.764   1.340   1.809  1.00  0.00    -0.352 N 
ATOM     37  C   UNL     1       4.567   0.257   2.203  1.00  0.00     0.251 C 
ATOM     38  H   UNL     1       4.183   2.223   1.931  1.00  0.00     0.163 HD
ATOM     39  O   UNL     1       5.460   0.544   3.006  1.00  0.00    -0.269 OA
BRANCH  37  40
ATOM     40  C   UNL     1       4.389  -1.230   1.848  1.00  0.00     0.039 A 
ATOM     41  C   UNL     1       3.845  -2.074   2.804  1.00  0.00     0.014 A 
ATOM     42  C   UNL     1       5.090  -1.927   0.831  1.00  0.00     0.014 A 
ATOM     43  C   UNL     1       3.918  -3.517   2.692  1.00  0.00     0.010 A 
ATOM     44  C   UNL     1       5.237  -3.419   0.768  1.00  0.00     0.010 A 
ATOM     45  C   UNL     1       4.664  -4.293   1.714  1.00  0.00    -0.014 A 
BRANCH  45  46
ATOM     46  C   UNL     1       5.072  -5.876   2.156  1.00  0.00     0.031 A 
ATOM     47  C   UNL     1       5.328  -5.689   3.611  1.00  0.00     0.074 A 
ATOM     48  C   UNL     1       5.393  -7.202   1.770  1.00  0.00     0.049 A 
ATOM     49  N   UNL     1       6.200  -4.794   3.977  1.00  0.00    -0.248 NA
ATOM     50  C   UNL     1       4.394  -6.104   4.659  1.00  0.00     0.031 C 
ATOM     51  C   UNL     1       5.564  -7.771   0.417  1.00  0.00     0.029 A 
ATOM     52  N   UNL     1       5.664  -8.414   2.536  1.00  0.00    -0.354 N 
ATOM     53  C   UNL     1       6.138  -4.726   5.339  1.00  0.00     0.074 A 
ATOM     54  C   UNL     1       4.874  -5.375   5.675  1.00  0.00     0.031 C 
ATOM     55  C   UNL     1       5.734  -9.134   0.431  1.00  0.00     0.029 A 
ATOM     56  C   UNL     1       5.772  -9.672   1.796  1.00  0.00     0.049 A 
ATOM     57  H   UNL     1       5.769  -8.386   3.514  1.00  0.00     0.167 HD
ATOM     58  C   UNL     1       7.339  -4.785   5.978  1.00  0.00     0.037 A 
ATOM     59  C   UNL     1       5.979 -11.005   2.219  1.00  0.00     0.037 A 
ATOM     60  C   UNL     1       7.565  -6.087   6.545  1.00  0.00     0.049 A 
ATOM     61  C   UNL     1       6.760 -10.884   3.457  1.00  0.00     0.074 A 
ATOM     62  C   UNL     1       6.750  -6.968   7.228  1.00  0.00     0.029 A 
ATOM     63  N   UNL     1       8.578  -6.838   5.985  1.00  0.00    -0.354 N 
ATOM     64  N   UNL     1       8.019 -10.576   3.436  1.00  0.00    -0.248 NA
ATOM     65  C   UNL     1       6.218 -11.248   4.763  1.00  0.00     0.031 C 
ATOM     66  C   UNL     1       6.959  -8.202   6.574  1.00  0.00     0.029 A 
ATOM     67  C   UNL     1       8.141  -8.135   5.846  1.00  0.00     0.049 A 
ATOM     68  H   UNL     1       9.466  -6.501   5.728  1.00  0.00     0.167 HD
ATOM     69  C   UNL     1       8.274 -10.223   4.721  1.00  0.00     0.074 A 
ATOM     70  C   UNL     1       7.265 -10.902   5.515  1.00  0.00     0.031 C 
ATOM     71  C   UNL     1       8.813  -8.995   4.901  1.00  0.00     0.037 A 
BRANCH  58  72
ATOM     72  C   UNL     1       8.414  -3.944   5.334  1.00  0.00     0.058 A 
ATOM     73  C   UNL     1       8.815  -2.761   5.961  1.00  0.00     0.135 A 
ATOM     74  C   UNL     1       8.964  -4.220   4.061  1.00  0.00     0.135 A 
ATOM     75  F   UNL     1       8.353  -2.458   7.185  1.00  0.00    -0.206 F 
ATOM     76  C   UNL     1       9.690  -1.871   5.341  1.00  0.00     0.059 A 
ATOM     77  C   UNL     1       9.797  -3.323   3.401  1.00  0.00     0.059 A 
ATOM     78  F   UNL     1       8.693  -5.380   3.440  1.00  0.00    -0.206 F 
ATOM     79  C   UNL     1      10.157  -2.148   4.053  1.00  0.00     0.060 A 
BRANCH  79  80
ATOM     80  S   UNL     1      11.221  -0.937   3.238  1.00  0.00     0.124 S 
ATOM     81  O   UNL     1      10.550   0.326   3.536  1.00  0.00    -0.237 OA
ATOM     82  O   UNL     1      12.487  -1.145   3.932  1.00  0.00    -0.237 OA
ATOM     83  O   UNL     1      11.184  -1.330   1.833  1.00  0.00    -0.744 OA
ENDBRANCH  79  80
ENDBRANCH  58  72
BRANCH  59  84
ATOM     84  C   UNL     1       5.947 -12.564   1.851  1.00  0.00     0.058 A 
ATOM     85  C   UNL     1       6.836 -13.513   2.491  1.00  0.00     0.135 A 
ATOM     86  C   UNL     1       4.840 -13.204   1.267  1.00  0.00     0.135 A 
ATOM     87  F   UNL     1       7.984 -13.118   3.060  1.00  0.00    -0.206 F 
ATOM     88  C   UNL     1       6.579 -14.893   2.666  1.00  0.00     0.059 A 
ATOM     89  C   UNL     1       4.578 -14.609   1.399  1.00  0.00     0.059 A 
ATOM     90  F   UNL     1       3.920 -12.476   0.619  1.00  0.00    -0.206 F 
ATOM     91  C   UNL     1       5.420 -15.436   2.147  1.00  0.00     0.060 A 
BRANCH  91  92
ATOM     92  S   UNL     1       4.985 -17.159   2.584  1.00  0.00     0.124 S 
ATOM     93  O   UNL     1       6.035 -17.935   1.933  1.00  0.00    -0.237 OA
ATOM     94  O   UNL     1       5.036 -17.135   4.044  1.00  0.00    -0.237 OA
ATOM     95  O   UNL     1       3.648 -17.324   2.021  1.00  0.00    -0.744 OA
ENDBRANCH  91  92
ENDBRANCH  59  84
BRANCH  71  96
ATOM     96  C   UNL     1       9.957  -8.592   3.980  1.00  0.00     0.058 A 
ATOM     97  C   UNL     1       9.998  -8.684   2.567  1.00  0.00     0.135 A 
ATOM     98  C   UNL     1      11.143  -8.154   4.595  1.00  0.00     0.135 A 
ATOM     99  F   UNL     1       8.909  -8.972   1.838  1.00  0.00    -0.206 F 
ATOM    100  C   UNL     1      11.170  -8.462   1.837  1.00  0.00     0.059 A 
ATOM    101  C   UNL     1      12.305  -7.869   3.881  1.00  0.00     0.059 A 
ATOM    102  F   UNL     1      11.184  -7.999   5.928  1.00  0.00    -0.206 F 
ATOM    103  C   UNL     1      12.325  -8.071   2.505  1.00  0.00     0.060 A 
BRANCH 103 104
ATOM    104  S   UNL     1      13.851  -7.832   1.569  1.00  0.00     0.124 S 
ATOM    105  O   UNL     1      14.248  -9.209   1.288  1.00  0.00    -0.237 OA
ATOM    106  O   UNL     1      13.404  -7.061   0.414  1.00  0.00    -0.237 OA
ATOM    107  O   UNL     1      14.714  -7.121   2.506  1.00  0.00    -0.744 OA
ENDBRANCH 103 104
ENDBRANCH  71  96
ENDBRANCH  45  46
ENDBRANCH  37  40
ENDBRANCH  35  36
ENDBRANCH  34  35
ENDBRANCH   1  34
TORSDOF 18
