REMARK SMILES COc1ccc2c(c1)c(CC(=O)NCCCCCCNC(=O)c1ccc(-c3c4nc(c(-c5c(F)cc(S(=O)(=O)[O-])cc5F)c5ccc([nH]5)c(-c5c(F)cc(S(=O)(=O)[O-])cc5F)c5nc(c(-c6c(F)cc(S(=O)(=O)[O-])cc6F)c6ccc3[nH]6)C=C5)C=C4)cc1)c(C)n2Cc1ccn(C(F)F)c(=O)c1
REMARK SMILES IDX 16 1 15 2 14 3 13 4 11 5 12 6 10 8 9 9 3 10 4 11 8 12 5 13
REMARK SMILES IDX 7 14 6 15 91 16 89 17 90 18 2 19 1 20 92 21 93 22 94 23
REMARK SMILES IDX 102 24 95 25 100 26 96 27 101 28 97 29 98 30 99 31 17 32
REMARK SMILES IDX 18 33 19 34 20 35 21 36 22 38 23 39 24 40 88 41 25 42 87 43
REMARK SMILES IDX 26 44 27 45 28 46 81 47 29 48 86 49 80 50 82 51 30 52 85 53
REMARK SMILES IDX 79 54 78 55 31 57 65 58 44 59 64 60 45 61 48 62 63 63 83 64
REMARK SMILES IDX 46 65 47 66 62 68 84 69 49 70 32 71 33 72 42 73 34 74 35 75
REMARK SMILES IDX 41 76 43 77 36 78 37 79 38 80 39 81 40 82 66 83 67 84 76 85
REMARK SMILES IDX 68 86 69 87 75 88 77 89 70 90 71 91 72 92 73 93 74 94 50 95
REMARK SMILES IDX 51 96 60 97 52 98 53 99 59 100 61 101 54 102 55 103 56 104
REMARK SMILES IDX 57 105 58 106
REMARK H PARENT 13 7 20 37 82 56 48 67
REMARK Flexibility Score: inf
ROOT
ATOM      1  C   UNL     1       0.754   6.552  -4.887  1.00  0.00     0.002 C 
ENDROOT
BRANCH   1   2
ATOM      2  C   UNL     1       0.798   6.843  -3.380  1.00  0.00     0.021 C 
BRANCH   2   3
ATOM      3  C   UNL     1      -0.528   7.344  -2.802  1.00  0.00     0.116 C 
BRANCH   3   4
ATOM      4  N   UNL     1      -1.545   6.309  -2.819  1.00  0.00    -0.356 N 
ATOM      5  C   UNL     1      -2.111   5.627  -1.779  1.00  0.00     0.224 C 
ATOM      6  O   UNL     1      -2.923   4.735  -2.038  1.00  0.00    -0.275 OA
ATOM      7  H   UNL     1      -1.875   6.060  -3.712  1.00  0.00     0.163 HD
BRANCH   5   8
ATOM      8  C   UNL     1      -1.810   6.018  -0.340  1.00  0.00     0.138 C 
BRANCH   8   9
ATOM      9  C   UNL     1      -0.377   5.823   0.054  1.00  0.00    -0.010 A 
ATOM     10  C   UNL     1       1.010   2.297  -0.395  1.00  0.00     0.119 A 
ATOM     11  C   UNL     1       2.320   2.603  -0.043  1.00  0.00     0.048 A 
ATOM     12  C   UNL     1       0.043   3.301  -0.435  1.00  0.00     0.057 A 
ATOM     13  C   UNL     1       2.686   3.912   0.310  1.00  0.00     0.031 A 
ATOM     14  C   UNL     1       0.376   4.617  -0.048  1.00  0.00     0.007 A 
ATOM     15  C   UNL     1       1.692   4.909   0.320  1.00  0.00     0.049 A 
ATOM     16  N   UNL     1       1.738   6.265   0.623  1.00  0.00    -0.340 N 
ATOM     17  C   UNL     1       0.451   6.774   0.638  1.00  0.00     0.020 A 
ATOM     18  C   UNL     1       0.069   8.128   1.129  1.00  0.00     0.065 C 
BRANCH  10  19
ATOM     19  O   UNL     1       0.597   1.052  -0.791  1.00  0.00    -0.497 OA
ATOM     20  C   UNL     1       1.034  -0.002   0.059  1.00  0.00     0.278 C 
ENDBRANCH  10  19
BRANCH  16  21
ATOM     21  C   UNL     1       2.963   7.016   0.930  1.00  0.00     0.158 C 
BRANCH  21  22
ATOM     22  C   UNL     1       3.450   7.879  -0.216  1.00  0.00    -0.021 A 
ATOM     23  C   UNL     1       2.832   9.171  -0.447  1.00  0.00     0.024 A 
ATOM     24  C   UNL     1       4.486   7.526  -0.997  1.00  0.00     0.077 A 
ATOM     25  C   UNL     1       3.174   9.920  -1.501  1.00  0.00     0.095 A 
ATOM     26  C   UNL     1       4.952   8.398  -2.120  1.00  0.00     0.255 A 
ATOM     27  N   UNL     1       4.182   9.527  -2.359  1.00  0.00    -0.258 N 
ATOM     28  O   UNL     1       5.947   8.055  -2.738  1.00  0.00    -0.269 OA
BRANCH  27  29
ATOM     29  C   UNL     1       4.586  10.415  -3.424  1.00  0.00     0.451 C 
ATOM     30  F   UNL     1       5.547  11.263  -2.990  1.00  0.00    -0.185 F 
ATOM     31  F   UNL     1       5.078   9.745  -4.491  1.00  0.00    -0.185 F 
ENDBRANCH  27  29
ENDBRANCH  21  22
ENDBRANCH  16  21
ENDBRANCH   8   9
ENDBRANCH   5   8
ENDBRANCH   3   4
ENDBRANCH   2   3
ENDBRANCH   1   2
BRANCH   1  32
ATOM     32  C   UNL     1       0.372   7.745  -5.775  1.00  0.00     0.002 C 
BRANCH  32  33
ATOM     33  C   UNL     1       1.304   8.958  -5.677  1.00  0.00     0.021 C 
BRANCH  33  34
ATOM     34  C   UNL     1       2.748   8.665  -6.071  1.00  0.00     0.116 C 
BRANCH  34  35
ATOM     35  N   UNL     1       2.913   8.241  -7.442  1.00  0.00    -0.352 N 
ATOM     36  C   UNL     1       3.457   8.809  -8.561  1.00  0.00     0.251 C 
ATOM     37  H   UNL     1       2.553   7.340  -7.608  1.00  0.00     0.163 HD
ATOM     38  O   UNL     1       3.719   8.027  -9.481  1.00  0.00    -0.269 OA
BRANCH  36  39
ATOM     39  C   UNL     1       3.653  10.271  -8.789  1.00  0.00     0.039 A 
ATOM     40  C   UNL     1       3.527  11.286  -7.841  1.00  0.00     0.014 A 
ATOM     41  C   UNL     1       3.900  10.639 -10.127  1.00  0.00     0.014 A 
ATOM     42  C   UNL     1       3.513  12.622  -8.239  1.00  0.00     0.010 A 
ATOM     43  C   UNL     1       3.906  11.971 -10.526  1.00  0.00     0.010 A 
ATOM     44  C   UNL     1       3.642  12.961  -9.590  1.00  0.00    -0.014 A 
BRANCH  44  45
ATOM     45  C   UNL     1       3.561  14.373  -9.962  1.00  0.00     0.031 A 
ATOM     46  C   UNL     1       4.532  15.258  -9.256  1.00  0.00     0.074 A 
ATOM     47  C   UNL     1       2.726  14.857 -10.907  1.00  0.00     0.049 A 
ATOM     48  N   UNL     1       4.272  16.169  -8.376  1.00  0.00    -0.248 NA
ATOM     49  C   UNL     1       5.968  14.999  -9.437  1.00  0.00     0.031 C 
ATOM     50  C   UNL     1       1.875  14.121 -11.846  1.00  0.00     0.029 A 
ATOM     51  N   UNL     1       2.515  16.154 -11.273  1.00  0.00    -0.354 N 
ATOM     52  C   UNL     1       5.496  16.746  -8.038  1.00  0.00     0.074 A 
ATOM     53  C   UNL     1       6.508  15.894  -8.606  1.00  0.00     0.031 C 
ATOM     54  C   UNL     1       1.433  14.962 -12.810  1.00  0.00     0.029 A 
ATOM     55  C   UNL     1       1.838  16.317 -12.478  1.00  0.00     0.049 A 
ATOM     56  H   UNL     1       2.817  16.915 -10.727  1.00  0.00     0.167 HD
ATOM     57  C   UNL     1       5.567  17.986  -7.476  1.00  0.00     0.037 A 
ATOM     58  C   UNL     1       1.655  17.478 -13.163  1.00  0.00     0.037 A 
ATOM     59  C   UNL     1       4.290  18.393  -6.951  1.00  0.00     0.049 A 
ATOM     60  C   UNL     1       1.799  18.583 -12.179  1.00  0.00     0.074 A 
ATOM     61  C   UNL     1       3.447  17.918  -5.966  1.00  0.00     0.029 A 
ATOM     62  N   UNL     1       3.532  19.256  -7.705  1.00  0.00    -0.354 N 
ATOM     63  N   UNL     1       0.958  18.792 -11.201  1.00  0.00    -0.248 NA
ATOM     64  C   UNL     1       3.125  19.153 -11.996  1.00  0.00     0.031 C 
ATOM     65  C   UNL     1       2.133  18.121  -6.478  1.00  0.00     0.029 A 
ATOM     66  C   UNL     1       2.252  18.767  -7.710  1.00  0.00     0.049 A 
ATOM     67  H   UNL     1       3.849  20.071  -8.157  1.00  0.00     0.167 HD
ATOM     68  C   UNL     1       1.755  19.126 -10.117  1.00  0.00     0.074 A 
ATOM     69  C   UNL     1       3.075  19.399 -10.684  1.00  0.00     0.031 C 
ATOM     70  C   UNL     1       1.351  18.883  -8.835  1.00  0.00     0.037 A 
BRANCH  57  71
ATOM     71  C   UNL     1       6.683  18.980  -7.702  1.00  0.00     0.058 A 
ATOM     72  C   UNL     1       6.687  20.187  -6.969  1.00  0.00     0.135 A 
ATOM     73  C   UNL     1       7.554  18.940  -8.812  1.00  0.00     0.135 A 
ATOM     74  F   UNL     1       5.908  20.333  -5.885  1.00  0.00    -0.206 F 
ATOM     75  C   UNL     1       7.420  21.304  -7.370  1.00  0.00     0.059 A 
ATOM     76  C   UNL     1       8.332  20.027  -9.200  1.00  0.00     0.059 A 
ATOM     77  F   UNL     1       7.622  17.883  -9.629  1.00  0.00    -0.206 F 
ATOM     78  C   UNL     1       8.222  21.219  -8.502  1.00  0.00     0.060 A 
BRANCH  78  79
ATOM     79  S   UNL     1       9.063  22.697  -9.095  1.00  0.00     0.124 S 
ATOM     80  O   UNL     1       7.936  23.533  -9.495  1.00  0.00    -0.237 OA
ATOM     81  O   UNL     1       9.788  23.128  -7.904  1.00  0.00    -0.237 OA
ATOM     82  O   UNL     1       9.896  22.196 -10.184  1.00  0.00    -0.744 OA
ENDBRANCH  78  79
ENDBRANCH  57  71
BRANCH  58  83
ATOM     83  C   UNL     1       1.759  17.703 -14.635  1.00  0.00     0.058 A 
ATOM     84  C   UNL     1       1.402  18.935 -15.217  1.00  0.00     0.135 A 
ATOM     85  C   UNL     1       2.490  16.825 -15.461  1.00  0.00     0.135 A 
ATOM     86  F   UNL     1       0.720  19.845 -14.504  1.00  0.00    -0.206 F 
ATOM     87  C   UNL     1       1.794  19.297 -16.514  1.00  0.00     0.059 A 
ATOM     88  C   UNL     1       2.886  17.160 -16.756  1.00  0.00     0.059 A 
ATOM     89  F   UNL     1       2.925  15.643 -14.999  1.00  0.00    -0.206 F 
ATOM     90  C   UNL     1       2.560  18.409 -17.268  1.00  0.00     0.060 A 
BRANCH  90  91
ATOM     91  S   UNL     1       3.225  18.936 -18.867  1.00  0.00     0.124 S 
ATOM     92  O   UNL     1       2.015  19.064 -19.672  1.00  0.00    -0.237 OA
ATOM     93  O   UNL     1       3.897  20.184 -18.526  1.00  0.00    -0.237 OA
ATOM     94  O   UNL     1       4.111  17.838 -19.245  1.00  0.00    -0.744 OA
ENDBRANCH  90  91
ENDBRANCH  58  83
BRANCH  70  95
ATOM     95  C   UNL     1      -0.081  18.483  -8.591  1.00  0.00     0.058 A 
ATOM     96  C   UNL     1      -0.662  17.287  -9.049  1.00  0.00     0.135 A 
ATOM     97  C   UNL     1      -0.836  19.260  -7.699  1.00  0.00     0.135 A 
ATOM     98  F   UNL     1       0.028  16.437  -9.822  1.00  0.00    -0.206 F 
ATOM     99  C   UNL     1      -1.945  16.896  -8.659  1.00  0.00     0.059 A 
ATOM    100  C   UNL     1      -2.104  18.875  -7.273  1.00  0.00     0.059 A 
ATOM    101  F   UNL     1      -0.314  20.382  -7.177  1.00  0.00    -0.206 F 
ATOM    102  C   UNL     1      -2.656  17.694  -7.763  1.00  0.00     0.060 A 
BRANCH 102 103
ATOM    103  S   UNL     1      -4.274  17.139  -7.182  1.00  0.00     0.124 S 
ATOM    104  O   UNL     1      -5.089  17.249  -8.387  1.00  0.00    -0.237 OA
ATOM    105  O   UNL     1      -3.996  15.780  -6.725  1.00  0.00    -0.237 OA
ATOM    106  O   UNL     1      -4.600  18.087  -6.119  1.00  0.00    -0.744 OA
ENDBRANCH 102 103
ENDBRANCH  70  95
ENDBRANCH  44  45
ENDBRANCH  36  39
ENDBRANCH  34  35
ENDBRANCH  33  34
ENDBRANCH  32  33
ENDBRANCH   1  32
TORSDOF 21
