REMARK SMILES Cc1ccc(S(=O)(=O)n2cc(C(=O)C(=O)N[C@@H](Cc3cnc[nH]3)C(=O)NCCCCCCNC(=O)c3ccc(-c4c5nc(c(-c6c(F)cc(S(=O)(=O)[O-])cc6F)c6ccc([nH]6)c(-c6c(F)cc(S(=O)(=O)[O-])cc6F)c6nc(c(-c7c(F)cc(S(=O)(=O)[O-])cc7F)c7ccc4[nH]7)C=C6)C=C5)cc3)c3ccccc32)cc1
REMARK SMILES IDX 28 1 27 2 26 3 24 4 25 5 17 7 16 8 14 9 15 10 12 12 13 13
REMARK SMILES IDX 11 14 9 15 10 16 107 17 102 18 106 19 103 20 105 21 104 22
REMARK SMILES IDX 6 23 7 24 8 25 5 26 1 27 2 28 3 29 109 30 4 31 108 32 18 33
REMARK SMILES IDX 19 34 20 35 23 36 21 37 22 38 29 40 30 41 31 42 32 43 33 44
REMARK SMILES IDX 34 45 35 47 36 48 37 49 101 50 38 51 100 52 39 53 40 54
REMARK SMILES IDX 41 55 94 56 42 57 99 58 93 59 95 60 43 61 98 62 92 63 91 64
REMARK SMILES IDX 44 66 78 67 57 68 77 69 58 70 61 71 76 72 96 73 59 74 60 75
REMARK SMILES IDX 75 77 97 78 62 79 45 80 46 81 55 82 47 83 48 84 54 85 56 86
REMARK SMILES IDX 49 87 50 88 51 89 52 90 53 91 79 92 80 93 89 94 81 95 82 96
REMARK SMILES IDX 88 97 90 98 83 99 84 100 85 101 86 102 87 103 63 104 64 105
REMARK SMILES IDX 73 106 65 107 66 108 72 109 74 110 67 111 68 112 69 113
REMARK SMILES IDX 70 114 71 115
REMARK H PARENT 26 6 16 11 23 39 33 46 95 65 61 76
REMARK Flexibility Score: inf
ROOT
ATOM      1  C   UNL     1      -7.760   5.647   7.243  1.00  0.00     0.021 C 
ENDROOT
BRANCH   1   2
ATOM      2  C   UNL     1      -8.303   6.255   5.960  1.00  0.00     0.116 C 
BRANCH   2   3
ATOM      3  N   UNL     1      -7.359   7.069   5.232  1.00  0.00    -0.354 N 
ATOM      4  C   UNL     1      -7.297   7.297   3.889  1.00  0.00     0.242 C 
ATOM      5  O   UNL     1      -6.779   8.360   3.527  1.00  0.00    -0.273 OA
ATOM      6  H   UNL     1      -6.671   7.517   5.775  1.00  0.00     0.163 HD
BRANCH   4   7
ATOM      7  C   UNL     1      -7.941   6.353   2.841  1.00  0.00     0.177 C 
BRANCH   7   8
ATOM      8  N   UNL     1      -7.676   4.925   3.073  1.00  0.00    -0.337 N 
ATOM      9  C   UNL     1      -6.771   4.062   2.492  1.00  0.00     0.293 C 
ATOM     10  O   UNL     1      -6.617   2.960   3.010  1.00  0.00    -0.265 OA
ATOM     11  H   UNL     1      -8.245   4.513   3.763  1.00  0.00     0.164 HD
BRANCH   9  12
ATOM     12  C   UNL     1      -6.002   4.430   1.200  1.00  0.00     0.252 C 
ATOM     13  O   UNL     1      -6.113   5.566   0.752  1.00  0.00    -0.283 OA
BRANCH  12  14
ATOM     14  C   UNL     1      -5.181   3.453   0.467  1.00  0.00     0.054 A 
ATOM     15  N   UNL     1      -4.140   1.592  -0.196  1.00  0.00    -0.240 N 
ATOM     16  C   UNL     1      -4.906   2.138   0.802  1.00  0.00     0.117 A 
ATOM     17  C   UNL     1      -3.881   2.512  -1.190  1.00  0.00     0.065 A 
ATOM     18  C   UNL     1      -4.497   3.700  -0.778  1.00  0.00     0.012 A 
ATOM     19  C   UNL     1      -3.153   2.433  -2.392  1.00  0.00     0.028 A 
ATOM     20  C   UNL     1      -4.359   4.845  -1.597  1.00  0.00     0.011 A 
ATOM     21  C   UNL     1      -3.027   3.587  -3.170  1.00  0.00     0.002 A 
ATOM     22  C   UNL     1      -3.619   4.780  -2.779  1.00  0.00     0.001 A 
BRANCH  15  23
ATOM     23  S   UNL     1      -3.555  -0.007  -0.174  1.00  0.00     0.268 S 
ATOM     24  O   UNL     1      -3.853  -0.535  -1.490  1.00  0.00    -0.201 OA
ATOM     25  O   UNL     1      -4.083  -0.608   1.038  1.00  0.00    -0.201 OA
BRANCH  23  26
ATOM     26  C   UNL     1      -1.790   0.053  -0.008  1.00  0.00     0.088 A 
ATOM     27  C   UNL     1       2.510  -0.045   0.038  1.00  0.00     0.044 C 
ATOM     28  C   UNL     1       1.010  -0.005   0.045  1.00  0.00    -0.051 A 
ATOM     29  C   UNL     1       0.281  -1.197  -0.040  1.00  0.00     0.005 A 
ATOM     30  C   UNL     1       0.323   1.211   0.143  1.00  0.00     0.005 A 
ATOM     31  C   UNL     1      -1.113  -1.170  -0.072  1.00  0.00     0.022 A 
ATOM     32  C   UNL     1      -1.075   1.244   0.130  1.00  0.00     0.022 A 
ENDBRANCH  23  26
ENDBRANCH  15  23
ENDBRANCH  12  14
ENDBRANCH   9  12
ENDBRANCH   7   8
BRANCH   7  33
ATOM     33  C   UNL     1      -9.409   6.675   2.502  1.00  0.00     0.090 C 
BRANCH  33  34
ATOM     34  C   UNL     1     -10.433   6.344   3.530  1.00  0.00     0.037 A 
ATOM     35  C   UNL     1     -10.995   5.151   3.935  1.00  0.00     0.134 A 
ATOM     36  N   UNL     1     -11.078   7.299   4.284  1.00  0.00    -0.348 N 
ATOM     37  N   UNL     1     -11.891   5.354   4.949  1.00  0.00    -0.245 NA
ATOM     38  C   UNL     1     -11.924   6.652   5.137  1.00  0.00     0.196 A 
ATOM     39  H   UNL     1     -10.951   8.274   4.219  1.00  0.00     0.167 HD
ENDBRANCH  33  34
ENDBRANCH   7  33
ENDBRANCH   4   7
ENDBRANCH   2   3
ENDBRANCH   1   2
BRANCH   1  40
ATOM     40  C   UNL     1      -7.734   6.594   8.445  1.00  0.00     0.002 C 
BRANCH  40  41
ATOM     41  C   UNL     1      -9.029   7.367   8.744  1.00  0.00     0.002 C 
BRANCH  41  42
ATOM     42  C   UNL     1     -10.339   6.587   8.635  1.00  0.00     0.021 C 
BRANCH  42  43
ATOM     43  C   UNL     1     -10.459   5.426   9.601  1.00  0.00     0.116 C 
BRANCH  43  44
ATOM     44  N   UNL     1     -11.033   5.845  10.861  1.00  0.00    -0.352 N 
ATOM     45  C   UNL     1     -12.141   5.222  11.406  1.00  0.00     0.251 C 
ATOM     46  H   UNL     1     -10.623   6.598  11.345  1.00  0.00     0.163 HD
ATOM     47  O   UNL     1     -13.291   5.615  11.304  1.00  0.00    -0.269 OA
BRANCH  45  48
ATOM     48  C   UNL     1     -11.811   3.898  11.964  1.00  0.00     0.039 A 
ATOM     49  C   UNL     1     -11.193   3.878  13.224  1.00  0.00     0.014 A 
ATOM     50  C   UNL     1     -11.549   2.939  10.989  1.00  0.00     0.014 A 
ATOM     51  C   UNL     1     -10.114   3.038  13.422  1.00  0.00     0.010 A 
ATOM     52  C   UNL     1     -10.396   2.218  11.130  1.00  0.00     0.010 A 
ATOM     53  C   UNL     1      -9.667   2.317  12.322  1.00  0.00    -0.014 A 
BRANCH  53  54
ATOM     54  C   UNL     1      -8.418   1.596  12.300  1.00  0.00     0.031 A 
ATOM     55  C   UNL     1      -8.517   0.152  12.542  1.00  0.00     0.074 A 
ATOM     56  C   UNL     1      -7.323   2.280  11.910  1.00  0.00     0.049 A 
ATOM     57  N   UNL     1      -7.566  -0.593  12.967  1.00  0.00    -0.248 NA
ATOM     58  C   UNL     1      -9.788  -0.564  12.414  1.00  0.00     0.031 C 
ATOM     59  C   UNL     1      -6.023   1.783  11.487  1.00  0.00     0.029 A 
ATOM     60  N   UNL     1      -7.146   3.665  12.018  1.00  0.00    -0.354 N 
ATOM     61  C   UNL     1      -7.989  -1.902  12.828  1.00  0.00     0.074 A 
ATOM     62  C   UNL     1      -9.412  -1.820  12.648  1.00  0.00     0.031 C 
ATOM     63  C   UNL     1      -5.119   2.773  11.624  1.00  0.00     0.029 A 
ATOM     64  C   UNL     1      -5.788   3.885  12.291  1.00  0.00     0.049 A 
ATOM     65  H   UNL     1      -7.842   4.353  11.920  1.00  0.00     0.167 HD
ATOM     66  C   UNL     1      -7.040  -2.868  12.675  1.00  0.00     0.037 A 
ATOM     67  C   UNL     1      -5.436   4.361  13.525  1.00  0.00     0.037 A 
ATOM     68  C   UNL     1      -5.718  -2.256  12.841  1.00  0.00     0.049 A 
ATOM     69  C   UNL     1      -4.710   3.312  14.342  1.00  0.00     0.074 A 
ATOM     70  C   UNL     1      -4.827  -1.734  11.917  1.00  0.00     0.029 A 
ATOM     71  N   UNL     1      -5.373  -1.709  14.073  1.00  0.00    -0.354 N 
ATOM     72  N   UNL     1      -4.863   2.022  14.189  1.00  0.00    -0.248 NA
ATOM     73  C   UNL     1      -3.691   3.645  15.331  1.00  0.00     0.031 C 
ATOM     74  C   UNL     1      -4.014  -0.781  12.588  1.00  0.00     0.029 A 
ATOM     75  C   UNL     1      -4.396  -0.740  13.919  1.00  0.00     0.049 A 
ATOM     76  H   UNL     1      -5.769  -1.974  14.935  1.00  0.00     0.167 HD
ATOM     77  C   UNL     1      -3.990   1.360  15.013  1.00  0.00     0.074 A 
ATOM     78  C   UNL     1      -3.274   2.421  15.700  1.00  0.00     0.031 C 
ATOM     79  C   UNL     1      -3.896  -0.004  15.072  1.00  0.00     0.037 A 
BRANCH  66  80
ATOM     80  C   UNL     1      -7.271  -4.234  12.052  1.00  0.00     0.058 A 
ATOM     81  C   UNL     1      -6.185  -4.936  11.481  1.00  0.00     0.135 A 
ATOM     82  C   UNL     1      -8.512  -4.896  11.924  1.00  0.00     0.135 A 
ATOM     83  F   UNL     1      -4.930  -4.472  11.567  1.00  0.00    -0.206 F 
ATOM     84  C   UNL     1      -6.326  -6.145  10.794  1.00  0.00     0.059 A 
ATOM     85  C   UNL     1      -8.686  -6.086  11.209  1.00  0.00     0.059 A 
ATOM     86  F   UNL     1      -9.619  -4.458  12.530  1.00  0.00    -0.206 F 
ATOM     87  C   UNL     1      -7.584  -6.709  10.649  1.00  0.00     0.060 A 
BRANCH  87  88
ATOM     88  S   UNL     1      -7.745  -8.279   9.783  1.00  0.00     0.124 S 
ATOM     89  O   UNL     1      -7.213  -7.957   8.463  1.00  0.00    -0.237 OA
ATOM     90  O   UNL     1      -6.922  -9.162  10.603  1.00  0.00    -0.237 OA
ATOM     91  O   UNL     1      -9.180  -8.548   9.826  1.00  0.00    -0.744 OA
ENDBRANCH  87  88
ENDBRANCH  66  80
BRANCH  67  92
ATOM     92  C   UNL     1      -6.384   5.399  14.043  1.00  0.00     0.058 A 
ATOM     93  C   UNL     1      -6.483   6.605  13.316  1.00  0.00     0.135 A 
ATOM     94  C   UNL     1      -7.431   5.106  14.928  1.00  0.00     0.135 A 
ATOM     95  F   UNL     1      -5.507   6.955  12.462  1.00  0.00    -0.206 F 
ATOM     96  C   UNL     1      -7.626   7.399  13.347  1.00  0.00     0.059 A 
ATOM     97  C   UNL     1      -8.589   5.897  14.982  1.00  0.00     0.059 A 
ATOM     98  F   UNL     1      -7.402   3.984  15.662  1.00  0.00    -0.206 F 
ATOM     99  C   UNL     1      -8.697   7.010  14.146  1.00  0.00     0.060 A 
BRANCH  99 100
ATOM    100  S   UNL     1     -10.279   7.859  13.900  1.00  0.00     0.124 S 
ATOM    101  O   UNL     1     -10.067   9.111  14.614  1.00  0.00    -0.237 OA
ATOM    102  O   UNL     1     -10.337   7.962  12.440  1.00  0.00    -0.237 OA
ATOM    103  O   UNL     1     -11.248   6.946  14.493  1.00  0.00    -0.744 OA
ENDBRANCH  99 100
ENDBRANCH  67  92
BRANCH  79 104
ATOM    104  C   UNL     1      -3.234  -0.775  16.192  1.00  0.00     0.058 A 
ATOM    105  C   UNL     1      -3.093  -0.281  17.499  1.00  0.00     0.135 A 
ATOM    106  C   UNL     1      -2.859  -2.131  16.012  1.00  0.00     0.135 A 
ATOM    107  F   UNL     1      -3.536   0.937  17.843  1.00  0.00    -0.206 F 
ATOM    108  C   UNL     1      -2.529  -1.034  18.526  1.00  0.00     0.059 A 
ATOM    109  C   UNL     1      -2.371  -2.926  17.042  1.00  0.00     0.059 A 
ATOM    110  F   UNL     1      -2.969  -2.743  14.823  1.00  0.00    -0.206 F 
ATOM    111  C   UNL     1      -2.167  -2.355  18.287  1.00  0.00     0.060 A 
BRANCH 111 112
ATOM    112  S   UNL     1      -1.452  -3.327  19.619  1.00  0.00     0.124 S 
ATOM    113  O   UNL     1      -0.051  -2.926  19.543  1.00  0.00    -0.237 OA
ATOM    114  O   UNL     1      -2.182  -2.852  20.790  1.00  0.00    -0.237 OA
ATOM    115  O   UNL     1      -1.738  -4.703  19.225  1.00  0.00    -0.744 OA
ENDBRANCH 111 112
ENDBRANCH  79 104
ENDBRANCH  53  54
ENDBRANCH  45  48
ENDBRANCH  43  44
ENDBRANCH  42  43
ENDBRANCH  41  42
ENDBRANCH  40  41
ENDBRANCH   1  40
TORSDOF 23
