REMARK SMILES Cc1cc(C(=O)N[C@H]2C=C[C@H](C(=O)NCCCCCCNC(=O)c3ccc(-c4c5nc(c(-c6c(F)cc(S(=O)(=O)[O-])cc6F)c6ccc([nH]6)c(-c6c(F)cc(S(=O)(=O)[O-])cc6F)c6nc(c(-c7c(F)cc(S(=O)(=O)[O-])cc7F)c7ccc4[nH]7)C=C6)C=C5)cc3)C2)ccc1F
REMARK SMILES IDX 18 1 17 2 16 3 15 4 14 5 12 6 13 7 11 9 8 10 9 11 90 12
REMARK SMILES IDX 10 13 7 14 5 15 6 16 4 18 1 19 2 20 3 21 93 22 92 23 94 24
REMARK SMILES IDX 91 25 19 26 20 27 21 28 22 29 23 31 24 32 25 33 89 34 26 35
REMARK SMILES IDX 88 36 27 37 28 38 29 39 82 40 30 41 87 42 81 43 83 44 31 45
REMARK SMILES IDX 86 46 80 47 79 48 32 50 66 51 45 52 65 53 46 54 49 55 64 56
REMARK SMILES IDX 84 57 47 58 48 59 63 61 85 62 50 63 33 64 34 65 43 66 35 67
REMARK SMILES IDX 36 68 42 69 44 70 37 71 38 72 39 73 40 74 41 75 67 76 68 77
REMARK SMILES IDX 77 78 69 79 70 80 76 81 78 82 71 83 72 84 73 85 74 86 75 87
REMARK SMILES IDX 51 88 52 89 61 90 53 91 54 92 60 93 62 94 55 95 56 96 57 97
REMARK SMILES IDX 58 98 59 99
REMARK H PARENT 14 8 7 17 21 30 83 49 49 60
REMARK Flexibility Score: inf
ROOT
ATOM      1  C   UNL     1       3.344   7.911   0.326  1.00  0.00     0.002 C 
ENDROOT
BRANCH   1   2
ATOM      2  C   UNL     1       2.747   7.638   1.751  1.00  0.00     0.002 C 
BRANCH   2   3
ATOM      3  C   UNL     1       1.230   7.726   2.057  1.00  0.00     0.021 C 
BRANCH   3   4
ATOM      4  C   UNL     1       0.235   7.072   1.101  1.00  0.00     0.116 C 
BRANCH   4   5
ATOM      5  N   UNL     1       0.485   5.648   0.999  1.00  0.00    -0.356 N 
ATOM      6  C   UNL     1      -0.129   4.576   1.546  1.00  0.00     0.227 C 
ATOM      7  O   UNL     1       0.567   3.554   1.625  1.00  0.00    -0.274 OA
ATOM      8  H   UNL     1       1.249   5.418   0.422  1.00  0.00     0.163 HD
BRANCH   6   9
ATOM      9  C   UNL     1      -1.597   4.554   2.039  1.00  0.00     0.103 C 
ATOM     10  C   UNL     1      -2.623   3.308   0.261  1.00  0.00     0.106 C 
ATOM     11  C   UNL     1      -3.248   4.659   0.344  1.00  0.00    -0.006 C 
ATOM     12  C   UNL     1      -2.148   3.144   1.706  1.00  0.00     0.047 C 
ATOM     13  C   UNL     1      -2.633   5.371   1.303  1.00  0.00    -0.016 C 
BRANCH  10  14
ATOM     14  N   UNL     1      -3.518   2.282  -0.196  1.00  0.00    -0.346 N 
ATOM     15  C   UNL     1      -3.251   0.964  -0.500  1.00  0.00     0.251 C 
ATOM     16  O   UNL     1      -4.192   0.239  -0.826  1.00  0.00    -0.269 OA
ATOM     17  H   UNL     1      -4.456   2.560  -0.308  1.00  0.00     0.164 HD
BRANCH  15  18
ATOM     18  C   UNL     1      -1.887   0.355  -0.382  1.00  0.00     0.040 A 
ATOM     19  C   UNL     1       1.816   1.264  -0.391  1.00  0.00     0.047 C 
ATOM     20  C   UNL     1       0.557   0.452  -0.332  1.00  0.00    -0.015 A 
ATOM     21  C   UNL     1      -0.686   1.041  -0.606  1.00  0.00     0.020 A 
ATOM     22  C   UNL     1       0.594  -0.892   0.030  1.00  0.00     0.126 A 
ATOM     23  C   UNL     1      -0.578  -1.629   0.158  1.00  0.00     0.040 A 
ATOM     24  F   UNL     1       1.770  -1.493   0.258  1.00  0.00    -0.207 F 
ATOM     25  C   UNL     1      -1.815  -1.002  -0.029  1.00  0.00     0.017 A 
ENDBRANCH  15  18
ENDBRANCH  10  14
ENDBRANCH   6   9
ENDBRANCH   4   5
ENDBRANCH   3   4
ENDBRANCH   2   3
ENDBRANCH   1   2
BRANCH   1  26
ATOM     26  C   UNL     1       3.137   9.282  -0.514  1.00  0.00     0.021 C 
BRANCH  26  27
ATOM     27  C   UNL     1       4.102  10.565  -0.294  1.00  0.00     0.116 C 
BRANCH  27  28
ATOM     28  N   UNL     1       4.256  11.937  -1.260  1.00  0.00    -0.352 N 
ATOM     29  C   UNL     1       4.019  13.345  -1.633  1.00  0.00     0.251 C 
ATOM     30  H   UNL     1       4.830  11.616  -1.993  1.00  0.00     0.163 HD
ATOM     31  O   UNL     1       4.979  13.765  -2.321  1.00  0.00    -0.269 OA
BRANCH  29  32
ATOM     32  C   UNL     1       2.975  14.556  -1.331  1.00  0.00     0.039 A 
ATOM     33  C   UNL     1       3.415  15.828  -0.817  1.00  0.00     0.014 A 
ATOM     34  C   UNL     1       1.588  14.475  -1.336  1.00  0.00     0.014 A 
ATOM     35  C   UNL     1       2.618  16.556   0.170  1.00  0.00     0.010 A 
ATOM     36  C   UNL     1       0.811  15.161  -0.343  1.00  0.00     0.010 A 
ATOM     37  C   UNL     1       1.382  16.032   0.591  1.00  0.00    -0.014 A 
BRANCH  37  38
ATOM     38  C   UNL     1       0.788  16.148   1.991  1.00  0.00     0.031 A 
ATOM     39  C   UNL     1      -0.497  16.809   2.186  1.00  0.00     0.074 A 
ATOM     40  C   UNL     1       1.158  15.529   3.155  1.00  0.00     0.049 A 
ATOM     41  N   UNL     1      -0.679  17.990   2.672  1.00  0.00    -0.248 NA
ATOM     42  C   UNL     1      -1.716  16.045   1.929  1.00  0.00     0.031 C 
ATOM     43  C   UNL     1       0.702  15.651   4.556  1.00  0.00     0.029 A 
ATOM     44  N   UNL     1       2.159  14.608   3.336  1.00  0.00    -0.354 N 
ATOM     45  C   UNL     1      -2.006  18.003   3.057  1.00  0.00     0.074 A 
ATOM     46  C   UNL     1      -2.645  16.904   2.351  1.00  0.00     0.031 C 
ATOM     47  C   UNL     1       1.697  15.247   5.387  1.00  0.00     0.029 A 
ATOM     48  C   UNL     1       2.797  14.786   4.568  1.00  0.00     0.049 A 
ATOM     49  H   UNL     1       2.398  13.912   2.682  1.00  0.00     0.167 HD
ATOM     50  C   UNL     1      -2.419  18.538   4.248  1.00  0.00     0.037 A 
ATOM     51  C   UNL     1       4.101  15.206   4.530  1.00  0.00     0.037 A 
ATOM     52  C   UNL     1      -1.291  18.693   5.182  1.00  0.00     0.049 A 
ATOM     53  C   UNL     1       4.111  16.744   4.760  1.00  0.00     0.074 A 
ATOM     54  C   UNL     1      -0.969  18.058   6.375  1.00  0.00     0.029 A 
ATOM     55  N   UNL     1      -0.126  19.349   4.786  1.00  0.00    -0.354 N 
ATOM     56  N   UNL     1       3.012  17.444   4.918  1.00  0.00    -0.248 NA
ATOM     57  C   UNL     1       5.282  17.611   4.924  1.00  0.00     0.031 C 
ATOM     58  C   UNL     1       0.407  18.281   6.651  1.00  0.00     0.029 A 
ATOM     59  C   UNL     1       0.930  19.060   5.635  1.00  0.00     0.049 A 
ATOM     60  H   UNL     1      -0.062  19.942   4.003  1.00  0.00     0.167 HD
ATOM     61  C   UNL     1       3.267  18.761   5.197  1.00  0.00     0.074 A 
ATOM     62  C   UNL     1       4.718  18.809   5.202  1.00  0.00     0.031 C 
ATOM     63  C   UNL     1       2.250  19.660   5.425  1.00  0.00     0.037 A 
BRANCH  50  64
ATOM     64  C   UNL     1      -3.893  18.559   4.637  1.00  0.00     0.058 A 
ATOM     65  C   UNL     1      -4.340  18.619   5.972  1.00  0.00     0.135 A 
ATOM     66  C   UNL     1      -4.929  18.608   3.671  1.00  0.00     0.135 A 
ATOM     67  F   UNL     1      -3.485  18.690   6.999  1.00  0.00    -0.206 F 
ATOM     68  C   UNL     1      -5.695  18.644   6.321  1.00  0.00     0.059 A 
ATOM     69  C   UNL     1      -6.289  18.583   3.994  1.00  0.00     0.059 A 
ATOM     70  F   UNL     1      -4.648  18.716   2.361  1.00  0.00    -0.206 F 
ATOM     71  C   UNL     1      -6.665  18.614   5.327  1.00  0.00     0.060 A 
BRANCH  71  72
ATOM     72  S   UNL     1      -8.405  18.687   5.798  1.00  0.00     0.124 S 
ATOM     73  O   UNL     1      -8.516  17.593   6.758  1.00  0.00    -0.237 OA
ATOM     74  O   UNL     1      -8.510  20.031   6.355  1.00  0.00    -0.237 OA
ATOM     75  O   UNL     1      -9.111  18.477   4.537  1.00  0.00    -0.744 OA
ENDBRANCH  71  72
ENDBRANCH  50  64
BRANCH  51  76
ATOM     76  C   UNL     1       4.877  14.335   3.479  1.00  0.00     0.058 A 
ATOM     77  C   UNL     1       4.755  12.916   3.661  1.00  0.00     0.135 A 
ATOM     78  C   UNL     1       4.673  14.720   2.173  1.00  0.00     0.135 A 
ATOM     79  F   UNL     1       5.264  12.360   4.768  1.00  0.00    -0.206 F 
ATOM     80  C   UNL     1       3.942  12.086   2.847  1.00  0.00     0.059 A 
ATOM     81  C   UNL     1       3.799  13.913   1.422  1.00  0.00     0.059 A 
ATOM     82  F   UNL     1       4.857  16.003   1.822  1.00  0.00    -0.206 F 
ATOM     83  C   UNL     1       3.314  12.671   1.774  1.00  0.00     0.060 A 
BRANCH  83  84
ATOM     84  S   UNL     1       1.661  12.029   1.114  1.00  0.00     0.124 S 
ATOM     85  O   UNL     1       1.713  12.056  -0.333  1.00  0.00    -0.237 OA
ATOM     86  O   UNL     1       1.639  10.702   1.668  1.00  0.00    -0.237 OA
ATOM     87  O   UNL     1       0.671  12.934   1.715  1.00  0.00    -0.744 OA
ENDBRANCH  83  84
ENDBRANCH  51  76
BRANCH  63  88
ATOM     88  C   UNL     1       2.333  21.178   5.589  1.00  0.00     0.058 A 
ATOM     89  C   UNL     1       3.391  21.980   5.141  1.00  0.00     0.135 A 
ATOM     90  C   UNL     1       1.223  21.905   6.116  1.00  0.00     0.135 A 
ATOM     91  F   UNL     1       4.468  21.451   4.546  1.00  0.00    -0.206 F 
ATOM     92  C   UNL     1       3.373  23.379   5.246  1.00  0.00     0.059 A 
ATOM     93  C   UNL     1       1.155  23.295   6.162  1.00  0.00     0.059 A 
ATOM     94  F   UNL     1       0.139  21.291   6.612  1.00  0.00    -0.206 F 
ATOM     95  C   UNL     1       2.250  24.029   5.750  1.00  0.00     0.060 A 
BRANCH  95  96
ATOM     96  S   UNL     1       2.211  25.828   5.832  1.00  0.00     0.124 S 
ATOM     97  O   UNL     1       2.970  26.081   7.053  1.00  0.00    -0.237 OA
ATOM     98  O   UNL     1       2.869  26.216   4.588  1.00  0.00    -0.237 OA
ATOM     99  O   UNL     1       0.786  26.138   5.902  1.00  0.00    -0.744 OA
ENDBRANCH  95  96
ENDBRANCH  63  88
ENDBRANCH  37  38
ENDBRANCH  29  32
ENDBRANCH  27  28
ENDBRANCH  26  27
ENDBRANCH   1  26
TORSDOF 18
