REMARK SMILES Cc1ccc(C(C)C)c(OCC(=O)Nc2nc(CC(=O)NCCCCCCNC(=O)c3ccc(-c4c5nc(c(-c6c(F)cc(S(=O)(=O)[O-])cc6F)c6ccc([nH]6)c(-c6c(F)cc(S(=O)(=O)[O-])cc6F)c6nc(c(-c7c(F)cc(S(=O)(=O)[O-])cc7F)c7ccc4[nH]7)C=C6)C=C5)cc3)cs2)c1
REMARK SMILES IDX 23 1 22 2 21 3 19 4 20 5 18 7 17 8 15 9 16 10 98 11 97 12
REMARK SMILES IDX 14 13 12 14 13 15 11 17 10 18 9 19 1 20 2 21 3 22 99 23 4 24
REMARK SMILES IDX 5 25 6 26 7 27 8 28 24 29 25 30 26 31 27 32 28 33 29 34
REMARK SMILES IDX 30 36 31 37 32 38 96 39 33 40 95 41 34 42 35 43 36 44 89 45
REMARK SMILES IDX 37 46 94 47 88 48 90 49 38 50 93 51 87 52 86 53 39 55 73 56
REMARK SMILES IDX 52 57 72 58 53 59 56 60 71 61 91 62 54 63 55 64 70 66 92 67
REMARK SMILES IDX 57 68 40 69 41 70 50 71 42 72 43 73 49 74 51 75 44 76 45 77
REMARK SMILES IDX 46 78 47 79 48 80 74 81 75 82 84 83 76 84 77 85 83 86 85 87
REMARK SMILES IDX 78 88 79 89 80 90 81 91 82 92 58 93 59 94 68 95 60 96 61 97
REMARK SMILES IDX 67 98 69 99 62 100 63 101 64 102 65 103 66 104
REMARK H PARENT 21 6 14 16 28 35 90 54 56 65
REMARK Flexibility Score: inf
ROOT
ATOM      1  C   UNL     1      -3.510   0.203   5.006  1.00  0.00     0.021 C 
ENDROOT
BRANCH   1   2
ATOM      2  C   UNL     1      -4.278   0.116   3.689  1.00  0.00     0.116 C 
BRANCH   2   3
ATOM      3  N   UNL     1      -5.661   0.543   3.804  1.00  0.00    -0.356 N 
ATOM      4  C   UNL     1      -6.338   1.469   3.059  1.00  0.00     0.226 C 
ATOM      5  O   UNL     1      -7.549   1.605   3.248  1.00  0.00    -0.275 OA
ATOM      6  H   UNL     1      -6.183   0.107   4.516  1.00  0.00     0.163 HD
BRANCH   4   7
ATOM      7  C   UNL     1      -5.618   2.287   2.000  1.00  0.00     0.157 C 
BRANCH   7   8
ATOM      8  C   UNL     1      -4.555   3.169   2.570  1.00  0.00     0.063 A 
ATOM      9  C   UNL     1      -2.482   3.912   2.617  1.00  0.00     0.189 A 
ATOM     10  N   UNL     1      -3.353   3.277   1.880  1.00  0.00    -0.224 NA
ATOM     11  S   UNL     1      -3.053   4.537   4.097  1.00  0.00    -0.105 S 
ATOM     12  C   UNL     1      -4.599   3.879   3.757  1.00  0.00     0.093 A 
BRANCH   9  13
ATOM     13  N   UNL     1      -1.159   4.130   2.395  1.00  0.00    -0.299 N 
ATOM     14  C   UNL     1      -0.464   3.849   1.261  1.00  0.00     0.264 C 
ATOM     15  O   UNL     1       0.759   4.039   1.273  1.00  0.00    -0.271 OA
ATOM     16  H   UNL     1      -0.649   4.535   3.134  1.00  0.00     0.172 HD
BRANCH  14  17
ATOM     17  C   UNL     1      -1.162   3.421  -0.041  1.00  0.00     0.329 C 
BRANCH  17  18
ATOM     18  O   UNL     1      -1.726   2.132  -0.154  1.00  0.00    -0.483 OA
BRANCH  18  19
ATOM     19  C   UNL     1      -0.923   1.029  -0.234  1.00  0.00     0.123 A 
ATOM     20  C   UNL     1       2.717  -0.096  -0.047  1.00  0.00     0.044 C 
ATOM     21  C   UNL     1       1.223  -0.128  -0.181  1.00  0.00    -0.047 A 
ATOM     22  C   UNL     1       0.562  -1.351  -0.297  1.00  0.00     0.004 A 
ATOM     23  C   UNL     1       0.475   1.057  -0.166  1.00  0.00     0.050 A 
ATOM     24  C   UNL     1      -0.826  -1.389  -0.407  1.00  0.00     0.008 A 
ATOM     25  C   UNL     1      -1.589  -0.208  -0.372  1.00  0.00    -0.003 A 
BRANCH  25  26
ATOM     26  C   UNL     1      -3.108  -0.283  -0.476  1.00  0.00     0.017 C 
ATOM     27  C   UNL     1      -3.553  -0.625  -1.900  1.00  0.00     0.012 C 
ATOM     28  C   UNL     1      -3.696  -1.287   0.518  1.00  0.00     0.012 C 
ENDBRANCH  25  26
ENDBRANCH  18  19
ENDBRANCH  17  18
ENDBRANCH  14  17
ENDBRANCH   9  13
ENDBRANCH   7   8
ENDBRANCH   4   7
ENDBRANCH   2   3
ENDBRANCH   1   2
BRANCH   1  29
ATOM     29  C   UNL     1      -3.841  -0.896   6.026  1.00  0.00     0.002 C 
BRANCH  29  30
ATOM     30  C   UNL     1      -3.726  -2.353   5.540  1.00  0.00     0.002 C 
BRANCH  30  31
ATOM     31  C   UNL     1      -2.445  -2.724   4.789  1.00  0.00     0.021 C 
BRANCH  31  32
ATOM     32  C   UNL     1      -1.182  -2.627   5.635  1.00  0.00     0.116 C 
BRANCH  32  33
ATOM     33  N   UNL     1      -0.622  -3.917   6.007  1.00  0.00    -0.352 N 
ATOM     34  C   UNL     1       0.581  -4.160   6.660  1.00  0.00     0.251 C 
ATOM     35  H   UNL     1      -1.155  -4.708   5.768  1.00  0.00     0.163 HD
ATOM     36  O   UNL     1       1.083  -5.256   6.720  1.00  0.00    -0.269 OA
BRANCH  34  37
ATOM     37  C   UNL     1       1.161  -3.016   7.403  1.00  0.00     0.039 A 
ATOM     38  C   UNL     1       1.108  -3.077   8.800  1.00  0.00     0.014 A 
ATOM     39  C   UNL     1       1.468  -1.830   6.743  1.00  0.00     0.014 A 
ATOM     40  C   UNL     1       1.188  -1.899   9.538  1.00  0.00     0.010 A 
ATOM     41  C   UNL     1       1.464  -0.654   7.471  1.00  0.00     0.010 A 
ATOM     42  C   UNL     1       1.273  -0.684   8.861  1.00  0.00    -0.014 A 
BRANCH  42  43
ATOM     43  C   UNL     1       1.104   0.614   9.509  1.00  0.00     0.031 A 
ATOM     44  C   UNL     1       2.276   1.495   9.716  1.00  0.00     0.074 A 
ATOM     45  C   UNL     1      -0.126   1.043   9.864  1.00  0.00     0.049 A 
ATOM     46  N   UNL     1       2.308   2.510  10.514  1.00  0.00    -0.248 NA
ATOM     47  C   UNL     1       3.559   1.235   9.077  1.00  0.00     0.031 C 
ATOM     48  C   UNL     1      -0.520   2.409  10.194  1.00  0.00     0.029 A 
ATOM     49  N   UNL     1      -1.236   0.274  10.203  1.00  0.00    -0.354 N 
ATOM     50  C   UNL     1       3.490   3.187  10.301  1.00  0.00     0.074 A 
ATOM     51  C   UNL     1       4.265   2.296   9.473  1.00  0.00     0.031 C 
ATOM     52  C   UNL     1      -1.667   2.377  10.888  1.00  0.00     0.029 A 
ATOM     53  C   UNL     1      -1.970   0.985  11.167  1.00  0.00     0.049 A 
ATOM     54  H   UNL     1      -1.466  -0.609   9.834  1.00  0.00     0.167 HD
ATOM     55  C   UNL     1       3.607   4.473  10.751  1.00  0.00     0.037 A 
ATOM     56  C   UNL     1      -2.167   0.478  12.421  1.00  0.00     0.037 A 
ATOM     57  C   UNL     1       2.488   4.809  11.641  1.00  0.00     0.049 A 
ATOM     58  C   UNL     1      -1.552   1.304  13.528  1.00  0.00     0.074 A 
ATOM     59  C   UNL     1       1.311   5.517  11.457  1.00  0.00     0.029 A 
ATOM     60  N   UNL     1       2.359   4.149  12.861  1.00  0.00    -0.354 N 
ATOM     61  N   UNL     1      -0.668   2.245  13.337  1.00  0.00    -0.248 NA
ATOM     62  C   UNL     1      -1.871   1.124  14.943  1.00  0.00     0.031 C 
ATOM     63  C   UNL     1       0.440   5.210  12.535  1.00  0.00     0.029 A 
ATOM     64  C   UNL     1       1.096   4.340  13.389  1.00  0.00     0.049 A 
ATOM     65  H   UNL     1       3.070   3.618  13.288  1.00  0.00     0.167 HD
ATOM     66  C   UNL     1      -0.267   2.756  14.544  1.00  0.00     0.074 A 
ATOM     67  C   UNL     1      -1.077   2.046  15.518  1.00  0.00     0.031 C 
ATOM     68  C   UNL     1       0.707   3.709  14.644  1.00  0.00     0.037 A 
BRANCH  55  69
ATOM     69  C   UNL     1       4.561   5.521  10.174  1.00  0.00     0.058 A 
ATOM     70  C   UNL     1       4.293   6.902  10.334  1.00  0.00     0.135 A 
ATOM     71  C   UNL     1       5.690   5.256   9.371  1.00  0.00     0.135 A 
ATOM     72  F   UNL     1       3.314   7.337  11.139  1.00  0.00    -0.206 F 
ATOM     73  C   UNL     1       5.005   7.910   9.668  1.00  0.00     0.059 A 
ATOM     74  C   UNL     1       6.395   6.238   8.669  1.00  0.00     0.059 A 
ATOM     75  F   UNL     1       6.212   4.035   9.255  1.00  0.00    -0.206 F 
ATOM     76  C   UNL     1       6.035   7.565   8.806  1.00  0.00     0.060 A 
BRANCH  76  77
ATOM     77  S   UNL     1       6.900   8.852   7.889  1.00  0.00     0.124 S 
ATOM     78  O   UNL     1       5.819   9.453   7.115  1.00  0.00    -0.237 OA
ATOM     79  O   UNL     1       7.452   9.675   8.959  1.00  0.00    -0.237 OA
ATOM     80  O   UNL     1       7.883   8.109   7.104  1.00  0.00    -0.744 OA
ENDBRANCH  76  77
ENDBRANCH  55  69
BRANCH  56  81
ATOM     81  C   UNL     1      -2.338  -1.000  12.432  1.00  0.00     0.058 A 
ATOM     82  C   UNL     1      -3.508  -1.518  11.845  1.00  0.00     0.135 A 
ATOM     83  C   UNL     1      -1.237  -1.859  12.556  1.00  0.00     0.135 A 
ATOM     84  F   UNL     1      -4.598  -0.742  11.725  1.00  0.00    -0.206 F 
ATOM     85  C   UNL     1      -3.529  -2.770  11.241  1.00  0.00     0.059 A 
ATOM     86  C   UNL     1      -1.239  -3.124  11.964  1.00  0.00     0.059 A 
ATOM     87  F   UNL     1      -0.098  -1.423  13.113  1.00  0.00    -0.206 F 
ATOM     88  C   UNL     1      -2.363  -3.532  11.243  1.00  0.00     0.060 A 
BRANCH  88  89
ATOM     89  S   UNL     1      -2.290  -4.960  10.134  1.00  0.00     0.124 S 
ATOM     90  O   UNL     1      -3.434  -5.750  10.577  1.00  0.00    -0.237 OA
ATOM     91  O   UNL     1      -2.433  -4.322   8.826  1.00  0.00    -0.237 OA
ATOM     92  O   UNL     1      -0.980  -5.534  10.414  1.00  0.00    -0.744 OA
ENDBRANCH  88  89
ENDBRANCH  56  81
BRANCH  68  93
ATOM     93  C   UNL     1       1.324   4.199  15.934  1.00  0.00     0.058 A 
ATOM     94  C   UNL     1       1.511   3.394  17.072  1.00  0.00     0.135 A 
ATOM     95  C   UNL     1       1.876   5.500  16.011  1.00  0.00     0.135 A 
ATOM     96  F   UNL     1       1.133   2.107  17.083  1.00  0.00    -0.206 F 
ATOM     97  C   UNL     1       2.135   3.866  18.229  1.00  0.00     0.059 A 
ATOM     98  C   UNL     1       2.550   5.973  17.135  1.00  0.00     0.059 A 
ATOM     99  F   UNL     1       1.785   6.357  14.982  1.00  0.00    -0.206 F 
ATOM    100  C   UNL     1       2.651   5.158  18.253  1.00  0.00     0.060 A 
BRANCH 100 101
ATOM    101  S   UNL     1       3.510   5.762  19.719  1.00  0.00     0.124 S 
ATOM    102  O   UNL     1       2.431   6.438  20.431  1.00  0.00    -0.237 OA
ATOM    103  O   UNL     1       4.002   4.535  20.340  1.00  0.00    -0.237 OA
ATOM    104  O   UNL     1       4.543   6.629  19.161  1.00  0.00    -0.744 OA
ENDBRANCH 100 101
ENDBRANCH  68  93
ENDBRANCH  42  43
ENDBRANCH  34  37
ENDBRANCH  32  33
ENDBRANCH  31  32
ENDBRANCH  30  31
ENDBRANCH  29  30
ENDBRANCH   1  29
TORSDOF 22
