REMARK SMILES O=C(NCCCCCCNC(=O)[C@H]1[C@@H](C(=O)Nc2ccccc2-c2ccccc2)[C@@H]2C=C[C@H]1O2)c1ccc(-c2c3nc(c(-c4c(F)cc(S(=O)(=O)[O-])cc4F)c4ccc([nH]4)c(-c4c(F)cc(S(=O)(=O)[O-])cc4F)c4nc(c(-c5c(F)cc(S(=O)(=O)[O-])cc5F)c5ccc2[nH]5)C=C4)C=C3)cc1
REMARK SMILES IDX 6 1 5 2 4 3 3 4 1 5 2 6 35 8 36 9 100 10 37 11 99 12 38 13
REMARK SMILES IDX 39 14 40 15 93 16 41 17 98 18 92 19 94 20 42 21 97 22 91 23
REMARK SMILES IDX 90 24 43 26 77 27 56 28 76 29 57 30 60 31 75 32 95 33 58 34
REMARK SMILES IDX 59 35 74 37 96 38 61 39 44 40 45 41 54 42 46 43 47 44 53 45
REMARK SMILES IDX 55 46 48 47 49 48 50 49 51 50 52 51 78 52 79 53 88 54 80 55
REMARK SMILES IDX 81 56 87 57 89 58 82 59 83 60 84 61 85 62 86 63 62 64 63 65
REMARK SMILES IDX 72 66 64 67 65 68 71 69 73 70 66 71 67 72 68 73 69 74 70 75
REMARK SMILES IDX 7 76 8 77 9 78 10 79 11 80 12 82 13 83 14 84 33 85 30 86
REMARK SMILES IDX 32 87 34 88 31 89 15 90 16 91 17 92 18 94 19 95 23 96 20 97
REMARK SMILES IDX 22 98 21 99 24 100 25 101 29 102 26 103 28 104 27 105
REMARK H PARENT 3 7 94 25 60 36 10 81 17 93
REMARK Flexibility Score: inf
ROOT
ATOM      1  C   UNL     1       5.567  -1.444  -1.721  1.00  0.00     0.002 C 
ENDROOT
BRANCH   1   2
ATOM      2  C   UNL     1       4.224  -2.044  -1.329  1.00  0.00     0.021 C 
BRANCH   2   3
ATOM      3  C   UNL     1       4.065  -2.243   0.164  1.00  0.00     0.116 C 
BRANCH   3   4
ATOM      4  N   UNL     1       4.044  -0.978   0.879  1.00  0.00    -0.352 N 
ATOM      5  O   UNL     1       3.069   0.703   2.034  1.00  0.00    -0.269 OA
ATOM      6  C   UNL     1       3.038  -0.464   1.661  1.00  0.00     0.251 C 
ATOM      7  H   UNL     1       4.851  -0.421   0.794  1.00  0.00     0.163 HD
BRANCH   6   8
ATOM      8  C   UNL     1       1.905  -1.346   2.006  1.00  0.00     0.039 A 
ATOM      9  C   UNL     1       2.153  -2.660   2.408  1.00  0.00     0.014 A 
ATOM     10  C   UNL     1       0.599  -0.890   1.836  1.00  0.00     0.014 A 
ATOM     11  C   UNL     1       1.109  -3.570   2.437  1.00  0.00     0.010 A 
ATOM     12  C   UNL     1      -0.464  -1.780   2.009  1.00  0.00     0.010 A 
ATOM     13  C   UNL     1      -0.217  -3.138   2.268  1.00  0.00    -0.014 A 
BRANCH  13  14
ATOM     14  C   UNL     1      -1.316  -4.123   2.427  1.00  0.00     0.031 A 
ATOM     15  C   UNL     1      -2.281  -4.414   1.309  1.00  0.00     0.074 A 
ATOM     16  C   UNL     1      -1.412  -4.786   3.597  1.00  0.00     0.049 A 
ATOM     17  N   UNL     1      -3.276  -5.264   1.284  1.00  0.00    -0.248 NA
ATOM     18  C   UNL     1      -2.120  -3.648   0.062  1.00  0.00     0.031 C 
ATOM     19  C   UNL     1      -0.535  -4.581   4.756  1.00  0.00     0.029 A 
ATOM     20  N   UNL     1      -2.264  -5.778   4.005  1.00  0.00    -0.354 N 
ATOM     21  C   UNL     1      -3.877  -5.118   0.039  1.00  0.00     0.074 A 
ATOM     22  C   UNL     1      -3.151  -4.076  -0.655  1.00  0.00     0.031 C 
ATOM     23  C   UNL     1      -0.851  -5.462   5.713  1.00  0.00     0.029 A 
ATOM     24  C   UNL     1      -2.008  -6.232   5.277  1.00  0.00     0.049 A 
ATOM     25  H   UNL     1      -2.990  -6.132   3.442  1.00  0.00     0.167 HD
ATOM     26  C   UNL     1      -4.933  -5.794  -0.475  1.00  0.00     0.037 A 
ATOM     27  C   UNL     1      -2.645  -7.150   6.026  1.00  0.00     0.037 A 
ATOM     28  C   UNL     1      -5.640  -6.836   0.229  1.00  0.00     0.049 A 
ATOM     29  C   UNL     1      -3.834  -7.856   5.443  1.00  0.00     0.074 A 
ATOM     30  C   UNL     1      -6.696  -7.612  -0.219  1.00  0.00     0.029 A 
ATOM     31  N   UNL     1      -5.377  -7.240   1.532  1.00  0.00    -0.354 N 
ATOM     32  N   UNL     1      -4.362  -7.733   4.248  1.00  0.00    -0.248 NA
ATOM     33  C   UNL     1      -4.512  -8.828   6.308  1.00  0.00     0.031 C 
ATOM     34  C   UNL     1      -7.118  -8.429   0.835  1.00  0.00     0.029 A 
ATOM     35  C   UNL     1      -6.271  -8.228   1.913  1.00  0.00     0.049 A 
ATOM     36  H   UNL     1      -4.660  -6.877   2.100  1.00  0.00     0.167 HD
ATOM     37  C   UNL     1      -5.415  -8.640   4.206  1.00  0.00     0.074 A 
ATOM     38  C   UNL     1      -5.436  -9.312   5.489  1.00  0.00     0.031 C 
ATOM     39  C   UNL     1      -6.281  -8.895   3.193  1.00  0.00     0.037 A 
BRANCH  26  40
ATOM     40  C   UNL     1      -5.418  -5.411  -1.851  1.00  0.00     0.058 A 
ATOM     41  C   UNL     1      -4.661  -5.655  -3.008  1.00  0.00     0.135 A 
ATOM     42  C   UNL     1      -6.686  -4.828  -2.016  1.00  0.00     0.135 A 
ATOM     43  F   UNL     1      -3.437  -6.198  -2.915  1.00  0.00    -0.206 F 
ATOM     44  C   UNL     1      -5.129  -5.308  -4.272  1.00  0.00     0.059 A 
ATOM     45  C   UNL     1      -7.189  -4.504  -3.273  1.00  0.00     0.059 A 
ATOM     46  F   UNL     1      -7.457  -4.571  -0.947  1.00  0.00    -0.206 F 
ATOM     47  C   UNL     1      -6.396  -4.734  -4.394  1.00  0.00     0.060 A 
BRANCH  47  48
ATOM     48  S   UNL     1      -6.986  -4.291  -6.042  1.00  0.00     0.124 S 
ATOM     49  O   UNL     1      -6.113  -3.168  -6.372  1.00  0.00    -0.237 OA
ATOM     50  O   UNL     1      -6.751  -5.518  -6.795  1.00  0.00    -0.237 OA
ATOM     51  O   UNL     1      -8.389  -3.950  -5.823  1.00  0.00    -0.744 OA
ENDBRANCH  47  48
ENDBRANCH  26  40
BRANCH  27  52
ATOM     52  C   UNL     1      -2.168  -7.446   7.403  1.00  0.00     0.058 A 
ATOM     53  C   UNL     1      -1.623  -8.697   7.725  1.00  0.00     0.135 A 
ATOM     54  C   UNL     1      -2.233  -6.480   8.421  1.00  0.00     0.135 A 
ATOM     55  F   UNL     1      -1.539  -9.654   6.788  1.00  0.00    -0.206 F 
ATOM     56  C   UNL     1      -1.181  -8.990   9.011  1.00  0.00     0.059 A 
ATOM     57  C   UNL     1      -1.764  -6.736   9.704  1.00  0.00     0.059 A 
ATOM     58  F   UNL     1      -2.726  -5.259   8.160  1.00  0.00    -0.206 F 
ATOM     59  C   UNL     1      -1.252  -8.000   9.992  1.00  0.00     0.060 A 
BRANCH  59  60
ATOM     60  S   UNL     1      -0.639  -8.380  11.646  1.00  0.00     0.124 S 
ATOM     61  O   UNL     1      -1.642  -9.327  12.120  1.00  0.00    -0.237 OA
ATOM     62  O   UNL     1       0.680  -8.934  11.361  1.00  0.00    -0.237 OA
ATOM     63  O   UNL     1      -0.635  -7.080  12.310  1.00  0.00    -0.744 OA
ENDBRANCH  59  60
ENDBRANCH  27  52
BRANCH  39  64
ATOM     64  C   UNL     1      -7.289  -9.992   3.411  1.00  0.00     0.058 A 
ATOM     65  C   UNL     1      -8.341  -9.872   4.333  1.00  0.00     0.135 A 
ATOM     66  C   UNL     1      -7.208 -11.179   2.664  1.00  0.00     0.135 A 
ATOM     67  F   UNL     1      -8.463  -8.762   5.080  1.00  0.00    -0.206 F 
ATOM     68  C   UNL     1      -9.251 -10.905   4.536  1.00  0.00     0.059 A 
ATOM     69  C   UNL     1      -8.130 -12.208   2.822  1.00  0.00     0.059 A 
ATOM     70  F   UNL     1      -6.228 -11.346   1.761  1.00  0.00    -0.206 F 
ATOM     71  C   UNL     1      -9.137 -12.069   3.774  1.00  0.00     0.060 A 
BRANCH  71  72
ATOM     72  S   UNL     1     -10.332 -13.395   4.038  1.00  0.00     0.124 S 
ATOM     73  O   UNL     1      -9.929 -13.897   5.348  1.00  0.00    -0.237 OA
ATOM     74  O   UNL     1     -11.604 -12.681   3.996  1.00  0.00    -0.237 OA
ATOM     75  O   UNL     1     -10.090 -14.300   2.918  1.00  0.00    -0.744 OA
ENDBRANCH  71  72
ENDBRANCH  39  64
ENDBRANCH  13  14
ENDBRANCH   6   8
ENDBRANCH   3   4
ENDBRANCH   2   3
ENDBRANCH   1   2
BRANCH   1  76
ATOM     76  C   UNL     1       6.792  -2.176  -1.156  1.00  0.00     0.002 C 
BRANCH  76  77
ATOM     77  C   UNL     1       6.819  -3.697  -1.371  1.00  0.00     0.021 C 
BRANCH  77  78
ATOM     78  C   UNL     1       6.508  -4.131  -2.791  1.00  0.00     0.116 C 
BRANCH  78  79
ATOM     79  N   UNL     1       7.319  -3.417  -3.733  1.00  0.00    -0.356 N 
ATOM     80  C   UNL     1       8.095  -3.921  -4.706  1.00  0.00     0.227 C 
ATOM     81  H   UNL     1       7.306  -2.436  -3.657  1.00  0.00     0.163 HD
ATOM     82  O   UNL     1       8.302  -3.190  -5.678  1.00  0.00    -0.275 OA
BRANCH  80  83
ATOM     83  C   UNL     1       8.468  -5.380  -4.723  1.00  0.00     0.127 C 
ATOM     84  C   UNL     1       9.785  -5.906  -6.214  1.00  0.00     0.127 C 
ATOM     85  C   UNL     1       8.570  -6.819  -3.263  1.00  0.00     0.155 C 
ATOM     86  C   UNL     1      10.726  -7.624  -5.524  1.00  0.00     0.155 C 
ATOM     87  C   UNL     1       7.953  -8.308  -4.422  1.00  0.00     0.004 C 
ATOM     88  O   UNL     1      10.540  -7.236  -3.394  1.00  0.00    -0.365 OA
ATOM     89  C   UNL     1       8.954  -8.636  -5.700  1.00  0.00     0.004 C 
BRANCH  84  90
ATOM     90  C   UNL     1      10.676  -4.822  -6.885  1.00  0.00     0.231 C 
ATOM     91  O   UNL     1      11.045  -4.995  -8.054  1.00  0.00    -0.274 OA
ATOM     92  N   UNL     1      11.062  -3.662  -6.260  1.00  0.00    -0.325 N 
ATOM     93  H   UNL     1      11.432  -2.958  -6.841  1.00  0.00     0.169 HD
BRANCH  92  94
ATOM     94  C   UNL     1      10.992  -3.361  -4.892  1.00  0.00     0.049 A 
ATOM     95  C   UNL     1      10.950  -2.036  -4.444  1.00  0.00     0.027 A 
ATOM     96  C   UNL     1      10.880  -4.394  -3.974  1.00  0.00     0.005 A 
ATOM     97  C   UNL     1      10.721  -1.757  -3.088  1.00  0.00     0.002 A 
ATOM     98  C   UNL     1      10.710  -4.108  -2.606  1.00  0.00     0.011 A 
ATOM     99  C   UNL     1      10.603  -2.794  -2.166  1.00  0.00     0.001 A 
BRANCH  96 100
ATOM    100  C   UNL     1      11.009  -5.785  -4.425  1.00  0.00    -0.016 A 
ATOM    101  C   UNL     1       9.582  -6.987  -4.620  1.00  0.00     0.009 A 
ATOM    102  C   UNL     1      12.454  -6.396  -4.133  1.00  0.00     0.009 A 
ATOM    103  C   UNL     1      10.169  -8.799  -4.042  1.00  0.00     0.001 A 
ATOM    104  C   UNL     1      12.735  -7.922  -3.843  1.00  0.00     0.001 A 
ATOM    105  C   UNL     1      11.691  -9.072  -3.751  1.00  0.00     0.000 A 
ENDBRANCH  96 100
ENDBRANCH  92  94
ENDBRANCH  84  90
ENDBRANCH  80  83
ENDBRANCH  78  79
ENDBRANCH  77  78
ENDBRANCH  76  77
ENDBRANCH   1  76
TORSDOF 19
