REMARK SMILES CC[C@]1(C(=O)NCCCCCCNC(=O)c2ccc(-c3c4nc(c(-c5c(F)cc(S(=O)(=O)[O-])cc5F)c5ccc([nH]5)c(-c5c(F)cc(S(=O)(=O)[O-])cc5F)c5nc(c(-c6c(F)cc(S(=O)(=O)[O-])cc6F)c6ccc3[nH]6)C=C5)C=C4)cc2)CCN(C(=O)[C@]2(C)CCCO2)C1
REMARK SMILES IDX 10 1 9 2 8 3 7 4 6 5 4 6 5 7 3 9 82 10 93 11 83 12 84 13
REMARK SMILES IDX 2 14 1 15 85 16 86 17 87 18 89 19 92 20 88 21 90 22 91 23
REMARK SMILES IDX 11 24 12 25 13 26 14 27 15 29 16 30 17 31 81 32 18 33 80 34
REMARK SMILES IDX 19 35 20 36 21 37 74 38 22 39 79 40 73 41 75 42 23 43 78 44
REMARK SMILES IDX 72 45 71 46 24 48 58 49 37 50 57 51 38 52 41 53 56 54 76 55
REMARK SMILES IDX 39 56 40 57 55 59 77 60 42 61 25 62 26 63 35 64 27 65 28 66
REMARK SMILES IDX 34 67 36 68 29 69 30 70 31 71 32 72 33 73 59 74 60 75 69 76
REMARK SMILES IDX 61 77 62 78 68 79 70 80 63 81 64 82 65 83 66 84 67 85 43 86
REMARK SMILES IDX 44 87 53 88 45 89 46 90 52 91 54 92 47 93 48 94 49 95 50 96
REMARK SMILES IDX 51 97
REMARK H PARENT 6 8 13 28 75 47 41 58
REMARK Flexibility Score: inf
ROOT
ATOM      1  C   UNL     1      -2.310 -13.800   2.733  1.00  0.00     0.002 C 
ENDROOT
BRANCH   1   2
ATOM      2  C   UNL     1      -2.281 -13.874   1.203  1.00  0.00     0.002 C 
BRANCH   2   3
ATOM      3  C   UNL     1      -1.877 -12.574   0.488  1.00  0.00     0.021 C 
BRANCH   3   4
ATOM      4  C   UNL     1      -0.578 -11.941   0.996  1.00  0.00     0.116 C 
BRANCH   4   5
ATOM      5  N   UNL     1       0.484 -12.928   1.012  1.00  0.00    -0.356 N 
ATOM      6  C   UNL     1       1.283 -13.216  -0.044  1.00  0.00     0.228 C 
ATOM      7  O   UNL     1       1.283 -14.379  -0.457  1.00  0.00    -0.274 OA
ATOM      8  H   UNL     1       0.636 -13.423   1.849  1.00  0.00     0.163 HD
BRANCH   6   9
ATOM      9  C   UNL     1       2.206 -12.150  -0.637  1.00  0.00     0.068 C 
ATOM     10  C   UNL     1       1.627 -11.670  -1.982  1.00  0.00     0.040 C 
ATOM     11  C   UNL     1       2.373 -10.848   0.178  1.00  0.00     0.136 C 
ATOM     12  C   UNL     1       2.120 -10.240  -2.101  1.00  0.00     0.121 C 
ATOM     13  N   UNL     1       2.050  -9.759  -0.741  1.00  0.00    -0.339 N 
BRANCH   9  14
ATOM     14  C   UNL     1       3.576 -12.847  -0.861  1.00  0.00     0.015 C 
ATOM     15  C   UNL     1       4.218 -13.366   0.428  1.00  0.00     0.005 C 
ENDBRANCH   9  14
BRANCH  13  16
ATOM     16  C   UNL     1       1.826  -8.479  -0.272  1.00  0.00     0.254 C 
ATOM     17  O   UNL     1       1.821  -8.275   0.948  1.00  0.00    -0.272 OA
BRANCH  16  18
ATOM     18  C   UNL     1       1.505  -7.308  -1.264  1.00  0.00     0.144 C 
ATOM     19  C   UNL     1       0.009  -7.263  -1.615  1.00  0.00     0.048 C 
ATOM     20  O   UNL     1       2.227  -7.373  -2.505  1.00  0.00    -0.365 OA
ATOM     21  C   UNL     1       1.901  -5.985  -0.581  1.00  0.00     0.053 C 
ATOM     22  C   UNL     1      -0.054  -7.587  -3.087  1.00  0.00     0.032 C 
ATOM     23  C   UNL     1       1.309  -7.169  -3.586  1.00  0.00     0.162 C 
ENDBRANCH  16  18
ENDBRANCH  13  16
ENDBRANCH   6   9
ENDBRANCH   4   5
ENDBRANCH   3   4
ENDBRANCH   2   3
ENDBRANCH   1   2
BRANCH   1  24
ATOM     24  C   UNL     1      -3.175 -12.678   3.302  1.00  0.00     0.021 C 
BRANCH  24  25
ATOM     25  C   UNL     1      -4.619 -12.707   2.827  1.00  0.00     0.116 C 
BRANCH  25  26
ATOM     26  N   UNL     1      -5.318 -13.899   3.279  1.00  0.00    -0.352 N 
ATOM     27  C   UNL     1      -6.522 -13.982   3.930  1.00  0.00     0.251 C 
ATOM     28  H   UNL     1      -4.869 -14.756   3.095  1.00  0.00     0.163 HD
ATOM     29  O   UNL     1      -6.888 -15.044   4.428  1.00  0.00    -0.269 OA
BRANCH  27  30
ATOM     30  C   UNL     1      -7.360 -12.771   4.045  1.00  0.00     0.039 A 
ATOM     31  C   UNL     1      -7.903 -12.436   5.286  1.00  0.00     0.014 A 
ATOM     32  C   UNL     1      -7.576 -11.951   2.932  1.00  0.00     0.014 A 
ATOM     33  C   UNL     1      -8.618 -11.246   5.423  1.00  0.00     0.010 A 
ATOM     34  C   UNL     1      -8.216 -10.727   3.091  1.00  0.00     0.010 A 
ATOM     35  C   UNL     1      -8.752 -10.365   4.335  1.00  0.00    -0.014 A 
BRANCH  35  36
ATOM     36  C   UNL     1      -9.451  -9.063   4.482  1.00  0.00     0.031 A 
ATOM     37  C   UNL     1     -10.702  -8.788   3.691  1.00  0.00     0.074 A 
ATOM     38  C   UNL     1      -8.930  -8.112   5.283  1.00  0.00     0.049 A 
ATOM     39  N   UNL     1     -11.421  -7.697   3.638  1.00  0.00    -0.248 NA
ATOM     40  C   UNL     1     -11.197  -9.872   2.825  1.00  0.00     0.031 C 
ATOM     41  C   UNL     1      -7.695  -8.245   6.061  1.00  0.00     0.029 A 
ATOM     42  N   UNL     1      -9.366  -6.843   5.570  1.00  0.00    -0.354 N 
ATOM     43  C   UNL     1     -12.441  -7.957   2.731  1.00  0.00     0.074 A 
ATOM     44  C   UNL     1     -12.217  -9.289   2.213  1.00  0.00     0.031 C 
ATOM     45  C   UNL     1      -7.488  -7.114   6.755  1.00  0.00     0.029 A 
ATOM     46  C   UNL     1      -8.547  -6.160   6.440  1.00  0.00     0.049 A 
ATOM     47  H   UNL     1     -10.187  -6.457   5.189  1.00  0.00     0.167 HD
ATOM     48  C   UNL     1     -13.483  -7.167   2.380  1.00  0.00     0.037 A 
ATOM     49  C   UNL     1      -8.634  -4.904   6.921  1.00  0.00     0.037 A 
ATOM     50  C   UNL     1     -13.712  -5.853   2.921  1.00  0.00     0.049 A 
ATOM     51  C   UNL     1      -9.799  -4.044   6.507  1.00  0.00     0.074 A 
ATOM     52  C   UNL     1     -14.771  -4.997   2.675  1.00  0.00     0.029 A 
ATOM     53  N   UNL     1     -12.871  -5.203   3.812  1.00  0.00    -0.354 N 
ATOM     54  N   UNL     1     -10.793  -4.333   5.701  1.00  0.00    -0.248 NA
ATOM     55  C   UNL     1      -9.860  -2.690   7.074  1.00  0.00     0.031 C 
ATOM     56  C   UNL     1     -14.543  -3.808   3.375  1.00  0.00     0.029 A 
ATOM     57  C   UNL     1     -13.374  -3.946   4.106  1.00  0.00     0.049 A 
ATOM     58  H   UNL     1     -12.040  -5.579   4.182  1.00  0.00     0.167 HD
ATOM     59  C   UNL     1     -11.613  -3.210   5.690  1.00  0.00     0.074 A 
ATOM     60  C   UNL     1     -11.006  -2.242   6.580  1.00  0.00     0.031 C 
ATOM     61  C   UNL     1     -12.765  -2.999   5.006  1.00  0.00     0.037 A 
BRANCH  48  62
ATOM     62  C   UNL     1     -14.463  -7.699   1.369  1.00  0.00     0.058 A 
ATOM     63  C   UNL     1     -15.344  -8.748   1.676  1.00  0.00     0.135 A 
ATOM     64  C   UNL     1     -14.565  -7.111   0.098  1.00  0.00     0.135 A 
ATOM     65  F   UNL     1     -15.280  -9.360   2.870  1.00  0.00    -0.206 F 
ATOM     66  C   UNL     1     -16.279  -9.207   0.754  1.00  0.00     0.059 A 
ATOM     67  C   UNL     1     -15.512  -7.533  -0.830  1.00  0.00     0.059 A 
ATOM     68  F   UNL     1     -13.744  -6.107  -0.251  1.00  0.00    -0.206 F 
ATOM     69  C   UNL     1     -16.360  -8.589  -0.495  1.00  0.00     0.060 A 
BRANCH  69  70
ATOM     70  S   UNL     1     -17.600  -9.177  -1.668  1.00  0.00     0.124 S 
ATOM     71  O   UNL     1     -17.052 -10.476  -2.044  1.00  0.00    -0.237 OA
ATOM     72  O   UNL     1     -18.808  -9.210  -0.850  1.00  0.00    -0.237 OA
ATOM     73  O   UNL     1     -17.584  -8.163  -2.718  1.00  0.00    -0.744 OA
ENDBRANCH  69  70
ENDBRANCH  48  62
BRANCH  49  74
ATOM     74  C   UNL     1      -7.598  -4.385   7.854  1.00  0.00     0.058 A 
ATOM     75  C   UNL     1      -7.904  -4.106   9.195  1.00  0.00     0.135 A 
ATOM     76  C   UNL     1      -6.283  -4.146   7.423  1.00  0.00     0.135 A 
ATOM     77  F   UNL     1      -9.148  -4.312   9.655  1.00  0.00    -0.206 F 
ATOM     78  C   UNL     1      -6.956  -3.581  10.067  1.00  0.00     0.059 A 
ATOM     79  C   UNL     1      -5.309  -3.651   8.284  1.00  0.00     0.059 A 
ATOM     80  F   UNL     1      -5.931  -4.413   6.156  1.00  0.00    -0.206 F 
ATOM     81  C   UNL     1      -5.659  -3.356   9.601  1.00  0.00     0.060 A 
BRANCH  81  82
ATOM     82  S   UNL     1      -4.430  -2.695  10.747  1.00  0.00     0.124 S 
ATOM     83  O   UNL     1      -4.877  -1.315  10.892  1.00  0.00    -0.237 OA
ATOM     84  O   UNL     1      -4.609  -3.552  11.915  1.00  0.00    -0.237 OA
ATOM     85  O   UNL     1      -3.171  -2.879  10.030  1.00  0.00    -0.744 OA
ENDBRANCH  81  82
ENDBRANCH  49  74
BRANCH  61  86
ATOM     86  C   UNL     1     -13.473  -1.690   5.224  1.00  0.00     0.058 A 
ATOM     87  C   UNL     1     -12.967  -0.480   4.723  1.00  0.00     0.135 A 
ATOM     88  C   UNL     1     -14.706  -1.656   5.897  1.00  0.00     0.135 A 
ATOM     89  F   UNL     1     -11.791  -0.455   4.077  1.00  0.00    -0.206 F 
ATOM     90  C   UNL     1     -13.646   0.721   4.904  1.00  0.00     0.059 A 
ATOM     91  C   UNL     1     -15.417  -0.472   6.061  1.00  0.00     0.059 A 
ATOM     92  F   UNL     1     -15.241  -2.786   6.386  1.00  0.00    -0.206 F 
ATOM     93  C   UNL     1     -14.873   0.714   5.571  1.00  0.00     0.060 A 
BRANCH  93  94
ATOM     94  S   UNL     1     -15.759   2.274   5.766  1.00  0.00     0.124 S 
ATOM     95  O   UNL     1     -14.948   2.950   6.773  1.00  0.00    -0.237 OA
ATOM     96  O   UNL     1     -15.698   2.837   4.420  1.00  0.00    -0.237 OA
ATOM     97  O   UNL     1     -17.088   1.859   6.205  1.00  0.00    -0.744 OA
ENDBRANCH  93  94
ENDBRANCH  61  86
ENDBRANCH  35  36
ENDBRANCH  27  30
ENDBRANCH  25  26
ENDBRANCH  24  25
ENDBRANCH   1  24
TORSDOF 19
