REMARK SMILES O=C(NCCCCCCNC(=O)[C@]1(NC(=O)C2CCN(C(=O)C3CC3)CC2)CCCc2ccccc21)c1ccc(-c2c3nc(c(-c4c(F)cc(S(=O)(=O)[O-])cc4F)c4ccc([nH]4)c(-c4c(F)cc(S(=O)(=O)[O-])cc4F)c4nc(c(-c5c(F)cc(S(=O)(=O)[O-])cc5F)c5ccc2[nH]5)C=C4)C=C3)cc1
REMARK SMILES IDX 6 1 5 2 4 3 3 4 1 5 2 6 37 8 38 9 102 10 39 11 101 12 40 13
REMARK SMILES IDX 41 14 42 15 95 16 43 17 100 18 94 19 96 20 44 21 99 22 93 23
REMARK SMILES IDX 92 24 45 26 79 27 58 28 78 29 59 30 62 31 77 32 97 33 60 34
REMARK SMILES IDX 61 35 76 37 98 38 63 39 46 40 47 41 56 42 48 43 49 44 55 45
REMARK SMILES IDX 57 46 50 47 51 48 52 49 53 50 54 51 80 52 81 53 90 54 82 55
REMARK SMILES IDX 83 56 89 57 91 58 84 59 85 60 86 61 87 62 88 63 64 64 65 65
REMARK SMILES IDX 74 66 66 67 67 68 73 69 75 70 68 71 69 72 70 73 71 74 72 75
REMARK SMILES IDX 7 76 8 77 9 78 10 79 11 80 12 82 13 83 28 84 36 85 29 86
REMARK SMILES IDX 31 87 35 88 30 89 32 90 34 91 33 92 14 93 15 94 16 96 17 97
REMARK SMILES IDX 18 98 27 99 19 100 26 101 20 102 21 103 22 104 23 105 24 106
REMARK SMILES IDX 25 107
REMARK H PARENT 3 7 96 25 62 36 10 81 14 95
REMARK Flexibility Score: inf
ROOT
ATOM      1  C   UNL     1       3.725  -3.490  -1.290  1.00  0.00     0.002 C 
ENDROOT
BRANCH   1   2
ATOM      2  C   UNL     1       4.211  -2.572  -0.168  1.00  0.00     0.021 C 
BRANCH   2   3
ATOM      3  C   UNL     1       4.118  -1.085  -0.474  1.00  0.00     0.116 C 
BRANCH   3   4
ATOM      4  N   UNL     1       2.746  -0.642  -0.655  1.00  0.00    -0.352 N 
ATOM      5  O   UNL     1       0.870   0.511  -0.161  1.00  0.00    -0.269 OA
ATOM      6  C   UNL     1       2.080   0.373  -0.012  1.00  0.00     0.251 C 
ATOM      7  H   UNL     1       2.225  -1.135  -1.329  1.00  0.00     0.163 HD
BRANCH   6   8
ATOM      8  C   UNL     1       2.834   1.278   0.882  1.00  0.00     0.039 A 
ATOM      9  C   UNL     1       4.055   1.818   0.471  1.00  0.00     0.014 A 
ATOM     10  C   UNL     1       2.329   1.561   2.153  1.00  0.00     0.014 A 
ATOM     11  C   UNL     1       4.841   2.511   1.383  1.00  0.00     0.010 A 
ATOM     12  C   UNL     1       3.082   2.338   3.038  1.00  0.00     0.010 A 
ATOM     13  C   UNL     1       4.361   2.788   2.674  1.00  0.00    -0.014 A 
BRANCH  13  14
ATOM     14  C   UNL     1       5.202   3.585   3.604  1.00  0.00     0.031 A 
ATOM     15  C   UNL     1       5.723   2.993   4.885  1.00  0.00     0.074 A 
ATOM     16  C   UNL     1       5.526   4.847   3.259  1.00  0.00     0.049 A 
ATOM     17  N   UNL     1       6.498   3.539   5.788  1.00  0.00    -0.248 NA
ATOM     18  C   UNL     1       5.318   1.615   5.202  1.00  0.00     0.031 C 
ATOM     19  C   UNL     1       5.066   5.532   2.047  1.00  0.00     0.029 A 
ATOM     20  N   UNL     1       6.331   5.770   3.874  1.00  0.00    -0.354 N 
ATOM     21  C   UNL     1       6.649   2.588   6.792  1.00  0.00     0.074 A 
ATOM     22  C   UNL     1       5.870   1.435   6.395  1.00  0.00     0.031 C 
ATOM     23  C   UNL     1       5.640   6.741   1.979  1.00  0.00     0.029 A 
ATOM     24  C   UNL     1       6.458   6.944   3.169  1.00  0.00     0.049 A 
ATOM     25  H   UNL     1       6.775   5.608   4.737  1.00  0.00     0.167 HD
ATOM     26  C   UNL     1       7.375   2.670   7.933  1.00  0.00     0.037 A 
ATOM     27  C   UNL     1       7.149   8.063   3.450  1.00  0.00     0.037 A 
ATOM     28  C   UNL     1       8.168   3.815   8.306  1.00  0.00     0.049 A 
ATOM     29  C   UNL     1       7.952   8.123   4.717  1.00  0.00     0.074 A 
ATOM     30  C   UNL     1       8.970   3.981   9.422  1.00  0.00     0.029 A 
ATOM     31  N   UNL     1       8.260   4.990   7.573  1.00  0.00    -0.354 N 
ATOM     32  N   UNL     1       8.106   7.202   5.638  1.00  0.00    -0.248 NA
ATOM     33  C   UNL     1       8.676   9.372   4.983  1.00  0.00     0.031 C 
ATOM     34  C   UNL     1       9.515   5.269   9.384  1.00  0.00     0.029 A 
ATOM     35  C   UNL     1       9.092   5.890   8.220  1.00  0.00     0.049 A 
ATOM     36  H   UNL     1       7.801   5.159   6.719  1.00  0.00     0.167 HD
ATOM     37  C   UNL     1       8.963   7.751   6.583  1.00  0.00     0.074 A 
ATOM     38  C   UNL     1       9.305   9.079   6.113  1.00  0.00     0.031 C 
ATOM     39  C   UNL     1       9.427   7.205   7.734  1.00  0.00     0.037 A 
BRANCH  26  40
ATOM     40  C   UNL     1       7.332   1.498   8.877  1.00  0.00     0.058 A 
ATOM     41  C   UNL     1       7.973   0.284   8.584  1.00  0.00     0.135 A 
ATOM     42  C   UNL     1       6.670   1.605  10.112  1.00  0.00     0.135 A 
ATOM     43  F   UNL     1       8.609   0.121   7.413  1.00  0.00    -0.206 F 
ATOM     44  C   UNL     1       7.936  -0.791   9.468  1.00  0.00     0.059 A 
ATOM     45  C   UNL     1       6.641   0.552  11.022  1.00  0.00     0.059 A 
ATOM     46  F   UNL     1       6.042   2.743  10.445  1.00  0.00    -0.206 F 
ATOM     47  C   UNL     1       7.264  -0.648  10.683  1.00  0.00     0.060 A 
BRANCH  47  48
ATOM     48  S   UNL     1       7.221  -2.053  11.817  1.00  0.00     0.124 S 
ATOM     49  O   UNL     1       6.262  -2.931  11.153  1.00  0.00    -0.237 OA
ATOM     50  O   UNL     1       8.608  -2.508  11.805  1.00  0.00    -0.237 OA
ATOM     51  O   UNL     1       6.769  -1.464  13.073  1.00  0.00    -0.744 OA
ENDBRANCH  47  48
ENDBRANCH  26  40
BRANCH  27  52
ATOM     52  C   UNL     1       7.118   9.207   2.502  1.00  0.00     0.058 A 
ATOM     53  C   UNL     1       8.250   9.549   1.748  1.00  0.00     0.135 A 
ATOM     54  C   UNL     1       5.949   9.959   2.309  1.00  0.00     0.135 A 
ATOM     55  F   UNL     1       9.391   8.860   1.900  1.00  0.00    -0.206 F 
ATOM     56  C   UNL     1       8.229  10.606   0.844  1.00  0.00     0.059 A 
ATOM     57  C   UNL     1       5.895  11.002   1.391  1.00  0.00     0.059 A 
ATOM     58  F   UNL     1       4.834   9.657   2.992  1.00  0.00    -0.206 F 
ATOM     59  C   UNL     1       7.045  11.325   0.671  1.00  0.00     0.060 A 
BRANCH  59  60
ATOM     60  S   UNL     1       7.011  12.659  -0.545  1.00  0.00     0.124 S 
ATOM     61  O   UNL     1       7.748  13.707   0.152  1.00  0.00    -0.237 OA
ATOM     62  O   UNL     1       7.687  12.053  -1.687  1.00  0.00    -0.237 OA
ATOM     63  O   UNL     1       5.584  12.906  -0.731  1.00  0.00    -0.744 OA
ENDBRANCH  59  60
ENDBRANCH  27  52
BRANCH  39  64
ATOM     64  C   UNL     1      10.390   8.030   8.541  1.00  0.00     0.058 A 
ATOM     65  C   UNL     1       9.971   9.152   9.273  1.00  0.00     0.135 A 
ATOM     66  C   UNL     1      11.748   7.679   8.595  1.00  0.00     0.135 A 
ATOM     67  F   UNL     1       8.684   9.534   9.247  1.00  0.00    -0.206 F 
ATOM     68  C   UNL     1      10.873   9.918  10.004  1.00  0.00     0.059 A 
ATOM     69  C   UNL     1      12.662   8.415   9.341  1.00  0.00     0.059 A 
ATOM     70  F   UNL     1      12.198   6.609   7.921  1.00  0.00    -0.206 F 
ATOM     71  C   UNL     1      12.217   9.543  10.029  1.00  0.00     0.060 A 
BRANCH  71  72
ATOM     72  S   UNL     1      13.379  10.537  10.989  1.00  0.00     0.124 S 
ATOM     73  O   UNL     1      13.562  11.694  10.119  1.00  0.00    -0.237 OA
ATOM     74  O   UNL     1      12.638  10.783  12.223  1.00  0.00    -0.237 OA
ATOM     75  O   UNL     1      14.540   9.663  11.126  1.00  0.00    -0.744 OA
ENDBRANCH  71  72
ENDBRANCH  39  64
ENDBRANCH  13  14
ENDBRANCH   6   8
ENDBRANCH   3   4
ENDBRANCH   2   3
ENDBRANCH   1   2
BRANCH   1  76
ATOM     76  C   UNL     1       4.387  -3.277  -2.657  1.00  0.00     0.002 C 
BRANCH  76  77
ATOM     77  C   UNL     1       5.918  -3.212  -2.651  1.00  0.00     0.021 C 
BRANCH  77  78
ATOM     78  C   UNL     1       6.591  -4.375  -1.937  1.00  0.00     0.116 C 
BRANCH  78  79
ATOM     79  N   UNL     1       6.483  -5.614  -2.674  1.00  0.00    -0.354 N 
ATOM     80  C   UNL     1       7.404  -6.579  -2.934  1.00  0.00     0.250 C 
ATOM     81  H   UNL     1       5.590  -5.789  -3.051  1.00  0.00     0.163 HD
ATOM     82  O   UNL     1       6.911  -7.714  -2.982  1.00  0.00    -0.272 OA
BRANCH  80  83
ATOM     83  C   UNL     1       8.950  -6.350  -3.182  1.00  0.00     0.145 C 
ATOM     84  C   UNL     1       9.640  -7.240  -2.098  1.00  0.00     0.044 C 
ATOM     85  C   UNL     1       9.441  -4.901  -3.034  1.00  0.00    -0.010 A 
ATOM     86  C   UNL     1       9.502  -6.651  -0.704  1.00  0.00     0.008 C 
ATOM     87  C   UNL     1      10.025  -4.436  -1.826  1.00  0.00    -0.042 A 
ATOM     88  C   UNL     1       9.257  -3.978  -4.083  1.00  0.00     0.007 A 
ATOM     89  C   UNL     1      10.255  -5.331  -0.630  1.00  0.00     0.036 C 
ATOM     90  C   UNL     1      10.389  -3.084  -1.700  1.00  0.00     0.004 A 
ATOM     91  C   UNL     1       9.616  -2.635  -3.935  1.00  0.00     0.000 A 
ATOM     92  C   UNL     1      10.174  -2.188  -2.742  1.00  0.00     0.000 A 
BRANCH  83  93
ATOM     93  N   UNL     1       9.500  -6.907  -4.467  1.00  0.00    -0.338 N 
ATOM     94  C   UNL     1       9.039  -7.054  -5.736  1.00  0.00     0.224 C 
ATOM     95  H   UNL     1      10.417  -7.249  -4.363  1.00  0.00     0.164 HD
ATOM     96  O   UNL     1       9.876  -7.021  -6.642  1.00  0.00    -0.275 OA
BRANCH  94  97
ATOM     97  C   UNL     1       7.579  -7.375  -6.023  1.00  0.00     0.082 C 
ATOM     98  C   UNL     1       7.250  -8.800  -5.529  1.00  0.00     0.035 C 
ATOM     99  C   UNL     1       7.238  -7.205  -7.526  1.00  0.00     0.035 C 
ATOM    100  C   UNL     1       7.658  -9.902  -6.497  1.00  0.00     0.120 C 
ATOM    101  C   UNL     1       7.672  -8.402  -8.380  1.00  0.00     0.120 C 
ATOM    102  N   UNL     1       7.110  -9.620  -7.814  1.00  0.00    -0.342 N 
ATOM    103  C   UNL     1       6.017 -10.379  -8.231  1.00  0.00     0.225 C 
ATOM    104  O   UNL     1       5.567 -11.279  -7.521  1.00  0.00    -0.275 OA
BRANCH 103 105
ATOM    105  C   UNL     1       5.322 -10.216  -9.542  1.00  0.00     0.079 C 
ATOM    106  C   UNL     1       5.164  -8.994 -10.396  1.00  0.00     0.014 C 
ATOM    107  C   UNL     1       6.085 -10.104 -10.835  1.00  0.00     0.014 C 
ENDBRANCH 103 105
ENDBRANCH  94  97
ENDBRANCH  83  93
ENDBRANCH  80  83
ENDBRANCH  78  79
ENDBRANCH  77  78
ENDBRANCH  76  77
ENDBRANCH   1  76
TORSDOF 19
