REMARK SMILES C#CC[N@H+](CC(=O)NCCCCCCNC(=O)c1ccc(-c2c3nc(c(-c4c(F)cc(S(=O)(=O)[O-])cc4F)c4ccc([nH]4)c(-c4c(F)cc(S(=O)(=O)[O-])cc4F)c4nc(c(-c5c(F)cc(S(=O)(=O)[O-])cc5F)c5ccc2[nH]5)C=C4)C=C3)cc1)[C@H](C)c1ccccc1[N+](=O)[O-]
REMARK SMILES IDX 11 1 10 2 9 3 8 4 6 5 7 6 5 8 4 9 3 11 2 12 1 13 84 14 85 15
REMARK SMILES IDX 86 16 87 17 91 18 88 19 90 20 89 21 92 22 93 23 94 24 12 25
REMARK SMILES IDX 13 26 14 27 15 28 16 29 17 31 18 32 19 33 83 34 20 35 82 36
REMARK SMILES IDX 21 37 22 38 23 39 76 40 24 41 81 42 75 43 77 44 25 45 80 46
REMARK SMILES IDX 74 47 73 48 26 50 60 51 39 52 59 53 40 54 43 55 58 56 78 57
REMARK SMILES IDX 41 58 42 59 57 61 79 62 44 63 27 64 28 65 37 66 29 67 30 68
REMARK SMILES IDX 36 69 38 70 31 71 32 72 33 73 34 74 35 75 61 76 62 77 71 78
REMARK SMILES IDX 63 79 64 80 70 81 72 82 65 83 66 84 67 85 68 86 69 87 45 88
REMARK SMILES IDX 46 89 55 90 47 91 48 92 54 93 56 94 49 95 50 96 51 97 52 98
REMARK SMILES IDX 53 99
REMARK H PARENT 8 7 4 10 15 30 77 49 43 60
REMARK Flexibility Score: inf
ROOT
ATOM      1  C   UNL     1      -2.758  -3.993  -4.429  1.00  0.00     0.002 C 
ENDROOT
BRANCH   1   2
ATOM      2  C   UNL     1      -2.458  -3.225  -3.149  1.00  0.00     0.021 C 
BRANCH   2   3
ATOM      3  C   UNL     1      -3.707  -2.768  -2.375  1.00  0.00     0.116 C 
BRANCH   3   4
ATOM      4  N   UNL     1      -4.112  -3.794  -1.424  1.00  0.00    -0.351 N 
ATOM      5  C   UNL     1      -3.925  -3.900  -0.068  1.00  0.00     0.275 C 
ATOM      6  O   UNL     1      -4.203  -4.982   0.457  1.00  0.00    -0.269 OA
ATOM      7  H   UNL     1      -4.608  -4.544  -1.825  1.00  0.00     0.163 HD
BRANCH   5   8
ATOM      8  C   UNL     1      -3.499  -2.683   0.779  1.00  0.00     0.364 C 
BRANCH   8   9
ATOM      9  N   UNL     1      -2.020  -2.471   0.970  1.00  0.00    -0.311 N 
ATOM     10  H   UNL     1      -1.616  -3.273   1.452  1.00  0.00     0.349 HD
BRANCH   9  11
ATOM     11  C   UNL     1      -1.356  -2.392  -0.333  1.00  0.00     0.354 C 
BRANCH  11  12
ATOM     12  C   UNL     1       0.101  -2.342  -0.466  1.00  0.00    -0.047 C 
ATOM     13  C   UNL     1       1.274  -2.325  -0.736  1.00  0.00     0.010 C 
ENDBRANCH  11  12
ENDBRANCH   9  11
BRANCH   9  14
ATOM     14  C   UNL     1      -1.752  -1.297   1.871  1.00  0.00     0.220 C 
ATOM     15  C   UNL     1      -2.333   0.009   1.283  1.00  0.00     0.081 C 
BRANCH  14  16
ATOM     16  C   UNL     1      -0.264  -1.256   2.299  1.00  0.00     0.087 A 
ATOM     17  C   UNL     1       0.369  -2.493   2.576  1.00  0.00     0.017 A 
ATOM     18  C   UNL     1       0.581  -0.127   2.305  1.00  0.00     0.278 A 
ATOM     19  C   UNL     1       1.764  -2.608   2.646  1.00  0.00     0.001 A 
ATOM     20  C   UNL     1       1.982  -0.235   2.364  1.00  0.00     0.086 A 
ATOM     21  C   UNL     1       2.572  -1.486   2.495  1.00  0.00     0.007 A 
BRANCH  18  22
ATOM     22  N   UNL     1       0.070   1.229   2.349  1.00  0.00     0.063 N 
ATOM     23  O   UNL     1       0.385   1.989   1.425  1.00  0.00    -0.258 OA
ATOM     24  O   UNL     1      -0.617   1.534   3.334  1.00  0.00    -0.258 OA
ENDBRANCH  18  22
ENDBRANCH  14  16
ENDBRANCH   9  14
ENDBRANCH   8   9
ENDBRANCH   5   8
ENDBRANCH   3   4
ENDBRANCH   2   3
ENDBRANCH   1   2
BRANCH   1  25
ATOM     25  C   UNL     1      -3.311  -3.123  -5.552  1.00  0.00     0.002 C 
BRANCH  25  26
ATOM     26  C   UNL     1      -2.422  -1.935  -5.935  1.00  0.00     0.021 C 
BRANCH  26  27
ATOM     27  C   UNL     1      -0.983  -2.311  -6.279  1.00  0.00     0.116 C 
BRANCH  27  28
ATOM     28  N   UNL     1      -0.933  -3.251  -7.387  1.00  0.00    -0.352 N 
ATOM     29  C   UNL     1      -0.454  -3.058  -8.658  1.00  0.00     0.251 C 
ATOM     30  H   UNL     1      -1.293  -4.149  -7.200  1.00  0.00     0.163 HD
ATOM     31  O   UNL     1      -0.761  -3.833  -9.558  1.00  0.00    -0.269 OA
BRANCH  29  32
ATOM     32  C   UNL     1       0.431  -1.908  -8.925  1.00  0.00     0.039 A 
ATOM     33  C   UNL     1       0.223  -1.136 -10.069  1.00  0.00     0.014 A 
ATOM     34  C   UNL     1       1.468  -1.598  -8.039  1.00  0.00     0.014 A 
ATOM     35  C   UNL     1       1.029  -0.020 -10.298  1.00  0.00     0.010 A 
ATOM     36  C   UNL     1       2.211  -0.439  -8.224  1.00  0.00     0.010 A 
ATOM     37  C   UNL     1       2.009   0.356  -9.362  1.00  0.00    -0.014 A 
BRANCH  37  38
ATOM     38  C   UNL     1       2.838   1.570  -9.563  1.00  0.00     0.031 A 
ATOM     39  C   UNL     1       4.331   1.447  -9.710  1.00  0.00     0.074 A 
ATOM     40  C   UNL     1       2.253   2.784  -9.557  1.00  0.00     0.049 A 
ATOM     41  N   UNL     1       5.228   2.390  -9.836  1.00  0.00    -0.248 NA
ATOM     42  C   UNL     1       4.893   0.086  -9.685  1.00  0.00     0.031 C 
ATOM     43  C   UNL     1       0.820   3.031  -9.378  1.00  0.00     0.029 A 
ATOM     44  N   UNL     1       2.789   4.040  -9.697  1.00  0.00    -0.354 N 
ATOM     45  C   UNL     1       6.456   1.741  -9.896  1.00  0.00     0.074 A 
ATOM     46  C   UNL     1       6.195   0.328  -9.730  1.00  0.00     0.031 C 
ATOM     47  C   UNL     1       0.589   4.352  -9.447  1.00  0.00     0.029 A 
ATOM     48  C   UNL     1       1.859   5.050  -9.625  1.00  0.00     0.049 A 
ATOM     49  H   UNL     1       3.750   4.202  -9.837  1.00  0.00     0.167 HD
ATOM     50  C   UNL     1       7.685   2.272 -10.097  1.00  0.00     0.037 A 
ATOM     51  C   UNL     1       2.012   6.387  -9.682  1.00  0.00     0.037 A 
ATOM     52  C   UNL     1       7.931   3.680 -10.274  1.00  0.00     0.049 A 
ATOM     53  C   UNL     1       3.392   6.955  -9.879  1.00  0.00     0.074 A 
ATOM     54  C   UNL     1       9.132   4.316 -10.535  1.00  0.00     0.029 A 
ATOM     55  N   UNL     1       6.962   4.671 -10.200  1.00  0.00    -0.354 N 
ATOM     56  N   UNL     1       4.535   6.322 -10.002  1.00  0.00    -0.248 NA
ATOM     57  C   UNL     1       3.505   8.418  -9.952  1.00  0.00     0.031 C 
ATOM     58  C   UNL     1       8.901   5.694 -10.552  1.00  0.00     0.029 A 
ATOM     59  C   UNL     1       7.544   5.915 -10.378  1.00  0.00     0.049 A 
ATOM     60  H   UNL     1       6.003   4.513 -10.043  1.00  0.00     0.167 HD
ATOM     61  C   UNL     1       5.496   7.307 -10.201  1.00  0.00     0.074 A 
ATOM     62  C   UNL     1       4.798   8.576 -10.194  1.00  0.00     0.031 C 
ATOM     63  C   UNL     1       6.835   7.172 -10.376  1.00  0.00     0.037 A 
BRANCH  50  64
ATOM     64  C   UNL     1       8.860   1.330 -10.130  1.00  0.00     0.058 A 
ATOM     65  C   UNL     1       9.038   0.402 -11.170  1.00  0.00     0.135 A 
ATOM     66  C   UNL     1       9.845   1.384  -9.130  1.00  0.00     0.135 A 
ATOM     67  F   UNL     1       8.122   0.293 -12.146  1.00  0.00    -0.206 F 
ATOM     68  C   UNL     1      10.132  -0.457 -11.201  1.00  0.00     0.059 A 
ATOM     69  C   UNL     1      10.966   0.559  -9.160  1.00  0.00     0.059 A 
ATOM     70  F   UNL     1       9.727   2.250  -8.111  1.00  0.00    -0.206 F 
ATOM     71  C   UNL     1      11.093  -0.368 -10.192  1.00  0.00     0.060 A 
BRANCH  71  72
ATOM     72  S   UNL     1      12.511  -1.482 -10.255  1.00  0.00     0.124 S 
ATOM     73  O   UNL     1      11.886  -2.767  -9.956  1.00  0.00    -0.237 OA
ATOM     74  O   UNL     1      12.979  -1.311 -11.627  1.00  0.00    -0.237 OA
ATOM     75  O   UNL     1      13.400  -0.963  -9.222  1.00  0.00    -0.744 OA
ENDBRANCH  71  72
ENDBRANCH  50  64
BRANCH  51  76
ATOM     76  C   UNL     1       0.826   7.279  -9.561  1.00  0.00     0.058 A 
ATOM     77  C   UNL     1       0.381   8.046 -10.648  1.00  0.00     0.135 A 
ATOM     78  C   UNL     1       0.107   7.376  -8.359  1.00  0.00     0.135 A 
ATOM     79  F   UNL     1       1.036   7.994 -11.818  1.00  0.00    -0.206 F 
ATOM     80  C   UNL     1      -0.718   8.892 -10.544  1.00  0.00     0.059 A 
ATOM     81  C   UNL     1      -1.014   8.190  -8.239  1.00  0.00     0.059 A 
ATOM     82  F   UNL     1       0.479   6.651  -7.292  1.00  0.00    -0.206 F 
ATOM     83  C   UNL     1      -1.413   8.953  -9.335  1.00  0.00     0.060 A 
BRANCH  83  84
ATOM     84  S   UNL     1      -2.865  10.020  -9.225  1.00  0.00     0.124 S 
ATOM     85  O   UNL     1      -2.261  11.346  -9.269  1.00  0.00    -0.237 OA
ATOM     86  O   UNL     1      -3.623   9.623 -10.408  1.00  0.00    -0.237 OA
ATOM     87  O   UNL     1      -3.465   9.641  -7.949  1.00  0.00    -0.744 OA
ENDBRANCH  83  84
ENDBRANCH  51  76
BRANCH  63  88
ATOM     88  C   UNL     1       7.635   8.424 -10.622  1.00  0.00     0.058 A 
ATOM     89  C   UNL     1       7.854   9.377  -9.615  1.00  0.00     0.135 A 
ATOM     90  C   UNL     1       8.238   8.643 -11.872  1.00  0.00     0.135 A 
ATOM     91  F   UNL     1       7.297   9.223  -8.404  1.00  0.00    -0.206 F 
ATOM     92  C   UNL     1       8.621  10.515  -9.847  1.00  0.00     0.059 A 
ATOM     93  C   UNL     1       9.038   9.754 -12.114  1.00  0.00     0.059 A 
ATOM     94  F   UNL     1       8.070   7.759 -12.868  1.00  0.00    -0.206 F 
ATOM     95  C   UNL     1       9.214  10.692 -11.099  1.00  0.00     0.060 A 
BRANCH  95  96
ATOM     96  S   UNL     1      10.237  12.153 -11.371  1.00  0.00     0.124 S 
ATOM     97  O   UNL     1       9.235  13.214 -11.394  1.00  0.00    -0.237 OA
ATOM     98  O   UNL     1      11.117  12.137 -10.207  1.00  0.00    -0.237 OA
ATOM     99  O   UNL     1      10.890  11.880 -12.648  1.00  0.00    -0.744 OA
ENDBRANCH  95  96
ENDBRANCH  63  88
ENDBRANCH  37  38
ENDBRANCH  29  32
ENDBRANCH  27  28
ENDBRANCH  26  27
ENDBRANCH  25  26
ENDBRANCH   1  25
TORSDOF 22
