REMARK SMILES COC(=O)c1sc(SCC(=O)NCCCCCCNC(=O)c2ccc(-c3c4nc(c(-c5c(F)cc(S(=O)(=O)[O-])cc5F)c5ccc([nH]5)c(-c5c(F)cc(S(=O)(=O)[O-])cc5F)c5nc(c(-c6c(F)cc(S(=O)(=O)[O-])cc6F)c6ccc3[nH]6)C=C5)C=C4)cc2)c(NC(=O)c2ccccc2)c1O
REMARK SMILES IDX 15 1 14 2 13 3 12 4 10 5 11 6 9 8 8 9 7 10 5 11 6 12 98 13
REMARK SMILES IDX 88 14 3 15 4 16 2 17 1 18 99 19 89 21 90 22 91 24 92 25
REMARK SMILES IDX 93 26 97 27 94 28 96 29 95 30 16 31 17 32 18 33 19 34 20 35
REMARK SMILES IDX 21 37 22 38 23 39 87 40 24 41 86 42 25 43 26 44 27 45 80 46
REMARK SMILES IDX 28 47 85 48 79 49 81 50 29 51 84 52 78 53 77 54 30 56 64 57
REMARK SMILES IDX 43 58 63 59 44 60 47 61 62 62 82 63 45 64 46 65 61 67 83 68
REMARK SMILES IDX 48 69 31 70 32 71 41 72 33 73 34 74 40 75 42 76 35 77 36 78
REMARK SMILES IDX 37 79 38 80 39 81 65 82 66 83 75 84 67 85 68 86 74 87 76 88
REMARK SMILES IDX 69 89 70 90 71 91 72 92 73 93 49 94 50 95 59 96 51 97 52 98
REMARK SMILES IDX 58 99 60 100 53 101 54 102 55 103 56 104 57 105
REMARK H PARENT 12 7 99 20 89 23 19 36 81 55 47 66
REMARK Flexibility Score: inf
ROOT
ATOM      1  C   UNL     1       1.128  -9.830  -2.355  1.00  0.00     0.002 C 
ENDROOT
BRANCH   1   2
ATOM      2  C   UNL     1       1.244  -9.068  -3.674  1.00  0.00     0.021 C 
BRANCH   2   3
ATOM      3  C   UNL     1       0.269  -9.511  -4.763  1.00  0.00     0.116 C 
BRANCH   3   4
ATOM      4  N   UNL     1      -1.073  -9.033  -4.535  1.00  0.00    -0.355 N 
ATOM      5  C   UNL     1      -1.819  -8.113  -5.226  1.00  0.00     0.230 C 
ATOM      6  O   UNL     1      -3.021  -8.089  -4.939  1.00  0.00    -0.274 OA
ATOM      7  H   UNL     1      -1.527  -9.431  -3.757  1.00  0.00     0.163 HD
BRANCH   5   8
ATOM      8  C   UNL     1      -1.118  -7.181  -6.517  1.00  0.00     0.175 C 
BRANCH   8   9
ATOM      9  S   UNL     1      -0.439  -4.685  -6.568  1.00  0.00    -0.103 SA
BRANCH   9  10
ATOM     10  C   UNL     1      -0.467  -3.701  -5.009  1.00  0.00     0.089 A 
ATOM     11  C   UNL     1       0.260  -2.174  -3.162  1.00  0.00     0.157 A 
ATOM     12  S   UNL     1       0.933  -2.757  -4.627  1.00  0.00    -0.116 S 
ATOM     13  C   UNL     1      -1.014  -2.669  -2.989  1.00  0.00     0.166 A 
ATOM     14  C   UNL     1      -1.461  -3.505  -4.050  1.00  0.00     0.109 A 
BRANCH  11  15
ATOM     15  C   UNL     1       1.025  -1.275  -2.319  1.00  0.00     0.352 C 
ATOM     16  O   UNL     1       2.088  -0.734  -2.585  1.00  0.00    -0.245 OA
BRANCH  15  17
ATOM     17  O   UNL     1       0.349  -1.089  -1.138  1.00  0.00    -0.465 OA
ATOM     18  C   UNL     1       0.955  -0.156  -0.239  1.00  0.00     0.282 C 
ENDBRANCH  15  17
ENDBRANCH  11  15
BRANCH  13  19
ATOM     19  O   UNL     1      -1.789  -2.411  -1.908  1.00  0.00    -0.504 OA
ATOM     20  H   UNL     1      -1.469  -1.857  -1.224  1.00  0.00     0.293 HD
ENDBRANCH  13  19
BRANCH  14  21
ATOM     21  N   UNL     1      -2.748  -4.036  -4.003  1.00  0.00    -0.317 N 
ATOM     22  C   UNL     1      -3.255  -4.991  -4.832  1.00  0.00     0.255 C 
ATOM     23  H   UNL     1      -3.348  -3.689  -3.303  1.00  0.00     0.170 HD
ATOM     24  O   UNL     1      -4.449  -5.215  -4.965  1.00  0.00    -0.269 OA
BRANCH  22  25
ATOM     25  C   UNL     1      -2.245  -5.719  -5.593  1.00  0.00     0.040 A 
ATOM     26  C   UNL     1      -2.391  -5.705  -7.379  1.00  0.00     0.014 A 
ATOM     27  C   UNL     1      -0.651  -6.174  -4.795  1.00  0.00     0.014 A 
ATOM     28  C   UNL     1      -0.958  -6.131  -8.378  1.00  0.00     0.001 A 
ATOM     29  C   UNL     1       0.771  -6.564  -5.830  1.00  0.00     0.001 A 
ATOM     30  C   UNL     1       0.611  -6.531  -7.619  1.00  0.00     0.000 A 
ENDBRANCH  22  25
ENDBRANCH  14  21
ENDBRANCH   9  10
ENDBRANCH   8   9
ENDBRANCH   5   8
ENDBRANCH   3   4
ENDBRANCH   2   3
ENDBRANCH   1   2
BRANCH   1  31
ATOM     31  C   UNL     1       1.104 -11.359  -2.474  1.00  0.00     0.002 C 
BRANCH  31  32
ATOM     32  C   UNL     1       2.148 -11.986  -3.411  1.00  0.00     0.021 C 
BRANCH  32  33
ATOM     33  C   UNL     1       3.585 -11.691  -3.021  1.00  0.00     0.116 C 
BRANCH  33  34
ATOM     34  N   UNL     1       3.929 -12.307  -1.751  1.00  0.00    -0.352 N 
ATOM     35  C   UNL     1       5.132 -12.259  -1.088  1.00  0.00     0.251 C 
ATOM     36  H   UNL     1       3.214 -12.823  -1.313  1.00  0.00     0.163 HD
ATOM     37  O   UNL     1       5.414 -13.126  -0.268  1.00  0.00    -0.269 OA
BRANCH  35  38
ATOM     38  C   UNL     1       6.075 -11.165  -1.381  1.00  0.00     0.039 A 
ATOM     39  C   UNL     1       7.444 -11.426  -1.428  1.00  0.00     0.014 A 
ATOM     40  C   UNL     1       5.591  -9.872  -1.598  1.00  0.00     0.014 A 
ATOM     41  C   UNL     1       8.312 -10.390  -1.753  1.00  0.00     0.010 A 
ATOM     42  C   UNL     1       6.439  -8.876  -2.036  1.00  0.00     0.010 A 
ATOM     43  C   UNL     1       7.805  -9.119  -2.082  1.00  0.00    -0.014 A 
BRANCH  43  44
ATOM     44  C   UNL     1       8.712  -8.109  -2.624  1.00  0.00     0.031 A 
ATOM     45  C   UNL     1       9.557  -8.619  -3.740  1.00  0.00     0.074 A 
ATOM     46  C   UNL     1       8.716  -6.798  -2.297  1.00  0.00     0.049 A 
ATOM     47  N   UNL     1      10.821  -8.880  -3.703  1.00  0.00    -0.248 NA
ATOM     48  C   UNL     1       8.891  -9.071  -4.974  1.00  0.00     0.031 C 
ATOM     49  C   UNL     1       7.769  -6.057  -1.461  1.00  0.00     0.029 A 
ATOM     50  N   UNL     1       9.557  -5.815  -2.726  1.00  0.00    -0.354 N 
ATOM     51  C   UNL     1      11.160  -9.289  -4.988  1.00  0.00     0.074 A 
ATOM     52  C   UNL     1       9.919  -9.582  -5.656  1.00  0.00     0.031 C 
ATOM     53  C   UNL     1       7.950  -4.728  -1.636  1.00  0.00     0.029 A 
ATOM     54  C   UNL     1       9.127  -4.517  -2.461  1.00  0.00     0.049 A 
ATOM     55  H   UNL     1      10.404  -6.008  -3.189  1.00  0.00     0.167 HD
ATOM     56  C   UNL     1      12.418  -9.095  -5.471  1.00  0.00     0.037 A 
ATOM     57  C   UNL     1       9.688  -3.361  -2.907  1.00  0.00     0.037 A 
ATOM     58  C   UNL     1      13.359  -8.869  -4.400  1.00  0.00     0.049 A 
ATOM     59  C   UNL     1      11.095  -3.683  -3.271  1.00  0.00     0.074 A 
ATOM     60  C   UNL     1      13.699  -9.568  -3.255  1.00  0.00     0.029 A 
ATOM     61  N   UNL     1      13.807  -7.586  -4.191  1.00  0.00    -0.354 N 
ATOM     62  N   UNL     1      12.010  -4.027  -2.406  1.00  0.00    -0.248 NA
ATOM     63  C   UNL     1      11.353  -4.080  -4.646  1.00  0.00     0.031 C 
ATOM     64  C   UNL     1      13.834  -8.571  -2.245  1.00  0.00     0.029 A 
ATOM     65  C   UNL     1      13.667  -7.325  -2.850  1.00  0.00     0.049 A 
ATOM     66  H   UNL     1      14.162  -6.971  -4.873  1.00  0.00     0.167 HD
ATOM     67  C   UNL     1      12.716  -5.045  -3.028  1.00  0.00     0.074 A 
ATOM     68  C   UNL     1      12.309  -4.987  -4.432  1.00  0.00     0.031 C 
ATOM     69  C   UNL     1      13.348  -6.021  -2.311  1.00  0.00     0.037 A 
BRANCH  56  70
ATOM     70  C   UNL     1      12.711  -8.738  -6.908  1.00  0.00     0.058 A 
ATOM     71  C   UNL     1      14.045  -8.713  -7.361  1.00  0.00     0.135 A 
ATOM     72  C   UNL     1      11.762  -8.160  -7.783  1.00  0.00     0.135 A 
ATOM     73  F   UNL     1      15.035  -9.206  -6.598  1.00  0.00    -0.206 F 
ATOM     74  C   UNL     1      14.414  -8.120  -8.569  1.00  0.00     0.059 A 
ATOM     75  C   UNL     1      12.099  -7.615  -9.015  1.00  0.00     0.059 A 
ATOM     76  F   UNL     1      10.476  -8.008  -7.449  1.00  0.00    -0.206 F 
ATOM     77  C   UNL     1      13.431  -7.569  -9.387  1.00  0.00     0.060 A 
BRANCH  77  78
ATOM     78  S   UNL     1      13.905  -6.759 -10.922  1.00  0.00     0.124 S 
ATOM     79  O   UNL     1      14.582  -5.567 -10.424  1.00  0.00    -0.237 OA
ATOM     80  O   UNL     1      14.758  -7.768 -11.542  1.00  0.00    -0.237 OA
ATOM     81  O   UNL     1      12.627  -6.532 -11.589  1.00  0.00    -0.744 OA
ENDBRANCH  77  78
ENDBRANCH  56  70
BRANCH  57  82
ATOM     82  C   UNL     1       9.016  -2.113  -3.378  1.00  0.00     0.058 A 
ATOM     83  C   UNL     1       9.773  -0.979  -3.735  1.00  0.00     0.135 A 
ATOM     84  C   UNL     1       7.666  -2.101  -3.784  1.00  0.00     0.135 A 
ATOM     85  F   UNL     1      11.069  -0.897  -3.396  1.00  0.00    -0.206 F 
ATOM     86  C   UNL     1       9.251   0.058  -4.518  1.00  0.00     0.059 A 
ATOM     87  C   UNL     1       7.120  -1.072  -4.554  1.00  0.00     0.059 A 
ATOM     88  F   UNL     1       6.857  -3.139  -3.527  1.00  0.00    -0.206 F 
ATOM     89  C   UNL     1       7.928  -0.013  -4.949  1.00  0.00     0.060 A 
BRANCH  89  90
ATOM     90  S   UNL     1       7.315   1.203  -6.143  1.00  0.00     0.124 S 
ATOM     91  O   UNL     1       7.215   2.407  -5.325  1.00  0.00    -0.237 OA
ATOM     92  O   UNL     1       8.370   1.205  -7.151  1.00  0.00    -0.237 OA
ATOM     93  O   UNL     1       6.043   0.636  -6.582  1.00  0.00    -0.744 OA
ENDBRANCH  89  90
ENDBRANCH  57  82
BRANCH  69  94
ATOM     94  C   UNL     1      13.549  -5.834  -0.827  1.00  0.00     0.058 A 
ATOM     95  C   UNL     1      12.520  -5.684   0.121  1.00  0.00     0.135 A 
ATOM     96  C   UNL     1      14.855  -5.980  -0.331  1.00  0.00     0.135 A 
ATOM     97  F   UNL     1      11.233  -5.636  -0.253  1.00  0.00    -0.206 F 
ATOM     98  C   UNL     1      12.786  -5.646   1.494  1.00  0.00     0.059 A 
ATOM     99  C   UNL     1      15.138  -5.980   1.032  1.00  0.00     0.059 A 
ATOM    100  F   UNL     1      15.878  -6.179  -1.178  1.00  0.00    -0.206 F 
ATOM    101  C   UNL     1      14.100  -5.801   1.940  1.00  0.00     0.060 A 
BRANCH 101 102
ATOM    102  S   UNL     1      14.438  -5.829   3.715  1.00  0.00     0.124 S 
ATOM    103  O   UNL     1      14.183  -4.444   4.098  1.00  0.00    -0.237 OA
ATOM    104  O   UNL     1      13.476  -6.811   4.206  1.00  0.00    -0.237 OA
ATOM    105  O   UNL     1      15.836  -6.248   3.790  1.00  0.00    -0.744 OA
ENDBRANCH 101 102
ENDBRANCH  69  94
ENDBRANCH  43  44
ENDBRANCH  35  38
ENDBRANCH  33  34
ENDBRANCH  32  33
ENDBRANCH  31  32
ENDBRANCH   1  31
TORSDOF 23
