REMARK SMILES CC(=O)c1nnn(-c2ccc(C(=O)NCCCCCCNC(=O)c3ccc(-c4c5nc(c(-c6c(F)cc(S(=O)(=O)[O-])cc6F)c6ccc([nH]6)c(-c6c(F)cc(S(=O)(=O)[O-])cc6F)c6nc(c(-c7c(F)cc(S(=O)(=O)[O-])cc7F)c7ccc4[nH]7)C=C6)C=C5)cc3)cc2)c1C
REMARK SMILES IDX 18 1 17 2 16 3 15 4 14 5 12 6 13 7 11 9 8 10 9 11 91 12
REMARK SMILES IDX 10 13 90 14 7 15 4 16 5 17 92 18 6 19 93 20 2 21 1 22 3 23
REMARK SMILES IDX 19 24 20 25 21 26 22 27 23 29 24 30 25 31 89 32 26 33 88 34
REMARK SMILES IDX 27 35 28 36 29 37 82 38 30 39 87 40 81 41 83 42 31 43 86 44
REMARK SMILES IDX 80 45 79 46 32 48 66 49 45 50 65 51 46 52 49 53 64 54 84 55
REMARK SMILES IDX 47 56 48 57 63 59 85 60 50 61 33 62 34 63 43 64 35 65 36 66
REMARK SMILES IDX 42 67 44 68 37 69 38 70 39 71 40 72 41 73 67 74 68 75 77 76
REMARK SMILES IDX 69 77 70 78 76 79 78 80 71 81 72 82 73 83 74 84 75 85 51 86
REMARK SMILES IDX 52 87 61 88 53 89 54 90 60 91 62 92 55 93 56 94 57 95 58 96
REMARK SMILES IDX 59 97
REMARK H PARENT 14 8 21 28 83 47 49 58
REMARK Flexibility Score: inf
ROOT
ATOM      1  C   UNL     1      10.932   4.925   5.249  1.00  0.00     0.002 C 
ENDROOT
BRANCH   1   2
ATOM      2  C   UNL     1       9.738   5.272   6.153  1.00  0.00     0.002 C 
BRANCH   2   3
ATOM      3  C   UNL     1       8.358   4.945   5.563  1.00  0.00     0.021 C 
BRANCH   3   4
ATOM      4  C   UNL     1       8.170   3.455   5.268  1.00  0.00     0.116 C 
BRANCH   4   5
ATOM      5  N   UNL     1       7.815   2.744   6.483  1.00  0.00    -0.352 N 
ATOM      6  C   UNL     1       6.630   2.257   6.973  1.00  0.00     0.251 C 
ATOM      7  O   UNL     1       6.664   1.676   8.059  1.00  0.00    -0.269 OA
ATOM      8  H   UNL     1       8.582   2.577   7.077  1.00  0.00     0.163 HD
BRANCH   6   9
ATOM      9  C   UNL     1       5.345   2.309   6.218  1.00  0.00     0.039 A 
ATOM     10  C   UNL     1       3.046   2.027   4.653  1.00  0.00     0.067 A 
ATOM     11  C   UNL     1       3.216   1.199   5.761  1.00  0.00     0.029 A 
ATOM     12  C   UNL     1       3.934   3.077   4.405  1.00  0.00     0.029 A 
ATOM     13  C   UNL     1       4.386   1.323   6.517  1.00  0.00     0.016 A 
ATOM     14  C   UNL     1       5.048   3.248   5.228  1.00  0.00     0.016 A 
BRANCH  10  15
ATOM     15  N   UNL     1       2.007   1.773   3.741  1.00  0.00    -0.217 N 
ATOM     16  C   UNL     1       0.802   1.444   1.960  1.00  0.00     0.151 A 
ATOM     17  N   UNL     1      -0.022   1.510   3.054  1.00  0.00    -0.126 NA
ATOM     18  C   UNL     1       2.119   1.539   2.379  1.00  0.00     0.073 A 
ATOM     19  N   UNL     1       0.734   1.587   4.140  1.00  0.00    -0.061 NA
ATOM     20  C   UNL     1       3.415   1.355   1.681  1.00  0.00     0.069 C 
BRANCH  16  21
ATOM     21  C   UNL     1       0.279   1.207   0.624  1.00  0.00     0.181 C 
ATOM     22  C   UNL     1       0.699  -0.064  -0.072  1.00  0.00     0.095 C 
ATOM     23  O   UNL     1      -0.508   1.983   0.085  1.00  0.00    -0.293 OA
ENDBRANCH  16  21
ENDBRANCH  10  15
ENDBRANCH   6   9
ENDBRANCH   4   5
ENDBRANCH   3   4
ENDBRANCH   2   3
ENDBRANCH   1   2
BRANCH   1  24
ATOM     24  C   UNL     1      10.866   5.488   3.821  1.00  0.00     0.021 C 
BRANCH  24  25
ATOM     25  C   UNL     1      10.945   7.009   3.771  1.00  0.00     0.116 C 
BRANCH  25  26
ATOM     26  N   UNL     1      12.271   7.481   4.149  1.00  0.00    -0.352 N 
ATOM     27  C   UNL     1      12.761   8.762   4.121  1.00  0.00     0.251 C 
ATOM     28  H   UNL     1      12.897   6.791   4.466  1.00  0.00     0.163 HD
ATOM     29  O   UNL     1      13.981   8.946   4.093  1.00  0.00    -0.269 OA
BRANCH  27  30
ATOM     30  C   UNL     1      11.838   9.911   4.122  1.00  0.00     0.039 A 
ATOM     31  C   UNL     1      12.139  11.043   3.358  1.00  0.00     0.014 A 
ATOM     32  C   UNL     1      10.688   9.878   4.915  1.00  0.00     0.014 A 
ATOM     33  C   UNL     1      11.244  12.108   3.343  1.00  0.00     0.010 A 
ATOM     34  C   UNL     1       9.763  10.902   4.842  1.00  0.00     0.010 A 
ATOM     35  C   UNL     1      10.043  12.026   4.070  1.00  0.00    -0.014 A 
BRANCH  35  36
ATOM     36  C   UNL     1       8.989  13.014   3.828  1.00  0.00     0.031 A 
ATOM     37  C   UNL     1       8.585  13.075   2.392  1.00  0.00     0.074 A 
ATOM     38  C   UNL     1       8.291  13.647   4.797  1.00  0.00     0.049 A 
ATOM     39  N   UNL     1       8.789  14.036   1.554  1.00  0.00    -0.248 NA
ATOM     40  C   UNL     1       8.073  11.845   1.760  1.00  0.00     0.031 C 
ATOM     41  C   UNL     1       8.379  13.427   6.244  1.00  0.00     0.029 A 
ATOM     42  N   UNL     1       7.273  14.553   4.698  1.00  0.00    -0.354 N 
ATOM     43  C   UNL     1       8.185  13.635   0.363  1.00  0.00     0.074 A 
ATOM     44  C   UNL     1       7.980  12.218   0.482  1.00  0.00     0.031 C 
ATOM     45  C   UNL     1       7.314  13.994   6.856  1.00  0.00     0.029 A 
ATOM     46  C   UNL     1       6.548  14.744   5.877  1.00  0.00     0.049 A 
ATOM     47  H   UNL     1       7.067  15.032   3.863  1.00  0.00     0.167 HD
ATOM     48  C   UNL     1       7.644  14.555  -0.485  1.00  0.00     0.037 A 
ATOM     49  C   UNL     1       5.392  15.445   6.032  1.00  0.00     0.037 A 
ATOM     50  C   UNL     1       8.135  15.875  -0.164  1.00  0.00     0.049 A 
ATOM     51  C   UNL     1       5.285  16.360   4.871  1.00  0.00     0.074 A 
ATOM     52  C   UNL     1       9.371  16.486  -0.123  1.00  0.00     0.029 A 
ATOM     53  N   UNL     1       7.285  16.666   0.567  1.00  0.00    -0.354 N 
ATOM     54  N   UNL     1       6.087  17.366   4.659  1.00  0.00    -0.248 NA
ATOM     55  C   UNL     1       4.528  15.911   3.714  1.00  0.00     0.031 C 
ATOM     56  C   UNL     1       9.302  17.397   0.972  1.00  0.00     0.029 A 
ATOM     57  C   UNL     1       8.007  17.361   1.494  1.00  0.00     0.049 A 
ATOM     58  H   UNL     1       6.310  16.723   0.443  1.00  0.00     0.167 HD
ATOM     59  C   UNL     1       6.277  17.376   3.288  1.00  0.00     0.074 A 
ATOM     60  C   UNL     1       5.199  16.550   2.752  1.00  0.00     0.031 C 
ATOM     61  C   UNL     1       7.459  17.807   2.757  1.00  0.00     0.037 A 
BRANCH  48  62
ATOM     62  C   UNL     1       6.351  14.364  -1.265  1.00  0.00     0.058 A 
ATOM     63  C   UNL     1       5.889  15.425  -2.079  1.00  0.00     0.135 A 
ATOM     64  C   UNL     1       5.404  13.344  -1.024  1.00  0.00     0.135 A 
ATOM     65  F   UNL     1       6.697  16.451  -2.392  1.00  0.00    -0.206 F 
ATOM     66  C   UNL     1       4.569  15.518  -2.521  1.00  0.00     0.059 A 
ATOM     67  C   UNL     1       4.097  13.393  -1.497  1.00  0.00     0.059 A 
ATOM     68  F   UNL     1       5.659  12.285  -0.250  1.00  0.00    -0.206 F 
ATOM     69  C   UNL     1       3.675  14.501  -2.209  1.00  0.00     0.060 A 
BRANCH  69  70
ATOM     70  S   UNL     1       1.954  14.646  -2.716  1.00  0.00     0.124 S 
ATOM     71  O   UNL     1       1.492  15.737  -1.867  1.00  0.00    -0.237 OA
ATOM     72  O   UNL     1       2.086  14.949  -4.137  1.00  0.00    -0.237 OA
ATOM     73  O   UNL     1       1.405  13.329  -2.410  1.00  0.00    -0.744 OA
ENDBRANCH  69  70
ENDBRANCH  48  62
BRANCH  49  74
ATOM     74  C   UNL     1       4.234  15.210   6.945  1.00  0.00     0.058 A 
ATOM     75  C   UNL     1       3.215  16.174   7.095  1.00  0.00     0.135 A 
ATOM     76  C   UNL     1       3.942  13.927   7.443  1.00  0.00     0.135 A 
ATOM     77  F   UNL     1       3.395  17.424   6.642  1.00  0.00    -0.206 F 
ATOM     78  C   UNL     1       1.961  15.865   7.638  1.00  0.00     0.059 A 
ATOM     79  C   UNL     1       2.703  13.598   7.997  1.00  0.00     0.059 A 
ATOM     80  F   UNL     1       4.821  12.921   7.316  1.00  0.00    -0.206 F 
ATOM     81  C   UNL     1       1.705  14.563   8.063  1.00  0.00     0.060 A 
BRANCH  81  82
ATOM     82  S   UNL     1       0.030  14.106   8.579  1.00  0.00     0.124 S 
ATOM     83  O   UNL     1      -0.099  14.808   9.850  1.00  0.00    -0.237 OA
ATOM     84  O   UNL     1      -0.783  14.619   7.481  1.00  0.00    -0.237 OA
ATOM     85  O   UNL     1       0.093  12.649   8.674  1.00  0.00    -0.744 OA
ENDBRANCH  81  82
ENDBRANCH  49  74
BRANCH  61  86
ATOM     86  C   UNL     1       8.344  18.681   3.605  1.00  0.00     0.058 A 
ATOM     87  C   UNL     1       8.970  18.299   4.804  1.00  0.00     0.135 A 
ATOM     88  C   UNL     1       8.671  19.943   3.083  1.00  0.00     0.135 A 
ATOM     89  F   UNL     1       8.786  17.076   5.324  1.00  0.00    -0.206 F 
ATOM     90  C   UNL     1       9.853  19.153   5.471  1.00  0.00     0.059 A 
ATOM     91  C   UNL     1       9.574  20.792   3.709  1.00  0.00     0.059 A 
ATOM     92  F   UNL     1       8.144  20.345   1.914  1.00  0.00    -0.206 F 
ATOM     93  C   UNL     1      10.151  20.398   4.912  1.00  0.00     0.060 A 
BRANCH  93  94
ATOM     94  S   UNL     1      11.343  21.478   5.731  1.00  0.00     0.124 S 
ATOM     95  O   UNL     1      10.607  21.904   6.916  1.00  0.00    -0.237 OA
ATOM     96  O   UNL     1      12.471  20.582   5.971  1.00  0.00    -0.237 OA
ATOM     97  O   UNL     1      11.591  22.525   4.742  1.00  0.00    -0.744 OA
ENDBRANCH  93  94
ENDBRANCH  61  86
ENDBRANCH  35  36
ENDBRANCH  27  30
ENDBRANCH  25  26
ENDBRANCH  24  25
ENDBRANCH   1  24
TORSDOF 18
