REMARK SMILES CC1(C)C[C@@H]([NH2+]C[C@@H]2CCCC[C@@H]2C(=O)NCCCCCCNC(=O)c2ccc(-c3c4nc(c(-c5c(F)cc(S(=O)(=O)[O-])cc5F)c5ccc([nH]5)c(-c5c(F)cc(S(=O)(=O)[O-])cc5F)c5nc(c(-c6c(F)cc(S(=O)(=O)[O-])cc6F)c6ccc3[nH]6)C=C5)C=C4)cc2)C(C)(C)O1
REMARK SMILES IDX 19 1 18 2 17 3 16 4 14 5 15 6 13 8 8 9 9 10 10 11 12 12
REMARK SMILES IDX 11 13 7 14 6 15 5 18 1 19 2 20 3 21 4 22 95 23 92 24 93 25
REMARK SMILES IDX 94 26 20 27 21 28 22 29 23 30 24 31 25 33 26 34 27 35 91 36
REMARK SMILES IDX 28 37 90 38 29 39 30 40 31 41 84 42 32 43 89 44 83 45 85 46
REMARK SMILES IDX 33 47 88 48 82 49 81 50 34 52 68 53 47 54 67 55 48 56 51 57
REMARK SMILES IDX 66 58 86 59 49 60 50 61 65 63 87 64 52 65 35 66 36 67 45 68
REMARK SMILES IDX 37 69 38 70 44 71 46 72 39 73 40 74 41 75 42 76 43 77 69 78
REMARK SMILES IDX 70 79 79 80 71 81 72 82 78 83 80 84 73 85 74 86 75 87 76 88
REMARK SMILES IDX 77 89 53 90 54 91 63 92 55 93 56 94 62 95 64 96 57 97 58 98
REMARK SMILES IDX 59 99 60 100 61 101
REMARK H PARENT 16 7 6 16 6 17 23 32 85 51 51 62
REMARK Flexibility Score: inf
ROOT
ATOM      1  C   UNL     1       5.535  -9.664   1.413  1.00  0.00     0.002 C 
ENDROOT
BRANCH   1   2
ATOM      2  C   UNL     1       5.604  -8.155   1.160  1.00  0.00     0.021 C 
BRANCH   2   3
ATOM      3  C   UNL     1       4.338  -7.545   0.576  1.00  0.00     0.116 C 
BRANCH   3   4
ATOM      4  N   UNL     1       3.173  -7.798   1.400  1.00  0.00    -0.356 N 
ATOM      5  C   UNL     1       2.121  -6.982   1.682  1.00  0.00     0.223 C 
ATOM      6  O   UNL     1       1.243  -7.410   2.429  1.00  0.00    -0.275 OA
ATOM      7  H   UNL     1       3.138  -8.689   1.817  1.00  0.00     0.163 HD
BRANCH   5   8
ATOM      8  C   UNL     1       2.095  -5.580   1.081  1.00  0.00     0.087 C 
ATOM      9  C   UNL     1       0.960  -4.690   1.623  1.00  0.00     0.056 C 
ATOM     10  C   UNL     1      -0.440  -5.160   1.198  1.00  0.00     0.010 C 
ATOM     11  C   UNL     1      -0.540  -5.250  -0.322  1.00  0.00     0.001 C 
ATOM     12  C   UNL     1       1.963  -5.617  -0.459  1.00  0.00     0.014 C 
ATOM     13  C   UNL     1       0.584  -6.085  -0.923  1.00  0.00     0.001 C 
BRANCH   9  14
ATOM     14  C   UNL     1       1.023  -4.323   3.121  1.00  0.00     0.265 C 
BRANCH  14  15
ATOM     15  N   UNL     1       1.671  -3.028   3.401  1.00  0.00    -0.341 N 
ATOM     16  H   UNL     1       1.858  -2.980   4.403  1.00  0.00     0.346 HD
ATOM     17  H   UNL     1       2.513  -3.003   2.826  1.00  0.00     0.346 HD
BRANCH  15  18
ATOM     18  C   UNL     1       0.886  -1.835   3.027  1.00  0.00     0.217 C 
ATOM     19  C   UNL     1       1.019   0.518   0.157  1.00  0.00     0.042 C 
ATOM     20  C   UNL     1       0.452  -0.082   1.442  1.00  0.00     0.069 C 
ATOM     21  C   UNL     1      -1.063   0.131   1.501  1.00  0.00     0.042 C 
ATOM     22  C   UNL     1       0.812  -1.549   1.536  1.00  0.00     0.103 C 
ATOM     23  O   UNL     1       1.050   0.545   2.583  1.00  0.00    -0.363 OA
ATOM     24  C   UNL     1       1.424  -0.469   3.555  1.00  0.00     0.115 C 
ATOM     25  C   UNL     1       2.952  -0.407   3.673  1.00  0.00     0.048 C 
ATOM     26  C   UNL     1       0.788  -0.084   4.891  1.00  0.00     0.048 C 
ENDBRANCH  15  18
ENDBRANCH  14  15
ENDBRANCH   9  14
ENDBRANCH   5   8
ENDBRANCH   3   4
ENDBRANCH   2   3
ENDBRANCH   1   2
BRANCH   1  27
ATOM     27  C   UNL     1       5.069 -10.513   0.227  1.00  0.00     0.002 C 
BRANCH  27  28
ATOM     28  C   UNL     1       5.872 -10.336  -1.062  1.00  0.00     0.021 C 
BRANCH  28  29
ATOM     29  C   UNL     1       7.380 -10.489  -0.906  1.00  0.00     0.116 C 
BRANCH  29  30
ATOM     30  N   UNL     1       7.756 -11.788  -0.374  1.00  0.00    -0.352 N 
ATOM     31  C   UNL     1       8.707 -12.664  -0.835  1.00  0.00     0.251 C 
ATOM     32  H   UNL     1       7.262 -12.079   0.426  1.00  0.00     0.163 HD
ATOM     33  O   UNL     1       8.792 -13.791  -0.357  1.00  0.00    -0.269 OA
BRANCH  31  34
ATOM     34  C   UNL     1       9.605 -12.247  -1.932  1.00  0.00     0.039 A 
ATOM     35  C   UNL     1       9.786 -13.104  -3.019  1.00  0.00     0.014 A 
ATOM     36  C   UNL     1      10.236 -11.000  -1.899  1.00  0.00     0.014 A 
ATOM     37  C   UNL     1      10.552 -12.681  -4.107  1.00  0.00     0.010 A 
ATOM     38  C   UNL     1      10.933 -10.551  -3.016  1.00  0.00     0.010 A 
ATOM     39  C   UNL     1      11.099 -11.387  -4.131  1.00  0.00    -0.014 A 
BRANCH  39  40
ATOM     40  C   UNL     1      11.840 -10.886  -5.315  1.00  0.00     0.031 A 
ATOM     41  C   UNL     1      13.297 -10.533  -5.201  1.00  0.00     0.074 A 
ATOM     42  C   UNL     1      11.184 -10.687  -6.474  1.00  0.00     0.049 A 
ATOM     43  N   UNL     1      14.100 -10.035  -6.106  1.00  0.00    -0.248 NA
ATOM     44  C   UNL     1      13.927 -10.743  -3.889  1.00  0.00     0.031 C 
ATOM     45  C   UNL     1       9.762 -10.956  -6.698  1.00  0.00     0.029 A 
ATOM     46  N   UNL     1      11.625 -10.209  -7.683  1.00  0.00    -0.354 N 
ATOM     47  C   UNL     1      15.324  -9.862  -5.471  1.00  0.00     0.074 A 
ATOM     48  C   UNL     1      15.139 -10.249  -4.089  1.00  0.00     0.031 C 
ATOM     49  C   UNL     1       9.457 -10.677  -7.975  1.00  0.00     0.029 A 
ATOM     50  C   UNL     1      10.648 -10.167  -8.649  1.00  0.00     0.049 A 
ATOM     51  H   UNL     1      12.553  -9.924  -7.843  1.00  0.00     0.167 HD
ATOM     52  C   UNL     1      16.501  -9.443  -5.997  1.00  0.00     0.037 A 
ATOM     53  C   UNL     1      10.705  -9.763  -9.932  1.00  0.00     0.037 A 
ATOM     54  C   UNL     1      16.675  -9.065  -7.375  1.00  0.00     0.049 A 
ATOM     55  C   UNL     1      12.010  -9.265 -10.487  1.00  0.00     0.074 A 
ATOM     56  C   UNL     1      17.835  -8.676  -8.022  1.00  0.00     0.029 A 
ATOM     57  N   UNL     1      15.658  -9.017  -8.319  1.00  0.00    -0.354 N 
ATOM     58  N   UNL     1      13.175  -9.167  -9.892  1.00  0.00    -0.248 NA
ATOM     59  C   UNL     1      12.009  -8.821 -11.887  1.00  0.00     0.031 C 
ATOM     60  C   UNL     1      17.508  -8.340  -9.341  1.00  0.00     0.029 A 
ATOM     61  C   UNL     1      16.156  -8.573  -9.534  1.00  0.00     0.049 A 
ATOM     62  H   UNL     1      14.719  -9.262  -8.149  1.00  0.00     0.167 HD
ATOM     63  C   UNL     1      14.053  -8.677 -10.852  1.00  0.00     0.074 A 
ATOM     64  C   UNL     1      13.285  -8.505 -12.069  1.00  0.00     0.031 C 
ATOM     65  C   UNL     1      15.377  -8.401 -10.737  1.00  0.00     0.037 A 
BRANCH  52  66
ATOM     66  C   UNL     1      17.679  -9.360  -5.062  1.00  0.00     0.058 A 
ATOM     67  C   UNL     1      18.258 -10.509  -4.497  1.00  0.00     0.135 A 
ATOM     68  C   UNL     1      18.223  -8.115  -4.707  1.00  0.00     0.135 A 
ATOM     69  F   UNL     1      17.773 -11.726  -4.792  1.00  0.00    -0.206 F 
ATOM     70  C   UNL     1      19.288 -10.424  -3.567  1.00  0.00     0.059 A 
ATOM     71  C   UNL     1      19.277  -8.008  -3.805  1.00  0.00     0.059 A 
ATOM     72  F   UNL     1      17.716  -6.983  -5.221  1.00  0.00    -0.206 F 
ATOM     73  C   UNL     1      19.784  -9.167  -3.218  1.00  0.00     0.060 A 
BRANCH  73  74
ATOM     74  S   UNL     1      21.082  -9.067  -1.968  1.00  0.00     0.124 S 
ATOM     75  O   UNL     1      20.331  -9.346  -0.748  1.00  0.00    -0.237 OA
ATOM     76  O   UNL     1      22.008 -10.112  -2.394  1.00  0.00    -0.237 OA
ATOM     77  O   UNL     1      21.578  -7.701  -2.101  1.00  0.00    -0.744 OA
ENDBRANCH  73  74
ENDBRANCH  52  66
BRANCH  53  78
ATOM     78  C   UNL     1       9.493  -9.864 -10.788  1.00  0.00     0.058 A 
ATOM     79  C   UNL     1       9.411 -10.838 -11.794  1.00  0.00     0.135 A 
ATOM     80  C   UNL     1       8.379  -9.034 -10.588  1.00  0.00     0.135 A 
ATOM     81  F   UNL     1      10.454 -11.649 -12.029  1.00  0.00    -0.206 F 
ATOM     82  C   UNL     1       8.267 -10.989 -12.571  1.00  0.00     0.059 A 
ATOM     83  C   UNL     1       7.215  -9.181 -11.336  1.00  0.00     0.059 A 
ATOM     84  F   UNL     1       8.403  -8.097  -9.628  1.00  0.00    -0.206 F 
ATOM     85  C   UNL     1       7.170 -10.162 -12.327  1.00  0.00     0.060 A 
BRANCH  85  86
ATOM     86  S   UNL     1       5.661 -10.425 -13.284  1.00  0.00     0.124 S 
ATOM     87  O   UNL     1       6.060  -9.943 -14.601  1.00  0.00    -0.237 OA
ATOM     88  O   UNL     1       5.471 -11.867 -13.161  1.00  0.00    -0.237 OA
ATOM     89  O   UNL     1       4.673  -9.609 -12.585  1.00  0.00    -0.744 OA
ENDBRANCH  85  86
ENDBRANCH  53  78
BRANCH  65  90
ATOM     90  C   UNL     1      16.090  -7.905 -11.965  1.00  0.00     0.058 A 
ATOM     91  C   UNL     1      15.887  -6.608 -12.464  1.00  0.00     0.135 A 
ATOM     92  C   UNL     1      17.030  -8.718 -12.619  1.00  0.00     0.135 A 
ATOM     93  F   UNL     1      14.993  -5.793 -11.883  1.00  0.00    -0.206 F 
ATOM     94  C   UNL     1      16.578  -6.142 -13.578  1.00  0.00     0.059 A 
ATOM     95  C   UNL     1      17.753  -8.263 -13.716  1.00  0.00     0.059 A 
ATOM     96  F   UNL     1      17.268  -9.964 -12.178  1.00  0.00    -0.206 F 
ATOM     97  C   UNL     1      17.513  -6.976 -14.195  1.00  0.00     0.060 A 
BRANCH  97  98
ATOM     98  S   UNL     1      18.435  -6.343 -15.612  1.00  0.00     0.124 S 
ATOM     99  O   UNL     1      17.412  -6.345 -16.653  1.00  0.00    -0.237 OA
ATOM    100  O   UNL     1      18.860  -5.027 -15.144  1.00  0.00    -0.237 OA
ATOM    101  O   UNL     1      19.508  -7.317 -15.784  1.00  0.00    -0.744 OA
ENDBRANCH  97  98
ENDBRANCH  65  90
ENDBRANCH  39  40
ENDBRANCH  31  34
ENDBRANCH  29  30
ENDBRANCH  28  29
ENDBRANCH  27  28
ENDBRANCH   1  27
TORSDOF 19
