REMARK SMILES COC(=O)c1c(NC(=O)[C@@H]2[C@H]3CC[C@H](CC3)[C@H]2C(=O)NCCCCCCNC(=O)c2ccc(-c3c4nc(c(-c5c(F)cc(S(=O)(=O)[O-])cc5F)c5ccc([nH]5)c(-c5c(F)cc(S(=O)(=O)[O-])cc5F)c5nc(c(-c6c(F)cc(S(=O)(=O)[O-])cc6F)c6ccc3[nH]6)C=C5)C=C4)cc2)sc(C)c1-c1ccc(C)cc1
REMARK SMILES IDX 23 1 22 2 21 3 20 4 18 5 19 6 17 8 10 9 11 10 16 11 12 12
REMARK SMILES IDX 14 13 15 14 13 15 8 16 7 17 9 19 6 20 5 21 99 22 96 23 97 24
REMARK SMILES IDX 98 25 3 26 4 27 2 28 1 29 100 30 101 31 106 32 102 33 105 34
REMARK SMILES IDX 103 35 104 36 24 37 25 38 26 39 27 40 28 41 29 43 30 44
REMARK SMILES IDX 31 45 95 46 32 47 94 48 33 49 34 50 35 51 88 52 36 53 93 54
REMARK SMILES IDX 87 55 89 56 37 57 92 58 86 59 85 60 38 62 72 63 51 64 71 65
REMARK SMILES IDX 52 66 55 67 70 68 90 69 53 70 54 71 69 73 91 74 56 75 39 76
REMARK SMILES IDX 40 77 49 78 41 79 42 80 48 81 50 82 43 83 44 84 45 85 46 86
REMARK SMILES IDX 47 87 73 88 74 89 83 90 75 91 76 92 82 93 84 94 77 95 78 96
REMARK SMILES IDX 79 97 80 98 81 99 57 100 58 101 67 102 59 103 60 104 66 105
REMARK SMILES IDX 68 106 61 107 62 108 63 109 64 110 65 111
REMARK H PARENT 20 7 7 18 27 42 89 61 55 72
REMARK Flexibility Score: inf
ROOT
ATOM      1  C   UNL     1       8.256   6.119   3.134  1.00  0.00     0.002 C 
ENDROOT
BRANCH   1   2
ATOM      2  C   UNL     1       6.828   5.733   3.528  1.00  0.00     0.021 C 
BRANCH   2   3
ATOM      3  C   UNL     1       5.783   6.837   3.479  1.00  0.00     0.116 C 
BRANCH   3   4
ATOM      4  N   UNL     1       5.563   7.397   2.176  1.00  0.00    -0.356 N 
ATOM      5  C   UNL     1       4.609   8.258   1.753  1.00  0.00     0.224 C 
ATOM      6  O   UNL     1       4.861   8.830   0.684  1.00  0.00    -0.275 OA
ATOM      7  H   UNL     1       6.204   7.112   1.485  1.00  0.00     0.163 HD
BRANCH   5   8
ATOM      8  C   UNL     1       3.281   8.543   2.479  1.00  0.00     0.094 C 
ATOM      9  C   UNL     1       2.384   7.343   2.789  1.00  0.00     0.094 C 
ATOM     10  C   UNL     1       1.760   7.569   4.210  1.00  0.00     0.002 C 
ATOM     11  C   UNL     1       2.870   7.780   5.271  1.00  0.00     0.005 C 
ATOM     12  C   UNL     1       0.915   8.855   4.210  1.00  0.00     0.005 C 
ATOM     13  C   UNL     1       3.263   9.603   3.605  1.00  0.00     0.002 C 
ATOM     14  C   UNL     1       3.689   9.036   4.954  1.00  0.00     0.005 C 
ATOM     15  C   UNL     1       1.781  10.050   3.778  1.00  0.00     0.005 C 
BRANCH   9  16
ATOM     16  C   UNL     1       1.266   6.852   1.806  1.00  0.00     0.229 C 
ATOM     17  N   UNL     1       0.419   7.577   1.017  1.00  0.00    -0.317 N 
ATOM     18  H   UNL     1      -0.436   7.118   0.850  1.00  0.00     0.170 HD
ATOM     19  O   UNL     1       0.961   5.646   1.898  1.00  0.00    -0.274 OA
BRANCH  17  20
ATOM     20  C   UNL     1       0.497   8.806   0.404  1.00  0.00     0.111 A 
ATOM     21  C   UNL     1      -0.482   9.638  -0.146  1.00  0.00     0.102 A 
ATOM     22  C   UNL     1       0.098  10.960  -0.378  1.00  0.00     0.012 A 
ATOM     23  S   UNL     1       1.934   9.278  -0.396  1.00  0.00    -0.122 S 
ATOM     24  C   UNL     1       1.466  10.911  -0.132  1.00  0.00     0.012 A 
ATOM     25  C   UNL     1       2.486  11.954   0.168  1.00  0.00     0.057 C 
BRANCH  21  26
ATOM     26  C   UNL     1      -1.839   9.184  -0.419  1.00  0.00     0.341 C 
ATOM     27  O   UNL     1      -2.339   8.201   0.104  1.00  0.00    -0.246 OA
BRANCH  26  28
ATOM     28  O   UNL     1      -2.410   9.892  -1.436  1.00  0.00    -0.465 OA
ATOM     29  C   UNL     1      -3.566   9.300  -2.023  1.00  0.00     0.282 C 
ENDBRANCH  26  28
ENDBRANCH  21  26
BRANCH  22  30
ATOM     30  C   UNL     1      -0.532  12.200  -0.825  1.00  0.00    -0.016 A 
ATOM     31  C   UNL     1      -1.691  12.710  -0.234  1.00  0.00     0.009 A 
ATOM     32  C   UNL     1       0.035  12.888  -1.909  1.00  0.00     0.009 A 
ATOM     33  C   UNL     1      -2.273  13.885  -0.732  1.00  0.00     0.004 A 
ATOM     34  C   UNL     1      -0.532  14.066  -2.391  1.00  0.00     0.004 A 
ATOM     35  C   UNL     1      -1.695  14.572  -1.809  1.00  0.00    -0.051 A 
ATOM     36  C   UNL     1      -2.340  15.804  -2.371  1.00  0.00     0.044 C 
ENDBRANCH  22  30
ENDBRANCH  17  20
ENDBRANCH   9  16
ENDBRANCH   5   8
ENDBRANCH   3   4
ENDBRANCH   2   3
ENDBRANCH   1   2
BRANCH   1  37
ATOM     37  C   UNL     1       8.820   7.444   3.656  1.00  0.00     0.002 C 
BRANCH  37  38
ATOM     38  C   UNL     1       8.714   7.736   5.154  1.00  0.00     0.021 C 
BRANCH  38  39
ATOM     39  C   UNL     1       9.099   6.612   6.104  1.00  0.00     0.116 C 
BRANCH  39  40
ATOM     40  N   UNL     1      10.454   6.136   5.907  1.00  0.00    -0.352 N 
ATOM     41  C   UNL     1      11.410   5.844   6.848  1.00  0.00     0.251 C 
ATOM     42  H   UNL     1      10.725   6.003   4.970  1.00  0.00     0.163 HD
ATOM     43  O   UNL     1      12.546   5.546   6.491  1.00  0.00    -0.269 OA
BRANCH  41  44
ATOM     44  C   UNL     1      11.082   5.924   8.289  1.00  0.00     0.039 A 
ATOM     45  C   UNL     1      11.972   6.587   9.138  1.00  0.00     0.014 A 
ATOM     46  C   UNL     1       9.917   5.349   8.806  1.00  0.00     0.014 A 
ATOM     47  C   UNL     1      11.672   6.716  10.496  1.00  0.00     0.010 A 
ATOM     48  C   UNL     1       9.589   5.530  10.149  1.00  0.00     0.010 A 
ATOM     49  C   UNL     1      10.467   6.208  11.008  1.00  0.00    -0.014 A 
BRANCH  49  50
ATOM     50  C   UNL     1      10.126   6.359  12.445  1.00  0.00     0.031 A 
ATOM     51  C   UNL     1      10.058   5.148  13.333  1.00  0.00     0.074 A 
ATOM     52  C   UNL     1       9.835   7.579  12.937  1.00  0.00     0.049 A 
ATOM     53  N   UNL     1       9.732   5.068  14.597  1.00  0.00    -0.248 NA
ATOM     54  C   UNL     1      10.373   3.851  12.711  1.00  0.00     0.031 C 
ATOM     55  C   UNL     1       9.821   8.823  12.164  1.00  0.00     0.029 A 
ATOM     56  N   UNL     1       9.485   7.973  14.204  1.00  0.00    -0.354 N 
ATOM     57  C   UNL     1       9.786   3.716  14.918  1.00  0.00     0.074 A 
ATOM     58  C   UNL     1      10.134   3.008  13.705  1.00  0.00     0.031 C 
ATOM     59  C   UNL     1       9.498   9.842  12.976  1.00  0.00     0.029 A 
ATOM     60  C   UNL     1       9.257   9.324  14.319  1.00  0.00     0.049 A 
ATOM     61  H   UNL     1       9.405   7.347  14.960  1.00  0.00     0.167 HD
ATOM     62  C   UNL     1       9.586   3.122  16.119  1.00  0.00     0.037 A 
ATOM     63  C   UNL     1       8.894  10.060  15.387  1.00  0.00     0.037 A 
ATOM     64  C   UNL     1       9.275   3.835  17.329  1.00  0.00     0.049 A 
ATOM     65  C   UNL     1       8.706   9.382  16.716  1.00  0.00     0.074 A 
ATOM     66  C   UNL     1       9.110   3.331  18.608  1.00  0.00     0.029 A 
ATOM     67  N   UNL     1       9.086   5.207  17.413  1.00  0.00    -0.354 N 
ATOM     68  N   UNL     1       8.815   8.109  17.013  1.00  0.00    -0.248 NA
ATOM     69  C   UNL     1       8.354  10.239  17.857  1.00  0.00     0.031 C 
ATOM     70  C   UNL     1       8.794   4.396  19.460  1.00  0.00     0.029 A 
ATOM     71  C   UNL     1       8.796   5.566  18.718  1.00  0.00     0.049 A 
ATOM     72  H   UNL     1       9.149   5.832  16.655  1.00  0.00     0.167 HD
ATOM     73  C   UNL     1       8.567   8.015  18.378  1.00  0.00     0.074 A 
ATOM     74  C   UNL     1       8.312   9.361  18.850  1.00  0.00     0.031 C 
ATOM     75  C   UNL     1       8.552   6.913  19.169  1.00  0.00     0.037 A 
BRANCH  62  76
ATOM     76  C   UNL     1       9.708   1.625  16.178  1.00  0.00     0.058 A 
ATOM     77  C   UNL     1      10.954   0.985  16.083  1.00  0.00     0.135 A 
ATOM     78  C   UNL     1       8.570   0.822  16.352  1.00  0.00     0.135 A 
ATOM     79  F   UNL     1      12.072   1.706  15.900  1.00  0.00    -0.206 F 
ATOM     80  C   UNL     1      11.065  -0.401  16.125  1.00  0.00     0.059 A 
ATOM     81  C   UNL     1       8.660  -0.566  16.421  1.00  0.00     0.059 A 
ATOM     82  F   UNL     1       7.354   1.382  16.448  1.00  0.00    -0.206 F 
ATOM     83  C   UNL     1       9.911  -1.168  16.289  1.00  0.00     0.060 A 
BRANCH  83  84
ATOM     84  S   UNL     1      10.068  -2.966  16.337  1.00  0.00     0.124 S 
ATOM     85  O   UNL     1      10.258  -3.277  14.923  1.00  0.00    -0.237 OA
ATOM     86  O   UNL     1      11.236  -3.159  17.190  1.00  0.00    -0.237 OA
ATOM     87  O   UNL     1       8.798  -3.402  16.910  1.00  0.00    -0.744 OA
ENDBRANCH  83  84
ENDBRANCH  62  76
BRANCH  63  88
ATOM     88  C   UNL     1       8.716  11.528  15.248  1.00  0.00     0.058 A 
ATOM     89  C   UNL     1       9.659  12.421  15.776  1.00  0.00     0.135 A 
ATOM     90  C   UNL     1       7.614  12.066  14.565  1.00  0.00     0.135 A 
ATOM     91  F   UNL     1      10.726  11.953  16.441  1.00  0.00    -0.206 F 
ATOM     92  C   UNL     1       9.513  13.798  15.644  1.00  0.00     0.059 A 
ATOM     93  C   UNL     1       7.456  13.439  14.403  1.00  0.00     0.059 A 
ATOM     94  F   UNL     1       6.693  11.252  14.027  1.00  0.00    -0.206 F 
ATOM     95  C   UNL     1       8.407  14.298  14.954  1.00  0.00     0.060 A 
BRANCH  95  96
ATOM     96  S   UNL     1       8.253  16.084  14.735  1.00  0.00     0.124 S 
ATOM     97  O   UNL     1       7.788  16.502  16.052  1.00  0.00    -0.237 OA
ATOM     98  O   UNL     1       9.616  16.472  14.385  1.00  0.00    -0.237 OA
ATOM     99  O   UNL     1       7.280  16.204  13.653  1.00  0.00    -0.744 OA
ENDBRANCH  95  96
ENDBRANCH  63  88
BRANCH  75 100
ATOM    100  C   UNL     1       8.275   7.121  20.630  1.00  0.00     0.058 A 
ATOM    101  C   UNL     1       6.981   7.386  21.101  1.00  0.00     0.135 A 
ATOM    102  C   UNL     1       9.309   7.005  21.572  1.00  0.00     0.135 A 
ATOM    103  F   UNL     1       5.960   7.513  20.238  1.00  0.00    -0.206 F 
ATOM    104  C   UNL     1       6.723   7.550  22.458  1.00  0.00     0.059 A 
ATOM    105  C   UNL     1       9.070   7.144  22.936  1.00  0.00     0.059 A 
ATOM    106  F   UNL     1      10.563   6.742  21.171  1.00  0.00    -0.206 F 
ATOM    107  C   UNL     1       7.775   7.428  23.368  1.00  0.00     0.060 A 
BRANCH 107 108
ATOM    108  S   UNL     1       7.426   7.609  25.130  1.00  0.00     0.124 S 
ATOM    109  O   UNL     1       7.320   9.058  25.260  1.00  0.00    -0.237 OA
ATOM    110  O   UNL     1       6.178   6.867  25.282  1.00  0.00    -0.237 OA
ATOM    111  O   UNL     1       8.589   7.003  25.769  1.00  0.00    -0.744 OA
ENDBRANCH 107 108
ENDBRANCH  75 100
ENDBRANCH  49  50
ENDBRANCH  41  44
ENDBRANCH  39  40
ENDBRANCH  38  39
ENDBRANCH  37  38
ENDBRANCH   1  37
TORSDOF 21
