REMARK SMILES C=CCN1C(=O)/C(=C/c2ccccn2)S/C1=[NH+]\c1ccc(C(=O)NCCCCCCNC(=O)c2ccc(-c3c4nc(c(-c5c(F)cc(S(=O)(=O)[O-])cc5F)c5ccc([nH]5)c(-c5c(F)cc(S(=O)(=O)[O-])cc5F)c5nc(c(-c6c(F)cc(S(=O)(=O)[O-])cc6F)c6ccc3[nH]6)C=C5)C=C4)cc2)cc1
REMARK SMILES IDX 27 1 26 2 25 3 24 4 22 5 23 6 21 8 18 9 19 10 101 11 20 12
REMARK SMILES IDX 100 13 17 14 4 15 5 16 16 17 6 18 7 19 15 20 8 21 3 23 2 24
REMARK SMILES IDX 1 25 9 26 10 27 14 28 11 29 13 30 12 31 28 32 29 33 30 34
REMARK SMILES IDX 31 35 32 36 33 38 34 39 35 40 99 41 36 42 98 43 37 44 38 45
REMARK SMILES IDX 39 46 92 47 40 48 97 49 91 50 93 51 41 52 96 53 90 54 89 55
REMARK SMILES IDX 42 57 76 58 55 59 75 60 56 61 59 62 74 63 94 64 57 65 58 66
REMARK SMILES IDX 73 68 95 69 60 70 43 71 44 72 53 73 45 74 46 75 52 76 54 77
REMARK SMILES IDX 47 78 48 79 49 80 50 81 51 82 77 83 78 84 87 85 79 86 80 87
REMARK SMILES IDX 86 88 88 89 81 90 82 91 83 92 84 93 85 94 61 95 62 96 71 97
REMARK SMILES IDX 63 98 64 99 70 100 72 101 65 102 66 103 67 104 68 105 69 106
REMARK H PARENT 24 7 17 22 31 37 93 56 59 67
REMARK Flexibility Score: inf
ROOT
ATOM      1  C   UNL     1      -6.301   1.296 -11.277  1.00  0.00     0.002 C 
ENDROOT
BRANCH   1   2
ATOM      2  C   UNL     1      -5.488   1.230  -9.978  1.00  0.00     0.021 C 
BRANCH   2   3
ATOM      3  C   UNL     1      -6.206   1.864  -8.784  1.00  0.00     0.116 C 
BRANCH   3   4
ATOM      4  N   UNL     1      -7.213   0.954  -8.270  1.00  0.00    -0.352 N 
ATOM      5  C   UNL     1      -7.255   0.167  -7.149  1.00  0.00     0.251 C 
ATOM      6  O   UNL     1      -8.270  -0.503  -6.952  1.00  0.00    -0.269 OA
ATOM      7  H   UNL     1      -8.018   0.891  -8.833  1.00  0.00     0.163 HD
BRANCH   5   8
ATOM      8  C   UNL     1      -6.162   0.136  -6.139  1.00  0.00     0.040 A 
ATOM      9  C   UNL     1      -4.228   0.149  -4.088  1.00  0.00     0.125 A 
ATOM     10  C   UNL     1      -5.566  -0.105  -3.789  1.00  0.00     0.052 A 
ATOM     11  C   UNL     1      -3.854   0.314  -5.424  1.00  0.00     0.052 A 
ATOM     12  C   UNL     1      -6.528  -0.105  -4.806  1.00  0.00     0.018 A 
ATOM     13  C   UNL     1      -4.809   0.289  -6.444  1.00  0.00     0.018 A 
BRANCH   9  14
ATOM     14  N   UNL     1      -3.261   0.147  -3.075  1.00  0.00    -0.234 N 
ATOM     15  N   UNL     1      -1.690   1.281  -1.767  1.00  0.00    -0.182 N 
ATOM     16  C   UNL     1      -1.204   2.528  -1.430  1.00  0.00     0.349 C 
ATOM     17  C   UNL     1      -2.691   1.248  -2.707  1.00  0.00     0.324 C 
ATOM     18  O   UNL     1      -0.441   2.796  -0.507  1.00  0.00    -0.240 OA
ATOM     19  C   UNL     1      -1.799   3.562  -2.314  1.00  0.00     0.111 C 
ATOM     20  S   UNL     1      -3.046   2.868  -3.270  1.00  0.00     0.007 SA
ATOM     21  C   UNL     1      -1.353   4.825  -2.337  1.00  0.00     0.052 C 
ATOM     22  H   UNL     1      -3.014  -0.700  -2.639  1.00  0.00     0.313 HD
BRANCH  15  23
ATOM     23  C   UNL     1      -1.272   0.088  -1.051  1.00  0.00     0.275 C 
BRANCH  23  24
ATOM     24  C   UNL     1       0.209  -0.123  -1.180  1.00  0.00     0.011 C 
ATOM     25  C   UNL     1       1.041  -0.185  -0.130  1.00  0.00     0.008 C 
ENDBRANCH  23  24
ENDBRANCH  15  23
BRANCH  21  26
ATOM     26  C   UNL     1      -1.900   5.893  -3.168  1.00  0.00     0.064 A 
ATOM     27  C   UNL     1      -3.176   6.401  -2.945  1.00  0.00     0.028 A 
ATOM     28  N   UNL     1      -1.078   6.359  -4.132  1.00  0.00    -0.257 NA
ATOM     29  C   UNL     1      -3.644   7.415  -3.775  1.00  0.00     0.004 A 
ATOM     30  C   UNL     1      -1.561   7.342  -4.926  1.00  0.00     0.111 A 
ATOM     31  C   UNL     1      -2.825   7.893  -4.790  1.00  0.00     0.020 A 
ENDBRANCH  21  26
ENDBRANCH   9  14
ENDBRANCH   5   8
ENDBRANCH   3   4
ENDBRANCH   2   3
ENDBRANCH   1   2
BRANCH   1  32
ATOM     32  C   UNL     1      -6.594   2.717 -11.775  1.00  0.00     0.002 C 
BRANCH  32  33
ATOM     33  C   UNL     1      -5.355   3.594 -11.983  1.00  0.00     0.021 C 
BRANCH  33  34
ATOM     34  C   UNL     1      -4.374   3.058 -13.022  1.00  0.00     0.116 C 
BRANCH  34  35
ATOM     35  N   UNL     1      -4.984   2.980 -14.339  1.00  0.00    -0.352 N 
ATOM     36  C   UNL     1      -4.574   3.525 -15.528  1.00  0.00     0.251 C 
ATOM     37  H   UNL     1      -5.817   2.456 -14.384  1.00  0.00     0.163 HD
ATOM     38  O   UNL     1      -5.355   3.567 -16.474  1.00  0.00    -0.269 OA
BRANCH  36  39
ATOM     39  C   UNL     1      -3.204   4.066 -15.671  1.00  0.00     0.039 A 
ATOM     40  C   UNL     1      -3.020   5.231 -16.417  1.00  0.00     0.014 A 
ATOM     41  C   UNL     1      -2.101   3.411 -15.112  1.00  0.00     0.014 A 
ATOM     42  C   UNL     1      -1.737   5.758 -16.571  1.00  0.00     0.010 A 
ATOM     43  C   UNL     1      -0.833   3.982 -15.199  1.00  0.00     0.010 A 
ATOM     44  C   UNL     1      -0.634   5.154 -15.941  1.00  0.00    -0.014 A 
BRANCH  44  45
ATOM     45  C   UNL     1       0.717   5.763 -16.051  1.00  0.00     0.031 A 
ATOM     46  C   UNL     1       1.839   5.034 -16.740  1.00  0.00     0.074 A 
ATOM     47  C   UNL     1       0.930   6.980 -15.512  1.00  0.00     0.049 A 
ATOM     48  N   UNL     1       3.060   5.440 -16.979  1.00  0.00    -0.248 NA
ATOM     49  C   UNL     1       1.566   3.663 -17.200  1.00  0.00     0.031 C 
ATOM     50  C   UNL     1      -0.061   7.754 -14.759  1.00  0.00     0.029 A 
ATOM     51  N   UNL     1       2.040   7.786 -15.523  1.00  0.00    -0.354 N 
ATOM     52  C   UNL     1       3.698   4.381 -17.616  1.00  0.00     0.074 A 
ATOM     53  C   UNL     1       2.748   3.291 -17.668  1.00  0.00     0.031 C 
ATOM     54  C   UNL     1       0.470   8.940 -14.423  1.00  0.00     0.029 A 
ATOM     55  C   UNL     1       1.846   8.998 -14.903  1.00  0.00     0.049 A 
ATOM     56  H   UNL     1       2.894   7.521 -15.934  1.00  0.00     0.167 HD
ATOM     57  C   UNL     1       4.949   4.331 -18.133  1.00  0.00     0.037 A 
ATOM     58  C   UNL     1       2.680  10.045 -14.749  1.00  0.00     0.037 A 
ATOM     59  C   UNL     1       5.884   5.428 -18.084  1.00  0.00     0.049 A 
ATOM     60  C   UNL     1       4.057   9.972 -15.348  1.00  0.00     0.074 A 
ATOM     61  C   UNL     1       7.158   5.498 -18.620  1.00  0.00     0.029 A 
ATOM     62  N   UNL     1       5.649   6.644 -17.457  1.00  0.00    -0.354 N 
ATOM     63  N   UNL     1       4.617   8.990 -16.013  1.00  0.00    -0.248 NA
ATOM     64  C   UNL     1       4.909  11.158 -15.192  1.00  0.00     0.031 C 
ATOM     65  C   UNL     1       7.712   6.736 -18.274  1.00  0.00     0.029 A 
ATOM     66  C   UNL     1       6.761   7.463 -17.576  1.00  0.00     0.049 A 
ATOM     67  H   UNL     1       4.815   6.889 -16.995  1.00  0.00     0.167 HD
ATOM     68  C   UNL     1       5.878   9.449 -16.379  1.00  0.00     0.074 A 
ATOM     69  C   UNL     1       5.985  10.806 -15.880  1.00  0.00     0.031 C 
ATOM     70  C   UNL     1       6.857   8.809 -17.067  1.00  0.00     0.037 A 
BRANCH  57  71
ATOM     71  C   UNL     1       5.381   3.051 -18.801  1.00  0.00     0.058 A 
ATOM     72  C   UNL     1       4.818   2.625 -20.015  1.00  0.00     0.135 A 
ATOM     73  C   UNL     1       6.399   2.261 -18.243  1.00  0.00     0.135 A 
ATOM     74  F   UNL     1       3.831   3.331 -20.589  1.00  0.00    -0.206 F 
ATOM     75  C   UNL     1       5.226   1.448 -20.636  1.00  0.00     0.059 A 
ATOM     76  C   UNL     1       6.846   1.096 -18.863  1.00  0.00     0.059 A 
ATOM     77  F   UNL     1       6.975   2.618 -17.084  1.00  0.00    -0.206 F 
ATOM     78  C   UNL     1       6.243   0.691 -20.052  1.00  0.00     0.060 A 
BRANCH  78  79
ATOM     79  S   UNL     1       6.767  -0.828 -20.876  1.00  0.00     0.124 S 
ATOM     80  O   UNL     1       5.622  -1.700 -20.637  1.00  0.00    -0.237 OA
ATOM     81  O   UNL     1       6.950  -0.386 -22.255  1.00  0.00    -0.237 OA
ATOM     82  O   UNL     1       7.992  -1.193 -20.171  1.00  0.00    -0.744 OA
ENDBRANCH  78  79
ENDBRANCH  57  71
BRANCH  58  83
ATOM     83  C   UNL     1       2.218  11.261 -14.028  1.00  0.00     0.058 A 
ATOM     84  C   UNL     1       2.002  12.470 -14.707  1.00  0.00     0.135 A 
ATOM     85  C   UNL     1       1.967  11.235 -12.647  1.00  0.00     0.135 A 
ATOM     86  F   UNL     1       2.229  12.548 -16.027  1.00  0.00    -0.206 F 
ATOM     87  C   UNL     1       1.575  13.615 -14.042  1.00  0.00     0.059 A 
ATOM     88  C   UNL     1       1.511  12.358 -11.965  1.00  0.00     0.059 A 
ATOM     89  F   UNL     1       2.137  10.099 -11.954  1.00  0.00    -0.206 F 
ATOM     90  C   UNL     1       1.329  13.547 -12.669  1.00  0.00     0.060 A 
BRANCH  90  91
ATOM     91  S   UNL     1       0.726  15.024 -11.822  1.00  0.00     0.124 S 
ATOM     92  O   UNL     1       1.922  15.858 -11.798  1.00  0.00    -0.237 OA
ATOM     93  O   UNL     1      -0.346  15.468 -12.707  1.00  0.00    -0.237 OA
ATOM     94  O   UNL     1       0.287  14.511 -10.527  1.00  0.00    -0.744 OA
ENDBRANCH  90  91
ENDBRANCH  58  83
BRANCH  70  95
ATOM     95  C   UNL     1       8.115   9.588 -17.349  1.00  0.00     0.058 A 
ATOM     96  C   UNL     1       9.010   9.950 -16.329  1.00  0.00     0.135 A 
ATOM     97  C   UNL     1       8.426   9.981 -18.661  1.00  0.00     0.135 A 
ATOM     98  F   UNL     1       8.761   9.601 -15.056  1.00  0.00    -0.206 F 
ATOM     99  C   UNL     1      10.138  10.721 -16.591  1.00  0.00     0.059 A 
ATOM    100  C   UNL     1       9.568  10.721 -18.951  1.00  0.00     0.059 A 
ATOM    101  F   UNL     1       7.616   9.648 -19.678  1.00  0.00    -0.206 F 
ATOM    102  C   UNL     1      10.403  11.109 -17.906  1.00  0.00     0.060 A 
BRANCH 102 103
ATOM    103  S   UNL     1      11.857  12.129 -18.231  1.00  0.00     0.124 S 
ATOM    104  O   UNL     1      11.425  13.425 -17.718  1.00  0.00    -0.237 OA
ATOM    105  O   UNL     1      12.893  11.454 -17.456  1.00  0.00    -0.237 OA
ATOM    106  O   UNL     1      12.012  12.046 -19.680  1.00  0.00    -0.744 OA
ENDBRANCH 102 103
ENDBRANCH  70  95
ENDBRANCH  44  45
ENDBRANCH  36  39
ENDBRANCH  34  35
ENDBRANCH  33  34
ENDBRANCH  32  33
ENDBRANCH   1  32
TORSDOF 20
