REMARK SMILES C[C@@H](Cc1ccco1)C(=O)NCCCCCCNC(=O)c1ccc(-c2c3nc(c(-c4c(F)cc(S(=O)(=O)[O-])cc4F)c4ccc([nH]4)c(-c4c(F)cc(S(=O)(=O)[O-])cc4F)c4nc(c(-c5c(F)cc(S(=O)(=O)[O-])cc5F)c5ccc2[nH]5)C=C4)C=C3)cc1
REMARK SMILES IDX 15 1 14 2 13 3 12 4 11 5 9 6 10 7 2 9 1 10 3 11 4 12 5 13
REMARK SMILES IDX 8 14 6 15 7 16 16 17 17 18 18 19 19 20 20 22 21 23 22 24
REMARK SMILES IDX 86 25 23 26 85 27 24 28 25 29 26 30 79 31 27 32 84 33 78 34
REMARK SMILES IDX 80 35 28 36 83 37 77 38 76 39 29 41 63 42 42 43 62 44 43 45
REMARK SMILES IDX 46 46 61 47 81 48 44 49 45 50 60 52 82 53 47 54 30 55 31 56
REMARK SMILES IDX 40 57 32 58 33 59 39 60 41 61 34 62 35 63 36 64 37 65 38 66
REMARK SMILES IDX 64 67 65 68 74 69 66 70 67 71 73 72 75 73 68 74 69 75 70 76
REMARK SMILES IDX 71 77 72 78 48 79 49 80 58 81 50 82 51 83 57 84 59 85 52 86
REMARK SMILES IDX 53 87 54 88 55 89 56 90
REMARK H PARENT 11 8 18 21 80 40 46 51
REMARK Flexibility Score: inf
ROOT
ATOM      1  C   UNL     1      -3.820  -0.137   3.712  1.00  0.00     0.002 C 
ENDROOT
BRANCH   1   2
ATOM      2  C   UNL     1      -3.594   0.828   2.541  1.00  0.00     0.002 C 
BRANCH   2   3
ATOM      3  C   UNL     1      -2.142   1.006   2.092  1.00  0.00     0.021 C 
BRANCH   3   4
ATOM      4  C   UNL     1      -1.409  -0.287   1.770  1.00  0.00     0.116 C 
BRANCH   4   5
ATOM      5  N   UNL     1      -1.730  -0.845   0.477  1.00  0.00    -0.356 N 
ATOM      6  C   UNL     1      -0.924  -1.487  -0.409  1.00  0.00     0.223 C 
ATOM      7  O   UNL     1      -1.477  -2.083  -1.340  1.00  0.00    -0.275 OA
ATOM      8  H   UNL     1      -2.669  -0.746   0.197  1.00  0.00     0.163 HD
BRANCH   6   9
ATOM      9  C   UNL     1       0.604  -1.494  -0.309  1.00  0.00     0.083 C 
ATOM     10  C   UNL     1       1.250  -0.111  -0.257  1.00  0.00     0.018 C 
BRANCH   9  11
ATOM     11  C   UNL     1       1.193  -2.552   0.635  1.00  0.00     0.088 C 
BRANCH  11  12
ATOM     12  C   UNL     1       0.942  -2.397   2.091  1.00  0.00     0.104 A 
ATOM     13  C   UNL     1       0.226  -3.142   3.007  1.00  0.00     0.045 A 
ATOM     14  O   UNL     1       1.546  -1.349   2.720  1.00  0.00    -0.469 OA
ATOM     15  C   UNL     1       0.361  -2.484   4.254  1.00  0.00     0.042 A 
ATOM     16  C   UNL     1       1.175  -1.399   4.027  1.00  0.00     0.195 A 
ENDBRANCH  11  12
ENDBRANCH   9  11
ENDBRANCH   6   9
ENDBRANCH   4   5
ENDBRANCH   3   4
ENDBRANCH   2   3
ENDBRANCH   1   2
BRANCH   1  17
ATOM     17  C   UNL     1      -2.958   0.098   4.956  1.00  0.00     0.021 C 
BRANCH  17  18
ATOM     18  C   UNL     1      -3.043   1.497   5.557  1.00  0.00     0.116 C 
BRANCH  18  19
ATOM     19  N   UNL     1      -4.401   1.861   5.922  1.00  0.00    -0.352 N 
ATOM     20  C   UNL     1      -4.897   2.328   7.113  1.00  0.00     0.251 C 
ATOM     21  H   UNL     1      -5.067   1.757   5.205  1.00  0.00     0.163 HD
ATOM     22  O   UNL     1      -6.111   2.406   7.274  1.00  0.00    -0.269 OA
BRANCH  20  23
ATOM     23  C   UNL     1      -3.978   2.719   8.206  1.00  0.00     0.039 A 
ATOM     24  C   UNL     1      -4.301   2.356   9.516  1.00  0.00     0.014 A 
ATOM     25  C   UNL     1      -2.822   3.463   7.952  1.00  0.00     0.014 A 
ATOM     26  C   UNL     1      -3.442   2.697  10.563  1.00  0.00     0.010 A 
ATOM     27  C   UNL     1      -1.929   3.737   8.987  1.00  0.00     0.010 A 
ATOM     28  C   UNL     1      -2.234   3.366  10.305  1.00  0.00    -0.014 A 
BRANCH  28  29
ATOM     29  C   UNL     1      -1.289   3.694  11.404  1.00  0.00     0.031 A 
ATOM     30  C   UNL     1      -0.982   5.130  11.736  1.00  0.00     0.074 A 
ATOM     31  C   UNL     1      -0.672   2.699  12.072  1.00  0.00     0.049 A 
ATOM     32  N   UNL     1      -0.151   5.614  12.624  1.00  0.00    -0.248 NA
ATOM     33  C   UNL     1      -1.682   6.159  10.950  1.00  0.00     0.031 C 
ATOM     34  C   UNL     1      -0.852   1.268  11.812  1.00  0.00     0.029 A 
ATOM     35  N   UNL     1       0.235   2.736  13.101  1.00  0.00    -0.354 N 
ATOM     36  C   UNL     1      -0.224   6.997  12.499  1.00  0.00     0.074 A 
ATOM     37  C   UNL     1      -1.133   7.274  11.409  1.00  0.00     0.031 C 
ATOM     38  C   UNL     1      -0.098   0.566  12.674  1.00  0.00     0.029 A 
ATOM     39  C   UNL     1       0.647   1.492  13.520  1.00  0.00     0.049 A 
ATOM     40  H   UNL     1       0.561   3.574  13.501  1.00  0.00     0.167 HD
ATOM     41  C   UNL     1       0.389   7.949  13.243  1.00  0.00     0.037 A 
ATOM     42  C   UNL     1       1.531   1.139  14.474  1.00  0.00     0.037 A 
ATOM     43  C   UNL     1       1.280   7.666  14.339  1.00  0.00     0.049 A 
ATOM     44  C   UNL     1       2.208   2.215  15.280  1.00  0.00     0.074 A 
ATOM     45  C   UNL     1       1.919   8.558  15.182  1.00  0.00     0.029 A 
ATOM     46  N   UNL     1       1.658   6.394  14.745  1.00  0.00    -0.354 N 
ATOM     47  N   UNL     1       2.082   3.518  15.186  1.00  0.00    -0.248 NA
ATOM     48  C   UNL     1       3.138   1.775  16.328  1.00  0.00     0.031 C 
ATOM     49  C   UNL     1       2.719   7.828  16.067  1.00  0.00     0.029 A 
ATOM     50  C   UNL     1       2.535   6.478  15.813  1.00  0.00     0.049 A 
ATOM     51  H   UNL     1       1.349   5.554  14.333  1.00  0.00     0.167 HD
ATOM     52  C   UNL     1       2.891   4.051  16.184  1.00  0.00     0.074 A 
ATOM     53  C   UNL     1       3.491   2.929  16.876  1.00  0.00     0.031 C 
ATOM     54  C   UNL     1       3.116   5.351  16.500  1.00  0.00     0.037 A 
BRANCH  41  55
ATOM     55  C   UNL     1       0.109   9.389  12.902  1.00  0.00     0.058 A 
ATOM     56  C   UNL     1      -1.150   9.969  13.130  1.00  0.00     0.135 A 
ATOM     57  C   UNL     1       1.119  10.210  12.373  1.00  0.00     0.135 A 
ATOM     58  F   UNL     1      -2.157   9.229  13.620  1.00  0.00    -0.206 F 
ATOM     59  C   UNL     1      -1.407  11.299  12.816  1.00  0.00     0.059 A 
ATOM     60  C   UNL     1       0.893  11.552  12.080  1.00  0.00     0.059 A 
ATOM     61  F   UNL     1       2.341   9.710  12.135  1.00  0.00    -0.206 F 
ATOM     62  C   UNL     1      -0.379  12.084  12.291  1.00  0.00     0.060 A 
BRANCH  62  63
ATOM     63  S   UNL     1      -0.730  13.809  11.893  1.00  0.00     0.124 S 
ATOM     64  O   UNL     1      -1.569  13.669  10.707  1.00  0.00    -0.237 OA
ATOM     65  O   UNL     1      -1.409  14.275  13.098  1.00  0.00    -0.237 OA
ATOM     66  O   UNL     1       0.593  14.381  11.661  1.00  0.00    -0.744 OA
ENDBRANCH  62  63
ENDBRANCH  41  55
BRANCH  42  67
ATOM     67  C   UNL     1       1.814  -0.299  14.733  1.00  0.00     0.058 A 
ATOM     68  C   UNL     1       1.405  -0.915  15.925  1.00  0.00     0.135 A 
ATOM     69  C   UNL     1       2.500  -1.087  13.794  1.00  0.00     0.135 A 
ATOM     70  F   UNL     1       0.750  -0.204  16.856  1.00  0.00    -0.206 F 
ATOM     71  C   UNL     1       1.687  -2.251  16.191  1.00  0.00     0.059 A 
ATOM     72  C   UNL     1       2.767  -2.433  14.025  1.00  0.00     0.059 A 
ATOM     73  F   UNL     1       2.896  -0.553  12.629  1.00  0.00    -0.206 F 
ATOM     74  C   UNL     1       2.369  -3.002  15.233  1.00  0.00     0.060 A 
BRANCH  74  75
ATOM     75  S   UNL     1       2.700  -4.745  15.573  1.00  0.00     0.124 S 
ATOM     76  O   UNL     1       3.751  -4.653  16.579  1.00  0.00    -0.237 OA
ATOM     77  O   UNL     1       1.402  -5.217  16.045  1.00  0.00    -0.237 OA
ATOM     78  O   UNL     1       3.113  -5.267  14.274  1.00  0.00    -0.744 OA
ENDBRANCH  74  75
ENDBRANCH  42  67
BRANCH  54  79
ATOM     79  C   UNL     1       4.015   5.632  17.673  1.00  0.00     0.058 A 
ATOM     80  C   UNL     1       5.401   5.414  17.616  1.00  0.00     0.135 A 
ATOM     81  C   UNL     1       3.485   6.167  18.859  1.00  0.00     0.135 A 
ATOM     82  F   UNL     1       5.959   4.899  16.509  1.00  0.00    -0.206 F 
ATOM     83  C   UNL     1       6.224   5.687  18.704  1.00  0.00     0.059 A 
ATOM     84  C   UNL     1       4.294   6.477  19.947  1.00  0.00     0.059 A 
ATOM     85  F   UNL     1       2.168   6.407  18.963  1.00  0.00    -0.206 F 
ATOM     86  C   UNL     1       5.661   6.220  19.865  1.00  0.00     0.060 A 
BRANCH  86  87
ATOM     87  S   UNL     1       6.744   6.592  21.261  1.00  0.00     0.124 S 
ATOM     88  O   UNL     1       7.048   5.256  21.762  1.00  0.00    -0.237 OA
ATOM     89  O   UNL     1       7.850   7.295  20.618  1.00  0.00    -0.237 OA
ATOM     90  O   UNL     1       5.908   7.414  22.131  1.00  0.00    -0.744 OA
ENDBRANCH  86  87
ENDBRANCH  54  79
ENDBRANCH  28  29
ENDBRANCH  20  23
ENDBRANCH  18  19
ENDBRANCH  17  18
ENDBRANCH   1  17
TORSDOF 18
