REMARK SMILES CCCC[C@H](C(=O)NCCCCCCNC(=O)c1ccc(-c2c3nc(c(-c4c(F)cc(S(=O)(=O)[O-])cc4F)c4ccc([nH]4)c(-c4c(F)cc(S(=O)(=O)[O-])cc4F)c4nc(c(-c5c(F)cc(S(=O)(=O)[O-])cc5F)c5ccc2[nH]5)C=C4)C=C3)cc1)[C@H](O)c1ccc(C(F)(F)F)cc1
REMARK SMILES IDX 11 1 10 2 9 3 8 4 6 5 7 6 5 8 4 9 3 10 2 11 1 12 84 13 86 14
REMARK SMILES IDX 87 15 95 16 88 17 94 18 89 19 90 20 91 21 92 22 93 23 85 24
REMARK SMILES IDX 12 26 13 27 14 28 15 29 16 30 17 32 18 33 19 34 83 35 20 36
REMARK SMILES IDX 82 37 21 38 22 39 23 40 76 41 24 42 81 43 75 44 77 45 25 46
REMARK SMILES IDX 80 47 74 48 73 49 26 51 60 52 39 53 59 54 40 55 43 56 58 57
REMARK SMILES IDX 78 58 41 59 42 60 57 62 79 63 44 64 27 65 28 66 37 67 29 68
REMARK SMILES IDX 30 69 36 70 38 71 31 72 32 73 33 74 34 75 35 76 61 77 62 78
REMARK SMILES IDX 71 79 63 80 64 81 70 82 72 83 65 84 66 85 67 86 68 87 69 88
REMARK SMILES IDX 45 89 46 90 55 91 47 92 48 93 54 94 56 95 49 96 50 97 51 98
REMARK SMILES IDX 52 99 53 100
REMARK H PARENT 8 7 85 25 15 31 77 50 43 61
REMARK Flexibility Score: inf
ROOT
ATOM      1  C   UNL     1      -4.188   2.870  -7.642  1.00  0.00     0.002 C 
ENDROOT
BRANCH   1   2
ATOM      2  C   UNL     1      -2.972   3.044  -6.731  1.00  0.00     0.021 C 
BRANCH   2   3
ATOM      3  C   UNL     1      -3.277   2.807  -5.248  1.00  0.00     0.116 C 
BRANCH   3   4
ATOM      4  N   UNL     1      -2.641   1.597  -4.777  1.00  0.00    -0.356 N 
ATOM      5  C   UNL     1      -1.696   1.356  -3.840  1.00  0.00     0.226 C 
ATOM      6  O   UNL     1      -1.449   0.156  -3.647  1.00  0.00    -0.275 OA
ATOM      7  H   UNL     1      -2.960   0.784  -5.231  1.00  0.00     0.163 HD
BRANCH   5   8
ATOM      8  C   UNL     1      -0.949   2.418  -3.025  1.00  0.00     0.111 C 
BRANCH   8   9
ATOM      9  C   UNL     1       0.099   3.270  -3.788  1.00  0.00     0.016 C 
BRANCH   9  10
ATOM     10  C   UNL     1      -0.284   4.379  -4.771  1.00  0.00     0.001 C 
BRANCH  10  11
ATOM     11  C   UNL     1      -1.130   5.547  -4.269  1.00  0.00    -0.003 C 
ATOM     12  C   UNL     1      -0.378   6.523  -3.382  1.00  0.00     0.004 C 
ENDBRANCH  10  11
ENDBRANCH   9  10
ENDBRANCH   8   9
BRANCH   8  13
ATOM     13  C   UNL     1      -1.691   3.146  -1.876  1.00  0.00     0.157 C 
BRANCH  13  14
ATOM     14  C   UNL     1      -3.203   3.136  -1.817  1.00  0.00    -0.019 A 
ATOM     15  C   UNL     1      -3.910   4.348  -1.813  1.00  0.00     0.007 A 
ATOM     16  C   UNL     1      -3.926   1.941  -1.697  1.00  0.00     0.007 A 
ATOM     17  C   UNL     1      -5.305   4.362  -1.767  1.00  0.00     0.013 A 
ATOM     18  C   UNL     1      -5.323   1.953  -1.655  1.00  0.00     0.013 A 
ATOM     19  C   UNL     1      -6.027   3.164  -1.707  1.00  0.00     0.056 A 
BRANCH  19  20
ATOM     20  C   UNL     1      -7.535   3.198  -1.692  1.00  0.00     0.416 C 
ATOM     21  F   UNL     1      -8.033   3.812  -0.585  1.00  0.00    -0.166 F 
ATOM     22  F   UNL     1      -8.049   3.871  -2.759  1.00  0.00    -0.166 F 
ATOM     23  F   UNL     1      -8.108   1.962  -1.723  1.00  0.00    -0.166 F 
ENDBRANCH  19  20
ENDBRANCH  13  14
BRANCH  13  24
ATOM     24  O   UNL     1      -1.215   2.630  -0.617  1.00  0.00    -0.388 OA
ATOM     25  H   UNL     1      -1.478   1.701  -0.527  1.00  0.00     0.211 HD
ENDBRANCH  13  24
ENDBRANCH   8  13
ENDBRANCH   5   8
ENDBRANCH   3   4
ENDBRANCH   2   3
ENDBRANCH   1   2
BRANCH   1  26
ATOM     26  C   UNL     1      -5.271   3.938  -7.458  1.00  0.00     0.002 C 
BRANCH  26  27
ATOM     27  C   UNL     1      -4.823   5.384  -7.703  1.00  0.00     0.021 C 
BRANCH  27  28
ATOM     28  C   UNL     1      -4.182   5.644  -9.065  1.00  0.00     0.116 C 
BRANCH  28  29
ATOM     29  N   UNL     1      -5.064   5.279 -10.162  1.00  0.00    -0.352 N 
ATOM     30  C   UNL     1      -5.582   6.052 -11.170  1.00  0.00     0.251 C 
ATOM     31  H   UNL     1      -5.329   4.331 -10.185  1.00  0.00     0.163 HD
ATOM     32  O   UNL     1      -6.487   5.611 -11.871  1.00  0.00    -0.269 OA
BRANCH  30  33
ATOM     33  C   UNL     1      -5.059   7.415 -11.407  1.00  0.00     0.039 A 
ATOM     34  C   UNL     1      -5.961   8.451 -11.663  1.00  0.00     0.014 A 
ATOM     35  C   UNL     1      -3.684   7.665 -11.413  1.00  0.00     0.014 A 
ATOM     36  C   UNL     1      -5.487   9.748 -11.872  1.00  0.00     0.010 A 
ATOM     37  C   UNL     1      -3.216   8.969 -11.557  1.00  0.00     0.010 A 
ATOM     38  C   UNL     1      -4.112  10.023 -11.793  1.00  0.00    -0.014 A 
BRANCH  38  39
ATOM     39  C   UNL     1      -3.592  11.404 -11.958  1.00  0.00     0.031 A 
ATOM     40  C   UNL     1      -2.700  11.743 -13.121  1.00  0.00     0.074 A 
ATOM     41  C   UNL     1      -3.870  12.334 -11.023  1.00  0.00     0.049 A 
ATOM     42  N   UNL     1      -2.089  12.867 -13.394  1.00  0.00    -0.248 NA
ATOM     43  C   UNL     1      -2.441  10.669 -14.093  1.00  0.00     0.031 C 
ATOM     44  C   UNL     1      -4.684  12.113  -9.826  1.00  0.00     0.029 A 
ATOM     45  N   UNL     1      -3.488  13.649 -10.925  1.00  0.00    -0.354 N 
ATOM     46  C   UNL     1      -1.362  12.633 -14.555  1.00  0.00     0.074 A 
ATOM     47  C   UNL     1      -1.569  11.245 -14.909  1.00  0.00     0.031 C 
ATOM     48  C   UNL     1      -4.755  13.255  -9.124  1.00  0.00     0.029 A 
ATOM     49  C   UNL     1      -3.963  14.279  -9.799  1.00  0.00     0.049 A 
ATOM     50  H   UNL     1      -2.927  14.098 -11.597  1.00  0.00     0.167 HD
ATOM     51  C   UNL     1      -0.609  13.501 -15.272  1.00  0.00     0.037 A 
ATOM     52  C   UNL     1      -3.776  15.538  -9.356  1.00  0.00     0.037 A 
ATOM     53  C   UNL     1      -0.430  14.887 -14.928  1.00  0.00     0.049 A 
ATOM     54  C   UNL     1      -2.942  16.485 -10.174  1.00  0.00     0.074 A 
ATOM     55  C   UNL     1       0.266  15.863 -15.620  1.00  0.00     0.029 A 
ATOM     56  N   UNL     1      -0.950  15.496 -13.795  1.00  0.00    -0.354 N 
ATOM     57  N   UNL     1      -2.310  16.263 -11.302  1.00  0.00    -0.248 NA
ATOM     58  C   UNL     1      -2.799  17.856  -9.664  1.00  0.00     0.031 C 
ATOM     59  C   UNL     1       0.199  17.052 -14.885  1.00  0.00     0.029 A 
ATOM     60  C   UNL     1      -0.577  16.829 -13.759  1.00  0.00     0.049 A 
ATOM     61  H   UNL     1      -1.504  15.046 -13.116  1.00  0.00     0.167 HD
ATOM     62  C   UNL     1      -1.718  17.471 -11.651  1.00  0.00     0.074 A 
ATOM     63  C   UNL     1      -2.075  18.424 -10.620  1.00  0.00     0.031 C 
ATOM     64  C   UNL     1      -0.949  17.766 -12.728  1.00  0.00     0.037 A 
BRANCH  51  65
ATOM     65  C   UNL     1       0.076  12.976 -16.505  1.00  0.00     0.058 A 
ATOM     66  C   UNL     1      -0.647  12.630 -17.659  1.00  0.00     0.135 A 
ATOM     67  C   UNL     1       1.474  12.849 -16.548  1.00  0.00     0.135 A 
ATOM     68  F   UNL     1      -1.986  12.718 -17.669  1.00  0.00    -0.206 F 
ATOM     69  C   UNL     1      -0.012  12.147 -18.798  1.00  0.00     0.059 A 
ATOM     70  C   UNL     1       2.133  12.394 -17.687  1.00  0.00     0.059 A 
ATOM     71  F   UNL     1       2.215  13.166 -15.474  1.00  0.00    -0.206 F 
ATOM     72  C   UNL     1       1.379  12.031 -18.802  1.00  0.00     0.060 A 
BRANCH  72  73
ATOM     73  S   UNL     1       2.188  11.403 -20.289  1.00  0.00     0.124 S 
ATOM     74  O   UNL     1       1.854   9.983 -20.224  1.00  0.00    -0.237 OA
ATOM     75  O   UNL     1       1.527  12.160 -21.348  1.00  0.00    -0.237 OA
ATOM     76  O   UNL     1       3.594  11.728 -20.074  1.00  0.00    -0.744 OA
ENDBRANCH  72  73
ENDBRANCH  51  65
BRANCH  52  77
ATOM     77  C   UNL     1      -4.412  15.979  -8.087  1.00  0.00     0.058 A 
ATOM     78  C   UNL     1      -5.485  16.883  -8.094  1.00  0.00     0.135 A 
ATOM     79  C   UNL     1      -3.974  15.494  -6.845  1.00  0.00     0.135 A 
ATOM     80  F   UNL     1      -5.936  17.379  -9.256  1.00  0.00    -0.206 F 
ATOM     81  C   UNL     1      -6.093  17.302  -6.915  1.00  0.00     0.059 A 
ATOM     82  C   UNL     1      -4.582  15.880  -5.654  1.00  0.00     0.059 A 
ATOM     83  F   UNL     1      -2.964  14.613  -6.785  1.00  0.00    -0.206 F 
ATOM     84  C   UNL     1      -5.635  16.793  -5.699  1.00  0.00     0.060 A 
BRANCH  84  85
ATOM     85  S   UNL     1      -6.464  17.303  -4.177  1.00  0.00     0.124 S 
ATOM     86  O   UNL     1      -5.969  18.665  -4.016  1.00  0.00    -0.237 OA
ATOM     87  O   UNL     1      -7.872  17.172  -4.537  1.00  0.00    -0.237 OA
ATOM     88  O   UNL     1      -5.984  16.335  -3.195  1.00  0.00    -0.744 OA
ENDBRANCH  84  85
ENDBRANCH  52  77
BRANCH  64  89
ATOM     89  C   UNL     1      -0.469  19.184 -12.868  1.00  0.00     0.058 A 
ATOM     90  C   UNL     1       0.549  19.702 -12.053  1.00  0.00     0.135 A 
ATOM     91  C   UNL     1      -0.999  20.016 -13.868  1.00  0.00     0.135 A 
ATOM     92  F   UNL     1       1.083  18.950 -11.078  1.00  0.00    -0.206 F 
ATOM     93  C   UNL     1       1.011  21.005 -12.210  1.00  0.00     0.059 A 
ATOM     94  C   UNL     1      -0.533  21.313 -14.059  1.00  0.00     0.059 A 
ATOM     95  F   UNL     1      -1.967  19.565 -14.681  1.00  0.00    -0.206 F 
ATOM     96  C   UNL     1       0.465  21.802 -13.217  1.00  0.00     0.060 A 
BRANCH  96  97
ATOM     97  S   UNL     1       1.099  23.479 -13.434  1.00  0.00     0.124 S 
ATOM     98  O   UNL     1       0.492  24.171 -12.302  1.00  0.00    -0.237 OA
ATOM     99  O   UNL     1       2.542  23.280 -13.357  1.00  0.00    -0.237 OA
ATOM    100  O   UNL     1       0.595  23.865 -14.749  1.00  0.00    -0.744 OA
ENDBRANCH  96  97
ENDBRANCH  64  89
ENDBRANCH  38  39
ENDBRANCH  30  33
ENDBRANCH  28  29
ENDBRANCH  27  28
ENDBRANCH  26  27
ENDBRANCH   1  26
TORSDOF 23
