REMARK SMILES O=C(NCCCCCCNC(=O)c1ccccc1NC(=O)c1ccc(N2C(=O)[C@H]3CC=CC[C@H]3C2=O)cc1)c1ccc(-c2c3nc(c(-c4c(F)cc(S(=O)(=O)[O-])cc4F)c4ccc([nH]4)c(-c4c(F)cc(S(=O)(=O)[O-])cc4F)c4nc(c(-c5c(F)cc(S(=O)(=O)[O-])cc5F)c5ccc2[nH]5)C=C4)C=C3)cc1
REMARK SMILES IDX 6 1 5 2 4 3 3 4 1 5 2 6 39 8 40 9 104 10 41 11 103 12 42 13
REMARK SMILES IDX 43 14 44 15 97 16 45 17 102 18 96 19 98 20 46 21 101 22
REMARK SMILES IDX 95 23 94 24 47 26 81 27 60 28 80 29 61 30 64 31 79 32 99 33
REMARK SMILES IDX 62 34 63 35 78 37 100 38 65 39 48 40 49 41 58 42 50 43 51 44
REMARK SMILES IDX 57 45 59 46 52 47 53 48 54 49 55 50 56 51 82 52 83 53 92 54
REMARK SMILES IDX 84 55 85 56 91 57 93 58 86 59 87 60 88 61 89 62 90 63 66 64
REMARK SMILES IDX 67 65 76 66 68 67 69 68 75 69 77 70 70 71 71 72 72 73 73 74
REMARK SMILES IDX 74 75 7 76 8 77 9 78 10 79 11 80 12 82 13 83 14 84 18 85
REMARK SMILES IDX 15 86 17 87 16 88 19 89 20 90 21 92 22 93 23 94 38 95 24 96
REMARK SMILES IDX 37 97 25 98 26 99 27 100 35 101 28 102 29 103 34 104 36 105
REMARK SMILES IDX 30 106 33 107 31 108 32 109
REMARK H PARENT 3 7 98 25 64 36 10 81 19 91
REMARK Flexibility Score: inf
ROOT
ATOM      1  C   UNL     1       4.198   0.401   3.900  1.00  0.00     0.002 C 
ENDROOT
BRANCH   1   2
ATOM      2  C   UNL     1       4.663   0.929   2.544  1.00  0.00     0.021 C 
BRANCH   2   3
ATOM      3  C   UNL     1       4.377   0.011   1.364  1.00  0.00     0.116 C 
BRANCH   3   4
ATOM      4  N   UNL     1       2.955  -0.199   1.148  1.00  0.00    -0.352 N 
ATOM      5  O   UNL     1       1.002  -0.113   0.023  1.00  0.00    -0.269 OA
ATOM      6  C   UNL     1       2.227  -0.042  -0.006  1.00  0.00     0.251 C 
ATOM      7  H   UNL     1       2.444  -0.493   1.936  1.00  0.00     0.163 HD
BRANCH   6   8
ATOM      8  C   UNL     1       2.929   0.234  -1.278  1.00  0.00     0.039 A 
ATOM      9  C   UNL     1       4.063  -0.499  -1.638  1.00  0.00     0.014 A 
ATOM     10  C   UNL     1       2.447   1.242  -2.119  1.00  0.00     0.014 A 
ATOM     11  C   UNL     1       4.788  -0.140  -2.768  1.00  0.00     0.010 A 
ATOM     12  C   UNL     1       3.130   1.543  -3.300  1.00  0.00     0.010 A 
ATOM     13  C   UNL     1       4.319   0.871  -3.623  1.00  0.00    -0.014 A 
BRANCH  13  14
ATOM     14  C   UNL     1       5.041   1.148  -4.890  1.00  0.00     0.031 A 
ATOM     15  C   UNL     1       5.691   2.479  -5.144  1.00  0.00     0.074 A 
ATOM     16  C   UNL     1       5.099   0.175  -5.820  1.00  0.00     0.049 A 
ATOM     17  N   UNL     1       6.343   2.886  -6.204  1.00  0.00    -0.248 NA
ATOM     18  C   UNL     1       5.591   3.487  -4.078  1.00  0.00     0.031 C 
ATOM     19  C   UNL     1       4.482  -1.148  -5.689  1.00  0.00     0.029 A 
ATOM     20  N   UNL     1       5.699   0.141  -7.052  1.00  0.00    -0.354 N 
ATOM     21  C   UNL     1       6.712   4.201  -5.944  1.00  0.00     0.074 A 
ATOM     22  C   UNL     1       6.190   4.531  -4.635  1.00  0.00     0.031 C 
ATOM     23  C   UNL     1       4.754  -1.871  -6.784  1.00  0.00     0.029 A 
ATOM     24  C   UNL     1       5.508  -1.045  -7.720  1.00  0.00     0.049 A 
ATOM     25  H   UNL     1       6.216   0.892  -7.422  1.00  0.00     0.167 HD
ATOM     26  C   UNL     1       7.424   5.048  -6.728  1.00  0.00     0.037 A 
ATOM     27  C   UNL     1       5.869  -1.421  -8.961  1.00  0.00     0.037 A 
ATOM     28  C   UNL     1       7.941   4.701  -8.028  1.00  0.00     0.049 A 
ATOM     29  C   UNL     1       6.643  -0.461  -9.815  1.00  0.00     0.074 A 
ATOM     30  C   UNL     1       8.717   5.470  -8.879  1.00  0.00     0.029 A 
ATOM     31  N   UNL     1       7.725   3.491  -8.674  1.00  0.00    -0.354 N 
ATOM     32  N   UNL     1       7.030   0.760  -9.533  1.00  0.00    -0.248 NA
ATOM     33  C   UNL     1       7.030  -0.925 -11.152  1.00  0.00     0.031 C 
ATOM     34  C   UNL     1       8.924   4.746 -10.059  1.00  0.00     0.029 A 
ATOM     35  C   UNL     1       8.326   3.503  -9.923  1.00  0.00     0.049 A 
ATOM     36  H   UNL     1       7.219   2.734  -8.299  1.00  0.00     0.167 HD
ATOM     37  C   UNL     1       7.719   1.208 -10.653  1.00  0.00     0.074 A 
ATOM     38  C   UNL     1       7.710   0.119 -11.610  1.00  0.00     0.031 C 
ATOM     39  C   UNL     1       8.304   2.412 -10.868  1.00  0.00     0.037 A 
BRANCH  26  40
ATOM     40  C   UNL     1       7.661   6.444  -6.213  1.00  0.00     0.058 A 
ATOM     41  C   UNL     1       8.524   6.703  -5.136  1.00  0.00     0.135 A 
ATOM     42  C   UNL     1       7.037   7.543  -6.825  1.00  0.00     0.135 A 
ATOM     43  F   UNL     1       9.142   5.691  -4.506  1.00  0.00    -0.206 F 
ATOM     44  C   UNL     1       8.729   7.995  -4.660  1.00  0.00     0.059 A 
ATOM     45  C   UNL     1       7.249   8.847  -6.385  1.00  0.00     0.059 A 
ATOM     46  F   UNL     1       6.206   7.357  -7.863  1.00  0.00    -0.206 F 
ATOM     47  C   UNL     1       8.082   9.061  -5.289  1.00  0.00     0.060 A 
BRANCH  47  48
ATOM     48  S   UNL     1       8.345  10.730  -4.650  1.00  0.00     0.124 S 
ATOM     49  O   UNL     1       7.570  10.692  -3.413  1.00  0.00    -0.237 OA
ATOM     50  O   UNL     1       9.794  10.779  -4.487  1.00  0.00    -0.237 OA
ATOM     51  O   UNL     1       7.806  11.586  -5.702  1.00  0.00    -0.744 OA
ENDBRANCH  47  48
ENDBRANCH  26  40
BRANCH  27  52
ATOM     52  C   UNL     1       5.476  -2.766  -9.455  1.00  0.00     0.058 A 
ATOM     53  C   UNL     1       6.424  -3.784  -9.623  1.00  0.00     0.135 A 
ATOM     54  C   UNL     1       4.129  -3.075  -9.707  1.00  0.00     0.135 A 
ATOM     55  F   UNL     1       7.723  -3.536  -9.397  1.00  0.00    -0.206 F 
ATOM     56  C   UNL     1       6.052  -5.064 -10.024  1.00  0.00     0.059 A 
ATOM     57  C   UNL     1       3.730  -4.353 -10.081  1.00  0.00     0.059 A 
ATOM     58  F   UNL     1       3.182  -2.139  -9.541  1.00  0.00    -0.206 F 
ATOM     59  C   UNL     1       4.701  -5.340 -10.243  1.00  0.00     0.060 A 
BRANCH  59  60
ATOM     60  S   UNL     1       4.221  -7.023 -10.688  1.00  0.00     0.124 S 
ATOM     61  O   UNL     1       4.676  -7.101 -12.071  1.00  0.00    -0.237 OA
ATOM     62  O   UNL     1       4.972  -7.821  -9.723  1.00  0.00    -0.237 OA
ATOM     63  O   UNL     1       2.774  -7.021 -10.497  1.00  0.00    -0.744 OA
ENDBRANCH  59  60
ENDBRANCH  27  52
BRANCH  39  64
ATOM     64  C   UNL     1       9.005   2.611 -12.183  1.00  0.00     0.058 A 
ATOM     65  C   UNL     1       8.293   2.777 -13.381  1.00  0.00     0.135 A 
ATOM     66  C   UNL     1      10.407   2.687 -12.237  1.00  0.00     0.135 A 
ATOM     67  F   UNL     1       6.953   2.701 -13.387  1.00  0.00    -0.206 F 
ATOM     68  C   UNL     1       8.947   2.993 -14.590  1.00  0.00     0.059 A 
ATOM     69  C   UNL     1      11.080   2.930 -13.430  1.00  0.00     0.059 A 
ATOM     70  F   UNL     1      11.135   2.541 -11.118  1.00  0.00    -0.206 F 
ATOM     71  C   UNL     1      10.341   3.072 -14.603  1.00  0.00     0.060 A 
BRANCH  71  72
ATOM     72  S   UNL     1      11.175   3.396 -16.171  1.00  0.00     0.124 S 
ATOM     73  O   UNL     1      11.032   2.113 -16.851  1.00  0.00    -0.237 OA
ATOM     74  O   UNL     1      10.390   4.496 -16.722  1.00  0.00    -0.237 OA
ATOM     75  O   UNL     1      12.534   3.744 -15.768  1.00  0.00    -0.744 OA
ENDBRANCH  71  72
ENDBRANCH  39  64
ENDBRANCH  13  14
ENDBRANCH   6   8
ENDBRANCH   3   4
ENDBRANCH   2   3
ENDBRANCH   1   2
BRANCH   1  76
ATOM     76  C   UNL     1       4.700  -0.999   4.270  1.00  0.00     0.002 C 
BRANCH  76  77
ATOM     77  C   UNL     1       6.219  -1.204   4.211  1.00  0.00     0.021 C 
BRANCH  77  78
ATOM     78  C   UNL     1       7.042  -0.194   5.004  1.00  0.00     0.116 C 
BRANCH  78  79
ATOM     79  N   UNL     1       6.684  -0.192   6.413  1.00  0.00    -0.352 N 
ATOM     80  C   UNL     1       7.484  -0.299   7.518  1.00  0.00     0.253 C 
ATOM     81  H   UNL     1       5.722  -0.099   6.600  1.00  0.00     0.163 HD
ATOM     82  O   UNL     1       6.978  -0.473   8.623  1.00  0.00    -0.269 OA
BRANCH  80  83
ATOM     83  C   UNL     1       8.955  -0.197   7.408  1.00  0.00     0.063 A 
ATOM     84  C   UNL     1       9.683  -1.258   7.972  1.00  0.00     0.016 A 
ATOM     85  C   UNL     1       9.613   0.926   6.861  1.00  0.00     0.054 A 
ATOM     86  C   UNL     1      11.073  -1.215   8.005  1.00  0.00     0.001 A 
ATOM     87  C   UNL     1      11.005   0.979   6.984  1.00  0.00     0.027 A 
ATOM     88  C   UNL     1      11.731  -0.088   7.529  1.00  0.00     0.002 A 
BRANCH  85  89
ATOM     89  N   UNL     1       8.847   1.944   6.244  1.00  0.00    -0.321 N 
ATOM     90  C   UNL     1       9.142   2.958   5.361  1.00  0.00     0.255 C 
ATOM     91  H   UNL     1       7.898   1.923   6.503  1.00  0.00     0.170 HD
ATOM     92  O   UNL     1       8.251   3.725   5.000  1.00  0.00    -0.269 OA
BRANCH  90  93
ATOM     93  C   UNL     1      10.494   3.151   4.819  1.00  0.00     0.040 A 
ATOM     94  C   UNL     1      11.148   4.339   5.136  1.00  0.00     0.016 A 
ATOM     95  C   UNL     1      11.143   2.166   4.074  1.00  0.00     0.016 A 
ATOM     96  C   UNL     1      12.505   4.476   4.842  1.00  0.00     0.027 A 
ATOM     97  C   UNL     1      12.503   2.316   3.774  1.00  0.00     0.027 A 
ATOM     98  C   UNL     1      13.220   3.444   4.213  1.00  0.00     0.052 A 
BRANCH  98  99
ATOM     99  N   UNL     1      14.641   3.499   4.112  1.00  0.00    -0.250 N 
ATOM    100  C   UNL     1      15.439   4.182   5.001  1.00  0.00     0.238 C 
ATOM    101  C   UNL     1      15.382   2.801   3.191  1.00  0.00     0.238 C 
ATOM    102  O   UNL     1      15.101   4.869   5.959  1.00  0.00    -0.274 OA
ATOM    103  C   UNL     1      16.892   3.922   4.682  1.00  0.00     0.096 C 
ATOM    104  C   UNL     1      16.851   2.951   3.503  1.00  0.00     0.096 C 
ATOM    105  O   UNL     1      14.985   2.152   2.232  1.00  0.00    -0.274 OA
ATOM    106  C   UNL     1      17.616   3.414   5.935  1.00  0.00     0.041 C 
ATOM    107  C   UNL     1      17.458   1.564   3.744  1.00  0.00     0.041 C 
ATOM    108  C   UNL     1      17.387   1.953   6.181  1.00  0.00    -0.030 C 
ATOM    109  C   UNL     1      17.308   1.092   5.159  1.00  0.00    -0.030 C 
ENDBRANCH  98  99
ENDBRANCH  90  93
ENDBRANCH  85  89
ENDBRANCH  80  83
ENDBRANCH  78  79
ENDBRANCH  77  78
ENDBRANCH  76  77
ENDBRANCH   1  76
TORSDOF 19
