REMARK SMILES CCC[NH2+][C@@]1(C(=O)NCCCCCCNC(=O)c2ccc(-c3c4nc(c(-c5c(F)cc(S(=O)(=O)[O-])cc5F)c5ccc([nH]5)c(-c5c(F)cc(S(=O)(=O)[O-])cc5F)c5nc(c(-c6c(F)cc(S(=O)(=O)[O-])cc6F)c6ccc3[nH]6)C=C5)C=C4)cc2)CC[C@@H]([NH+]2CC[NH+](C)CC2)C1
REMARK SMILES IDX 11 1 10 2 9 3 8 4 6 5 7 6 5 8 84 9 94 10 85 11 86 12 4 13
REMARK SMILES IDX 3 16 2 17 1 18 87 19 88 20 93 21 89 23 92 24 90 25 91 26
REMARK SMILES IDX 12 28 13 29 14 30 15 31 16 32 17 34 18 35 19 36 83 37 20 38
REMARK SMILES IDX 82 39 21 40 22 41 23 42 76 43 24 44 81 45 75 46 77 47 25 48
REMARK SMILES IDX 80 49 74 50 73 51 26 53 60 54 39 55 59 56 40 57 43 58 58 59
REMARK SMILES IDX 78 60 41 61 42 62 57 64 79 65 44 66 27 67 28 68 37 69 29 70
REMARK SMILES IDX 30 71 36 72 38 73 31 74 32 75 33 76 34 77 35 78 61 79 62 80
REMARK SMILES IDX 71 81 63 82 64 83 70 84 72 85 65 86 66 87 67 88 68 89 69 90
REMARK SMILES IDX 45 91 46 92 55 93 47 94 48 95 54 96 56 97 49 98 50 99 51 100
REMARK SMILES IDX 52 101 53 102
REMARK H PARENT 8 7 4 14 4 15 87 22 90 27 15 33 77 52 43 63
REMARK Flexibility Score: inf
ROOT
ATOM      1  C   UNL     1       5.512   2.631  -6.977  1.00  0.00     0.002 C 
ENDROOT
BRANCH   1   2
ATOM      2  C   UNL     1       4.046   2.717  -6.552  1.00  0.00     0.021 C 
BRANCH   2   3
ATOM      3  C   UNL     1       3.389   1.359  -6.346  1.00  0.00     0.116 C 
BRANCH   3   4
ATOM      4  N   UNL     1       3.564   0.838  -5.017  1.00  0.00    -0.351 N 
ATOM      5  C   UNL     1       2.652   0.526  -4.063  1.00  0.00     0.281 C 
ATOM      6  O   UNL     1       3.083  -0.186  -3.142  1.00  0.00    -0.268 OA
ATOM      7  H   UNL     1       4.501   0.681  -4.758  1.00  0.00     0.163 HD
BRANCH   5   8
ATOM      8  C   UNL     1       1.135   0.973  -4.087  1.00  0.00     0.181 C 
ATOM      9  C   UNL     1       0.295   0.075  -5.014  1.00  0.00     0.085 C 
ATOM     10  C   UNL     1       0.839   2.408  -4.547  1.00  0.00     0.144 C 
ATOM     11  C   UNL     1      -0.063   0.878  -6.260  1.00  0.00     0.072 C 
ATOM     12  C   UNL     1       0.099   2.365  -5.900  1.00  0.00     0.191 C 
BRANCH   8  13
ATOM     13  N   UNL     1       0.599   0.730  -2.699  1.00  0.00    -0.333 N 
ATOM     14  H   UNL     1      -0.415   0.842  -2.729  1.00  0.00     0.347 HD
ATOM     15  H   UNL     1       0.898  -0.210  -2.441  1.00  0.00     0.347 HD
BRANCH  13  16
ATOM     16  C   UNL     1       1.123   1.625  -1.660  1.00  0.00     0.261 C 
BRANCH  16  17
ATOM     17  C   UNL     1       0.569   1.243  -0.281  1.00  0.00     0.058 C 
ATOM     18  C   UNL     1       1.049  -0.112   0.218  1.00  0.00     0.010 C 
ENDBRANCH  16  17
ENDBRANCH  13  16
ENDBRANCH   8  13
BRANCH  12  19
ATOM     19  N   UNL     1      -1.104   3.186  -6.098  1.00  0.00    -0.323 N 
ATOM     20  C   UNL     1      -0.924   4.627  -5.841  1.00  0.00     0.324 C 
ATOM     21  C   UNL     1      -2.346   2.741  -5.454  1.00  0.00     0.324 C 
ATOM     22  H   UNL     1      -1.230   3.031  -7.098  1.00  0.00     0.348 HD
ATOM     23  C   UNL     1      -1.100   5.089  -4.371  1.00  0.00     0.324 C 
ATOM     24  C   UNL     1      -2.459   3.076  -3.959  1.00  0.00     0.324 C 
ATOM     25  N   UNL     1      -2.244   4.500  -3.648  1.00  0.00    -0.328 N 
ATOM     26  C   UNL     1      -2.089   4.676  -2.205  1.00  0.00     0.333 C 
ATOM     27  H   UNL     1      -3.071   5.004  -3.970  1.00  0.00     0.348 HD
ENDBRANCH  12  19
ENDBRANCH   5   8
ENDBRANCH   3   4
ENDBRANCH   2   3
ENDBRANCH   1   2
BRANCH   1  28
ATOM     28  C   UNL     1       5.776   1.771  -8.220  1.00  0.00     0.002 C 
BRANCH  28  29
ATOM     29  C   UNL     1       4.921   2.113  -9.445  1.00  0.00     0.021 C 
BRANCH  29  30
ATOM     30  C   UNL     1       5.071   3.550  -9.936  1.00  0.00     0.116 C 
BRANCH  30  31
ATOM     31  N   UNL     1       6.458   3.865 -10.245  1.00  0.00    -0.352 N 
ATOM     32  C   UNL     1       7.021   4.218 -11.441  1.00  0.00     0.251 C 
ATOM     33  H   UNL     1       7.081   3.816  -9.485  1.00  0.00     0.163 HD
ATOM     34  O   UNL     1       8.246   4.180 -11.579  1.00  0.00    -0.269 OA
BRANCH  32  35
ATOM     35  C   UNL     1       6.160   4.643 -12.561  1.00  0.00     0.039 A 
ATOM     36  C   UNL     1       6.418   4.157 -13.844  1.00  0.00     0.014 A 
ATOM     37  C   UNL     1       5.107   5.537 -12.341  1.00  0.00     0.014 A 
ATOM     38  C   UNL     1       5.583   4.523 -14.900  1.00  0.00     0.010 A 
ATOM     39  C   UNL     1       4.236   5.846 -13.380  1.00  0.00     0.010 A 
ATOM     40  C   UNL     1       4.467   5.345 -14.670  1.00  0.00    -0.014 A 
BRANCH  40  41
ATOM     41  C   UNL     1       3.522   5.687 -15.762  1.00  0.00     0.031 A 
ATOM     42  C   UNL     1       3.368   7.115 -16.206  1.00  0.00     0.074 A 
ATOM     43  C   UNL     1       2.755   4.719 -16.300  1.00  0.00     0.049 A 
ATOM     44  N   UNL     1       2.539   7.622 -17.081  1.00  0.00    -0.248 NA
ATOM     45  C   UNL     1       4.243   8.109 -15.562  1.00  0.00     0.031 C 
ATOM     46  C   UNL     1       2.787   3.305 -15.918  1.00  0.00     0.029 A 
ATOM     47  N   UNL     1       1.790   4.777 -17.273  1.00  0.00    -0.354 N 
ATOM     48  C   UNL     1       2.783   8.990 -17.087  1.00  0.00     0.074 A 
ATOM     49  C   UNL     1       3.801   9.242 -16.089  1.00  0.00     0.031 C 
ATOM     50  C   UNL     1       1.898   2.628 -16.661  1.00  0.00     0.029 A 
ATOM     51  C   UNL     1       1.204   3.562 -17.542  1.00  0.00     0.049 A 
ATOM     52  H   UNL     1       1.541   5.609 -17.736  1.00  0.00     0.167 HD
ATOM     53  C   UNL     1       2.225   9.945 -17.868  1.00  0.00     0.037 A 
ATOM     54  C   UNL     1       0.210   3.241 -18.393  1.00  0.00     0.037 A 
ATOM     55  C   UNL     1       1.227   9.680 -18.871  1.00  0.00     0.049 A 
ATOM     56  C   UNL     1      -0.405   4.322 -19.239  1.00  0.00     0.074 A 
ATOM     57  C   UNL     1       0.637  10.568 -19.753  1.00  0.00     0.029 A 
ATOM     58  N   UNL     1       0.667   8.435 -19.123  1.00  0.00    -0.354 N 
ATOM     59  N   UNL     1      -0.118   5.602 -19.276  1.00  0.00    -0.248 NA
ATOM     60  C   UNL     1      -1.475   3.917 -20.161  1.00  0.00     0.031 C 
ATOM     61  C   UNL     1      -0.313   9.870 -20.506  1.00  0.00     0.029 A 
ATOM     62  C   UNL     1      -0.278   8.536 -20.131  1.00  0.00     0.049 A 
ATOM     63  H   UNL     1       0.907   7.603 -18.655  1.00  0.00     0.167 HD
ATOM     64  C   UNL     1      -0.954   6.150 -20.242  1.00  0.00     0.074 A 
ATOM     65  C   UNL     1      -1.747   5.061 -20.774  1.00  0.00     0.031 C 
ATOM     66  C   UNL     1      -1.055   7.439 -20.653  1.00  0.00     0.037 A 
BRANCH  53  67
ATOM     67  C   UNL     1       2.685  11.365 -17.674  1.00  0.00     0.058 A 
ATOM     68  C   UNL     1       3.973  11.780 -18.049  1.00  0.00     0.135 A 
ATOM     69  C   UNL     1       1.817  12.332 -17.142  1.00  0.00     0.135 A 
ATOM     70  F   UNL     1       4.850  10.895 -18.549  1.00  0.00    -0.206 F 
ATOM     71  C   UNL     1       4.394  13.095 -17.877  1.00  0.00     0.059 A 
ATOM     72  C   UNL     1       2.206  13.660 -16.988  1.00  0.00     0.059 A 
ATOM     73  F   UNL     1       0.574  11.991 -16.765  1.00  0.00    -0.206 F 
ATOM     74  C   UNL     1       3.502  14.028 -17.346  1.00  0.00     0.060 A 
BRANCH  74  75
ATOM     75  S   UNL     1       4.062  15.731 -17.137  1.00  0.00     0.124 S 
ATOM     76  O   UNL     1       4.978  15.599 -16.007  1.00  0.00    -0.237 OA
ATOM     77  O   UNL     1       4.684  16.016 -18.426  1.00  0.00    -0.237 OA
ATOM     78  O   UNL     1       2.830  16.464 -16.862  1.00  0.00    -0.744 OA
ENDBRANCH  74  75
ENDBRANCH  53  67
BRANCH  54  79
ATOM     79  C   UNL     1      -0.250   1.830 -18.498  1.00  0.00     0.058 A 
ATOM     80  C   UNL     1       0.013   1.071 -19.647  1.00  0.00     0.135 A 
ATOM     81  C   UNL     1      -0.946   1.209 -17.449  1.00  0.00     0.135 A 
ATOM     82  F   UNL     1       0.670   1.622 -20.679  1.00  0.00    -0.206 F 
ATOM     83  C   UNL     1      -0.411  -0.249 -19.762  1.00  0.00     0.059 A 
ATOM     84  C   UNL     1      -1.357  -0.118 -17.529  1.00  0.00     0.059 A 
ATOM     85  F   UNL     1      -1.207   1.886 -16.320  1.00  0.00    -0.206 F 
ATOM     86  C   UNL     1      -1.093  -0.836 -18.695  1.00  0.00     0.060 A 
BRANCH  86  87
ATOM     87  S   UNL     1      -1.597  -2.564 -18.836  1.00  0.00     0.124 S 
ATOM     88  O   UNL     1      -2.700  -2.472 -19.785  1.00  0.00    -0.237 OA
ATOM     89  O   UNL     1      -0.379  -3.199 -19.330  1.00  0.00    -0.237 OA
ATOM     90  O   UNL     1      -1.968  -2.918 -17.468  1.00  0.00    -0.744 OA
ENDBRANCH  86  87
ENDBRANCH  54  79
BRANCH  66  91
ATOM     91  C   UNL     1      -2.036   7.741 -21.752  1.00  0.00     0.058 A 
ATOM     92  C   UNL     1      -3.421   7.740 -21.525  1.00  0.00     0.135 A 
ATOM     93  C   UNL     1      -1.580   8.098 -23.031  1.00  0.00     0.135 A 
ATOM     94  F   UNL     1      -3.909   7.398 -20.322  1.00  0.00    -0.206 F 
ATOM     95  C   UNL     1      -4.321   8.064 -22.535  1.00  0.00     0.059 A 
ATOM     96  C   UNL     1      -2.461   8.454 -24.047  1.00  0.00     0.059 A 
ATOM     97  F   UNL     1      -0.264   8.124 -23.298  1.00  0.00    -0.206 F 
ATOM     98  C   UNL     1      -3.831   8.424 -23.792  1.00  0.00     0.060 A 
BRANCH  98  99
ATOM     99  S   UNL     1      -5.009   8.887 -25.079  1.00  0.00     0.124 S 
ATOM    100  O   UNL     1      -5.582   7.592 -25.432  1.00  0.00    -0.237 OA
ATOM    101  O   UNL     1      -5.899   9.803 -24.372  1.00  0.00    -0.237 OA
ATOM    102  O   UNL     1      -4.170   9.503 -26.102  1.00  0.00    -0.744 OA
ENDBRANCH  98  99
ENDBRANCH  66  91
ENDBRANCH  40  41
ENDBRANCH  32  35
ENDBRANCH  30  31
ENDBRANCH  29  30
ENDBRANCH  28  29
ENDBRANCH   1  28
TORSDOF 20
