REMARK SMILES CC[NH+]1CCC2(CC1)OC[C@@H](C(=O)NCCCCCCNC(=O)c1ccc(-c3c4nc(c(-c5c(F)cc(S(=O)(=O)[O-])cc5F)c5ccc([nH]5)c(-c5c(F)cc(S(=O)(=O)[O-])cc5F)c5nc(c(-c6c(F)cc(S(=O)(=O)[O-])cc6F)c6ccc3[nH]6)C=C5)C=C4)cc1)N2C(=O)c1ccc(Cl)c([N+](=O)[O-])c1
REMARK SMILES IDX 17 1 16 2 15 3 14 4 12 5 13 6 11 8 3 9 4 10 8 11 5 13 7 14
REMARK SMILES IDX 6 15 9 16 90 17 10 18 2 19 1 20 91 21 92 22 93 23 94 24
REMARK SMILES IDX 102 25 95 26 98 27 96 28 97 29 99 30 100 31 101 32 18 33
REMARK SMILES IDX 19 34 20 35 21 36 22 37 23 39 24 40 25 41 89 42 26 43 88 44
REMARK SMILES IDX 27 45 28 46 29 47 82 48 30 49 87 50 81 51 83 52 31 53 86 54
REMARK SMILES IDX 80 55 79 56 32 58 66 59 45 60 65 61 46 62 49 63 64 64 84 65
REMARK SMILES IDX 47 66 48 67 63 69 85 70 50 71 33 72 34 73 43 74 35 75 36 76
REMARK SMILES IDX 42 77 44 78 37 79 38 80 39 81 40 82 41 83 67 84 68 85 77 86
REMARK SMILES IDX 69 87 70 88 76 89 78 90 71 91 72 92 73 93 74 94 75 95 51 96
REMARK SMILES IDX 52 97 61 98 53 99 54 100 60 101 62 102 55 103 56 104 57 105
REMARK SMILES IDX 58 106 59 107
REMARK H PARENT 14 7 3 12 21 38 83 57 49 68
REMARK Flexibility Score: inf
ROOT
ATOM      1  C   UNL     1       2.808  -6.207   7.862  1.00  0.00     0.002 C 
ENDROOT
BRANCH   1   2
ATOM      2  C   UNL     1       2.315  -5.428   6.640  1.00  0.00     0.021 C 
BRANCH   2   3
ATOM      3  C   UNL     1       0.854  -5.672   6.283  1.00  0.00     0.116 C 
BRANCH   3   4
ATOM      4  N   UNL     1      -0.014  -5.146   7.310  1.00  0.00    -0.354 N 
ATOM      5  C   UNL     1      -0.863  -4.085   7.278  1.00  0.00     0.245 C 
ATOM      6  O   UNL     1      -1.575  -3.910   8.276  1.00  0.00    -0.273 OA
ATOM      7  H   UNL     1       0.013  -5.632   8.166  1.00  0.00     0.163 HD
BRANCH   5   8
ATOM      8  C   UNL     1      -1.146  -3.296   5.987  1.00  0.00     0.203 C 
ATOM      9  N   UNL     1       0.530  -1.366   1.533  1.00  0.00    -0.335 N 
ATOM     10  C   UNL     1      -0.500  -0.875   2.436  1.00  0.00     0.267 C 
ATOM     11  C   UNL     1       1.221  -2.600   1.871  1.00  0.00     0.267 C 
ATOM     12  H   UNL     1       1.276  -0.696   1.723  1.00  0.00     0.348 HD
ATOM     13  C   UNL     1      -1.350  -1.946   3.083  1.00  0.00     0.120 C 
ATOM     14  C   UNL     1       0.442  -3.645   2.646  1.00  0.00     0.120 C 
ATOM     15  C   UNL     1      -0.535  -3.102   3.684  1.00  0.00     0.155 C 
ATOM     16  O   UNL     1      -1.500  -4.184   3.822  1.00  0.00    -0.352 OA
ATOM     17  N   UNL     1      -0.077  -2.884   5.074  1.00  0.00    -0.295 N 
ATOM     18  C   UNL     1      -2.050  -4.172   5.139  1.00  0.00     0.198 C 
BRANCH   9  19
ATOM     19  C   UNL     1       0.203  -1.218   0.118  1.00  0.00     0.258 C 
ATOM     20  C   UNL     1       0.841   0.067  -0.392  1.00  0.00     0.071 C 
ENDBRANCH   9  19
BRANCH  17  21
ATOM     21  C   UNL     1       0.927  -2.107   5.647  1.00  0.00     0.257 C 
ATOM     22  O   UNL     1       0.946  -1.836   6.848  1.00  0.00    -0.269 OA
BRANCH  21  23
ATOM     23  C   UNL     1       2.071  -1.581   4.888  1.00  0.00     0.047 A 
ATOM     24  C   UNL     1       3.228  -2.339   4.703  1.00  0.00     0.016 A 
ATOM     25  C   UNL     1       2.048  -0.255   4.456  1.00  0.00     0.101 A 
ATOM     26  C   UNL     1       4.294  -1.812   3.963  1.00  0.00     0.028 A 
ATOM     27  C   UNL     1       3.065   0.237   3.611  1.00  0.00     0.288 A 
ATOM     28  C   UNL     1       4.206  -0.541   3.371  1.00  0.00     0.118 A 
ATOM     29  Cl  UNL     1       5.561  -0.078   2.406  1.00  0.00    -0.077 Cl
BRANCH  27  30
ATOM     30  N   UNL     1       2.810   1.526   2.950  1.00  0.00     0.064 N 
ATOM     31  O   UNL     1       3.529   1.883   2.012  1.00  0.00    -0.258 OA
ATOM     32  O   UNL     1       1.840   2.186   3.357  1.00  0.00    -0.258 OA
ENDBRANCH  27  30
ENDBRANCH  21  23
ENDBRANCH  17  21
ENDBRANCH   5   8
ENDBRANCH   3   4
ENDBRANCH   2   3
ENDBRANCH   1   2
BRANCH   1  33
ATOM     33  C   UNL     1       2.624  -7.723   7.780  1.00  0.00     0.002 C 
BRANCH  33  34
ATOM     34  C   UNL     1       3.213  -8.379   6.530  1.00  0.00     0.021 C 
BRANCH  34  35
ATOM     35  C   UNL     1       4.696  -8.102   6.306  1.00  0.00     0.116 C 
BRANCH  35  36
ATOM     36  N   UNL     1       5.515  -8.593   7.402  1.00  0.00    -0.352 N 
ATOM     37  C   UNL     1       6.572  -9.472   7.369  1.00  0.00     0.251 C 
ATOM     38  H   UNL     1       5.280  -8.248   8.294  1.00  0.00     0.163 HD
ATOM     39  O   UNL     1       7.022  -9.935   8.406  1.00  0.00    -0.269 OA
BRANCH  37  40
ATOM     40  C   UNL     1       7.140  -9.866   6.062  1.00  0.00     0.039 A 
ATOM     41  C   UNL     1       7.361 -11.219   5.800  1.00  0.00     0.014 A 
ATOM     42  C   UNL     1       7.431  -8.900   5.094  1.00  0.00     0.014 A 
ATOM     43  C   UNL     1       7.807 -11.611   4.536  1.00  0.00     0.010 A 
ATOM     44  C   UNL     1       7.806  -9.298   3.814  1.00  0.00     0.010 A 
ATOM     45  C   UNL     1       7.993 -10.658   3.521  1.00  0.00    -0.014 A 
BRANCH  45  46
ATOM     46  C   UNL     1       8.361 -11.059   2.139  1.00  0.00     0.031 A 
ATOM     47  C   UNL     1       9.666 -10.609   1.544  1.00  0.00     0.074 A 
ATOM     48  C   UNL     1       7.483 -11.762   1.395  1.00  0.00     0.049 A 
ATOM     49  N   UNL     1      10.117 -10.771   0.327  1.00  0.00    -0.248 NA
ATOM     50  C   UNL     1      10.572  -9.854   2.425  1.00  0.00     0.031 C 
ATOM     51  C   UNL     1       6.168 -12.222   1.849  1.00  0.00     0.029 A 
ATOM     52  N   UNL     1       7.554 -12.199   0.096  1.00  0.00    -0.354 N 
ATOM     53  C   UNL     1      11.350 -10.130   0.292  1.00  0.00     0.074 A 
ATOM     54  C   UNL     1      11.553  -9.533   1.594  1.00  0.00     0.031 C 
ATOM     55  C   UNL     1       5.566 -12.888   0.852  1.00  0.00     0.029 A 
ATOM     56  C   UNL     1       6.427 -12.864  -0.327  1.00  0.00     0.049 A 
ATOM     57  H   UNL     1       8.339 -12.050  -0.479  1.00  0.00     0.167 HD
ATOM     58  C   UNL     1      12.241 -10.065  -0.727  1.00  0.00     0.037 A 
ATOM     59  C   UNL     1       6.113 -13.380  -1.531  1.00  0.00     0.037 A 
ATOM     60  C   UNL     1      12.038 -10.680  -2.013  1.00  0.00     0.049 A 
ATOM     61  C   UNL     1       7.108 -13.273  -2.655  1.00  0.00     0.074 A 
ATOM     62  C   UNL     1      12.904 -10.720  -3.092  1.00  0.00     0.029 A 
ATOM     63  N   UNL     1      10.888 -11.354  -2.399  1.00  0.00    -0.354 N 
ATOM     64  N   UNL     1       8.297 -12.719  -2.652  1.00  0.00    -0.248 NA
ATOM     65  C   UNL     1       6.721 -13.859  -3.946  1.00  0.00     0.031 C 
ATOM     66  C   UNL     1      12.258 -11.370  -4.147  1.00  0.00     0.029 A 
ATOM     67  C   UNL     1      11.011 -11.787  -3.709  1.00  0.00     0.049 A 
ATOM     68  H   UNL     1      10.101 -11.502  -1.827  1.00  0.00     0.167 HD
ATOM     69  C   UNL     1       8.811 -12.914  -3.929  1.00  0.00     0.074 A 
ATOM     70  C   UNL     1       7.808 -13.646  -4.675  1.00  0.00     0.031 C 
ATOM     71  C   UNL     1      10.005 -12.522  -4.438  1.00  0.00     0.037 A 
BRANCH  58  72
ATOM     72  C   UNL     1      13.517  -9.302  -0.494  1.00  0.00     0.058 A 
ATOM     73  C   UNL     1      14.512  -9.775   0.377  1.00  0.00     0.135 A 
ATOM     74  C   UNL     1      13.767  -8.104  -1.183  1.00  0.00     0.135 A 
ATOM     75  F   UNL     1      14.320 -10.908   1.072  1.00  0.00    -0.206 F 
ATOM     76  C   UNL     1      15.696  -9.074   0.579  1.00  0.00     0.059 A 
ATOM     77  C   UNL     1      14.958  -7.402  -1.020  1.00  0.00     0.059 A 
ATOM     78  F   UNL     1      12.851  -7.605  -2.028  1.00  0.00    -0.206 F 
ATOM     79  C   UNL     1      15.910  -7.888  -0.125  1.00  0.00     0.060 A 
BRANCH  79  80
ATOM     80  S   UNL     1      17.455  -6.994   0.145  1.00  0.00     0.124 S 
ATOM     81  O   UNL     1      17.252  -6.465   1.490  1.00  0.00    -0.237 OA
ATOM     82  O   UNL     1      18.452  -8.053   0.025  1.00  0.00    -0.237 OA
ATOM     83  O   UNL     1      17.466  -6.001  -0.924  1.00  0.00    -0.744 OA
ENDBRANCH  79  80
ENDBRANCH  58  72
BRANCH  59  84
ATOM     84  C   UNL     1       4.800 -14.050  -1.734  1.00  0.00     0.058 A 
ATOM     85  C   UNL     1       4.720 -15.436  -1.935  1.00  0.00     0.135 A 
ATOM     86  C   UNL     1       3.600 -13.322  -1.717  1.00  0.00     0.135 A 
ATOM     87  F   UNL     1       5.839 -16.175  -1.966  1.00  0.00    -0.206 F 
ATOM     88  C   UNL     1       3.499 -16.076  -2.127  1.00  0.00     0.059 A 
ATOM     89  C   UNL     1       2.365 -13.943  -1.879  1.00  0.00     0.059 A 
ATOM     90  F   UNL     1       3.619 -11.996  -1.512  1.00  0.00    -0.206 F 
ATOM     91  C   UNL     1       2.326 -15.320  -2.095  1.00  0.00     0.060 A 
BRANCH  91  92
ATOM     92  S   UNL     1       0.744 -16.167  -2.297  1.00  0.00     0.124 S 
ATOM     93  O   UNL     1       0.772 -16.506  -3.715  1.00  0.00    -0.237 OA
ATOM     94  O   UNL     1       0.876 -17.285  -1.369  1.00  0.00    -0.237 OA
ATOM     95  O   UNL     1      -0.231 -15.152  -1.909  1.00  0.00    -0.744 OA
ENDBRANCH  91  92
ENDBRANCH  59  84
BRANCH  71  96
ATOM     96  C   UNL     1      10.315 -12.899  -5.861  1.00  0.00     0.058 A 
ATOM     97  C   UNL     1       9.684 -12.270  -6.945  1.00  0.00     0.135 A 
ATOM     98  C   UNL     1      11.309 -13.850  -6.143  1.00  0.00     0.135 A 
ATOM     99  F   UNL     1       8.720 -11.360  -6.731  1.00  0.00    -0.206 F 
ATOM    100  C   UNL     1      10.018 -12.580  -8.259  1.00  0.00     0.059 A 
ATOM    101  C   UNL     1      11.680 -14.155  -7.449  1.00  0.00     0.059 A 
ATOM    102  F   UNL     1      11.950 -14.476  -5.143  1.00  0.00    -0.206 F 
ATOM    103  C   UNL     1      11.023 -13.518  -8.501  1.00  0.00     0.060 A 
BRANCH 103 104
ATOM    104  S   UNL     1      11.484 -13.869 -10.211  1.00  0.00     0.124 S 
ATOM    105  O   UNL     1      10.329 -14.628 -10.678  1.00  0.00    -0.237 OA
ATOM    106  O   UNL     1      11.633 -12.530 -10.773  1.00  0.00    -0.237 OA
ATOM    107  O   UNL     1      12.723 -14.629 -10.081  1.00  0.00    -0.744 OA
ENDBRANCH 103 104
ENDBRANCH  71  96
ENDBRANCH  45  46
ENDBRANCH  37  40
ENDBRANCH  35  36
ENDBRANCH  34  35
ENDBRANCH  33  34
ENDBRANCH   1  33
TORSDOF 20
