REMARK SMILES COc1cc(/C=C2/S/C(=[NH+]\C(C)=O)NC2=O)cc(Br)c1OCC(=O)NCCCCCCNC(=O)c1ccc(-c2c3nc(c(-c4c(F)cc(S(=O)(=O)[O-])cc4F)c4ccc([nH]4)c(-c4c(F)cc(S(=O)(=O)[O-])cc4F)c4nc(c(-c5c(F)cc(S(=O)(=O)[O-])cc5F)c5ccc2[nH]5)C=C4)C=C3)cc1
REMARK SMILES IDX 28 1 27 2 26 3 25 4 23 5 24 6 22 8 21 9 20 10 3 11 4 12 5 13
REMARK SMILES IDX 18 14 17 15 19 16 2 17 1 18 6 19 7 20 8 21 15 22 9 23 14 24
REMARK SMILES IDX 16 25 10 26 11 28 12 30 13 31 29 32 30 33 31 34 32 35 33 36
REMARK SMILES IDX 34 38 35 39 36 40 100 41 37 42 99 43 38 44 39 45 40 46 93 47
REMARK SMILES IDX 41 48 98 49 92 50 94 51 42 52 97 53 91 54 90 55 43 57 77 58
REMARK SMILES IDX 56 59 76 60 57 61 60 62 75 63 95 64 58 65 59 66 74 68 96 69
REMARK SMILES IDX 61 70 44 71 45 72 54 73 46 74 47 75 53 76 55 77 48 78 49 79
REMARK SMILES IDX 50 80 51 81 52 82 78 83 79 84 88 85 80 86 81 87 87 88 89 89
REMARK SMILES IDX 82 90 83 91 84 92 85 93 86 94 62 95 63 96 72 97 64 98 65 99
REMARK SMILES IDX 71 100 73 101 66 102 67 103 68 104 69 105 70 106
REMARK H PARENT 25 7 14 27 10 29 32 37 94 56 60 67
REMARK Flexibility Score: inf
ROOT
ATOM      1  C   UNL     1      -2.399  -1.421  -3.892  1.00  0.00     0.002 C 
ENDROOT
BRANCH   1   2
ATOM      2  C   UNL     1      -2.107  -1.277  -2.393  1.00  0.00     0.021 C 
BRANCH   2   3
ATOM      3  C   UNL     1      -3.116  -1.956  -1.470  1.00  0.00     0.116 C 
BRANCH   3   4
ATOM      4  N   UNL     1      -3.199  -3.378  -1.729  1.00  0.00    -0.353 N 
ATOM      5  C   UNL     1      -2.998  -4.415  -0.869  1.00  0.00     0.257 C 
ATOM      6  O   UNL     1      -3.179  -5.560  -1.288  1.00  0.00    -0.271 OA
ATOM      7  H   UNL     1      -3.433  -3.630  -2.652  1.00  0.00     0.163 HD
BRANCH   5   8
ATOM      8  C   UNL     1      -2.649  -4.130   0.601  1.00  0.00     0.329 C 
BRANCH   8   9
ATOM      9  O   UNL     1      -1.467  -3.454   0.980  1.00  0.00    -0.479 OA
BRANCH   9  10
ATOM     10  C   UNL     1      -0.256  -3.772   0.424  1.00  0.00     0.176 A 
ATOM     11  C   UNL     1       0.601  -2.658   0.232  1.00  0.00     0.162 A 
ATOM     12  C   UNL     1       1.895  -2.828  -0.281  1.00  0.00     0.058 A 
ATOM     13  C   UNL     1       2.347  -4.095  -0.638  1.00  0.00    -0.019 A 
ATOM     14  C   UNL     1       0.238  -5.051   0.131  1.00  0.00     0.064 A 
ATOM     15  C   UNL     1       1.520  -5.200  -0.422  1.00  0.00     0.028 A 
ATOM     16  Br  UNL     1      -0.620  -6.689   0.569  1.00  0.00    -0.047 Br
BRANCH  11  17
ATOM     17  O   UNL     1       0.101  -1.431   0.613  1.00  0.00    -0.493 OA
ATOM     18  C   UNL     1       0.744  -0.276   0.085  1.00  0.00     0.278 C 
ENDBRANCH  11  17
BRANCH  13  19
ATOM     19  C   UNL     1       3.689  -4.264  -1.204  1.00  0.00     0.032 C 
ATOM     20  C   UNL     1       3.932  -4.599  -2.479  1.00  0.00     0.110 C 
ATOM     21  S   UNL     1       5.514  -4.941  -3.105  1.00  0.00     0.007 SA
ATOM     22  C   UNL     1       2.926  -4.830  -3.554  1.00  0.00     0.346 C 
ATOM     23  C   UNL     1       4.875  -5.697  -4.533  1.00  0.00     0.324 C 
ATOM     24  N   UNL     1       3.538  -5.463  -4.599  1.00  0.00    -0.199 N 
ATOM     25  O   UNL     1       1.751  -4.523  -3.531  1.00  0.00    -0.240 OA
ATOM     26  N   UNL     1       5.397  -6.390  -5.473  1.00  0.00    -0.204 N 
ATOM     27  H   UNL     1       3.019  -5.745  -5.387  1.00  0.00     0.316 HD
ATOM     28  C   UNL     1       6.703  -6.740  -5.680  1.00  0.00     0.304 C 
ATOM     29  H   UNL     1       4.763  -6.723  -6.149  1.00  0.00     0.316 HD
ATOM     30  C   UNL     1       7.709  -6.870  -4.570  1.00  0.00     0.144 C 
ATOM     31  O   UNL     1       7.078  -7.037  -6.816  1.00  0.00    -0.247 OA
ENDBRANCH  13  19
ENDBRANCH   9  10
ENDBRANCH   8   9
ENDBRANCH   5   8
ENDBRANCH   3   4
ENDBRANCH   2   3
ENDBRANCH   1   2
BRANCH   1  32
ATOM     32  C   UNL     1      -3.799  -0.989  -4.340  1.00  0.00     0.002 C 
BRANCH  32  33
ATOM     33  C   UNL     1      -4.194   0.438  -3.960  1.00  0.00     0.021 C 
BRANCH  33  34
ATOM     34  C   UNL     1      -3.257   1.522  -4.482  1.00  0.00     0.116 C 
BRANCH  34  35
ATOM     35  N   UNL     1      -3.232   1.578  -5.934  1.00  0.00    -0.352 N 
ATOM     36  C   UNL     1      -3.385   2.663  -6.762  1.00  0.00     0.251 C 
ATOM     37  H   UNL     1      -3.083   0.717  -6.388  1.00  0.00     0.163 HD
ATOM     38  O   UNL     1      -3.517   2.496  -7.971  1.00  0.00    -0.269 OA
BRANCH  36  39
ATOM     39  C   UNL     1      -3.412   4.029  -6.193  1.00  0.00     0.039 A 
ATOM     40  C   UNL     1      -4.364   4.938  -6.660  1.00  0.00     0.014 A 
ATOM     41  C   UNL     1      -2.499   4.415  -5.207  1.00  0.00     0.014 A 
ATOM     42  C   UNL     1      -4.433   6.216  -6.101  1.00  0.00     0.010 A 
ATOM     43  C   UNL     1      -2.623   5.659  -4.595  1.00  0.00     0.010 A 
ATOM     44  C   UNL     1      -3.584   6.578  -5.041  1.00  0.00    -0.014 A 
BRANCH  44  45
ATOM     45  C   UNL     1      -3.683   7.914  -4.397  1.00  0.00     0.031 A 
ATOM     46  C   UNL     1      -2.520   8.870  -4.455  1.00  0.00     0.074 A 
ATOM     47  C   UNL     1      -4.797   8.246  -3.715  1.00  0.00     0.049 A 
ATOM     48  N   UNL     1      -2.396  10.053  -3.912  1.00  0.00    -0.248 NA
ATOM     49  C   UNL     1      -1.330   8.426  -5.199  1.00  0.00     0.031 C 
ATOM     50  C   UNL     1      -5.972   7.388  -3.546  1.00  0.00     0.029 A 
ATOM     51  N   UNL     1      -5.123   9.390  -3.030  1.00  0.00    -0.354 N 
ATOM     52  C   UNL     1      -1.116  10.489  -4.237  1.00  0.00     0.074 A 
ATOM     53  C   UNL     1      -0.481   9.418  -4.973  1.00  0.00     0.031 C 
ATOM     54  C   UNL     1      -6.898   8.044  -2.829  1.00  0.00     0.029 A 
ATOM     55  C   UNL     1      -6.370   9.351  -2.450  1.00  0.00     0.049 A 
ATOM     56  H   UNL     1      -4.521  10.166  -2.960  1.00  0.00     0.167 HD
ATOM     57  C   UNL     1      -0.532  11.681  -3.968  1.00  0.00     0.037 A 
ATOM     58  C   UNL     1      -7.013  10.262  -1.692  1.00  0.00     0.037 A 
ATOM     59  C   UNL     1      -1.180  12.750  -3.252  1.00  0.00     0.049 A 
ATOM     60  C   UNL     1      -6.342  11.577  -1.402  1.00  0.00     0.074 A 
ATOM     61  C   UNL     1      -0.695  14.016  -2.975  1.00  0.00     0.029 A 
ATOM     62  N   UNL     1      -2.450  12.679  -2.697  1.00  0.00    -0.354 N 
ATOM     63  N   UNL     1      -5.155  11.997  -1.772  1.00  0.00    -0.248 NA
ATOM     64  C   UNL     1      -7.098  12.548  -0.599  1.00  0.00     0.031 C 
ATOM     65  C   UNL     1      -1.648  14.691  -2.206  1.00  0.00     0.029 A 
ATOM     66  C   UNL     1      -2.755  13.870  -2.059  1.00  0.00     0.049 A 
ATOM     67  H   UNL     1      -3.046  11.897  -2.749  1.00  0.00     0.167 HD
ATOM     68  C   UNL     1      -5.038  13.292  -1.278  1.00  0.00     0.074 A 
ATOM     69  C   UNL     1      -6.277  13.589  -0.590  1.00  0.00     0.031 C 
ATOM     70  C   UNL     1      -3.999  14.158  -1.388  1.00  0.00     0.037 A 
BRANCH  57  71
ATOM     71  C   UNL     1       0.878  11.897  -4.450  1.00  0.00     0.058 A 
ATOM     72  C   UNL     1       1.184  12.015  -5.816  1.00  0.00     0.135 A 
ATOM     73  C   UNL     1       1.933  12.030  -3.532  1.00  0.00     0.135 A 
ATOM     74  F   UNL     1       0.218  11.882  -6.739  1.00  0.00    -0.206 F 
ATOM     75  C   UNL     1       2.486  12.226  -6.255  1.00  0.00     0.059 A 
ATOM     76  C   UNL     1       3.239  12.274  -3.948  1.00  0.00     0.059 A 
ATOM     77  F   UNL     1       1.700  11.926  -2.214  1.00  0.00    -0.206 F 
ATOM     78  C   UNL     1       3.508  12.356  -5.313  1.00  0.00     0.060 A 
BRANCH  78  79
ATOM     79  S   UNL     1       5.191  12.637  -5.901  1.00  0.00     0.124 S 
ATOM     80  O   UNL     1       5.521  11.335  -6.473  1.00  0.00    -0.237 OA
ATOM     81  O   UNL     1       5.008  13.722  -6.860  1.00  0.00    -0.237 OA
ATOM     82  O   UNL     1       5.921  12.992  -4.688  1.00  0.00    -0.744 OA
ENDBRANCH  78  79
ENDBRANCH  57  71
BRANCH  58  83
ATOM     83  C   UNL     1      -8.377   9.968  -1.174  1.00  0.00     0.058 A 
ATOM     84  C   UNL     1      -9.499  10.661  -1.652  1.00  0.00     0.135 A 
ATOM     85  C   UNL     1      -8.588   8.983  -0.196  1.00  0.00     0.135 A 
ATOM     86  F   UNL     1      -9.350  11.616  -2.583  1.00  0.00    -0.206 F 
ATOM     87  C   UNL     1     -10.778  10.405  -1.167  1.00  0.00     0.059 A 
ATOM     88  C   UNL     1      -9.861   8.688   0.284  1.00  0.00     0.059 A 
ATOM     89  F   UNL     1      -7.552   8.278   0.284  1.00  0.00    -0.206 F 
ATOM     90  C   UNL     1     -10.948   9.413  -0.200  1.00  0.00     0.060 A 
BRANCH  90  91
ATOM     91  S   UNL     1     -12.617   9.059   0.392  1.00  0.00     0.124 S 
ATOM     92  O   UNL     1     -12.902  10.243   1.195  1.00  0.00    -0.237 OA
ATOM     93  O   UNL     1     -13.364   8.938  -0.856  1.00  0.00    -0.237 OA
ATOM     94  O   UNL     1     -12.452   7.815   1.137  1.00  0.00    -0.744 OA
ENDBRANCH  90  91
ENDBRANCH  58  83
BRANCH  70  95
ATOM     95  C   UNL     1      -4.172  15.531  -0.796  1.00  0.00     0.058 A 
ATOM     96  C   UNL     1      -4.191  15.747   0.590  1.00  0.00     0.135 A 
ATOM     97  C   UNL     1      -4.264  16.654  -1.635  1.00  0.00     0.135 A 
ATOM     98  F   UNL     1      -4.111  14.709   1.438  1.00  0.00    -0.206 F 
ATOM     99  C   UNL     1      -4.322  17.025   1.124  1.00  0.00     0.059 A 
ATOM    100  C   UNL     1      -4.363  17.944  -1.124  1.00  0.00     0.059 A 
ATOM    101  F   UNL     1      -4.240  16.506  -2.970  1.00  0.00    -0.206 F 
ATOM    102  C   UNL     1      -4.404  18.118   0.258  1.00  0.00     0.060 A 
BRANCH 102 103
ATOM    103  S   UNL     1      -4.538  19.773   0.965  1.00  0.00     0.124 S 
ATOM    104  O   UNL     1      -5.908  19.768   1.469  1.00  0.00    -0.237 OA
ATOM    105  O   UNL     1      -3.489  19.765   1.980  1.00  0.00    -0.237 OA
ATOM    106  O   UNL     1      -4.292  20.652  -0.174  1.00  0.00    -0.744 OA
ENDBRANCH 102 103
ENDBRANCH  70  95
ENDBRANCH  44  45
ENDBRANCH  36  39
ENDBRANCH  34  35
ENDBRANCH  33  34
ENDBRANCH  32  33
ENDBRANCH   1  32
TORSDOF 20
