REMARK SMILES Nc1nn(-c2ccc(Cl)cc2)nc1C(=O)NCCCCCCNC(=O)c1ccc(-c2c3nc(c(-c4c(F)cc(S(=O)(=O)[O-])cc4F)c4ccc([nH]4)c(-c4c(F)cc(S(=O)(=O)[O-])cc4F)c4nc(c(-c5c(F)cc(S(=O)(=O)[O-])cc5F)c5ccc2[nH]5)C=C4)C=C3)cc1
REMARK SMILES IDX 20 1 19 2 18 3 17 4 16 5 14 6 15 7 13 9 2 10 3 11 4 12 12 13
REMARK SMILES IDX 1 14 5 17 6 18 11 19 7 20 10 21 8 22 9 23 21 24 22 25 23 26
REMARK SMILES IDX 24 27 25 29 26 30 27 31 91 32 28 33 90 34 29 35 30 36 31 37
REMARK SMILES IDX 84 38 32 39 89 40 83 41 85 42 33 43 88 44 82 45 81 46 34 48
REMARK SMILES IDX 68 49 47 50 67 51 48 52 51 53 66 54 86 55 49 56 50 57 65 59
REMARK SMILES IDX 87 60 52 61 35 62 36 63 45 64 37 65 38 66 44 67 46 68 39 69
REMARK SMILES IDX 40 70 41 71 42 72 43 73 69 74 70 75 79 76 71 77 72 78 78 79
REMARK SMILES IDX 80 80 73 81 74 82 75 83 76 84 77 85 53 86 54 87 63 88 55 89
REMARK SMILES IDX 56 90 62 91 64 92 57 93 58 94 59 95 60 96 61 97
REMARK H PARENT 16 8 1 15 1 16 23 28 85 47 51 58
REMARK Flexibility Score: inf
ROOT
ATOM      1  C   UNL     1       4.541   2.845  -0.529  1.00  0.00     0.002 C 
ENDROOT
BRANCH   1   2
ATOM      2  C   UNL     1       3.319   3.662  -0.089  1.00  0.00     0.002 C 
BRANCH   2   3
ATOM      3  C   UNL     1       1.933   3.024  -0.249  1.00  0.00     0.021 C 
BRANCH   3   4
ATOM      4  C   UNL     1       1.747   1.623   0.332  1.00  0.00     0.116 C 
BRANCH   4   5
ATOM      5  N   UNL     1       1.988   1.551   1.756  1.00  0.00    -0.351 N 
ATOM      6  C   UNL     1       1.367   0.819   2.743  1.00  0.00     0.275 C 
ATOM      7  O   UNL     1       1.764   1.032   3.893  1.00  0.00    -0.267 OA
ATOM      8  H   UNL     1       2.723   2.124   2.075  1.00  0.00     0.163 HD
BRANCH   6   9
ATOM      9  C   UNL     1       0.314  -0.167   2.468  1.00  0.00     0.194 A 
ATOM     10  C   UNL     1       0.166  -1.159   1.454  1.00  0.00     0.179 A 
ATOM     11  N   UNL     1      -0.852  -1.960   1.746  1.00  0.00    -0.130 NA
ATOM     12  N   UNL     1      -1.291  -1.464   2.921  1.00  0.00    -0.149 N 
ATOM     13  N   UNL     1      -0.703  -0.326   3.348  1.00  0.00    -0.141 NA
BRANCH  10  14
ATOM     14  N   UNL     1       0.913  -1.401   0.371  1.00  0.00    -0.380 N 
ATOM     15  H   UNL     1       0.672  -2.135  -0.239  1.00  0.00     0.158 HD
ATOM     16  H   UNL     1       1.704  -0.846   0.184  1.00  0.00     0.158 HD
ENDBRANCH  10  14
BRANCH  12  17
ATOM     17  C   UNL     1      -2.215  -2.181   3.727  1.00  0.00     0.086 A 
ATOM     18  C   UNL     1      -2.922  -1.532   4.748  1.00  0.00     0.032 A 
ATOM     19  C   UNL     1      -2.378  -3.561   3.528  1.00  0.00     0.032 A 
ATOM     20  C   UNL     1      -3.798  -2.263   5.558  1.00  0.00     0.023 A 
ATOM     21  C   UNL     1      -3.220  -4.293   4.369  1.00  0.00     0.023 A 
ATOM     22  C   UNL     1      -3.931  -3.641   5.375  1.00  0.00     0.041 A 
ATOM     23  Cl  UNL     1      -4.970  -4.546   6.405  1.00  0.00    -0.084 Cl
ENDBRANCH  12  17
ENDBRANCH   6   9
ENDBRANCH   4   5
ENDBRANCH   3   4
ENDBRANCH   2   3
ENDBRANCH   1   2
BRANCH   1  24
ATOM     24  C   UNL     1       4.526   2.243  -1.939  1.00  0.00     0.021 C 
BRANCH  24  25
ATOM     25  C   UNL     1       4.334   3.238  -3.076  1.00  0.00     0.116 C 
BRANCH  25  26
ATOM     26  N   UNL     1       5.431   4.190  -3.205  1.00  0.00    -0.352 N 
ATOM     27  C   UNL     1       5.500   5.283  -4.047  1.00  0.00     0.251 C 
ATOM     28  H   UNL     1       6.211   4.036  -2.625  1.00  0.00     0.163 HD
ATOM     29  O   UNL     1       6.579   5.795  -4.319  1.00  0.00    -0.269 OA
BRANCH  27  30
ATOM     30  C   UNL     1       4.250   5.806  -4.632  1.00  0.00     0.039 A 
ATOM     31  C   UNL     1       4.164   6.077  -6.000  1.00  0.00     0.014 A 
ATOM     32  C   UNL     1       3.142   5.970  -3.805  1.00  0.00     0.014 A 
ATOM     33  C   UNL     1       2.927   6.418  -6.548  1.00  0.00     0.010 A 
ATOM     34  C   UNL     1       1.902   6.199  -4.365  1.00  0.00     0.010 A 
ATOM     35  C   UNL     1       1.784   6.450  -5.734  1.00  0.00    -0.014 A 
BRANCH  35  36
ATOM     36  C   UNL     1       0.457   6.636  -6.334  1.00  0.00     0.031 A 
ATOM     37  C   UNL     1       0.075   5.685  -7.425  1.00  0.00     0.074 A 
ATOM     38  C   UNL     1      -0.496   7.427  -5.793  1.00  0.00     0.049 A 
ATOM     39  N   UNL     1      -0.288   5.951  -8.639  1.00  0.00    -0.248 NA
ATOM     40  C   UNL     1       0.161   4.243  -7.139  1.00  0.00     0.031 C 
ATOM     41  C   UNL     1      -0.435   8.180  -4.535  1.00  0.00     0.029 A 
ATOM     42  N   UNL     1      -1.788   7.609  -6.192  1.00  0.00    -0.354 N 
ATOM     43  C   UNL     1      -0.660   4.734  -9.215  1.00  0.00     0.074 A 
ATOM     44  C   UNL     1      -0.236   3.710  -8.296  1.00  0.00     0.031 C 
ATOM     45  C   UNL     1      -1.684   8.515  -4.152  1.00  0.00     0.029 A 
ATOM     46  C   UNL     1      -2.605   8.164  -5.217  1.00  0.00     0.049 A 
ATOM     47  H   UNL     1      -2.111   7.369  -7.090  1.00  0.00     0.167 HD
ATOM     48  C   UNL     1      -1.460   4.662 -10.318  1.00  0.00     0.037 A 
ATOM     49  C   UNL     1      -3.951   8.297  -5.250  1.00  0.00     0.037 A 
ATOM     50  C   UNL     1      -1.547   5.929 -10.994  1.00  0.00     0.049 A 
ATOM     51  C   UNL     1      -4.374   8.236  -6.669  1.00  0.00     0.074 A 
ATOM     52  C   UNL     1      -0.642   6.786 -11.589  1.00  0.00     0.029 A 
ATOM     53  N   UNL     1      -2.704   6.654 -10.848  1.00  0.00    -0.354 N 
ATOM     54  N   UNL     1      -4.065   9.133  -7.565  1.00  0.00    -0.248 NA
ATOM     55  C   UNL     1      -4.838   6.964  -7.199  1.00  0.00     0.031 C 
ATOM     56  C   UNL     1      -1.141   8.095 -11.325  1.00  0.00     0.029 A 
ATOM     57  C   UNL     1      -2.339   7.955 -10.621  1.00  0.00     0.049 A 
ATOM     58  H   UNL     1      -3.623   6.305 -10.897  1.00  0.00     0.167 HD
ATOM     59  C   UNL     1      -3.892   8.418  -8.739  1.00  0.00     0.074 A 
ATOM     60  C   UNL     1      -4.507   7.120  -8.483  1.00  0.00     0.031 C 
ATOM     61  C   UNL     1      -3.026   8.842  -9.707  1.00  0.00     0.037 A 
BRANCH  48  62
ATOM     62  C   UNL     1      -2.433   3.540 -10.616  1.00  0.00     0.058 A 
ATOM     63  C   UNL     1      -3.066   3.480 -11.879  1.00  0.00     0.135 A 
ATOM     64  C   UNL     1      -2.987   2.705  -9.622  1.00  0.00     0.135 A 
ATOM     65  F   UNL     1      -2.627   4.233 -12.900  1.00  0.00    -0.206 F 
ATOM     66  C   UNL     1      -4.212   2.716 -12.108  1.00  0.00     0.059 A 
ATOM     67  C   UNL     1      -4.096   1.893  -9.845  1.00  0.00     0.059 A 
ATOM     68  F   UNL     1      -2.543   2.713  -8.359  1.00  0.00    -0.206 F 
ATOM     69  C   UNL     1      -4.733   1.944 -11.075  1.00  0.00     0.060 A 
BRANCH  69  70
ATOM     70  S   UNL     1      -6.290   1.068 -11.316  1.00  0.00     0.124 S 
ATOM     71  O   UNL     1      -7.244   2.171 -11.297  1.00  0.00    -0.237 OA
ATOM     72  O   UNL     1      -6.083   0.422 -12.608  1.00  0.00    -0.237 OA
ATOM     73  O   UNL     1      -6.344   0.164 -10.172  1.00  0.00    -0.744 OA
ENDBRANCH  69  70
ENDBRANCH  48  62
BRANCH  49  74
ATOM     74  C   UNL     1      -4.893   8.207  -4.108  1.00  0.00     0.058 A 
ATOM     75  C   UNL     1      -6.201   8.709  -4.193  1.00  0.00     0.135 A 
ATOM     76  C   UNL     1      -4.605   7.398  -2.988  1.00  0.00     0.135 A 
ATOM     77  F   UNL     1      -6.567   9.463  -5.240  1.00  0.00    -0.206 F 
ATOM     78  C   UNL     1      -7.178   8.402  -3.239  1.00  0.00     0.059 A 
ATOM     79  C   UNL     1      -5.556   7.090  -2.019  1.00  0.00     0.059 A 
ATOM     80  F   UNL     1      -3.407   6.809  -2.850  1.00  0.00    -0.206 F 
ATOM     81  C   UNL     1      -6.849   7.577  -2.163  1.00  0.00     0.060 A 
BRANCH  81  82
ATOM     82  S   UNL     1      -8.146   7.047  -1.021  1.00  0.00     0.124 S 
ATOM     83  O   UNL     1      -8.454   8.287  -0.318  1.00  0.00    -0.237 OA
ATOM     84  O   UNL     1      -9.175   6.556  -1.932  1.00  0.00    -0.237 OA
ATOM     85  O   UNL     1      -7.489   6.019  -0.217  1.00  0.00    -0.744 OA
ENDBRANCH  81  82
ENDBRANCH  49  74
BRANCH  61  86
ATOM     86  C   UNL     1      -2.541  10.268  -9.663  1.00  0.00     0.058 A 
ATOM     87  C   UNL     1      -1.737  10.801  -8.641  1.00  0.00     0.135 A 
ATOM     88  C   UNL     1      -2.763  11.075 -10.790  1.00  0.00     0.135 A 
ATOM     89  F   UNL     1      -1.390  10.063  -7.579  1.00  0.00    -0.206 F 
ATOM     90  C   UNL     1      -1.206  12.090  -8.722  1.00  0.00     0.059 A 
ATOM     91  C   UNL     1      -2.217  12.351 -10.906  1.00  0.00     0.059 A 
ATOM     92  F   UNL     1      -3.471  10.600 -11.828  1.00  0.00    -0.206 F 
ATOM     93  C   UNL     1      -1.447  12.856  -9.861  1.00  0.00     0.060 A 
BRANCH  93  94
ATOM     94  S   UNL     1      -0.672  14.481 -10.008  1.00  0.00     0.124 S 
ATOM     95  O   UNL     1      -1.468  15.284  -9.086  1.00  0.00    -0.237 OA
ATOM     96  O   UNL     1       0.704  14.218  -9.595  1.00  0.00    -0.237 OA
ATOM     97  O   UNL     1      -0.834  14.809 -11.423  1.00  0.00    -0.744 OA
ENDBRANCH  93  94
ENDBRANCH  61  86
ENDBRANCH  35  36
ENDBRANCH  27  30
ENDBRANCH  25  26
ENDBRANCH  24  25
ENDBRANCH   1  24
TORSDOF 18
