REMARK SMILES CC1(C)CCCC[C@@]1(CC(=O)NCCCCCCNC(=O)c1ccc(-c2c3nc(c(-c4c(F)cc(S(=O)(=O)[O-])cc4F)c4ccc([nH]4)c(-c4c(F)cc(S(=O)(=O)[O-])cc4F)c4nc(c(-c5c(F)cc(S(=O)(=O)[O-])cc5F)c5ccc2[nH]5)C=C4)C=C3)cc1)[NH+]1CCCCCC1
REMARK SMILES IDX 14 1 13 2 12 3 10 4 11 5 9 7 8 8 1 9 2 10 3 11 4 12 5 13
REMARK SMILES IDX 7 14 6 15 88 16 89 18 90 19 91 20 92 21 94 23 93 24 15 26
REMARK SMILES IDX 16 27 17 28 18 29 19 30 20 31 21 33 22 34 23 35 87 36 24 37
REMARK SMILES IDX 86 38 25 39 26 40 27 41 80 42 28 43 85 44 79 45 81 46 29 47
REMARK SMILES IDX 84 48 78 49 77 50 30 52 64 53 43 54 63 55 44 56 47 57 62 58
REMARK SMILES IDX 82 59 45 60 46 61 61 63 83 64 48 65 31 66 32 67 41 68 33 69
REMARK SMILES IDX 34 70 40 71 42 72 35 73 36 74 37 75 38 76 39 77 65 78 66 79
REMARK SMILES IDX 75 80 67 81 68 82 74 83 76 84 69 85 70 86 71 87 72 88 73 89
REMARK SMILES IDX 49 90 50 91 59 92 51 93 52 94 58 95 60 96 53 97 54 98 55 99
REMARK SMILES IDX 56 100 57 101
REMARK H PARENT 12 6 88 17 19 32 81 51 47 62
REMARK Flexibility Score: 80.00
ROOT
ATOM      1  C   UNL     1      -1.337  -1.050   3.007  1.00  0.00     0.021 C 
ENDROOT
BRANCH   1   2
ATOM      2  C   UNL     1      -2.398   0.046   2.971  1.00  0.00     0.116 C 
BRANCH   2   3
ATOM      3  N   UNL     1      -1.878   1.348   3.316  1.00  0.00    -0.356 N 
ATOM      4  C   UNL     1      -1.510   2.383   2.524  1.00  0.00     0.226 C 
ATOM      5  O   UNL     1      -1.210   3.441   3.093  1.00  0.00    -0.275 OA
ATOM      6  H   UNL     1      -1.775   1.509   4.282  1.00  0.00     0.163 HD
BRANCH   4   7
ATOM      7  C   UNL     1      -1.543   2.327   1.005  1.00  0.00     0.169 C 
BRANCH   7   8
ATOM      8  C   UNL     1      -0.565   1.448   0.081  1.00  0.00     0.112 C 
ATOM      9  C   UNL     1       2.018   0.547   0.099  1.00  0.00     0.018 C 
ATOM     10  C   UNL     1       1.007   1.569   0.670  1.00  0.00     0.020 C 
ATOM     11  C   UNL     1       1.212   1.434   2.203  1.00  0.00     0.018 C 
ATOM     12  C   UNL     1       1.597   2.984   0.361  1.00  0.00     0.013 C 
ATOM     13  C   UNL     1       1.547   3.357  -1.106  1.00  0.00     0.001 C 
ATOM     14  C   UNL     1      -0.637   2.170  -1.332  1.00  0.00     0.070 C 
ATOM     15  C   UNL     1       0.104   3.486  -1.524  1.00  0.00     0.006 C 
BRANCH   8  16
ATOM     16  N   UNL     1      -1.204   0.074  -0.175  1.00  0.00    -0.329 N 
ATOM     17  H   UNL     1      -1.124  -0.098   0.827  1.00  0.00     0.348 HD
BRANCH  16  18
ATOM     18  C   UNL     1      -0.469  -1.057  -0.755  1.00  0.00     0.262 C 
BRANCH  18  19
ATOM     19  C   UNL     1       0.010  -1.008  -2.217  1.00  0.00     0.061 C 
BRANCH  19  20
ATOM     20  C   UNL     1      -1.024  -1.000  -3.347  1.00  0.00     0.006 C 
BRANCH  20  21
ATOM     21  C   UNL     1      -2.329  -0.251  -3.130  1.00  0.00     0.006 CG0
ATOM     22  G   UNL     1      -3.058  -0.708  -1.883  1.00  0.00     0.000 G0
ENDBRANCH  20  21
ENDBRANCH  19  20
ENDBRANCH  18  19
ENDBRANCH  16  18
BRANCH  16  23
ATOM     23  C   UNL     1      -2.629   0.022  -0.599  1.00  0.00     0.262 C 
BRANCH  23  24
ATOM     24  C   UNL     1      -3.058  -0.708  -1.883  1.00  0.00     0.061 CG0
ATOM     25  G   UNL     1      -2.329  -0.251  -3.130  1.00  0.00     0.000 G0
ENDBRANCH  23  24
ENDBRANCH  16  23
ENDBRANCH   8  16
ENDBRANCH   7   8
ENDBRANCH   4   7
ENDBRANCH   2   3
ENDBRANCH   1   2
BRANCH   1  26
ATOM     26  C   UNL     1      -0.670  -1.196   4.381  1.00  0.00     0.002 C 
BRANCH  26  27
ATOM     27  C   UNL     1      -1.632  -1.644   5.484  1.00  0.00     0.002 C 
BRANCH  27  28
ATOM     28  C   UNL     1      -2.359  -2.954   5.178  1.00  0.00     0.021 C 
BRANCH  28  29
ATOM     29  C   UNL     1      -1.421  -4.131   4.938  1.00  0.00     0.116 C 
BRANCH  29  30
ATOM     30  N   UNL     1      -0.695  -4.479   6.150  1.00  0.00    -0.352 N 
ATOM     31  C   UNL     1      -0.697  -5.672   6.823  1.00  0.00     0.251 C 
ATOM     32  H   UNL     1      -0.133  -3.768   6.535  1.00  0.00     0.163 HD
ATOM     33  O   UNL     1      -0.265  -5.741   7.974  1.00  0.00    -0.269 OA
BRANCH  31  34
ATOM     34  C   UNL     1      -1.232  -6.870   6.150  1.00  0.00     0.039 A 
ATOM     35  C   UNL     1      -2.136  -7.691   6.825  1.00  0.00     0.014 A 
ATOM     36  C   UNL     1      -0.853  -7.159   4.835  1.00  0.00     0.014 A 
ATOM     37  C   UNL     1      -2.698  -8.781   6.161  1.00  0.00     0.010 A 
ATOM     38  C   UNL     1      -1.472  -8.199   4.152  1.00  0.00     0.010 A 
ATOM     39  C   UNL     1      -2.393  -9.027   4.811  1.00  0.00    -0.014 A 
BRANCH  39  40
ATOM     40  C   UNL     1      -3.016 -10.153   4.073  1.00  0.00     0.031 A 
ATOM     41  C   UNL     1      -2.158 -11.268   3.541  1.00  0.00     0.074 A 
ATOM     42  C   UNL     1      -4.341 -10.139   3.828  1.00  0.00     0.049 A 
ATOM     43  N   UNL     1      -2.500 -12.298   2.811  1.00  0.00    -0.248 NA
ATOM     44  C   UNL     1      -0.719 -11.201   3.846  1.00  0.00     0.031 C 
ATOM     45  C   UNL     1      -5.268  -9.086   4.249  1.00  0.00     0.029 A 
ATOM     46  N   UNL     1      -5.137 -11.029   3.153  1.00  0.00    -0.354 N 
ATOM     47  C   UNL     1      -1.323 -12.995   2.564  1.00  0.00     0.074 A 
ATOM     48  C   UNL     1      -0.249 -12.237   3.167  1.00  0.00     0.031 C 
ATOM     49  C   UNL     1      -6.506  -9.399   3.838  1.00  0.00     0.029 A 
ATOM     50  C   UNL     1      -6.458 -10.652   3.090  1.00  0.00     0.049 A 
ATOM     51  H   UNL     1      -4.795 -11.860   2.751  1.00  0.00     0.167 HD
ATOM     52  C   UNL     1      -1.156 -14.174   1.919  1.00  0.00     0.037 A 
ATOM     53  C   UNL     1      -7.509 -11.241   2.487  1.00  0.00     0.037 A 
ATOM     54  C   UNL     1      -2.235 -14.928   1.334  1.00  0.00     0.049 A 
ATOM     55  C   UNL     1      -7.300 -12.545   1.765  1.00  0.00     0.074 A 
ATOM     56  C   UNL     1      -2.180 -16.154   0.695  1.00  0.00     0.029 A 
ATOM     57  N   UNL     1      -3.562 -14.524   1.312  1.00  0.00    -0.354 N 
ATOM     58  N   UNL     1      -6.189 -13.223   1.593  1.00  0.00    -0.248 NA
ATOM     59  C   UNL     1      -8.484 -13.169   1.162  1.00  0.00     0.031 C 
ATOM     60  C   UNL     1      -3.466 -16.469   0.245  1.00  0.00     0.029 A 
ATOM     61  C   UNL     1      -4.333 -15.468   0.652  1.00  0.00     0.049 A 
ATOM     62  H   UNL     1      -3.906 -13.691   1.706  1.00  0.00     0.167 HD
ATOM     63  C   UNL     1      -6.545 -14.366   0.886  1.00  0.00     0.074 A 
ATOM     64  C   UNL     1      -7.977 -14.293   0.673  1.00  0.00     0.031 C 
ATOM     65  C   UNL     1      -5.760 -15.383   0.454  1.00  0.00     0.037 A 
BRANCH  52  66
ATOM     66  C   UNL     1       0.243 -14.720   1.818  1.00  0.00     0.058 A 
ATOM     67  C   UNL     1       0.936 -15.185   2.948  1.00  0.00     0.135 A 
ATOM     68  C   UNL     1       0.893 -14.800   0.576  1.00  0.00     0.135 A 
ATOM     69  F   UNL     1       0.370 -15.118   4.164  1.00  0.00    -0.206 F 
ATOM     70  C   UNL     1       2.235 -15.674   2.856  1.00  0.00     0.059 A 
ATOM     71  C   UNL     1       2.180 -15.316   0.456  1.00  0.00     0.059 A 
ATOM     72  F   UNL     1       0.279 -14.371  -0.538  1.00  0.00    -0.206 F 
ATOM     73  C   UNL     1       2.849 -15.735   1.605  1.00  0.00     0.060 A 
BRANCH  73  74
ATOM     74  S   UNL     1       4.537 -16.368   1.505  1.00  0.00     0.124 S 
ATOM     75  O   UNL     1       5.294 -15.272   2.104  1.00  0.00    -0.237 OA
ATOM     76  O   UNL     1       4.458 -17.590   2.298  1.00  0.00    -0.237 OA
ATOM     77  O   UNL     1       4.743 -16.563   0.074  1.00  0.00    -0.744 OA
ENDBRANCH  73  74
ENDBRANCH  52  66
BRANCH  53  78
ATOM     78  C   UNL     1      -8.852 -10.607   2.555  1.00  0.00     0.058 A 
ATOM     79  C   UNL     1      -9.886 -11.175   3.314  1.00  0.00     0.135 A 
ATOM     80  C   UNL     1      -9.122  -9.405   1.882  1.00  0.00     0.135 A 
ATOM     81  F   UNL     1      -9.680 -12.327   3.971  1.00  0.00    -0.206 F 
ATOM     82  C   UNL     1     -11.143 -10.585   3.392  1.00  0.00     0.059 A 
ATOM     83  C   UNL     1     -10.363  -8.781   1.967  1.00  0.00     0.059 A 
ATOM     84  F   UNL     1      -8.162  -8.809   1.157  1.00  0.00    -0.206 F 
ATOM     85  C   UNL     1     -11.371  -9.384   2.717  1.00  0.00     0.060 A 
BRANCH  85  86
ATOM     86  S   UNL     1     -12.990  -8.598   2.869  1.00  0.00     0.124 S 
ATOM     87  O   UNL     1     -13.823  -9.484   2.064  1.00  0.00    -0.237 OA
ATOM     88  O   UNL     1     -13.216  -8.641   4.310  1.00  0.00    -0.237 OA
ATOM     89  O   UNL     1     -12.768  -7.265   2.316  1.00  0.00    -0.744 OA
ENDBRANCH  85  86
ENDBRANCH  53  78
BRANCH  65  90
ATOM     90  C   UNL     1      -6.431 -16.522  -0.264  1.00  0.00     0.058 A 
ATOM     91  C   UNL     1      -6.931 -16.384  -1.568  1.00  0.00     0.135 A 
ATOM     92  C   UNL     1      -6.519 -17.787   0.341  1.00  0.00     0.135 A 
ATOM     93  F   UNL     1      -6.878 -15.195  -2.189  1.00  0.00    -0.206 F 
ATOM     94  C   UNL     1      -7.513 -17.454  -2.240  1.00  0.00     0.059 A 
ATOM     95  C   UNL     1      -7.069 -18.878  -0.323  1.00  0.00     0.059 A 
ATOM     96  F   UNL     1      -6.047 -17.977   1.584  1.00  0.00    -0.206 F 
ATOM     97  C   UNL     1      -7.573 -18.699  -1.610  1.00  0.00     0.060 A 
BRANCH  97  98
ATOM     98  S   UNL     1      -8.293 -20.089  -2.510  1.00  0.00     0.124 S 
ATOM     99  O   UNL     1      -9.712 -19.750  -2.489  1.00  0.00    -0.237 OA
ATOM    100  O   UNL     1      -7.637 -19.991  -3.810  1.00  0.00    -0.237 OA
ATOM    101  O   UNL     1      -7.912 -21.248  -1.708  1.00  0.00    -0.744 OA
ENDBRANCH  97  98
ENDBRANCH  65  90
ENDBRANCH  39  40
ENDBRANCH  31  34
ENDBRANCH  29  30
ENDBRANCH  28  29
ENDBRANCH  27  28
ENDBRANCH  26  27
ENDBRANCH   1  26
TORSDOF 18
