REMARK SMILES COc1cccc(C(=O)Nc2ccc(NC(=O)[C@@H]3[C@@H](C(=O)NCCCCCCNC(=O)c4ccc(-c5c6nc(c(-c7c(F)cc(S(=O)(=O)[O-])cc7F)c7ccc([nH]7)c(-c7c(F)cc(S(=O)(=O)[O-])cc7F)c7nc(c(-c8c(F)cc(S(=O)(=O)[O-])cc8F)c8ccc5[nH]8)C=C7)C=C6)cc4)[C@@H]4C=C[C@H]3C4)cc2)c1
REMARK SMILES IDX 24 1 23 2 22 3 20 4 21 5 19 7 18 8 101 9 98 10 100 11 102 12
REMARK SMILES IDX 99 13 16 14 15 15 17 17 14 18 11 19 12 20 104 21 13 22
REMARK SMILES IDX 103 23 10 24 8 25 9 26 7 28 3 29 4 30 105 31 5 32 6 33 2 34
REMARK SMILES IDX 1 35 25 36 26 37 27 38 28 39 29 40 30 41 31 43 32 44 33 45
REMARK SMILES IDX 97 46 34 47 96 48 35 49 36 50 37 51 90 52 38 53 95 54 89 55
REMARK SMILES IDX 91 56 39 57 94 58 88 59 87 60 40 62 74 63 53 64 73 65 54 66
REMARK SMILES IDX 57 67 72 68 92 69 55 70 56 71 71 73 93 74 58 75 41 76 42 77
REMARK SMILES IDX 51 78 43 79 44 80 50 81 52 82 45 83 46 84 47 85 48 86 49 87
REMARK SMILES IDX 75 88 76 89 85 90 77 91 78 92 84 93 86 94 79 95 80 96 81 97
REMARK SMILES IDX 82 98 83 99 59 100 60 101 69 102 61 103 62 104 68 105 70 106
REMARK SMILES IDX 63 107 64 108 65 109 66 110 67 111
REMARK H PARENT 22 6 15 16 10 27 29 42 91 61 57 72
REMARK Flexibility Score: inf
ROOT
ATOM      1  C   UNL     1       9.044  -1.491  -1.912  1.00  0.00     0.021 C 
ENDROOT
BRANCH   1   2
ATOM      2  C   UNL     1       7.680  -1.355  -2.564  1.00  0.00     0.116 C 
BRANCH   2   3
ATOM      3  N   UNL     1       7.572  -1.780  -3.945  1.00  0.00    -0.356 N 
ATOM      4  C   UNL     1       6.514  -2.196  -4.700  1.00  0.00     0.224 C 
ATOM      5  O   UNL     1       6.753  -2.336  -5.908  1.00  0.00    -0.275 OA
ATOM      6  H   UNL     1       8.427  -1.766  -4.433  1.00  0.00     0.163 HD
BRANCH   4   7
ATOM      7  C   UNL     1       5.119  -2.603  -4.184  1.00  0.00     0.098 C 
ATOM      8  C   UNL     1       4.590  -1.990  -2.864  1.00  0.00     0.099 C 
ATOM      9  C   UNL     1       4.223  -3.245  -2.025  1.00  0.00     0.025 C 
ATOM     10  C   UNL     1       5.102  -4.133  -3.876  1.00  0.00     0.025 C 
ATOM     11  C   UNL     1       3.126  -4.028  -2.708  1.00  0.00    -0.027 C 
ATOM     12  C   UNL     1       5.383  -4.185  -2.371  1.00  0.00     0.017 C 
ATOM     13  C   UNL     1       3.657  -4.574  -3.812  1.00  0.00    -0.027 C 
BRANCH   8  14
ATOM     14  C   UNL     1       3.515  -0.931  -2.894  1.00  0.00     0.228 C 
ATOM     15  N   UNL     1       3.439  -0.011  -1.865  1.00  0.00    -0.326 N 
ATOM     16  H   UNL     1       2.794   0.710  -2.047  1.00  0.00     0.169 HD
ATOM     17  O   UNL     1       2.717  -0.834  -3.827  1.00  0.00    -0.274 OA
BRANCH  15  18
ATOM     18  C   UNL     1       4.079   0.131  -0.605  1.00  0.00     0.041 A 
ATOM     19  C   UNL     1       4.739   0.150   2.130  1.00  0.00     0.041 A 
ATOM     20  C   UNL     1       5.420  -0.684   1.264  1.00  0.00     0.028 A 
ATOM     21  C   UNL     1       3.922   1.148   1.608  1.00  0.00     0.028 A 
ATOM     22  C   UNL     1       5.056  -0.714  -0.079  1.00  0.00     0.028 A 
ATOM     23  C   UNL     1       3.607   1.147   0.238  1.00  0.00     0.028 A 
BRANCH  19  24
ATOM     24  N   UNL     1       4.817  -0.201   3.477  1.00  0.00    -0.322 N 
ATOM     25  C   UNL     1       3.823  -0.364   4.419  1.00  0.00     0.255 C 
ATOM     26  O   UNL     1       4.152  -0.783   5.530  1.00  0.00    -0.269 OA
ATOM     27  H   UNL     1       5.730  -0.359   3.810  1.00  0.00     0.170 HD
BRANCH  25  28
ATOM     28  C   UNL     1       2.377  -0.141   4.146  1.00  0.00     0.043 A 
ATOM     29  C   UNL     1       0.417  -0.083   2.711  1.00  0.00     0.119 A 
ATOM     30  C   UNL     1      -0.315   0.462   3.770  1.00  0.00     0.046 A 
ATOM     31  C   UNL     1       1.745  -0.452   2.928  1.00  0.00     0.060 A 
ATOM     32  C   UNL     1       0.268   0.652   5.022  1.00  0.00     0.005 A 
ATOM     33  C   UNL     1       1.616   0.363   5.206  1.00  0.00     0.014 A 
BRANCH  29  34
ATOM     34  O   UNL     1      -0.291  -0.182   1.548  1.00  0.00    -0.497 OA
ATOM     35  C   UNL     1       0.355  -0.589   0.352  1.00  0.00     0.278 C 
ENDBRANCH  29  34
ENDBRANCH  25  28
ENDBRANCH  19  24
ENDBRANCH  15  18
ENDBRANCH   8  14
ENDBRANCH   4   7
ENDBRANCH   2   3
ENDBRANCH   1   2
BRANCH   1  36
ATOM     36  C   UNL     1      10.055  -0.398  -2.223  1.00  0.00     0.002 C 
BRANCH  36  37
ATOM     37  C   UNL     1       9.593   1.048  -2.013  1.00  0.00     0.002 C 
BRANCH  37  38
ATOM     38  C   UNL     1       8.945   1.396  -0.668  1.00  0.00     0.021 C 
BRANCH  38  39
ATOM     39  C   UNL     1       9.710   0.991   0.589  1.00  0.00     0.116 C 
BRANCH  39  40
ATOM     40  N   UNL     1      11.084   1.452   0.589  1.00  0.00    -0.352 N 
ATOM     41  C   UNL     1      11.793   2.131   1.548  1.00  0.00     0.251 C 
ATOM     42  H   UNL     1      11.590   1.245  -0.230  1.00  0.00     0.163 HD
ATOM     43  O   UNL     1      12.916   2.545   1.279  1.00  0.00    -0.269 OA
BRANCH  41  44
ATOM     44  C   UNL     1      11.213   2.385   2.887  1.00  0.00     0.039 A 
ATOM     45  C   UNL     1      11.431   3.634   3.476  1.00  0.00     0.014 A 
ATOM     46  C   UNL     1      10.502   1.403   3.583  1.00  0.00     0.014 A 
ATOM     47  C   UNL     1      10.906   3.909   4.740  1.00  0.00     0.010 A 
ATOM     48  C   UNL     1       9.916   1.704   4.813  1.00  0.00     0.010 A 
ATOM     49  C   UNL     1      10.123   2.955   5.411  1.00  0.00    -0.014 A 
BRANCH  49  50
ATOM     50  C   UNL     1       9.536   3.258   6.744  1.00  0.00     0.031 A 
ATOM     51  C   UNL     1       9.972   2.488   7.962  1.00  0.00     0.074 A 
ATOM     52  C   UNL     1       8.594   4.215   6.852  1.00  0.00     0.049 A 
ATOM     53  N   UNL     1       9.580   2.615   9.204  1.00  0.00    -0.248 NA
ATOM     54  C   UNL     1      10.963   1.420   7.755  1.00  0.00     0.031 C 
ATOM     55  C   UNL     1       8.056   5.001   5.739  1.00  0.00     0.029 A 
ATOM     56  N   UNL     1       7.923   4.694   7.949  1.00  0.00    -0.354 N 
ATOM     57  C   UNL     1      10.268   1.643   9.922  1.00  0.00     0.074 A 
ATOM     58  C   UNL     1      11.056   0.895   8.967  1.00  0.00     0.031 C 
ATOM     59  C   UNL     1       7.166   5.887   6.215  1.00  0.00     0.029 A 
ATOM     60  C   UNL     1       7.044   5.711   7.659  1.00  0.00     0.049 A 
ATOM     61  H   UNL     1       8.059   4.343   8.858  1.00  0.00     0.167 HD
ATOM     62  C   UNL     1      10.267   1.413  11.258  1.00  0.00     0.037 A 
ATOM     63  C   UNL     1       6.235   6.425   8.465  1.00  0.00     0.037 A 
ATOM     64  C   UNL     1       9.489   2.170  12.206  1.00  0.00     0.049 A 
ATOM     65  C   UNL     1       6.246   6.148   9.944  1.00  0.00     0.074 A 
ATOM     66  C   UNL     1       9.447   2.043  13.583  1.00  0.00     0.029 A 
ATOM     67  N   UNL     1       8.613   3.194  11.873  1.00  0.00    -0.354 N 
ATOM     68  N   UNL     1       6.950   5.265  10.614  1.00  0.00    -0.248 NA
ATOM     69  C   UNL     1       5.363   6.973  10.779  1.00  0.00     0.031 C 
ATOM     70  C   UNL     1       8.514   2.961  14.079  1.00  0.00     0.029 A 
ATOM     71  C   UNL     1       8.015   3.698  13.017  1.00  0.00     0.049 A 
ATOM     72  H   UNL     1       8.442   3.515  10.958  1.00  0.00     0.167 HD
ATOM     73  C   UNL     1       6.618   5.451  11.952  1.00  0.00     0.074 A 
ATOM     74  C   UNL     1       5.662   6.539  11.995  1.00  0.00     0.031 C 
ATOM     75  C   UNL     1       7.066   4.784  13.045  1.00  0.00     0.037 A 
BRANCH  62  76
ATOM     76  C   UNL     1      11.138   0.296  11.771  1.00  0.00     0.058 A 
ATOM     77  C   UNL     1      12.540   0.382  11.742  1.00  0.00     0.135 A 
ATOM     78  C   UNL     1      10.569  -0.866  12.317  1.00  0.00     0.135 A 
ATOM     79  F   UNL     1      13.141   1.463  11.219  1.00  0.00    -0.206 F 
ATOM     80  C   UNL     1      13.345  -0.658  12.196  1.00  0.00     0.059 A 
ATOM     81  C   UNL     1      11.355  -1.907  12.806  1.00  0.00     0.059 A 
ATOM     82  F   UNL     1       9.235  -1.004  12.374  1.00  0.00    -0.206 F 
ATOM     83  C   UNL     1      12.742  -1.801  12.724  1.00  0.00     0.060 A 
BRANCH  83  84
ATOM     84  S   UNL     1      13.801  -3.146  13.298  1.00  0.00     0.124 S 
ATOM     85  O   UNL     1      14.284  -3.695  12.035  1.00  0.00    -0.237 OA
ATOM     86  O   UNL     1      14.793  -2.441  14.103  1.00  0.00    -0.237 OA
ATOM     87  O   UNL     1      12.887  -4.004  14.046  1.00  0.00    -0.744 OA
ENDBRANCH  83  84
ENDBRANCH  62  76
BRANCH  63  88
ATOM     88  C   UNL     1       5.377   7.499   7.896  1.00  0.00     0.058 A 
ATOM     89  C   UNL     1       5.643   8.851   8.161  1.00  0.00     0.135 A 
ATOM     90  C   UNL     1       4.282   7.199   7.071  1.00  0.00     0.135 A 
ATOM     91  F   UNL     1       6.676   9.189   8.949  1.00  0.00    -0.206 F 
ATOM     92  C   UNL     1       4.845   9.867   7.646  1.00  0.00     0.059 A 
ATOM     93  C   UNL     1       3.485   8.199   6.521  1.00  0.00     0.059 A 
ATOM     94  F   UNL     1       3.995   5.923   6.771  1.00  0.00    -0.206 F 
ATOM     95  C   UNL     1       3.769   9.530   6.824  1.00  0.00     0.060 A 
BRANCH  95  96
ATOM     96  S   UNL     1       2.767  10.858   6.121  1.00  0.00     0.124 S 
ATOM     97  O   UNL     1       2.023  11.315   7.288  1.00  0.00    -0.237 OA
ATOM     98  O   UNL     1       3.785  11.773   5.612  1.00  0.00    -0.237 OA
ATOM     99  O   UNL     1       1.980  10.177   5.097  1.00  0.00    -0.744 OA
ENDBRANCH  95  96
ENDBRANCH  63  88
BRANCH  75 100
ATOM    100  C   UNL     1       6.560   5.244  14.386  1.00  0.00     0.058 A 
ATOM    101  C   UNL     1       5.232   5.032  14.791  1.00  0.00     0.135 A 
ATOM    102  C   UNL     1       7.423   5.890  15.286  1.00  0.00     0.135 A 
ATOM    103  F   UNL     1       4.363   4.424  13.969  1.00  0.00    -0.206 F 
ATOM    104  C   UNL     1       4.768   5.482  16.023  1.00  0.00     0.059 A 
ATOM    105  C   UNL     1       6.989   6.319  16.536  1.00  0.00     0.059 A 
ATOM    106  F   UNL     1       8.707   6.106  14.956  1.00  0.00    -0.206 F 
ATOM    107  C   UNL     1       5.654   6.128  16.888  1.00  0.00     0.060 A 
BRANCH 107 108
ATOM    108  S   UNL     1       5.041   6.706  18.485  1.00  0.00     0.124 S 
ATOM    109  O   UNL     1       4.262   7.876  18.094  1.00  0.00    -0.237 OA
ATOM    110  O   UNL     1       4.271   5.560  18.958  1.00  0.00    -0.237 OA
ATOM    111  O   UNL     1       6.261   6.986  19.236  1.00  0.00    -0.744 OA
ENDBRANCH 107 108
ENDBRANCH  75 100
ENDBRANCH  49  50
ENDBRANCH  41  44
ENDBRANCH  39  40
ENDBRANCH  38  39
ENDBRANCH  37  38
ENDBRANCH  36  37
ENDBRANCH   1  36
TORSDOF 21
