REMARK SMILES CCOC(=O)c1sc(NC(=O)CCC(=O)NCCCCCCNC(=O)c2ccc(-c3c4nc(c(-c5c(F)cc(S(=O)(=O)[O-])cc5F)c5ccc([nH]5)c(-c5c(F)cc(S(=O)(=O)[O-])cc5F)c5nc(c(-c6c(F)cc(S(=O)(=O)[O-])cc6F)c6ccc3[nH]6)C=C5)C=C4)cc2)c(C#N)c1C
REMARK SMILES IDX 18 1 17 2 16 3 14 4 15 5 13 7 12 8 10 9 9 10 11 12 8 13 6 14
REMARK SMILES IDX 7 15 95 16 92 17 96 18 4 19 5 20 3 21 2 22 1 23 93 24 94 25
REMARK SMILES IDX 19 26 20 27 21 28 22 29 23 30 24 31 25 33 26 34 27 35 91 36
REMARK SMILES IDX 28 37 90 38 29 39 30 40 31 41 84 42 32 43 89 44 83 45 85 46
REMARK SMILES IDX 33 47 88 48 82 49 81 50 34 52 68 53 47 54 67 55 48 56 51 57
REMARK SMILES IDX 66 58 86 59 49 60 50 61 65 63 87 64 52 65 35 66 36 67 45 68
REMARK SMILES IDX 37 69 38 70 44 71 46 72 39 73 40 74 41 75 42 76 43 77 69 78
REMARK SMILES IDX 70 79 79 80 71 81 72 82 78 83 80 84 73 85 74 86 75 87 76 88
REMARK SMILES IDX 77 89 53 90 54 91 63 92 55 93 56 94 62 95 64 96 57 97 58 98
REMARK SMILES IDX 59 99 60 100 61 101
REMARK H PARENT 16 6 9 11 23 32 85 51 51 62
REMARK Flexibility Score: inf
ROOT
ATOM      1  C   UNL     1       5.552   8.513  -0.080  1.00  0.00     0.021 C 
ENDROOT
BRANCH   1   2
ATOM      2  C   UNL     1       6.590   7.450   0.274  1.00  0.00     0.116 C 
BRANCH   2   3
ATOM      3  N   UNL     1       5.995   6.198   0.706  1.00  0.00    -0.356 N 
ATOM      4  C   UNL     1       6.170   4.937   0.234  1.00  0.00     0.220 C 
ATOM      5  O   UNL     1       5.710   4.009   0.902  1.00  0.00    -0.275 OA
ATOM      6  H   UNL     1       5.365   6.276   1.458  1.00  0.00     0.163 HD
BRANCH   4   7
ATOM      7  C   UNL     1       6.927   4.685  -1.049  1.00  0.00     0.110 C 
BRANCH   7   8
ATOM      8  C   UNL     1       6.156   4.795  -2.361  1.00  0.00     0.110 C 
BRANCH   8   9
ATOM      9  C   UNL     1       5.309   6.031  -2.575  1.00  0.00     0.225 C 
ATOM     10  N   UNL     1       4.026   6.199  -2.134  1.00  0.00    -0.317 N 
ATOM     11  H   UNL     1       3.574   7.002  -2.481  1.00  0.00     0.170 HD
ATOM     12  O   UNL     1       5.833   7.007  -3.130  1.00  0.00    -0.275 OA
BRANCH  10  13
ATOM     13  C   UNL     1       3.257   5.430  -1.283  1.00  0.00     0.114 A 
ATOM     14  C   UNL     1       2.449   3.595   0.125  1.00  0.00     0.118 A 
ATOM     15  S   UNL     1       3.359   3.741  -1.302  1.00  0.00    -0.109 S 
ATOM     16  C   UNL     1       1.932   4.809   0.544  1.00  0.00    -0.006 A 
ATOM     17  C   UNL     1       2.280   5.848  -0.396  1.00  0.00     0.091 A 
ATOM     18  C   UNL     1       1.160   5.032   1.808  1.00  0.00     0.048 C 
BRANCH  14  19
ATOM     19  C   UNL     1       2.275   2.276   0.673  1.00  0.00     0.348 C 
ATOM     20  O   UNL     1       3.154   1.477   0.966  1.00  0.00    -0.245 OA
BRANCH  19  21
ATOM     21  O   UNL     1       0.937   2.024   0.735  1.00  0.00    -0.462 OA
BRANCH  21  22
ATOM     22  C   UNL     1       0.578   0.679   1.055  1.00  0.00     0.230 C 
ATOM     23  C   UNL     1       0.878  -0.256  -0.105  1.00  0.00     0.049 C 
ENDBRANCH  21  22
ENDBRANCH  19  21
ENDBRANCH  14  19
BRANCH  17  24
ATOM     24  C   UNL     1       1.779   7.191  -0.300  1.00  0.00     0.103 C 
ATOM     25  N   UNL     1       1.351   8.258  -0.177  1.00  0.00    -0.192 NA
ENDBRANCH  17  24
ENDBRANCH  10  13
ENDBRANCH   8   9
ENDBRANCH   7   8
ENDBRANCH   4   7
ENDBRANCH   2   3
ENDBRANCH   1   2
BRANCH   1  26
ATOM     26  C   UNL     1       4.497   8.776   0.995  1.00  0.00     0.002 C 
BRANCH  26  27
ATOM     27  C   UNL     1       4.994   9.498   2.246  1.00  0.00     0.002 C 
BRANCH  27  28
ATOM     28  C   UNL     1       5.683  10.843   1.991  1.00  0.00     0.021 C 
BRANCH  28  29
ATOM     29  C   UNL     1       4.825  11.837   1.221  1.00  0.00     0.116 C 
BRANCH  29  30
ATOM     30  N   UNL     1       3.701  12.330   2.013  1.00  0.00    -0.352 N 
ATOM     31  C   UNL     1       2.852  13.367   1.681  1.00  0.00     0.251 C 
ATOM     32  H   UNL     1       3.531  11.877   2.871  1.00  0.00     0.163 HD
ATOM     33  O   UNL     1       2.227  13.979   2.537  1.00  0.00    -0.269 OA
BRANCH  31  34
ATOM     34  C   UNL     1       2.690  13.680   0.252  1.00  0.00     0.039 A 
ATOM     35  C   UNL     1       2.656  14.992  -0.226  1.00  0.00     0.014 A 
ATOM     36  C   UNL     1       2.589  12.592  -0.615  1.00  0.00     0.014 A 
ATOM     37  C   UNL     1       2.561  15.195  -1.601  1.00  0.00     0.010 A 
ATOM     38  C   UNL     1       2.656  12.791  -1.965  1.00  0.00     0.010 A 
ATOM     39  C   UNL     1       2.562  14.084  -2.460  1.00  0.00    -0.014 A 
BRANCH  39  40
ATOM     40  C   UNL     1       2.591  14.236  -3.906  1.00  0.00     0.031 A 
ATOM     41  C   UNL     1       3.775  14.986  -4.400  1.00  0.00     0.074 A 
ATOM     42  C   UNL     1       1.759  13.543  -4.717  1.00  0.00     0.049 A 
ATOM     43  N   UNL     1       3.797  16.179  -4.893  1.00  0.00    -0.248 NA
ATOM     44  C   UNL     1       5.117  14.435  -4.136  1.00  0.00     0.031 C 
ATOM     45  C   UNL     1       0.755  12.534  -4.354  1.00  0.00     0.029 A 
ATOM     46  N   UNL     1       1.712  13.523  -6.075  1.00  0.00    -0.354 N 
ATOM     47  C   UNL     1       5.120  16.415  -5.255  1.00  0.00     0.074 A 
ATOM     48  C   UNL     1       5.902  15.430  -4.557  1.00  0.00     0.031 C 
ATOM     49  C   UNL     1       0.382  11.844  -5.456  1.00  0.00     0.029 A 
ATOM     50  C   UNL     1       0.987  12.461  -6.620  1.00  0.00     0.049 A 
ATOM     51  H   UNL     1       2.155  14.203  -6.632  1.00  0.00     0.167 HD
ATOM     52  C   UNL     1       5.420  17.221  -6.313  1.00  0.00     0.037 A 
ATOM     53  C   UNL     1       0.936  12.114  -7.935  1.00  0.00     0.037 A 
ATOM     54  C   UNL     1       4.266  17.997  -6.705  1.00  0.00     0.049 A 
ATOM     55  C   UNL     1       1.347  13.325  -8.703  1.00  0.00     0.074 A 
ATOM     56  C   UNL     1       3.442  18.896  -6.054  1.00  0.00     0.029 A 
ATOM     57  N   UNL     1       3.558  17.571  -7.806  1.00  0.00    -0.354 N 
ATOM     58  N   UNL     1       0.647  14.430  -8.723  1.00  0.00    -0.248 NA
ATOM     59  C   UNL     1       2.767  13.483  -8.988  1.00  0.00     0.031 C 
ATOM     60  C   UNL     1       2.126  18.568  -6.495  1.00  0.00     0.029 A 
ATOM     61  C   UNL     1       2.229  17.568  -7.463  1.00  0.00     0.049 A 
ATOM     62  H   UNL     1       3.936  17.316  -8.678  1.00  0.00     0.167 HD
ATOM     63  C   UNL     1       1.582  15.448  -8.591  1.00  0.00     0.074 A 
ATOM     64  C   UNL     1       2.878  14.803  -8.810  1.00  0.00     0.031 C 
ATOM     65  C   UNL     1       1.260  16.646  -8.015  1.00  0.00     0.037 A 
BRANCH  52  66
ATOM     66  C   UNL     1       6.602  17.031  -7.237  1.00  0.00     0.058 A 
ATOM     67  C   UNL     1       6.860  18.008  -8.223  1.00  0.00     0.135 A 
ATOM     68  C   UNL     1       7.313  15.819  -7.386  1.00  0.00     0.135 A 
ATOM     69  F   UNL     1       6.245  19.201  -8.182  1.00  0.00    -0.206 F 
ATOM     70  C   UNL     1       7.688  17.766  -9.318  1.00  0.00     0.059 A 
ATOM     71  C   UNL     1       8.184  15.577  -8.442  1.00  0.00     0.059 A 
ATOM     72  F   UNL     1       7.131  14.772  -6.574  1.00  0.00    -0.206 F 
ATOM     73  C   UNL     1       8.334  16.539  -9.426  1.00  0.00     0.060 A 
BRANCH  73  74
ATOM     74  S   UNL     1       9.332  16.190 -10.883  1.00  0.00     0.124 S 
ATOM     75  O   UNL     1       8.313  16.127 -11.925  1.00  0.00    -0.237 OA
ATOM     76  O   UNL     1      10.218  17.349 -10.922  1.00  0.00    -0.237 OA
ATOM     77  O   UNL     1       9.978  14.924 -10.552  1.00  0.00    -0.744 OA
ENDBRANCH  73  74
ENDBRANCH  52  66
BRANCH  53  78
ATOM     78  C   UNL     1       0.932  10.743  -8.526  1.00  0.00     0.058 A 
ATOM     79  C   UNL     1       0.693  10.528  -9.898  1.00  0.00     0.135 A 
ATOM     80  C   UNL     1       1.444   9.638  -7.815  1.00  0.00     0.135 A 
ATOM     81  F   UNL     1       0.223  11.526 -10.663  1.00  0.00    -0.206 F 
ATOM     82  C   UNL     1       0.990   9.312 -10.533  1.00  0.00     0.059 A 
ATOM     83  C   UNL     1       1.741   8.417  -8.424  1.00  0.00     0.059 A 
ATOM     84  F   UNL     1       1.757   9.737  -6.515  1.00  0.00    -0.206 F 
ATOM     85  C   UNL     1       1.537   8.267  -9.789  1.00  0.00     0.060 A 
BRANCH  85  86
ATOM     86  S   UNL     1       2.090   6.758 -10.624  1.00  0.00     0.124 S 
ATOM     87  O   UNL     1       0.827   6.159 -11.040  1.00  0.00    -0.237 OA
ATOM     88  O   UNL     1       2.928   7.285 -11.696  1.00  0.00    -0.237 OA
ATOM     89  O   UNL     1       2.807   6.034  -9.577  1.00  0.00    -0.744 OA
ENDBRANCH  85  86
ENDBRANCH  53  78
BRANCH  65  90
ATOM     90  C   UNL     1      -0.192  16.959  -7.742  1.00  0.00     0.058 A 
ATOM     91  C   UNL     1      -1.017  16.247  -6.851  1.00  0.00     0.135 A 
ATOM     92  C   UNL     1      -0.713  18.148  -8.275  1.00  0.00     0.135 A 
ATOM     93  F   UNL     1      -0.566  15.159  -6.214  1.00  0.00    -0.206 F 
ATOM     94  C   UNL     1      -2.310  16.677  -6.537  1.00  0.00     0.059 A 
ATOM     95  C   UNL     1      -1.984  18.612  -7.953  1.00  0.00     0.059 A 
ATOM     96  F   UNL     1       0.044  18.909  -9.082  1.00  0.00    -0.206 F 
ATOM     97  C   UNL     1      -2.785  17.864  -7.093  1.00  0.00     0.060 A 
BRANCH  97  98
ATOM     98  S   UNL     1      -4.432  18.456  -6.649  1.00  0.00     0.124 S 
ATOM     99  O   UNL     1      -5.296  17.480  -7.304  1.00  0.00    -0.237 OA
ATOM    100  O   UNL     1      -4.407  18.402  -5.190  1.00  0.00    -0.237 OA
ATOM    101  O   UNL     1      -4.475  19.803  -7.213  1.00  0.00    -0.744 OA
ENDBRANCH  97  98
ENDBRANCH  65  90
ENDBRANCH  39  40
ENDBRANCH  31  34
ENDBRANCH  29  30
ENDBRANCH  28  29
ENDBRANCH  27  28
ENDBRANCH  26  27
ENDBRANCH   1  26
TORSDOF 23
