REMARK SMILES O=C(C[NH+]1CCC(C(=O)NCCCCCCNC(=O)c2ccc(-c3c4nc(c(-c5c(F)cc(S(=O)(=O)[O-])cc5F)c5ccc([nH]5)c(-c5c(F)cc(S(=O)(=O)[O-])cc5F)c5nc(c(-c6c(F)cc(S(=O)(=O)[O-])cc6F)c6ccc3[nH]6)C=C5)C=C4)cc2)CC1)Nc1ccccc1Oc1ccccc1
REMARK SMILES IDX 12 1 11 2 10 3 8 4 9 5 7 7 4 8 5 9 87 10 6 12 86 13 3 14
REMARK SMILES IDX 2 15 1 16 88 17 89 19 90 20 94 21 91 22 93 23 92 24 95 25
REMARK SMILES IDX 96 26 97 27 101 28 98 29 100 30 99 31 13 32 14 33 15 34
REMARK SMILES IDX 16 35 17 36 18 37 19 39 20 40 21 41 85 42 22 43 84 44 23 45
REMARK SMILES IDX 24 46 25 47 78 48 26 49 83 50 77 51 79 52 27 53 82 54 76 55
REMARK SMILES IDX 75 56 28 58 62 59 41 60 61 61 42 62 45 63 60 64 80 65 43 66
REMARK SMILES IDX 44 67 59 69 81 70 46 71 29 72 30 73 39 74 31 75 32 76 38 77
REMARK SMILES IDX 40 78 33 79 34 80 35 81 36 82 37 83 63 84 64 85 73 86 65 87
REMARK SMILES IDX 66 88 72 89 74 90 67 91 68 92 69 93 70 94 71 95 47 96 48 97
REMARK SMILES IDX 57 98 49 99 50 100 56 101 58 102 51 103 52 104 53 105 54 106
REMARK SMILES IDX 55 107
REMARK H PARENT 10 6 4 11 88 18 17 38 79 57 45 68
REMARK Flexibility Score: inf
ROOT
ATOM      1  C   UNL     1       8.358   0.663  -4.205  1.00  0.00     0.021 C 
ENDROOT
BRANCH   1   2
ATOM      2  C   UNL     1       7.223   1.641  -3.912  1.00  0.00     0.116 C 
BRANCH   2   3
ATOM      3  N   UNL     1       6.699   2.197  -5.151  1.00  0.00    -0.356 N 
ATOM      4  C   UNL     1       5.468   2.089  -5.722  1.00  0.00     0.223 C 
ATOM      5  O   UNL     1       5.298   2.575  -6.842  1.00  0.00    -0.275 OA
ATOM      6  H   UNL     1       7.342   2.740  -5.662  1.00  0.00     0.163 HD
BRANCH   4   7
ATOM      7  C   UNL     1       4.318   1.444  -4.971  1.00  0.00     0.089 C 
ATOM      8  N   UNL     1       3.826   0.321  -2.333  1.00  0.00    -0.327 N 
ATOM      9  C   UNL     1       3.809  -0.590  -3.495  1.00  0.00     0.263 C 
ATOM     10  C   UNL     1       3.172   1.581  -2.709  1.00  0.00     0.263 C 
ATOM     11  H   UNL     1       4.774   0.551  -2.036  1.00  0.00     0.348 HD
ATOM     12  C   UNL     1       4.563  -0.044  -4.701  1.00  0.00     0.075 C 
ATOM     13  C   UNL     1       3.995   2.308  -3.750  1.00  0.00     0.075 C 
BRANCH   8  14
ATOM     14  C   UNL     1       3.135  -0.373  -1.212  1.00  0.00     0.363 C 
BRANCH  14  15
ATOM     15  C   UNL     1       2.338   0.555  -0.297  1.00  0.00     0.279 C 
ATOM     16  O   UNL     1       1.218   0.964  -0.609  1.00  0.00    -0.268 OA
ATOM     17  N   UNL     1       3.026   0.947   0.834  1.00  0.00    -0.318 N 
ATOM     18  H   UNL     1       3.976   0.707   0.924  1.00  0.00     0.170 HD
BRANCH  17  19
ATOM     19  C   UNL     1       2.403   1.681   1.860  1.00  0.00     0.084 A 
ATOM     20  C   UNL     1       3.021   2.908   2.165  1.00  0.00     0.030 A 
ATOM     21  C   UNL     1       1.230   1.305   2.540  1.00  0.00     0.150 A 
ATOM     22  C   UNL     1       2.435   3.806   3.058  1.00  0.00     0.002 A 
ATOM     23  C   UNL     1       0.666   2.224   3.446  1.00  0.00     0.049 A 
ATOM     24  C   UNL     1       1.248   3.468   3.691  1.00  0.00     0.004 A 
BRANCH  21  25
ATOM     25  O   UNL     1       0.503   0.130   2.526  1.00  0.00    -0.455 OA
BRANCH  25  26
ATOM     26  C   UNL     1       0.848  -0.958   1.776  1.00  0.00     0.127 A 
ATOM     27  C   UNL     1      -0.043  -1.327   0.763  1.00  0.00     0.047 A 
ATOM     28  C   UNL     1       1.968  -1.744   2.041  1.00  0.00     0.047 A 
ATOM     29  C   UNL     1       0.233  -2.423  -0.052  1.00  0.00     0.004 A 
ATOM     30  C   UNL     1       2.241  -2.849   1.227  1.00  0.00     0.004 A 
ATOM     31  C   UNL     1       1.381  -3.180   0.174  1.00  0.00     0.000 A 
ENDBRANCH  25  26
ENDBRANCH  21  25
ENDBRANCH  17  19
ENDBRANCH  14  15
ENDBRANCH   8  14
ENDBRANCH   4   7
ENDBRANCH   2   3
ENDBRANCH   1   2
BRANCH   1  32
ATOM     32  C   UNL     1       9.586   1.338  -4.824  1.00  0.00     0.002 C 
BRANCH  32  33
ATOM     33  C   UNL     1      10.170   2.474  -3.979  1.00  0.00     0.002 C 
BRANCH  33  34
ATOM     34  C   UNL     1      10.581   2.064  -2.562  1.00  0.00     0.021 C 
BRANCH  34  35
ATOM     35  C   UNL     1      11.578   0.912  -2.510  1.00  0.00     0.116 C 
BRANCH  35  36
ATOM     36  N   UNL     1      12.791   1.217  -3.248  1.00  0.00    -0.352 N 
ATOM     37  C   UNL     1      14.100   1.092  -2.860  1.00  0.00     0.251 C 
ATOM     38  H   UNL     1      12.654   1.563  -4.159  1.00  0.00     0.163 HD
ATOM     39  O   UNL     1      14.986   1.605  -3.535  1.00  0.00    -0.269 OA
BRANCH  37  40
ATOM     40  C   UNL     1      14.432   0.353  -1.625  1.00  0.00     0.039 A 
ATOM     41  C   UNL     1      15.409   0.875  -0.776  1.00  0.00     0.014 A 
ATOM     42  C   UNL     1      13.803  -0.857  -1.316  1.00  0.00     0.014 A 
ATOM     43  C   UNL     1      15.729   0.199   0.402  1.00  0.00     0.010 A 
ATOM     44  C   UNL     1      14.067  -1.488  -0.103  1.00  0.00     0.010 A 
ATOM     45  C   UNL     1      15.044  -0.975   0.761  1.00  0.00    -0.014 A 
BRANCH  45  46
ATOM     46  C   UNL     1      15.362  -1.671   2.033  1.00  0.00     0.031 A 
ATOM     47  C   UNL     1      15.949  -3.058   2.015  1.00  0.00     0.074 A 
ATOM     48  C   UNL     1      15.114  -1.052   3.204  1.00  0.00     0.049 A 
ATOM     49  N   UNL     1      16.307  -3.814   3.021  1.00  0.00    -0.248 NA
ATOM     50  C   UNL     1      16.140  -3.688   0.697  1.00  0.00     0.031 C 
ATOM     51  C   UNL     1      14.496   0.269   3.349  1.00  0.00     0.029 A 
ATOM     52  N   UNL     1      15.357  -1.445   4.495  1.00  0.00    -0.354 N 
ATOM     53  C   UNL     1      16.776  -4.997   2.460  1.00  0.00     0.074 A 
ATOM     54  C   UNL     1      16.585  -4.890   1.030  1.00  0.00     0.031 C 
ATOM     55  C   UNL     1      14.445   0.591   4.652  1.00  0.00     0.029 A 
ATOM     56  C   UNL     1      14.995  -0.509   5.436  1.00  0.00     0.049 A 
ATOM     57  H   UNL     1      15.755  -2.316   4.727  1.00  0.00     0.167 HD
ATOM     58  C   UNL     1      17.350  -6.058   3.075  1.00  0.00     0.037 A 
ATOM     59  C   UNL     1      15.100  -0.535   6.778  1.00  0.00     0.037 A 
ATOM     60  C   UNL     1      17.548  -6.155   4.498  1.00  0.00     0.049 A 
ATOM     61  C   UNL     1      15.732  -1.734   7.435  1.00  0.00     0.074 A 
ATOM     62  C   UNL     1      18.129  -7.183   5.221  1.00  0.00     0.029 A 
ATOM     63  N   UNL     1      17.180  -5.182   5.416  1.00  0.00    -0.354 N 
ATOM     64  N   UNL     1      16.213  -2.822   6.882  1.00  0.00    -0.248 NA
ATOM     65  C   UNL     1      15.850  -1.700   8.899  1.00  0.00     0.031 C 
ATOM     66  C   UNL     1      18.082  -6.846   6.578  1.00  0.00     0.029 A 
ATOM     67  C   UNL     1      17.517  -5.587   6.697  1.00  0.00     0.049 A 
ATOM     68  H   UNL     1      16.743  -4.329   5.190  1.00  0.00     0.167 HD
ATOM     69  C   UNL     1      16.722  -3.586   7.927  1.00  0.00     0.074 A 
ATOM     70  C   UNL     1      16.510  -2.823   9.140  1.00  0.00     0.031 C 
ATOM     71  C   UNL     1      17.308  -4.809   7.891  1.00  0.00     0.037 A 
BRANCH  58  72
ATOM     72  C   UNL     1      17.837  -7.188   2.208  1.00  0.00     0.058 A 
ATOM     73  C   UNL     1      18.956  -7.036   1.373  1.00  0.00     0.135 A 
ATOM     74  C   UNL     1      17.221  -8.449   2.251  1.00  0.00     0.135 A 
ATOM     75  F   UNL     1      19.572  -5.847   1.279  1.00  0.00    -0.206 F 
ATOM     76  C   UNL     1      19.438  -8.086   0.600  1.00  0.00     0.059 A 
ATOM     77  C   UNL     1      17.703  -9.523   1.506  1.00  0.00     0.059 A 
ATOM     78  F   UNL     1      16.145  -8.651   3.028  1.00  0.00    -0.206 F 
ATOM     79  C   UNL     1      18.807  -9.329   0.677  1.00  0.00     0.060 A 
BRANCH  79  80
ATOM     80  S   UNL     1      19.466 -10.689  -0.310  1.00  0.00     0.124 S 
ATOM     81  O   UNL     1      19.085 -10.281  -1.659  1.00  0.00    -0.237 OA
ATOM     82  O   UNL     1      20.893 -10.628  -0.009  1.00  0.00    -0.237 OA
ATOM     83  O   UNL     1      18.767 -11.859   0.212  1.00  0.00    -0.744 OA
ENDBRANCH  79  80
ENDBRANCH  58  72
BRANCH  59  84
ATOM     84  C   UNL     1      14.618   0.611   7.597  1.00  0.00     0.058 A 
ATOM     85  C   UNL     1      15.514   1.411   8.324  1.00  0.00     0.135 A 
ATOM     86  C   UNL     1      13.250   0.902   7.704  1.00  0.00     0.135 A 
ATOM     87  F   UNL     1      16.833   1.173   8.254  1.00  0.00    -0.206 F 
ATOM     88  C   UNL     1      15.069   2.425   9.165  1.00  0.00     0.059 A 
ATOM     89  C   UNL     1      12.783   1.932   8.514  1.00  0.00     0.059 A 
ATOM     90  F   UNL     1      12.352   0.185   7.011  1.00  0.00    -0.206 F 
ATOM     91  C   UNL     1      13.699   2.672   9.260  1.00  0.00     0.060 A 
BRANCH  91  92
ATOM     92  S   UNL     1      13.126   3.982  10.362  1.00  0.00     0.124 S 
ATOM     93  O   UNL     1      13.299   3.360  11.669  1.00  0.00    -0.237 OA
ATOM     94  O   UNL     1      14.042   5.074  10.046  1.00  0.00    -0.237 OA
ATOM     95  O   UNL     1      11.744   4.192   9.940  1.00  0.00    -0.744 OA
ENDBRANCH  91  92
ENDBRANCH  59  84
BRANCH  71  96
ATOM     96  C   UNL     1      17.803  -5.367   9.198  1.00  0.00     0.058 A 
ATOM     97  C   UNL     1      16.920  -5.791  10.204  1.00  0.00     0.135 A 
ATOM     98  C   UNL     1      19.181  -5.479   9.446  1.00  0.00     0.135 A 
ATOM     99  F   UNL     1      15.593  -5.705  10.020  1.00  0.00    -0.206 F 
ATOM    100  C   UNL     1      17.386  -6.255  11.431  1.00  0.00     0.059 A 
ATOM    101  C   UNL     1      19.669  -5.971  10.652  1.00  0.00     0.059 A 
ATOM    102  F   UNL     1      20.069  -5.104   8.511  1.00  0.00    -0.206 F 
ATOM    103  C   UNL     1      18.763  -6.334  11.647  1.00  0.00     0.060 A 
BRANCH 103 104
ATOM    104  S   UNL     1      19.355  -6.922  13.247  1.00  0.00     0.124 S 
ATOM    105  O   UNL     1      19.100  -5.764  14.097  1.00  0.00    -0.237 OA
ATOM    106  O   UNL     1      18.506  -8.084  13.488  1.00  0.00    -0.237 OA
ATOM    107  O   UNL     1      20.762  -7.222  12.999  1.00  0.00    -0.744 OA
ENDBRANCH 103 104
ENDBRANCH  71  96
ENDBRANCH  45  46
ENDBRANCH  37  40
ENDBRANCH  35  36
ENDBRANCH  34  35
ENDBRANCH  33  34
ENDBRANCH  32  33
ENDBRANCH   1  32
TORSDOF 21
