REMARK SMILES Cc1c(C)c2c(c(C)c1O)CC[C@@](C)(C(=O)NCCCCCCNC(=O)c1ccc(-c3c4nc(c(-c5c(F)cc(S(=O)(=O)[O-])cc5F)c5ccc([nH]5)c(-c5c(F)cc(S(=O)(=O)[O-])cc5F)c5nc(c(-c6c(F)cc(S(=O)(=O)[O-])cc6F)c6ccc3[nH]6)C=C5)C=C4)cc1)O2
REMARK SMILES IDX 21 1 20 2 19 3 18 4 17 5 15 6 16 7 13 9 1 10 2 11 3 12 9 13
REMARK SMILES IDX 4 14 5 15 7 16 6 17 93 18 8 19 11 20 12 21 14 22 10 23 22 25
REMARK SMILES IDX 23 26 24 27 25 28 26 30 27 31 28 32 92 33 29 34 91 35 30 36
REMARK SMILES IDX 31 37 32 38 85 39 33 40 90 41 84 42 86 43 34 44 89 45 83 46
REMARK SMILES IDX 82 47 35 49 69 50 48 51 68 52 49 53 52 54 67 55 87 56 50 57
REMARK SMILES IDX 51 58 66 60 88 61 53 62 36 63 37 64 46 65 38 66 39 67 45 68
REMARK SMILES IDX 47 69 40 70 41 71 42 72 43 73 44 74 70 75 71 76 80 77 72 78
REMARK SMILES IDX 73 79 79 80 81 81 74 82 75 83 76 84 77 85 78 86 54 87 55 88
REMARK SMILES IDX 64 89 56 90 57 91 63 92 65 93 58 94 59 95 60 96 61 97 62 98
REMARK H PARENT 17 8 10 24 24 29 86 48 52 59
REMARK Flexibility Score: inf
ROOT
ATOM      1  C   UNL     1      -4.349   5.767  -9.393  1.00  0.00     0.002 C 
ENDROOT
BRANCH   1   2
ATOM      2  C   UNL     1      -2.867   5.420  -9.214  1.00  0.00     0.002 C 
BRANCH   2   3
ATOM      3  C   UNL     1      -2.346   5.499  -7.776  1.00  0.00     0.021 C 
BRANCH   3   4
ATOM      4  C   UNL     1      -3.084   4.595  -6.792  1.00  0.00     0.116 C 
BRANCH   4   5
ATOM      5  N   UNL     1      -2.686   3.206  -6.939  1.00  0.00    -0.353 N 
ATOM      6  C   UNL     1      -2.039   2.349  -6.089  1.00  0.00     0.263 C 
ATOM      7  O   UNL     1      -1.821   1.214  -6.527  1.00  0.00    -0.270 OA
ATOM      8  H   UNL     1      -2.923   2.808  -7.808  1.00  0.00     0.163 HD
BRANCH   6   9
ATOM      9  C   UNL     1      -1.629   2.782  -4.652  1.00  0.00     0.184 C 
ATOM     10  C   UNL     1       0.899  -0.191   0.134  1.00  0.00     0.049 C 
ATOM     11  C   UNL     1       0.581   0.972  -0.771  1.00  0.00    -0.002 A 
ATOM     12  C   UNL     1      -0.035   0.779  -2.032  1.00  0.00    -0.002 A 
ATOM     13  C   UNL     1       0.896   2.285  -0.363  1.00  0.00     0.122 A 
ATOM     14  C   UNL     1      -0.410  -0.605  -2.506  1.00  0.00     0.049 C 
ATOM     15  C   UNL     1      -0.315   1.899  -2.841  1.00  0.00     0.127 A 
ATOM     16  C   UNL     1       0.631   3.400  -1.172  1.00  0.00    -0.002 A 
ATOM     17  C   UNL     1       0.052   3.196  -2.440  1.00  0.00     0.001 A 
ATOM     18  O   UNL     1      -0.966   1.655  -4.031  1.00  0.00    -0.477 OA
ATOM     19  C   UNL     1       0.961   4.796  -0.704  1.00  0.00     0.049 C 
ATOM     20  C   UNL     1      -0.210   4.370  -3.346  1.00  0.00     0.044 C 
ATOM     21  C   UNL     1      -0.602   3.913  -4.735  1.00  0.00     0.063 C 
ATOM     22  C   UNL     1      -2.917   3.046  -3.845  1.00  0.00     0.067 C 
BRANCH  13  23
ATOM     23  O   UNL     1       1.485   2.533   0.851  1.00  0.00    -0.507 OA
ATOM     24  H   UNL     1       1.684   1.823   1.429  1.00  0.00     0.293 HD
ENDBRANCH  13  23
ENDBRANCH   6   9
ENDBRANCH   4   5
ENDBRANCH   3   4
ENDBRANCH   2   3
ENDBRANCH   1   2
BRANCH   1  25
ATOM     25  C   UNL     1      -4.797   7.092  -8.771  1.00  0.00     0.021 C 
BRANCH  25  26
ATOM     26  C   UNL     1      -4.030   8.320  -9.251  1.00  0.00     0.116 C 
BRANCH  26  27
ATOM     27  N   UNL     1      -4.209   8.560 -10.672  1.00  0.00    -0.352 N 
ATOM     28  C   UNL     1      -4.668   9.686 -11.309  1.00  0.00     0.251 C 
ATOM     29  H   UNL     1      -3.968   7.809 -11.262  1.00  0.00     0.163 HD
ATOM     30  O   UNL     1      -4.924   9.653 -12.510  1.00  0.00    -0.269 OA
BRANCH  28  31
ATOM     31  C   UNL     1      -4.876  10.930 -10.539  1.00  0.00     0.039 A 
ATOM     32  C   UNL     1      -6.079  11.624 -10.688  1.00  0.00     0.014 A 
ATOM     33  C   UNL     1      -3.890  11.406  -9.667  1.00  0.00     0.014 A 
ATOM     34  C   UNL     1      -6.317  12.763  -9.918  1.00  0.00     0.010 A 
ATOM     35  C   UNL     1      -4.156  12.505  -8.854  1.00  0.00     0.010 A 
ATOM     36  C   UNL     1      -5.370  13.196  -8.974  1.00  0.00    -0.014 A 
BRANCH  36  37
ATOM     37  C   UNL     1      -5.643  14.375  -8.115  1.00  0.00     0.031 A 
ATOM     38  C   UNL     1      -4.841  15.634  -8.282  1.00  0.00     0.074 A 
ATOM     39  C   UNL     1      -6.603  14.301  -7.172  1.00  0.00     0.049 A 
ATOM     40  N   UNL     1      -4.949  16.769  -7.641  1.00  0.00    -0.248 NA
ATOM     41  C   UNL     1      -3.766  15.611  -9.286  1.00  0.00     0.031 C 
ATOM     42  C   UNL     1      -7.420  13.119  -6.889  1.00  0.00     0.029 A 
ATOM     43  N   UNL     1      -7.063  15.242  -6.285  1.00  0.00    -0.354 N 
ATOM     44  C   UNL     1      -3.965  17.596  -8.168  1.00  0.00     0.074 A 
ATOM     45  C   UNL     1      -3.226  16.812  -9.133  1.00  0.00     0.031 C 
ATOM     46  C   UNL     1      -8.311  13.420  -5.931  1.00  0.00     0.029 A 
ATOM     47  C   UNL     1      -8.113  14.804  -5.511  1.00  0.00     0.049 A 
ATOM     48  H   UNL     1      -6.678  16.145  -6.209  1.00  0.00     0.167 HD
ATOM     49  C   UNL     1      -3.720  18.900  -7.898  1.00  0.00     0.037 A 
ATOM     50  C   UNL     1      -8.844  15.451  -4.582  1.00  0.00     0.037 A 
ATOM     51  C   UNL     1      -4.468  19.680  -6.949  1.00  0.00     0.049 A 
ATOM     52  C   UNL     1      -8.541  16.893  -4.282  1.00  0.00     0.074 A 
ATOM     53  C   UNL     1      -4.316  21.016  -6.625  1.00  0.00     0.029 A 
ATOM     54  N   UNL     1      -5.511  19.195  -6.175  1.00  0.00    -0.354 N 
ATOM     55  N   UNL     1      -7.637  17.672  -4.824  1.00  0.00    -0.248 NA
ATOM     56  C   UNL     1      -9.355  17.545  -3.246  1.00  0.00     0.031 C 
ATOM     57  C   UNL     1      -5.249  21.332  -5.632  1.00  0.00     0.029 A 
ATOM     58  C   UNL     1      -6.004  20.201  -5.363  1.00  0.00     0.049 A 
ATOM     59  H   UNL     1      -5.850  18.271  -6.199  1.00  0.00     0.167 HD
ATOM     60  C   UNL     1      -7.788  18.912  -4.214  1.00  0.00     0.074 A 
ATOM     61  C   UNL     1      -8.872  18.781  -3.262  1.00  0.00     0.031 C 
ATOM     62  C   UNL     1      -7.092  20.055  -4.428  1.00  0.00     0.037 A 
BRANCH  49  63
ATOM     63  C   UNL     1      -2.610  19.566  -8.660  1.00  0.00     0.058 A 
ATOM     64  C   UNL     1      -2.746  19.872 -10.024  1.00  0.00     0.135 A 
ATOM     65  C   UNL     1      -1.410  19.922  -8.024  1.00  0.00     0.135 A 
ATOM     66  F   UNL     1      -3.868  19.539 -10.682  1.00  0.00    -0.206 F 
ATOM     67  C   UNL     1      -1.719  20.477 -10.739  1.00  0.00     0.059 A 
ATOM     68  C   UNL     1      -0.378  20.551  -8.715  1.00  0.00     0.059 A 
ATOM     69  F   UNL     1      -1.229  19.652  -6.722  1.00  0.00    -0.206 F 
ATOM     70  C   UNL     1      -0.537  20.809 -10.077  1.00  0.00     0.060 A 
BRANCH  70  71
ATOM     71  S   UNL     1       0.791  21.582 -11.024  1.00  0.00     0.124 S 
ATOM     72  O   UNL     1       1.286  20.451 -11.804  1.00  0.00    -0.237 OA
ATOM     73  O   UNL     1       0.081  22.609 -11.778  1.00  0.00    -0.237 OA
ATOM     74  O   UNL     1       1.699  22.078  -9.994  1.00  0.00    -0.744 OA
ENDBRANCH  70  71
ENDBRANCH  49  63
BRANCH  50  75
ATOM     75  C   UNL     1      -9.973  14.750  -3.919  1.00  0.00     0.058 A 
ATOM     76  C   UNL     1     -11.299  15.052  -4.262  1.00  0.00     0.135 A 
ATOM     77  C   UNL     1      -9.755  13.737  -2.973  1.00  0.00     0.135 A 
ATOM     78  F   UNL     1     -11.557  16.017  -5.158  1.00  0.00    -0.206 F 
ATOM     79  C   UNL     1     -12.371  14.373  -3.693  1.00  0.00     0.059 A 
ATOM     80  C   UNL     1     -10.810  13.031  -2.403  1.00  0.00     0.059 A 
ATOM     81  F   UNL     1      -8.503  13.402  -2.623  1.00  0.00    -0.206 F 
ATOM     82  C   UNL     1     -12.116  13.358  -2.768  1.00  0.00     0.060 A 
BRANCH  82  83
ATOM     83  S   UNL     1     -13.513  12.433  -2.094  1.00  0.00     0.124 S 
ATOM     84  O   UNL     1     -14.114  13.417  -1.201  1.00  0.00    -0.237 OA
ATOM     85  O   UNL     1     -14.275  12.111  -3.296  1.00  0.00    -0.237 OA
ATOM     86  O   UNL     1     -12.876  11.293  -1.441  1.00  0.00    -0.744 OA
ENDBRANCH  82  83
ENDBRANCH  50  75
BRANCH  62  87
ATOM     87  C   UNL     1      -7.477  21.271  -3.637  1.00  0.00     0.058 A 
ATOM     88  C   UNL     1      -7.073  21.430  -2.304  1.00  0.00     0.135 A 
ATOM     89  C   UNL     1      -8.145  22.340  -4.257  1.00  0.00     0.135 A 
ATOM     90  F   UNL     1      -6.439  20.433  -1.666  1.00  0.00    -0.206 F 
ATOM     91  C   UNL     1      -7.307  22.614  -1.613  1.00  0.00     0.059 A 
ATOM     92  C   UNL     1      -8.373  23.540  -3.591  1.00  0.00     0.059 A 
ATOM     93  F   UNL     1      -8.546  22.236  -5.534  1.00  0.00    -0.206 F 
ATOM     94  C   UNL     1      -7.946  23.669  -2.270  1.00  0.00     0.060 A 
BRANCH  94  95
ATOM     95  S   UNL     1      -8.153  25.233  -1.392  1.00  0.00     0.124 S 
ATOM     96  O   UNL     1      -9.205  24.898  -0.438  1.00  0.00    -0.237 OA
ATOM     97  O   UNL     1      -6.826  25.448  -0.823  1.00  0.00    -0.237 OA
ATOM     98  O   UNL     1      -8.535  26.167  -2.446  1.00  0.00    -0.744 OA
ENDBRANCH  94  95
ENDBRANCH  62  87
ENDBRANCH  36  37
ENDBRANCH  28  31
ENDBRANCH  26  27
ENDBRANCH  25  26
ENDBRANCH   1  25
TORSDOF 17
