REMARK SMILES COc1ccc([C@@H]([NH3+])CC(=O)NCCCCCCNC(=O)c2ccc(-c3c4nc(c(-c5c(F)cc(S(=O)(=O)[O-])cc5F)c5ccc([nH]5)c(-c5c(F)cc(S(=O)(=O)[O-])cc5F)c5nc(c(-c6c(F)cc(S(=O)(=O)[O-])cc6F)c6ccc3[nH]6)C=C5)C=C4)cc2)cc1
REMARK SMILES IDX 15 1 14 2 13 3 12 4 10 5 11 6 9 8 7 9 6 10 3 11 4 12 89 13
REMARK SMILES IDX 5 14 88 15 2 16 1 17 8 18 16 22 17 23 18 24 19 25 20 26
REMARK SMILES IDX 21 28 22 29 23 30 87 31 24 32 86 33 25 34 26 35 27 36 80 37
REMARK SMILES IDX 28 38 85 39 79 40 81 41 29 42 84 43 78 44 77 45 30 47 64 48
REMARK SMILES IDX 43 49 63 50 44 51 47 52 62 53 82 54 45 55 46 56 61 58 83 59
REMARK SMILES IDX 48 60 31 61 32 62 41 63 33 64 34 65 40 66 42 67 35 68 36 69
REMARK SMILES IDX 37 70 38 71 39 72 65 73 66 74 75 75 67 76 68 77 74 78 76 79
REMARK SMILES IDX 69 80 70 81 71 82 72 83 73 84 49 85 50 86 59 87 51 88 52 89
REMARK SMILES IDX 58 90 60 91 53 92 54 93 55 94 56 95 57 96
REMARK H PARENT 12 7 8 19 8 20 8 21 19 27 81 46 47 57
REMARK Flexibility Score: inf
ROOT
ATOM      1  C   UNL     1       1.444   1.187  -2.820  1.00  0.00     0.002 C 
ENDROOT
BRANCH   1   2
ATOM      2  C   UNL     1       1.159  -0.264  -3.223  1.00  0.00     0.021 C 
BRANCH   2   3
ATOM      3  C   UNL     1       0.265  -0.438  -4.454  1.00  0.00     0.116 C 
BRANCH   3   4
ATOM      4  N   UNL     1       1.057  -0.438  -5.673  1.00  0.00    -0.356 N 
ATOM      5  C   UNL     1       1.420  -1.470  -6.483  1.00  0.00     0.226 C 
ATOM      6  O   UNL     1       2.234  -1.243  -7.382  1.00  0.00    -0.275 OA
ATOM      7  H   UNL     1       1.382   0.447  -5.957  1.00  0.00     0.163 HD
BRANCH   5   8
ATOM      8  C   UNL     1       0.827  -2.855  -6.320  1.00  0.00     0.170 C 
BRANCH   8   9
ATOM      9  C   UNL     1       1.776  -3.807  -5.572  1.00  0.00     0.221 C 
BRANCH   9  10
ATOM     10  C   UNL     1       1.645  -3.728  -4.060  1.00  0.00     0.010 A 
ATOM     11  C   UNL     1       1.411  -3.563  -1.272  1.00  0.00     0.118 A 
ATOM     12  C   UNL     1       0.299  -3.893  -2.038  1.00  0.00     0.047 A 
ATOM     13  C   UNL     1       2.655  -3.376  -1.873  1.00  0.00     0.047 A 
ATOM     14  C   UNL     1       0.416  -3.977  -3.424  1.00  0.00     0.014 A 
ATOM     15  C   UNL     1       2.770  -3.458  -3.264  1.00  0.00     0.014 A 
BRANCH  11  16
ATOM     16  O   UNL     1       1.228  -3.467   0.079  1.00  0.00    -0.497 OA
ATOM     17  C   UNL     1       1.605  -2.184   0.568  1.00  0.00     0.278 C 
ENDBRANCH  11  16
ENDBRANCH   9  10
BRANCH   9  18
ATOM     18  N   UNL     1       1.520  -5.197  -5.986  1.00  0.00    -0.351 N 
ATOM     19  H   UNL     1       0.569  -5.460  -5.727  1.00  0.00     0.345 HD
ATOM     20  H   UNL     1       2.183  -5.818  -5.521  1.00  0.00     0.345 HD
ATOM     21  H   UNL     1       1.632  -5.277  -6.997  1.00  0.00     0.345 HD
ENDBRANCH   9  18
ENDBRANCH   8   9
ENDBRANCH   5   8
ENDBRANCH   3   4
ENDBRANCH   2   3
ENDBRANCH   1   2
BRANCH   1  22
ATOM     22  C   UNL     1       0.263   1.953  -2.211  1.00  0.00     0.002 C 
BRANCH  22  23
ATOM     23  C   UNL     1      -0.376   1.339  -0.958  1.00  0.00     0.021 C 
BRANCH  23  24
ATOM     24  C   UNL     1       0.531   1.208   0.265  1.00  0.00     0.116 C 
BRANCH  24  25
ATOM     25  N   UNL     1       0.851   2.473   0.894  1.00  0.00    -0.352 N 
ATOM     26  C   UNL     1       0.894   2.809   2.227  1.00  0.00     0.251 C 
ATOM     27  H   UNL     1       1.072   3.204   0.273  1.00  0.00     0.163 HD
ATOM     28  O   UNL     1       1.148   3.973   2.536  1.00  0.00    -0.269 OA
BRANCH  26  29
ATOM     29  C   UNL     1       0.605   1.818   3.297  1.00  0.00     0.039 A 
ATOM     30  C   UNL     1      -0.184   2.230   4.375  1.00  0.00     0.014 A 
ATOM     31  C   UNL     1       1.135   0.524   3.298  1.00  0.00     0.014 A 
ATOM     32  C   UNL     1      -0.467   1.347   5.423  1.00  0.00     0.010 A 
ATOM     33  C   UNL     1       0.796  -0.381   4.316  1.00  0.00     0.010 A 
ATOM     34  C   UNL     1       0.005   0.024   5.402  1.00  0.00    -0.014 A 
BRANCH  34  35
ATOM     35  C   UNL     1      -0.319  -0.896   6.534  1.00  0.00     0.031 A 
ATOM     36  C   UNL     1       0.762  -1.412   7.451  1.00  0.00     0.074 A 
ATOM     37  C   UNL     1      -1.601  -1.247   6.769  1.00  0.00     0.049 A 
ATOM     38  N   UNL     1       0.646  -2.112   8.554  1.00  0.00    -0.248 NA
ATOM     39  C   UNL     1       2.154  -1.121   7.076  1.00  0.00     0.031 C 
ATOM     40  C   UNL     1      -2.745  -0.874   5.934  1.00  0.00     0.029 A 
ATOM     41  N   UNL     1      -2.162  -1.979   7.789  1.00  0.00    -0.354 N 
ATOM     42  C   UNL     1       1.943  -2.337   9.005  1.00  0.00     0.074 A 
ATOM     43  C   UNL     1       2.832  -1.755   8.022  1.00  0.00     0.031 C 
ATOM     44  C   UNL     1      -3.872  -1.341   6.497  1.00  0.00     0.029 A 
ATOM     45  C   UNL     1      -3.534  -2.062   7.722  1.00  0.00     0.049 A 
ATOM     46  H   UNL     1      -1.631  -2.404   8.501  1.00  0.00     0.167 HD
ATOM     47  C   UNL     1       2.359  -2.942  10.145  1.00  0.00     0.037 A 
ATOM     48  C   UNL     1      -4.425  -2.636   8.556  1.00  0.00     0.037 A 
ATOM     49  C   UNL     1       1.479  -3.513  11.133  1.00  0.00     0.049 A 
ATOM     50  C   UNL     1      -3.941  -3.288   9.825  1.00  0.00     0.074 A 
ATOM     51  C   UNL     1       1.809  -4.101  12.343  1.00  0.00     0.029 A 
ATOM     52  N   UNL     1       0.098  -3.573  11.028  1.00  0.00    -0.354 N 
ATOM     53  N   UNL     1      -2.715  -3.413  10.275  1.00  0.00    -0.248 NA
ATOM     54  C   UNL     1      -4.966  -3.861  10.709  1.00  0.00     0.031 C 
ATOM     55  C   UNL     1       0.632  -4.557  12.948  1.00  0.00     0.029 A 
ATOM     56  C   UNL     1      -0.437  -4.205  12.141  1.00  0.00     0.049 A 
ATOM     57  H   UNL     1      -0.426  -3.220  10.274  1.00  0.00     0.167 HD
ATOM     58  C   UNL     1      -2.825  -4.051  11.507  1.00  0.00     0.074 A 
ATOM     59  C   UNL     1      -4.238  -4.270  11.739  1.00  0.00     0.031 C 
ATOM     60  C   UNL     1      -1.844  -4.421  12.368  1.00  0.00     0.037 A 
BRANCH  47  61
ATOM     61  C   UNL     1       3.844  -3.012  10.393  1.00  0.00     0.058 A 
ATOM     62  C   UNL     1       4.593  -1.864  10.699  1.00  0.00     0.135 A 
ATOM     63  C   UNL     1       4.520  -4.243  10.363  1.00  0.00     0.135 A 
ATOM     64  F   UNL     1       4.002  -0.659  10.731  1.00  0.00    -0.206 F 
ATOM     65  C   UNL     1       5.963  -1.928  10.932  1.00  0.00     0.059 A 
ATOM     66  C   UNL     1       5.885  -4.335  10.622  1.00  0.00     0.059 A 
ATOM     67  F   UNL     1       3.854  -5.374  10.081  1.00  0.00    -0.206 F 
ATOM     68  C   UNL     1       6.601  -3.169  10.889  1.00  0.00     0.060 A 
BRANCH  68  69
ATOM     69  S   UNL     1       8.380  -3.236  11.190  1.00  0.00     0.124 S 
ATOM     70  O   UNL     1       8.905  -2.659   9.954  1.00  0.00    -0.237 OA
ATOM     71  O   UNL     1       8.526  -2.407  12.385  1.00  0.00    -0.237 OA
ATOM     72  O   UNL     1       8.641  -4.656  11.380  1.00  0.00    -0.744 OA
ENDBRANCH  68  69
ENDBRANCH  47  61
BRANCH  48  73
ATOM     73  C   UNL     1      -5.879  -2.583   8.243  1.00  0.00     0.058 A 
ATOM     74  C   UNL     1      -6.759  -1.797   9.004  1.00  0.00     0.135 A 
ATOM     75  C   UNL     1      -6.419  -3.321   7.178  1.00  0.00     0.135 A 
ATOM     76  F   UNL     1      -6.293  -1.080  10.038  1.00  0.00    -0.206 F 
ATOM     77  C   UNL     1      -8.123  -1.759   8.734  1.00  0.00     0.059 A 
ATOM     78  C   UNL     1      -7.776  -3.278   6.872  1.00  0.00     0.059 A 
ATOM     79  F   UNL     1      -5.619  -4.077   6.411  1.00  0.00    -0.206 F 
ATOM     80  C   UNL     1      -8.622  -2.503   7.664  1.00  0.00     0.060 A 
BRANCH  80  81
ATOM     81  S   UNL     1     -10.387  -2.412   7.291  1.00  0.00     0.124 S 
ATOM     82  O   UNL     1     -10.958  -3.202   8.375  1.00  0.00    -0.237 OA
ATOM     83  O   UNL     1     -10.639  -0.975   7.348  1.00  0.00    -0.237 OA
ATOM     84  O   UNL     1     -10.480  -3.004   5.960  1.00  0.00    -0.744 OA
ENDBRANCH  80  81
ENDBRANCH  48  73
BRANCH  60  85
ATOM     85  C   UNL     1      -2.266  -5.069  13.661  1.00  0.00     0.058 A 
ATOM     86  C   UNL     1      -2.809  -6.364  13.701  1.00  0.00     0.135 A 
ATOM     87  C   UNL     1      -2.114  -4.389  14.881  1.00  0.00     0.135 A 
ATOM     88  F   UNL     1      -2.979  -7.060  12.565  1.00  0.00    -0.206 F 
ATOM     89  C   UNL     1      -3.228  -6.942  14.896  1.00  0.00     0.059 A 
ATOM     90  C   UNL     1      -2.497  -4.960  16.091  1.00  0.00     0.059 A 
ATOM     91  F   UNL     1      -1.586  -3.155  14.906  1.00  0.00    -0.206 F 
ATOM     92  C   UNL     1      -3.074  -6.229  16.086  1.00  0.00     0.060 A 
BRANCH  92  93
ATOM     93  S   UNL     1      -3.628  -6.984  17.629  1.00  0.00     0.124 S 
ATOM     94  O   UNL     1      -5.076  -6.842  17.522  1.00  0.00    -0.237 OA
ATOM     95  O   UNL     1      -3.115  -8.346  17.515  1.00  0.00    -0.237 OA
ATOM     96  O   UNL     1      -2.990  -6.165  18.656  1.00  0.00    -0.744 OA
ENDBRANCH  92  93
ENDBRANCH  60  85
ENDBRANCH  34  35
ENDBRANCH  26  29
ENDBRANCH  24  25
ENDBRANCH  23  24
ENDBRANCH  22  23
ENDBRANCH   1  22
TORSDOF 20
