REMARK SMILES NS(=O)(=O)c1ccc(-n2nc(C(=O)NCCCCCCNC(=O)c3ccc(-c4c5nc(c(-c6c(F)cc(S(=O)(=O)[O-])cc6F)c6ccc([nH]6)c(-c6c(F)cc(S(=O)(=O)[O-])cc6F)c6nc(c(-c7c(F)cc(S(=O)(=O)[O-])cc7F)c7ccc4[nH]7)C=C6)C=C5)cc3)cc2-c2cc3ccccc3s2)cc1
REMARK SMILES IDX 17 1 16 2 15 3 14 4 12 5 13 6 11 8 9 9 10 10 91 11 90 12
REMARK SMILES IDX 8 13 5 14 6 15 102 16 7 17 101 18 2 19 3 20 4 21 1 22 92 25
REMARK SMILES IDX 93 26 100 27 94 28 99 29 95 30 98 31 96 32 97 33 18 34 19 35
REMARK SMILES IDX 20 36 21 37 22 38 23 40 24 41 25 42 89 43 26 44 88 45 27 46
REMARK SMILES IDX 28 47 29 48 82 49 30 50 87 51 81 52 83 53 31 54 86 55 80 56
REMARK SMILES IDX 79 57 32 59 66 60 45 61 65 62 46 63 49 64 64 65 84 66 47 67
REMARK SMILES IDX 48 68 63 70 85 71 50 72 33 73 34 74 43 75 35 76 36 77 42 78
REMARK SMILES IDX 44 79 37 80 38 81 39 82 40 83 41 84 67 85 68 86 77 87 69 88
REMARK SMILES IDX 70 89 76 90 78 91 71 92 72 93 73 94 74 95 75 96 51 97 52 98
REMARK SMILES IDX 61 99 53 100 54 101 60 102 62 103 55 104 56 105 57 106
REMARK SMILES IDX 58 107 59 108
REMARK H PARENT 14 7 1 23 1 24 21 39 83 58 49 69
REMARK Flexibility Score: inf
ROOT
ATOM      1  C   UNL     1       3.316  -8.795  10.654  1.00  0.00     0.002 C 
ENDROOT
BRANCH   1   2
ATOM      2  C   UNL     1       3.511  -7.951   9.384  1.00  0.00     0.021 C 
BRANCH   2   3
ATOM      3  C   UNL     1       2.212  -7.646   8.632  1.00  0.00     0.116 C 
BRANCH   3   4
ATOM      4  N   UNL     1       1.476  -6.552   9.254  1.00  0.00    -0.351 N 
ATOM      5  C   UNL     1       1.196  -5.255   8.858  1.00  0.00     0.271 C 
ATOM      6  O   UNL     1       0.428  -4.621   9.585  1.00  0.00    -0.267 OA
ATOM      7  H   UNL     1       1.102  -6.783  10.135  1.00  0.00     0.163 HD
BRANCH   5   8
ATOM      8  C   UNL     1       1.726  -4.709   7.592  1.00  0.00     0.151 A 
ATOM      9  N   UNL     1       1.642  -3.739   5.672  1.00  0.00    -0.231 N 
ATOM     10  N   UNL     1       1.115  -3.704   6.929  1.00  0.00    -0.162 NA
ATOM     11  C   UNL     1       2.576  -4.742   5.561  1.00  0.00     0.085 A 
ATOM     12  C   UNL     1       2.860  -5.111   6.864  1.00  0.00     0.066 A 
BRANCH   9  13
ATOM     13  C   UNL     1       1.277  -2.759   4.719  1.00  0.00     0.065 A 
ATOM     14  C   UNL     1       0.712  -0.744   2.885  1.00  0.00     0.082 A 
ATOM     15  C   UNL     1       0.694  -2.081   2.474  1.00  0.00     0.024 A 
ATOM     16  C   UNL     1       1.000  -0.406   4.209  1.00  0.00     0.024 A 
ATOM     17  C   UNL     1       1.002  -3.091   3.389  1.00  0.00     0.030 A 
ATOM     18  C   UNL     1       1.251  -1.419   5.136  1.00  0.00     0.030 A 
BRANCH  14  19
ATOM     19  S   UNL     1       0.405   0.539   1.709  1.00  0.00     0.238 S 
ATOM     20  O   UNL     1       1.113   1.739   2.119  1.00  0.00    -0.207 OA
ATOM     21  O   UNL     1      -0.991   0.538   1.378  1.00  0.00    -0.207 OA
BRANCH  19  22
ATOM     22  N   UNL     1       1.218   0.008   0.337  1.00  0.00    -0.225 NA
ATOM     23  H   UNL     1       1.101   0.690  -0.413  1.00  0.00     0.137 HD
ATOM     24  H   UNL     1       0.836  -0.890   0.042  1.00  0.00     0.137 HD
ENDBRANCH  19  22
ENDBRANCH  14  19
ENDBRANCH   9  13
BRANCH  11  25
ATOM     25  C   UNL     1       3.078  -5.439   4.410  1.00  0.00     0.054 A 
ATOM     26  C   UNL     1       4.399  -5.824   4.224  1.00  0.00     0.031 A 
ATOM     27  S   UNL     1       2.104  -6.738   3.791  1.00  0.00    -0.134 S 
ATOM     28  C   UNL     1       4.476  -7.221   4.619  1.00  0.00    -0.007 A 
ATOM     29  C   UNL     1       3.221  -7.838   4.526  1.00  0.00     0.035 A 
ATOM     30  C   UNL     1       5.539  -7.960   5.182  1.00  0.00     0.009 A 
ATOM     31  C   UNL     1       2.979  -9.133   5.006  1.00  0.00     0.019 A 
ATOM     32  C   UNL     1       5.294  -9.229   5.717  1.00  0.00     0.001 A 
ATOM     33  C   UNL     1       4.029  -9.802   5.637  1.00  0.00     0.001 A 
ENDBRANCH  11  25
ENDBRANCH   5   8
ENDBRANCH   3   4
ENDBRANCH   2   3
ENDBRANCH   1   2
BRANCH   1  34
ATOM     34  C   UNL     1       2.718 -10.200  10.455  1.00  0.00     0.002 C 
BRANCH  34  35
ATOM     35  C   UNL     1       3.409 -11.104   9.425  1.00  0.00     0.021 C 
BRANCH  35  36
ATOM     36  C   UNL     1       4.843 -11.469   9.779  1.00  0.00     0.116 C 
BRANCH  36  37
ATOM     37  N   UNL     1       4.934 -12.401  10.902  1.00  0.00    -0.352 N 
ATOM     38  C   UNL     1       6.070 -12.992  11.425  1.00  0.00     0.251 C 
ATOM     39  H   UNL     1       4.084 -12.635  11.340  1.00  0.00     0.163 HD
ATOM     40  O   UNL     1       5.988 -14.014  12.097  1.00  0.00    -0.269 OA
BRANCH  38  41
ATOM     41  C   UNL     1       7.382 -12.373  11.156  1.00  0.00     0.039 A 
ATOM     42  C   UNL     1       8.518 -13.145  10.905  1.00  0.00     0.014 A 
ATOM     43  C   UNL     1       7.458 -10.982  11.136  1.00  0.00     0.014 A 
ATOM     44  C   UNL     1       9.704 -12.501  10.555  1.00  0.00     0.010 A 
ATOM     45  C   UNL     1       8.571 -10.361  10.629  1.00  0.00     0.010 A 
ATOM     46  C   UNL     1       9.718 -11.104  10.391  1.00  0.00    -0.014 A 
BRANCH  46  47
ATOM     47  C   UNL     1      10.896 -10.426   9.854  1.00  0.00     0.031 A 
ATOM     48  C   UNL     1      11.419 -11.026   8.594  1.00  0.00     0.074 A 
ATOM     49  C   UNL     1      11.364  -9.243  10.314  1.00  0.00     0.049 A 
ATOM     50  N   UNL     1      12.530 -11.662   8.425  1.00  0.00    -0.248 NA
ATOM     51  C   UNL     1      10.531 -11.064   7.418  1.00  0.00     0.031 C 
ATOM     52  C   UNL     1      10.788  -8.358  11.334  1.00  0.00     0.029 A 
ATOM     53  N   UNL     1      12.433  -8.521   9.880  1.00  0.00    -0.354 N 
ATOM     54  C   UNL     1      12.594 -11.968   7.069  1.00  0.00     0.074 A 
ATOM     55  C   UNL     1      11.269 -11.757   6.547  1.00  0.00     0.031 C 
ATOM     56  C   UNL     1      11.364  -7.137  11.258  1.00  0.00     0.029 A 
ATOM     57  C   UNL     1      12.466  -7.199  10.317  1.00  0.00     0.049 A 
ATOM     58  H   UNL     1      13.130  -8.905   9.301  1.00  0.00     0.167 HD
ATOM     59  C   UNL     1      13.790 -12.131   6.438  1.00  0.00     0.037 A 
ATOM     60  C   UNL     1      13.328  -6.229   9.914  1.00  0.00     0.037 A 
ATOM     61  C   UNL     1      14.854 -12.356   7.386  1.00  0.00     0.049 A 
ATOM     62  C   UNL     1      14.506  -6.923   9.329  1.00  0.00     0.074 A 
ATOM     63  C   UNL     1      15.067 -13.282   8.392  1.00  0.00     0.029 A 
ATOM     64  N   UNL     1      15.707 -11.314   7.663  1.00  0.00    -0.354 N 
ATOM     65  N   UNL     1      15.335  -7.656  10.022  1.00  0.00    -0.248 NA
ATOM     66  C   UNL     1      14.477  -7.194   7.899  1.00  0.00     0.031 C 
ATOM     67  C   UNL     1      15.611 -12.527   9.473  1.00  0.00     0.029 A 
ATOM     68  C   UNL     1      15.786 -11.215   9.031  1.00  0.00     0.049 A 
ATOM     69  H   UNL     1      16.173 -10.747   7.007  1.00  0.00     0.167 HD
ATOM     70  C   UNL     1      15.601  -8.750   9.213  1.00  0.00     0.074 A 
ATOM     71  C   UNL     1      15.096  -8.377   7.891  1.00  0.00     0.031 C 
ATOM     72  C   UNL     1      15.941  -9.964   9.740  1.00  0.00     0.037 A 
BRANCH  59  73
ATOM     73  C   UNL     1      14.047 -11.730   5.005  1.00  0.00     0.058 A 
ATOM     74  C   UNL     1      15.252 -12.108   4.379  1.00  0.00     0.135 A 
ATOM     75  C   UNL     1      13.278 -10.769   4.311  1.00  0.00     0.135 A 
ATOM     76  F   UNL     1      16.075 -12.995   4.961  1.00  0.00    -0.206 F 
ATOM     77  C   UNL     1      15.683 -11.537   3.180  1.00  0.00     0.059 A 
ATOM     78  C   UNL     1      13.660 -10.229   3.089  1.00  0.00     0.059 A 
ATOM     79  F   UNL     1      12.166 -10.233   4.828  1.00  0.00    -0.206 F 
ATOM     80  C   UNL     1      14.881 -10.592   2.547  1.00  0.00     0.060 A 
BRANCH  80  81
ATOM     81  S   UNL     1      15.462  -9.803   1.037  1.00  0.00     0.124 S 
ATOM     82  O   UNL     1      16.561  -8.987   1.540  1.00  0.00    -0.237 OA
ATOM     83  O   UNL     1      15.839 -10.954   0.222  1.00  0.00    -0.237 OA
ATOM     84  O   UNL     1      14.290  -9.070   0.570  1.00  0.00    -0.744 OA
ENDBRANCH  80  81
ENDBRANCH  59  73
BRANCH  60  85
ATOM     85  C   UNL     1      13.060  -4.783   9.666  1.00  0.00     0.058 A 
ATOM     86  C   UNL     1      14.115  -3.895   9.374  1.00  0.00     0.135 A 
ATOM     87  C   UNL     1      11.762  -4.306   9.398  1.00  0.00     0.135 A 
ATOM     88  F   UNL     1      15.386  -4.263   9.593  1.00  0.00    -0.206 F 
ATOM     89  C   UNL     1      13.901  -2.647   8.776  1.00  0.00     0.059 A 
ATOM     90  C   UNL     1      11.524  -3.062   8.812  1.00  0.00     0.059 A 
ATOM     91  F   UNL     1      10.684  -5.077   9.604  1.00  0.00    -0.206 F 
ATOM     92  C   UNL     1      12.601  -2.252   8.469  1.00  0.00     0.060 A 
BRANCH  92  93
ATOM     93  S   UNL     1      12.331  -0.751   7.494  1.00  0.00     0.124 S 
ATOM     94  O   UNL     1      12.676   0.296   8.448  1.00  0.00    -0.237 OA
ATOM     95  O   UNL     1      13.260  -0.934   6.383  1.00  0.00    -0.237 OA
ATOM     96  O   UNL     1      10.917  -0.831   7.137  1.00  0.00    -0.744 OA
ENDBRANCH  92  93
ENDBRANCH  60  85
BRANCH  72  97
ATOM     97  C   UNL     1      16.301 -10.050  11.204  1.00  0.00     0.058 A 
ATOM     98  C   UNL     1      15.443  -9.721  12.270  1.00  0.00     0.135 A 
ATOM     99  C   UNL     1      17.531 -10.637  11.538  1.00  0.00     0.135 A 
ATOM    100  F   UNL     1      14.207  -9.253  12.045  1.00  0.00    -0.206 F 
ATOM    101  C   UNL     1      15.811  -9.927  13.604  1.00  0.00     0.059 A 
ATOM    102  C   UNL     1      17.905 -10.883  12.857  1.00  0.00     0.059 A 
ATOM    103  F   UNL     1      18.375 -11.029  10.569  1.00  0.00    -0.206 F 
ATOM    104  C   UNL     1      17.046 -10.510  13.887  1.00  0.00     0.060 A 
BRANCH 104 105
ATOM    105  S   UNL     1      17.503 -10.829  15.605  1.00  0.00     0.124 S 
ATOM    106  O   UNL     1      17.712  -9.481  16.122  1.00  0.00    -0.237 OA
ATOM    107  O   UNL     1      16.331 -11.530  16.120  1.00  0.00    -0.237 OA
ATOM    108  O   UNL     1      18.708 -11.647  15.492  1.00  0.00    -0.744 OA
ENDBRANCH 104 105
ENDBRANCH  72  97
ENDBRANCH  46  47
ENDBRANCH  38  41
ENDBRANCH  36  37
ENDBRANCH  35  36
ENDBRANCH  34  35
ENDBRANCH   1  34
TORSDOF 20
