REMARK SMILES O=C(CCc1cccnc1)Nc1cccc(F)c1C(=O)NCCCCCCNC(=O)c1ccc(-c2c3nc(c(-c4c(F)cc(S(=O)(=O)[O-])cc4F)c4ccc([nH]4)c(-c4c(F)cc(S(=O)(=O)[O-])cc4F)c4nc(c(-c5c(F)cc(S(=O)(=O)[O-])cc5F)c5ccc2[nH]5)C=C4)C=C3)cc1
REMARK SMILES IDX 24 1 23 2 22 3 21 4 19 5 20 6 18 8 12 9 13 10 14 11 16 12
REMARK SMILES IDX 15 13 17 14 11 15 1 16 2 17 3 19 4 20 5 21 6 22 10 23 7 24
REMARK SMILES IDX 9 25 8 26 25 27 26 28 27 29 28 30 29 31 30 33 31 34 32 35
REMARK SMILES IDX 96 36 33 37 95 38 34 39 35 40 36 41 89 42 37 43 94 44 88 45
REMARK SMILES IDX 90 46 38 47 93 48 87 49 86 50 39 52 73 53 52 54 72 55 53 56
REMARK SMILES IDX 56 57 71 58 91 59 54 60 55 61 70 63 92 64 57 65 40 66 41 67
REMARK SMILES IDX 50 68 42 69 43 70 49 71 51 72 44 73 45 74 46 75 47 76 48 77
REMARK SMILES IDX 74 78 75 79 84 80 76 81 77 82 83 83 85 84 78 85 79 86 80 87
REMARK SMILES IDX 81 88 82 89 58 90 59 91 68 92 60 93 61 94 67 95 69 96 62 97
REMARK SMILES IDX 63 98 64 99 65 100 66 101
REMARK H PARENT 21 7 11 18 28 32 90 51 56 62
REMARK Flexibility Score: inf
ROOT
ATOM      1  C   UNL     1       5.800   4.253  -5.942  1.00  0.00     0.002 C 
ENDROOT
BRANCH   1   2
ATOM      2  C   UNL     1       4.881   4.831  -4.860  1.00  0.00     0.021 C 
BRANCH   2   3
ATOM      3  C   UNL     1       3.572   4.101  -4.543  1.00  0.00     0.116 C 
BRANCH   3   4
ATOM      4  N   UNL     1       3.710   2.758  -4.001  1.00  0.00    -0.352 N 
ATOM      5  C   UNL     1       2.884   2.025  -3.160  1.00  0.00     0.256 C 
ATOM      6  O   UNL     1       3.127   0.823  -3.066  1.00  0.00    -0.269 OA
ATOM      7  H   UNL     1       4.530   2.289  -4.278  1.00  0.00     0.163 HD
BRANCH   5   8
ATOM      8  C   UNL     1       1.805   2.633  -2.322  1.00  0.00     0.099 A 
ATOM      9  C   UNL     1       1.662   2.335  -0.942  1.00  0.00     0.056 A 
ATOM     10  C   UNL     1       0.787   3.085  -0.138  1.00  0.00     0.027 A 
ATOM     11  C   UNL     1      -0.011   4.077  -0.695  1.00  0.00     0.005 A 
ATOM     12  C   UNL     1       0.939   3.585  -2.863  1.00  0.00     0.138 A 
ATOM     13  C   UNL     1       0.055   4.315  -2.063  1.00  0.00     0.040 A 
ATOM     14  F   UNL     1       0.918   3.838  -4.179  1.00  0.00    -0.206 F 
BRANCH   9  15
ATOM     15  N   UNL     1       2.372   1.331  -0.253  1.00  0.00    -0.325 N 
ATOM     16  O   UNL     1       1.235  -0.481  -1.149  1.00  0.00    -0.275 OA
ATOM     17  C   UNL     1       2.163  -0.019  -0.491  1.00  0.00     0.224 C 
ATOM     18  H   UNL     1       3.039   1.597   0.420  1.00  0.00     0.169 HD
BRANCH  17  19
ATOM     19  C   UNL     1       3.152  -0.914   0.236  1.00  0.00     0.105 C 
BRANCH  19  20
ATOM     20  C   UNL     1       4.142  -1.560  -0.736  1.00  0.00     0.047 C 
BRANCH  20  21
ATOM     21  C   UNL     1       5.400  -0.790  -1.069  1.00  0.00    -0.029 A 
ATOM     22  C   UNL     1       5.496   0.602  -1.080  1.00  0.00     0.007 A 
ATOM     23  C   UNL     1       6.531  -1.480  -1.501  1.00  0.00     0.114 A 
ATOM     24  C   UNL     1       6.654   1.237  -1.516  1.00  0.00     0.020 A 
ATOM     25  N   UNL     1       7.687  -0.899  -1.903  1.00  0.00    -0.264 NA
ATOM     26  C   UNL     1       7.714   0.449  -1.915  1.00  0.00     0.111 A 
ENDBRANCH  20  21
ENDBRANCH  19  20
ENDBRANCH  17  19
ENDBRANCH   9  15
ENDBRANCH   5   8
ENDBRANCH   3   4
ENDBRANCH   2   3
ENDBRANCH   1   2
BRANCH   1  27
ATOM     27  C   UNL     1       5.193   3.960  -7.317  1.00  0.00     0.002 C 
BRANCH  27  28
ATOM     28  C   UNL     1       4.414   5.088  -7.998  1.00  0.00     0.021 C 
BRANCH  28  29
ATOM     29  C   UNL     1       5.156   6.406  -8.214  1.00  0.00     0.116 C 
BRANCH  29  30
ATOM     30  N   UNL     1       6.306   6.286  -9.097  1.00  0.00    -0.352 N 
ATOM     31  C   UNL     1       6.628   6.991 -10.232  1.00  0.00     0.251 C 
ATOM     32  H   UNL     1       6.955   5.591  -8.841  1.00  0.00     0.163 HD
ATOM     33  O   UNL     1       7.601   6.641 -10.905  1.00  0.00    -0.269 OA
BRANCH  31  34
ATOM     34  C   UNL     1       5.812   8.146 -10.675  1.00  0.00     0.039 A 
ATOM     35  C   UNL     1       5.489   8.261 -12.032  1.00  0.00     0.014 A 
ATOM     36  C   UNL     1       5.378   9.123  -9.776  1.00  0.00     0.014 A 
ATOM     37  C   UNL     1       4.670   9.307 -12.470  1.00  0.00     0.010 A 
ATOM     38  C   UNL     1       4.506  10.128 -10.202  1.00  0.00     0.010 A 
ATOM     39  C   UNL     1       4.134  10.225 -11.552  1.00  0.00    -0.014 A 
BRANCH  39  40
ATOM     40  C   UNL     1       3.153  11.259 -11.982  1.00  0.00     0.031 A 
ATOM     41  C   UNL     1       3.477  12.725 -11.866  1.00  0.00     0.074 A 
ATOM     42  C   UNL     1       1.938  10.874 -12.423  1.00  0.00     0.049 A 
ATOM     43  N   UNL     1       2.722  13.759 -12.136  1.00  0.00    -0.248 NA
ATOM     44  C   UNL     1       4.814  13.075 -11.362  1.00  0.00     0.031 C 
ATOM     45  C   UNL     1       1.486   9.486 -12.543  1.00  0.00     0.029 A 
ATOM     46  N   UNL     1       0.857  11.609 -12.847  1.00  0.00    -0.354 N 
ATOM     47  C   UNL     1       3.486  14.879 -11.831  1.00  0.00     0.074 A 
ATOM     48  C   UNL     1       4.747  14.398 -11.308  1.00  0.00     0.031 C 
ATOM     49  C   UNL     1       0.237   9.469 -13.032  1.00  0.00     0.029 A 
ATOM     50  C   UNL     1      -0.223  10.842 -13.219  1.00  0.00     0.049 A 
ATOM     51  H   UNL     1       0.855  12.593 -12.881  1.00  0.00     0.167 HD
ATOM     52  C   UNL     1       3.174  16.188 -11.994  1.00  0.00     0.037 A 
ATOM     53  C   UNL     1      -1.449  11.197 -13.652  1.00  0.00     0.037 A 
ATOM     54  C   UNL     1       1.924  16.659 -12.535  1.00  0.00     0.049 A 
ATOM     55  C   UNL     1      -1.781  12.656 -13.803  1.00  0.00     0.074 A 
ATOM     56  C   UNL     1       1.540  17.963 -12.795  1.00  0.00     0.029 A 
ATOM     57  N   UNL     1       0.855  15.850 -12.893  1.00  0.00    -0.354 N 
ATOM     58  N   UNL     1      -1.023  13.699 -13.568  1.00  0.00    -0.248 NA
ATOM     59  C   UNL     1      -3.132  12.988 -14.277  1.00  0.00     0.031 C 
ATOM     60  C   UNL     1       0.220  17.948 -13.255  1.00  0.00     0.029 A 
ATOM     61  C   UNL     1      -0.200  16.630 -13.339  1.00  0.00     0.049 A 
ATOM     62  H   UNL     1       0.847  14.867 -12.838  1.00  0.00     0.167 HD
ATOM     63  C   UNL     1      -1.798  14.811 -13.878  1.00  0.00     0.074 A 
ATOM     64  C   UNL     1      -3.078  14.313 -14.335  1.00  0.00     0.031 C 
ATOM     65  C   UNL     1      -1.476  16.125 -13.787  1.00  0.00     0.037 A 
BRANCH  52  66
ATOM     66  C   UNL     1       4.198  17.216 -11.593  1.00  0.00     0.058 A 
ATOM     67  C   UNL     1       3.962  18.074 -10.507  1.00  0.00     0.135 A 
ATOM     68  C   UNL     1       5.379  17.405 -12.330  1.00  0.00     0.135 A 
ATOM     69  F   UNL     1       2.852  17.937  -9.764  1.00  0.00    -0.206 F 
ATOM     70  C   UNL     1       4.851  19.092 -10.175  1.00  0.00     0.059 A 
ATOM     71  C   UNL     1       6.296  18.398 -11.999  1.00  0.00     0.059 A 
ATOM     72  F   UNL     1       5.663  16.602 -13.368  1.00  0.00    -0.206 F 
ATOM     73  C   UNL     1       6.016  19.247 -10.928  1.00  0.00     0.060 A 
BRANCH  73  74
ATOM     74  S   UNL     1       7.172  20.555 -10.468  1.00  0.00     0.124 S 
ATOM     75  O   UNL     1       6.422  21.756 -10.818  1.00  0.00    -0.237 OA
ATOM     76  O   UNL     1       7.354  20.311  -9.040  1.00  0.00    -0.237 OA
ATOM     77  O   UNL     1       8.342  20.280 -11.296  1.00  0.00    -0.744 OA
ENDBRANCH  73  74
ENDBRANCH  52  66
BRANCH  53  78
ATOM     78  C   UNL     1      -2.442  10.141 -13.989  1.00  0.00     0.058 A 
ATOM     79  C   UNL     1      -3.005   9.325 -12.995  1.00  0.00     0.135 A 
ATOM     80  C   UNL     1      -2.806   9.892 -15.321  1.00  0.00     0.135 A 
ATOM     81  F   UNL     1      -2.684   9.515 -11.706  1.00  0.00    -0.206 F 
ATOM     82  C   UNL     1      -3.864   8.278 -13.311  1.00  0.00     0.059 A 
ATOM     83  C   UNL     1      -3.686   8.867 -15.660  1.00  0.00     0.059 A 
ATOM     84  F   UNL     1      -2.307  10.654 -16.305  1.00  0.00    -0.206 F 
ATOM     85  C   UNL     1      -4.193   8.053 -14.648  1.00  0.00     0.060 A 
BRANCH  85  86
ATOM     86  S   UNL     1      -5.285   6.668 -15.038  1.00  0.00     0.124 S 
ATOM     87  O   UNL     1      -4.439   5.527 -14.702  1.00  0.00    -0.237 OA
ATOM     88  O   UNL     1      -6.413   6.909 -14.145  1.00  0.00    -0.237 OA
ATOM     89  O   UNL     1      -5.563   6.847 -16.460  1.00  0.00    -0.744 OA
ENDBRANCH  85  86
ENDBRANCH  53  78
BRANCH  65  90
ATOM     90  C   UNL     1      -2.517  17.133 -14.191  1.00  0.00     0.058 A 
ATOM     91  C   UNL     1      -2.345  17.916 -15.344  1.00  0.00     0.135 A 
ATOM     92  C   UNL     1      -3.640  17.389 -13.388  1.00  0.00     0.135 A 
ATOM     93  F   UNL     1      -1.287  17.717 -16.146  1.00  0.00    -0.206 F 
ATOM     94  C   UNL     1      -3.235  18.933 -15.673  1.00  0.00     0.059 A 
ATOM     95  C   UNL     1      -4.559  18.382 -13.713  1.00  0.00     0.059 A 
ATOM     96  F   UNL     1      -3.857  16.661 -12.281  1.00  0.00    -0.206 F 
ATOM     97  C   UNL     1      -4.337  19.162 -14.848  1.00  0.00     0.060 A 
BRANCH  97  98
ATOM     98  S   UNL     1      -5.480  20.488 -15.289  1.00  0.00     0.124 S 
ATOM     99  O   UNL     1      -4.666  21.676 -15.051  1.00  0.00    -0.237 OA
ATOM    100  O   UNL     1      -5.773  20.189 -16.687  1.00  0.00    -0.237 OA
ATOM    101  O   UNL     1      -6.595  20.297 -14.366  1.00  0.00    -0.744 OA
ENDBRANCH  97  98
ENDBRANCH  65  90
ENDBRANCH  39  40
ENDBRANCH  31  34
ENDBRANCH  29  30
ENDBRANCH  28  29
ENDBRANCH  27  28
ENDBRANCH   1  27
TORSDOF 20
