REMARK SMILES O=C(COc1ccccc1/C=N/NC(=O)c1cc(-c2ccc(F)cc2)nc2ccccc12)NCCCCCCNC(=O)c1ccc(-c2c3nc(c(-c4c(F)cc(S(=O)(=O)[O-])cc4F)c4ccc([nH]4)c(-c4c(F)cc(S(=O)(=O)[O-])cc4F)c4nc(c(-c5c(F)cc(S(=O)(=O)[O-])cc5F)c5ccc2[nH]5)C=C4)C=C3)cc1
REMARK SMILES IDX 35 1 34 2 33 3 1 4 2 5 3 7 4 8 5 9 6 10 10 11 7 12 9 13 8 14
REMARK SMILES IDX 11 15 12 16 13 17 14 18 15 20 16 21 17 22 32 23 18 24 27 25
REMARK SMILES IDX 31 26 26 27 28 28 30 29 29 30 19 31 20 32 25 33 21 34 24 35
REMARK SMILES IDX 22 36 23 37 36 38 37 39 38 40 39 41 40 42 41 43 42 45 43 46
REMARK SMILES IDX 44 47 108 48 45 49 107 50 46 51 47 52 48 53 101 54 49 55
REMARK SMILES IDX 106 56 100 57 102 58 50 59 105 60 99 61 98 62 51 64 85 65
REMARK SMILES IDX 64 66 84 67 65 68 68 69 83 70 103 71 66 72 67 73 82 75
REMARK SMILES IDX 104 76 69 77 52 78 53 79 62 80 54 81 55 82 61 83 63 84 56 85
REMARK SMILES IDX 57 86 58 87 59 88 60 89 86 90 87 91 96 92 88 93 89 94 95 95
REMARK SMILES IDX 97 96 90 97 91 98 92 99 93 100 94 101 70 102 71 103 80 104
REMARK SMILES IDX 72 105 73 106 79 107 81 108 74 109 75 110 76 111 77 112
REMARK SMILES IDX 78 113
REMARK H PARENT 33 6 13 19 40 44 102 63 68 74
REMARK Flexibility Score: inf
ROOT
ATOM      1  C   UNL     1       4.117   3.000  -1.765  1.00  0.00     0.021 C 
ENDROOT
BRANCH   1   2
ATOM      2  C   UNL     1       3.528   1.611  -1.726  1.00  0.00     0.116 C 
BRANCH   2   3
ATOM      3  N   UNL     1       4.212   0.661  -0.885  1.00  0.00    -0.353 N 
ATOM      4  O   UNL     1       3.707   1.361   1.262  1.00  0.00    -0.271 OA
ATOM      5  C   UNL     1       3.839   0.467   0.434  1.00  0.00     0.257 C 
ATOM      6  H   UNL     1       4.960   0.139  -1.256  1.00  0.00     0.163 HD
BRANCH   5   7
ATOM      7  C   UNL     1       3.569  -0.986   0.783  1.00  0.00     0.329 C 
BRANCH   7   8
ATOM      8  O   UNL     1       3.758  -1.725  -0.415  1.00  0.00    -0.483 OA
BRANCH   8   9
ATOM      9  C   UNL     1       2.723  -2.521  -0.796  1.00  0.00     0.128 A 
ATOM     10  C   UNL     1       3.122  -3.871  -0.860  1.00  0.00     0.047 A 
ATOM     11  C   UNL     1       1.504  -2.112  -1.351  1.00  0.00     0.037 A 
ATOM     12  C   UNL     1       2.344  -4.827  -1.502  1.00  0.00     0.004 A 
ATOM     13  C   UNL     1       0.747  -3.101  -2.024  1.00  0.00     0.013 A 
ATOM     14  C   UNL     1       1.162  -4.436  -2.107  1.00  0.00     0.001 A 
BRANCH  11  15
ATOM     15  C   UNL     1       0.842  -0.766  -1.412  1.00  0.00     0.145 C 
ATOM     16  N   UNL     1       0.896   0.269  -0.605  1.00  0.00    -0.180 NA
BRANCH  16  17
ATOM     17  N   UNL     1      -0.118   1.174  -0.914  1.00  0.00    -0.243 N 
ATOM     18  C   UNL     1      -0.374   2.505  -0.599  1.00  0.00     0.272 C 
ATOM     19  H   UNL     1      -0.814   0.781  -1.489  1.00  0.00     0.194 HD
ATOM     20  O   UNL     1      -1.519   2.884  -0.868  1.00  0.00    -0.267 OA
BRANCH  18  21
ATOM     21  C   UNL     1       0.604   3.511  -0.083  1.00  0.00     0.053 A 
ATOM     22  C   UNL     1       1.498   3.183   0.941  1.00  0.00     0.043 A 
ATOM     23  C   UNL     1       0.529   4.892  -0.532  1.00  0.00     0.013 A 
ATOM     24  C   UNL     1       2.418   4.150   1.321  1.00  0.00     0.072 A 
ATOM     25  C   UNL     1       1.574   5.731  -0.119  1.00  0.00     0.072 A 
ATOM     26  C   UNL     1      -0.491   5.550  -1.284  1.00  0.00     0.011 A 
ATOM     27  N   UNL     1       2.527   5.336   0.689  1.00  0.00    -0.248 NA
ATOM     28  C   UNL     1       1.637   7.077  -0.432  1.00  0.00     0.029 A 
ATOM     29  C   UNL     1      -0.468   6.935  -1.531  1.00  0.00     0.001 A 
ATOM     30  C   UNL     1       0.606   7.701  -1.110  1.00  0.00     0.002 A 
BRANCH  24  31
ATOM     31  C   UNL     1       3.251   4.235   2.526  1.00  0.00     0.000 A 
ATOM     32  C   UNL     1       2.733   4.989   3.603  1.00  0.00     0.013 A 
ATOM     33  C   UNL     1       4.647   4.088   2.427  1.00  0.00     0.013 A 
ATOM     34  C   UNL     1       3.585   5.684   4.463  1.00  0.00     0.040 A 
ATOM     35  C   UNL     1       5.498   4.769   3.301  1.00  0.00     0.040 A 
ATOM     36  C   UNL     1       4.958   5.589   4.284  1.00  0.00     0.123 A 
ATOM     37  F   UNL     1       5.772   6.345   5.034  1.00  0.00    -0.207 F 
ENDBRANCH  24  31
ENDBRANCH  18  21
ENDBRANCH  16  17
ENDBRANCH  11  15
ENDBRANCH   8   9
ENDBRANCH   7   8
ENDBRANCH   5   7
ENDBRANCH   2   3
ENDBRANCH   1   2
BRANCH   1  38
ATOM     38  C   UNL     1       5.449   3.082  -2.495  1.00  0.00     0.002 C 
BRANCH  38  39
ATOM     39  C   UNL     1       5.417   2.664  -3.968  1.00  0.00     0.002 C 
BRANCH  39  40
ATOM     40  C   UNL     1       4.385   3.370  -4.854  1.00  0.00     0.021 C 
BRANCH  40  41
ATOM     41  C   UNL     1       4.335   4.891  -4.729  1.00  0.00     0.116 C 
BRANCH  41  42
ATOM     42  N   UNL     1       5.649   5.500  -4.858  1.00  0.00    -0.352 N 
ATOM     43  C   UNL     1       6.109   6.422  -5.759  1.00  0.00     0.251 C 
ATOM     44  H   UNL     1       6.311   5.202  -4.194  1.00  0.00     0.163 HD
ATOM     45  O   UNL     1       7.307   6.684  -5.813  1.00  0.00    -0.269 OA
BRANCH  43  46
ATOM     46  C   UNL     1       5.163   7.081  -6.678  1.00  0.00     0.039 A 
ATOM     47  C   UNL     1       5.482   7.140  -8.036  1.00  0.00     0.014 A 
ATOM     48  C   UNL     1       3.974   7.641  -6.201  1.00  0.00     0.014 A 
ATOM     49  C   UNL     1       4.577   7.709  -8.931  1.00  0.00     0.010 A 
ATOM     50  C   UNL     1       3.047   8.154  -7.102  1.00  0.00     0.010 A 
ATOM     51  C   UNL     1       3.340   8.192  -8.474  1.00  0.00    -0.014 A 
BRANCH  51  52
ATOM     52  C   UNL     1       2.333   8.726  -9.420  1.00  0.00     0.031 A 
ATOM     53  C   UNL     1       1.951  10.178  -9.375  1.00  0.00     0.074 A 
ATOM     54  C   UNL     1       1.710   7.883 -10.265  1.00  0.00     0.049 A 
ATOM     55  N   UNL     1       1.038  10.812 -10.063  1.00  0.00    -0.248 NA
ATOM     56  C   UNL     1       2.673  11.021  -8.410  1.00  0.00     0.031 C 
ATOM     57  C   UNL     1       1.959   6.442 -10.357  1.00  0.00     0.029 A 
ATOM     58  N   UNL     1       0.724   8.109 -11.192  1.00  0.00    -0.354 N 
ATOM     59  C   UNL     1       1.066  12.124  -9.608  1.00  0.00     0.074 A 
ATOM     60  C   UNL     1       2.053  12.183  -8.551  1.00  0.00     0.031 C 
ATOM     61  C   UNL     1       1.149   5.915 -11.288  1.00  0.00     0.029 A 
ATOM     62  C   UNL     1       0.304   6.971 -11.837  1.00  0.00     0.049 A 
ATOM     63  H   UNL     1       0.354   9.002 -11.377  1.00  0.00     0.167 HD
ATOM     64  C   UNL     1       0.349  13.187 -10.047  1.00  0.00     0.037 A 
ATOM     65  C   UNL     1      -0.665   6.795 -12.755  1.00  0.00     0.037 A 
ATOM     66  C   UNL     1      -0.621  13.119 -11.109  1.00  0.00     0.049 A 
ATOM     67  C   UNL     1      -1.444   7.987 -13.235  1.00  0.00     0.074 A 
ATOM     68  C   UNL     1      -1.357  14.147 -11.671  1.00  0.00     0.029 A 
ATOM     69  N   UNL     1      -0.996  11.954 -11.764  1.00  0.00    -0.354 N 
ATOM     70  N   UNL     1      -1.354   9.237 -12.847  1.00  0.00    -0.248 NA
ATOM     71  C   UNL     1      -2.448   7.750 -14.280  1.00  0.00     0.031 C 
ATOM     72  C   UNL     1      -2.203  13.598 -12.641  1.00  0.00     0.029 A 
ATOM     73  C   UNL     1      -1.968  12.234 -12.711  1.00  0.00     0.049 A 
ATOM     74  H   UNL     1      -0.625  11.061 -11.583  1.00  0.00     0.167 HD
ATOM     75  C   UNL     1      -2.283   9.939 -13.607  1.00  0.00     0.074 A 
ATOM     76  C   UNL     1      -2.910   8.976 -14.490  1.00  0.00     0.031 C 
ATOM     77  C   UNL     1      -2.587  11.260 -13.576  1.00  0.00     0.037 A 
BRANCH  64  78
ATOM     78  C   UNL     1       0.593  14.507  -9.371  1.00  0.00     0.058 A 
ATOM     79  C   UNL     1       1.794  15.214  -9.552  1.00  0.00     0.135 A 
ATOM     80  C   UNL     1      -0.379  15.074  -8.532  1.00  0.00     0.135 A 
ATOM     81  F   UNL     1       2.763  14.711 -10.333  1.00  0.00    -0.206 F 
ATOM     82  C   UNL     1       2.040  16.412  -8.890  1.00  0.00     0.059 A 
ATOM     83  C   UNL     1      -0.165  16.285  -7.881  1.00  0.00     0.059 A 
ATOM     84  F   UNL     1      -1.545  14.443  -8.326  1.00  0.00    -0.206 F 
ATOM     85  C   UNL     1       1.057  16.936  -8.049  1.00  0.00     0.060 A 
BRANCH  85  86
ATOM     86  S   UNL     1       1.399  18.478  -7.175  1.00  0.00     0.124 S 
ATOM     87  O   UNL     1       2.295  18.019  -6.118  1.00  0.00    -0.237 OA
ATOM     88  O   UNL     1       2.013  19.299  -8.213  1.00  0.00    -0.237 OA
ATOM     89  O   UNL     1       0.079  18.917  -6.732  1.00  0.00    -0.744 OA
ENDBRANCH  85  86
ENDBRANCH  64  78
BRANCH  65  90
ATOM     90  C   UNL     1      -0.934   5.431 -13.280  1.00  0.00     0.058 A 
ATOM     91  C   UNL     1      -0.532   5.061 -14.571  1.00  0.00     0.135 A 
ATOM     92  C   UNL     1      -1.546   4.455 -12.478  1.00  0.00     0.135 A 
ATOM     93  F   UNL     1       0.053   5.961 -15.375  1.00  0.00    -0.206 F 
ATOM     94  C   UNL     1      -0.726   3.770 -15.051  1.00  0.00     0.059 A 
ATOM     95  C   UNL     1      -1.733   3.152 -12.928  1.00  0.00     0.059 A 
ATOM     96  F   UNL     1      -1.933   4.757 -11.229  1.00  0.00    -0.206 F 
ATOM     97  C   UNL     1      -1.322   2.820 -14.218  1.00  0.00     0.060 A 
BRANCH  97  98
ATOM     98  S   UNL     1      -1.493   1.124 -14.818  1.00  0.00     0.124 S 
ATOM     99  O   UNL     1      -2.611   1.251 -15.745  1.00  0.00    -0.237 OA
ATOM    100  O   UNL     1      -0.187   0.877 -15.421  1.00  0.00    -0.237 OA
ATOM    101  O   UNL     1      -1.764   0.365 -13.600  1.00  0.00    -0.744 OA
ENDBRANCH  97  98
ENDBRANCH  65  90
BRANCH  77 102
ATOM    102  C   UNL     1      -3.643  11.745 -14.528  1.00  0.00     0.058 A 
ATOM    103  C   UNL     1      -5.005  11.488 -14.304  1.00  0.00     0.135 A 
ATOM    104  C   UNL     1      -3.296  12.524 -15.642  1.00  0.00     0.135 A 
ATOM    105  F   UNL     1      -5.388  10.740 -13.257  1.00  0.00    -0.206 F 
ATOM    106  C   UNL     1      -5.985  11.975 -15.161  1.00  0.00     0.059 A 
ATOM    107  C   UNL     1      -4.261  13.041 -16.500  1.00  0.00     0.059 A 
ATOM    108  F   UNL     1      -2.008  12.805 -15.896  1.00  0.00    -0.206 F 
ATOM    109  C   UNL     1      -5.604  12.754 -16.256  1.00  0.00     0.060 A 
BRANCH 109 110
ATOM    110  S   UNL     1      -6.889  13.417 -17.336  1.00  0.00     0.124 S 
ATOM    111  O   UNL     1      -7.273  12.233 -18.098  1.00  0.00    -0.237 OA
ATOM    112  O   UNL     1      -7.880  13.906 -16.383  1.00  0.00    -0.237 OA
ATOM    113  O   UNL     1      -6.193  14.453 -18.094  1.00  0.00    -0.744 OA
ENDBRANCH 109 110
ENDBRANCH  77 102
ENDBRANCH  51  52
ENDBRANCH  43  46
ENDBRANCH  41  42
ENDBRANCH  40  41
ENDBRANCH  39  40
ENDBRANCH  38  39
ENDBRANCH   1  38
TORSDOF 22
