REMARK SMILES Cc1nc(=O)[nH]c(C)c1CC(=O)N1CC[C@H](C(=O)NCCCCCCNC(=O)c2ccc(-c3c4nc(c(-c5c(F)cc(S(=O)(=O)[O-])cc5F)c5ccc([nH]5)c(-c5c(F)cc(S(=O)(=O)[O-])cc5F)c5nc(c(-c6c(F)cc(S(=O)(=O)[O-])cc6F)c6ccc3[nH]6)C=C5)C=C4)cc2)[C@@H]1C
REMARK SMILES IDX 22 1 21 2 20 3 19 4 17 5 18 6 16 8 13 9 14 10 95 11 15 12
REMARK SMILES IDX 96 13 11 14 12 15 10 16 9 17 1 18 2 19 3 20 4 21 7 22 5 23
REMARK SMILES IDX 6 24 8 25 23 27 24 28 25 29 26 30 27 31 28 33 29 34 30 35
REMARK SMILES IDX 94 36 31 37 93 38 32 39 33 40 34 41 87 42 35 43 92 44 86 45
REMARK SMILES IDX 88 46 36 47 91 48 85 49 84 50 37 52 71 53 50 54 70 55 51 56
REMARK SMILES IDX 54 57 69 58 89 59 52 60 53 61 68 63 90 64 55 65 38 66 39 67
REMARK SMILES IDX 48 68 40 69 41 70 47 71 49 72 42 73 43 74 44 75 45 76 46 77
REMARK SMILES IDX 72 78 73 79 82 80 74 81 75 82 81 83 83 84 76 85 77 86 78 87
REMARK SMILES IDX 79 88 80 89 56 90 57 91 66 92 58 93 59 94 65 95 67 96 60 97
REMARK SMILES IDX 61 98 62 99 63 100 64 101
REMARK H PARENT 19 7 6 26 26 32 88 51 54 62
REMARK Flexibility Score: inf
ROOT
ATOM      1  C   UNL     1      -3.864   2.325   5.341  1.00  0.00     0.002 C 
ENDROOT
BRANCH   1   2
ATOM      2  C   UNL     1      -3.945   0.980   4.613  1.00  0.00     0.021 C 
BRANCH   2   3
ATOM      3  C   UNL     1      -2.596   0.362   4.262  1.00  0.00     0.116 C 
BRANCH   3   4
ATOM      4  N   UNL     1      -1.867  -0.117   5.425  1.00  0.00    -0.356 N 
ATOM      5  C   UNL     1      -0.912  -1.062   5.604  1.00  0.00     0.225 C 
ATOM      6  O   UNL     1      -0.366  -1.061   6.717  1.00  0.00    -0.275 OA
ATOM      7  H   UNL     1      -2.121   0.342   6.258  1.00  0.00     0.163 HD
BRANCH   5   8
ATOM      8  C   UNL     1      -0.532  -2.179   4.619  1.00  0.00     0.102 C 
ATOM      9  N   UNL     1      -1.850  -2.394   2.652  1.00  0.00    -0.339 N 
ATOM     10  C   UNL     1      -2.548  -3.080   3.739  1.00  0.00     0.120 C 
ATOM     11  C   UNL     1      -0.506  -1.960   3.096  1.00  0.00     0.094 C 
ATOM     12  C   UNL     1      -1.486  -3.354   4.784  1.00  0.00     0.037 C 
ATOM     13  C   UNL     1      -0.010  -0.559   2.757  1.00  0.00     0.032 C 
BRANCH   9  14
ATOM     14  C   UNL     1      -2.493  -2.377   1.431  1.00  0.00     0.227 C 
ATOM     15  O   UNL     1      -3.723  -2.509   1.385  1.00  0.00    -0.275 OA
BRANCH  14  16
ATOM     16  C   UNL     1      -1.712  -2.390   0.119  1.00  0.00     0.139 C 
BRANCH  16  17
ATOM     17  C   UNL     1      -0.907  -1.177  -0.207  1.00  0.00     0.002 A 
ATOM     18  C   UNL     1       1.319  -2.571  -0.310  1.00  0.00     0.067 C 
ATOM     19  C   UNL     1       0.587  -1.242  -0.328  1.00  0.00     0.049 A 
ATOM     20  N   UNL     1       1.360  -0.208  -0.423  1.00  0.00    -0.198 NA
ATOM     21  C   UNL     1       0.804   1.037  -0.465  1.00  0.00     0.345 A 
ATOM     22  C   UNL     1      -1.417   0.058  -0.389  1.00  0.00     0.022 A 
ATOM     23  O   UNL     1       1.473   2.067  -0.431  1.00  0.00    -0.246 OA
ATOM     24  N   UNL     1      -0.560   1.122  -0.522  1.00  0.00    -0.310 N 
ATOM     25  C   UNL     1      -2.876   0.424  -0.369  1.00  0.00     0.065 C 
ATOM     26  H   UNL     1      -0.956   2.011  -0.670  1.00  0.00     0.171 HD
ENDBRANCH  16  17
ENDBRANCH  14  16
ENDBRANCH   9  14
ENDBRANCH   5   8
ENDBRANCH   3   4
ENDBRANCH   2   3
ENDBRANCH   1   2
BRANCH   1  27
ATOM     27  C   UNL     1      -3.060   3.421   4.634  1.00  0.00     0.002 C 
BRANCH  27  28
ATOM     28  C   UNL     1      -3.450   3.710   3.183  1.00  0.00     0.021 C 
BRANCH  28  29
ATOM     29  C   UNL     1      -4.929   3.999   2.946  1.00  0.00     0.116 C 
BRANCH  29  30
ATOM     30  N   UNL     1      -5.409   5.138   3.709  1.00  0.00    -0.352 N 
ATOM     31  C   UNL     1      -6.143   6.219   3.287  1.00  0.00     0.251 C 
ATOM     32  H   UNL     1      -5.174   5.135   4.665  1.00  0.00     0.163 HD
ATOM     33  O   UNL     1      -6.339   7.162   4.048  1.00  0.00    -0.269 OA
BRANCH  31  34
ATOM     34  C   UNL     1      -6.672   6.255   1.906  1.00  0.00     0.039 A 
ATOM     35  C   UNL     1      -6.517   7.423   1.155  1.00  0.00     0.014 A 
ATOM     36  C   UNL     1      -7.311   5.143   1.350  1.00  0.00     0.014 A 
ATOM     37  C   UNL     1      -6.947   7.455  -0.173  1.00  0.00     0.010 A 
ATOM     38  C   UNL     1      -7.673   5.152   0.005  1.00  0.00     0.010 A 
ATOM     39  C   UNL     1      -7.497   6.309  -0.771  1.00  0.00    -0.014 A 
BRANCH  39  40
ATOM     40  C   UNL     1      -7.894   6.298  -2.204  1.00  0.00     0.031 A 
ATOM     41  C   UNL     1      -9.334   6.074  -2.584  1.00  0.00     0.074 A 
ATOM     42  C   UNL     1      -6.950   6.420  -3.160  1.00  0.00     0.049 A 
ATOM     43  N   UNL     1      -9.861   5.938  -3.773  1.00  0.00    -0.248 NA
ATOM     44  C   UNL     1     -10.307   5.962  -1.484  1.00  0.00     0.031 C 
ATOM     45  C   UNL     1      -5.516   6.598  -2.917  1.00  0.00     0.029 A 
ATOM     46  N   UNL     1      -7.050   6.395  -4.530  1.00  0.00    -0.354 N 
ATOM     47  C   UNL     1     -11.215   5.703  -3.565  1.00  0.00     0.074 A 
ATOM     48  C   UNL     1     -11.426   5.675  -2.135  1.00  0.00     0.031 C 
ATOM     49  C   UNL     1      -4.874   6.675  -4.095  1.00  0.00     0.029 A 
ATOM     50  C   UNL     1      -5.840   6.508  -5.176  1.00  0.00     0.049 A 
ATOM     51  H   UNL     1      -7.907   6.305  -5.005  1.00  0.00     0.167 HD
ATOM     52  C   UNL     1     -12.195   5.541  -4.485  1.00  0.00     0.037 A 
ATOM     53  C   UNL     1      -5.539   6.462  -6.490  1.00  0.00     0.037 A 
ATOM     54  C   UNL     1     -11.984   5.614  -5.907  1.00  0.00     0.049 A 
ATOM     55  C   UNL     1      -6.654   6.284  -7.489  1.00  0.00     0.074 A 
ATOM     56  C   UNL     1     -12.928   5.547  -6.917  1.00  0.00     0.029 A 
ATOM     57  N   UNL     1     -10.751   5.765  -6.522  1.00  0.00    -0.354 N 
ATOM     58  N   UNL     1      -7.940   6.146  -7.273  1.00  0.00    -0.248 NA
ATOM     59  C   UNL     1      -6.280   6.261  -8.911  1.00  0.00     0.031 C 
ATOM     60  C   UNL     1     -12.260   5.596  -8.143  1.00  0.00     0.029 A 
ATOM     61  C   UNL     1     -10.907   5.761  -7.897  1.00  0.00     0.049 A 
ATOM     62  H   UNL     1      -9.892   5.861  -6.050  1.00  0.00     0.167 HD
ATOM     63  C   UNL     1      -8.530   6.059  -8.530  1.00  0.00     0.074 A 
ATOM     64  C   UNL     1      -7.463   6.171  -9.501  1.00  0.00     0.031 C 
ATOM     65  C   UNL     1      -9.837   5.901  -8.852  1.00  0.00     0.037 A 
BRANCH  52  66
ATOM     66  C   UNL     1     -13.594   5.274  -4.002  1.00  0.00     0.058 A 
ATOM     67  C   UNL     1     -14.372   6.274  -3.400  1.00  0.00     0.135 A 
ATOM     68  C   UNL     1     -14.199   4.030  -4.245  1.00  0.00     0.135 A 
ATOM     69  F   UNL     1     -13.839   7.476  -3.127  1.00  0.00    -0.206 F 
ATOM     70  C   UNL     1     -15.702   6.051  -3.055  1.00  0.00     0.059 A 
ATOM     71  C   UNL     1     -15.535   3.793  -3.935  1.00  0.00     0.059 A 
ATOM     72  F   UNL     1     -13.497   3.037  -4.814  1.00  0.00    -0.206 F 
ATOM     73  C   UNL     1     -16.277   4.811  -3.339  1.00  0.00     0.060 A 
BRANCH  73  74
ATOM     74  S   UNL     1     -18.022   4.562  -2.946  1.00  0.00     0.124 S 
ATOM     75  O   UNL     1     -17.990   4.526  -1.487  1.00  0.00    -0.237 OA
ATOM     76  O   UNL     1     -18.644   5.743  -3.537  1.00  0.00    -0.237 OA
ATOM     77  O   UNL     1     -18.341   3.296  -3.597  1.00  0.00    -0.744 OA
ENDBRANCH  73  74
ENDBRANCH  52  66
BRANCH  53  78
ATOM     78  C   UNL     1      -4.125   6.569  -6.948  1.00  0.00     0.058 A 
ATOM     79  C   UNL     1      -3.688   7.665  -7.708  1.00  0.00     0.135 A 
ATOM     80  C   UNL     1      -3.194   5.555  -6.673  1.00  0.00     0.135 A 
ATOM     81  F   UNL     1      -4.539   8.661  -8.000  1.00  0.00    -0.206 F 
ATOM     82  C   UNL     1      -2.396   7.730  -8.220  1.00  0.00     0.059 A 
ATOM     83  C   UNL     1      -1.887   5.613  -7.146  1.00  0.00     0.059 A 
ATOM     84  F   UNL     1      -3.551   4.494  -5.932  1.00  0.00    -0.206 F 
ATOM     85  C   UNL     1      -1.504   6.694  -7.939  1.00  0.00     0.060 A 
BRANCH  85  86
ATOM     86  S   UNL     1       0.165   6.778  -8.621  1.00  0.00     0.124 S 
ATOM     87  O   UNL     1      -0.082   6.502 -10.032  1.00  0.00    -0.237 OA
ATOM     88  O   UNL     1       0.560   8.145  -8.297  1.00  0.00    -0.237 OA
ATOM     89  O   UNL     1       0.878   5.735  -7.890  1.00  0.00    -0.744 OA
ENDBRANCH  85  86
ENDBRANCH  53  78
BRANCH  65  90
ATOM     90  C   UNL     1     -10.204   5.894 -10.311  1.00  0.00     0.058 A 
ATOM     91  C   UNL     1      -9.890   4.815 -11.151  1.00  0.00     0.135 A 
ATOM     92  C   UNL     1     -10.944   6.957 -10.857  1.00  0.00     0.135 A 
ATOM     93  F   UNL     1      -9.180   3.777 -10.682  1.00  0.00    -0.206 F 
ATOM     94  C   UNL     1     -10.279   4.798 -12.487  1.00  0.00     0.059 A 
ATOM     95  C   UNL     1     -11.371   6.946 -12.180  1.00  0.00     0.059 A 
ATOM     96  F   UNL     1     -11.280   8.009 -10.094  1.00  0.00    -0.206 F 
ATOM     97  C   UNL     1     -11.025   5.866 -12.991  1.00  0.00     0.060 A 
BRANCH  97  98
ATOM     98  S   UNL     1     -11.564   5.807 -14.712  1.00  0.00     0.124 S 
ATOM     99  O   UNL     1     -10.310   6.036 -15.421  1.00  0.00    -0.237 OA
ATOM    100  O   UNL     1     -12.117   4.461 -14.819  1.00  0.00    -0.237 OA
ATOM    101  O   UNL     1     -12.541   6.889 -14.800  1.00  0.00    -0.744 OA
ENDBRANCH  97  98
ENDBRANCH  65  90
ENDBRANCH  39  40
ENDBRANCH  31  34
ENDBRANCH  29  30
ENDBRANCH  28  29
ENDBRANCH  27  28
ENDBRANCH   1  27
TORSDOF 19
