REMARK SMILES O=C(NCCCCCCNC(=O)[C@@]1([C@@H]2CCO[C@@]3(CCOC3)C2)CCOC1)c1ccc(-c2c3nc(c(-c4c(F)cc(S(=O)(=O)[O-])cc4F)c4ccc([nH]4)c(-c4c(F)cc(S(=O)(=O)[O-])cc4F)c4nc(c(-c5c(F)cc(S(=O)(=O)[O-])cc5F)c5ccc2[nH]5)C=C4)C=C3)cc1
REMARK SMILES IDX 5 1 4 2 3 3 1 4 2 5 28 7 29 8 93 9 30 10 92 11 31 12 32 13
REMARK SMILES IDX 33 14 86 15 34 16 91 17 85 18 87 19 35 20 90 21 84 22 83 23
REMARK SMILES IDX 36 25 70 26 49 27 69 28 50 29 53 30 68 31 88 32 51 33 52 34
REMARK SMILES IDX 67 36 89 37 54 38 37 39 38 40 47 41 39 42 40 43 46 44 48 45
REMARK SMILES IDX 41 46 42 47 43 48 44 49 45 50 71 51 72 52 81 53 73 54 74 55
REMARK SMILES IDX 80 56 82 57 75 58 76 59 77 60 78 61 79 62 55 63 56 64 65 65
REMARK SMILES IDX 57 66 58 67 64 68 66 69 59 70 60 71 61 72 62 73 63 74 6 75
REMARK SMILES IDX 7 76 8 77 9 78 10 79 11 80 12 82 13 83 24 84 27 85 25 86
REMARK SMILES IDX 26 87 14 88 15 89 23 90 16 91 18 92 17 93 19 94 22 95 20 96
REMARK SMILES IDX 21 97
REMARK H PARENT 3 6 87 24 53 35 10 81
REMARK Flexibility Score: inf
ROOT
ATOM      1  C   UNL     1      12.020 -11.395  -4.208  1.00  0.00     0.021 C 
ENDROOT
BRANCH   1   2
ATOM      2  C   UNL     1      11.281 -12.681  -3.858  1.00  0.00     0.116 C 
BRANCH   2   3
ATOM      3  N   UNL     1      11.572 -13.781  -4.761  1.00  0.00    -0.352 N 
ATOM      4  O   UNL     1      12.300 -15.824  -5.383  1.00  0.00    -0.269 OA
ATOM      5  C   UNL     1      12.000 -15.057  -4.471  1.00  0.00     0.251 C 
ATOM      6  H   UNL     1      11.446 -13.586  -5.717  1.00  0.00     0.163 HD
BRANCH   5   7
ATOM      7  C   UNL     1      12.135 -15.492  -3.061  1.00  0.00     0.039 A 
ATOM      8  C   UNL     1      11.140 -15.208  -2.124  1.00  0.00     0.014 A 
ATOM      9  C   UNL     1      13.286 -16.180  -2.666  1.00  0.00     0.014 A 
ATOM     10  C   UNL     1      11.373 -15.451  -0.774  1.00  0.00     0.010 A 
ATOM     11  C   UNL     1      13.476 -16.510  -1.319  1.00  0.00     0.010 A 
ATOM     12  C   UNL     1      12.542 -16.106  -0.352  1.00  0.00    -0.014 A 
BRANCH  12  13
ATOM     13  C   UNL     1      12.744 -16.375   1.098  1.00  0.00     0.031 A 
ATOM     14  C   UNL     1      13.887 -15.750   1.856  1.00  0.00     0.074 A 
ATOM     15  C   UNL     1      11.856 -17.156   1.744  1.00  0.00     0.049 A 
ATOM     16  N   UNL     1      14.172 -15.835   3.132  1.00  0.00    -0.248 NA
ATOM     17  C   UNL     1      14.838 -14.932   1.087  1.00  0.00     0.031 C 
ATOM     18  C   UNL     1      10.718 -17.833   1.116  1.00  0.00     0.029 A 
ATOM     19  N   UNL     1      11.751 -17.495   3.069  1.00  0.00    -0.354 N 
ATOM     20  C   UNL     1      15.343 -15.107   3.315  1.00  0.00     0.074 A 
ATOM     21  C   UNL     1      15.730 -14.605   2.013  1.00  0.00     0.031 C 
ATOM     22  C   UNL     1       9.998 -18.455   2.060  1.00  0.00     0.029 A 
ATOM     23  C   UNL     1      10.653 -18.275   3.351  1.00  0.00     0.049 A 
ATOM     24  H   UNL     1      12.398 -17.208   3.752  1.00  0.00     0.167 HD
ATOM     25  C   UNL     1      16.028 -14.873   4.461  1.00  0.00     0.037 A 
ATOM     26  C   UNL     1      10.222 -18.794   4.516  1.00  0.00     0.037 A 
ATOM     27  C   UNL     1      15.624 -15.356   5.759  1.00  0.00     0.049 A 
ATOM     28  C   UNL     1      10.998 -18.516   5.771  1.00  0.00     0.074 A 
ATOM     29  C   UNL     1      16.227 -15.135   6.986  1.00  0.00     0.029 A 
ATOM     30  N   UNL     1      14.519 -16.160   5.999  1.00  0.00    -0.354 N 
ATOM     31  N   UNL     1      12.081 -17.793   5.928  1.00  0.00    -0.248 NA
ATOM     32  C   UNL     1      10.492 -19.124   7.009  1.00  0.00     0.031 C 
ATOM     33  C   UNL     1      15.512 -15.840   7.960  1.00  0.00     0.029 A 
ATOM     34  C   UNL     1      14.434 -16.459   7.350  1.00  0.00     0.049 A 
ATOM     35  H   UNL     1      13.888 -16.473   5.311  1.00  0.00     0.167 HD
ATOM     36  C   UNL     1      12.374 -17.839   7.285  1.00  0.00     0.074 A 
ATOM     37  C   UNL     1      11.345 -18.649   7.907  1.00  0.00     0.031 C 
ATOM     38  C   UNL     1      13.401 -17.262   7.956  1.00  0.00     0.037 A 
BRANCH  25  39
ATOM     39  C   UNL     1      17.300 -14.073   4.369  1.00  0.00     0.058 A 
ATOM     40  C   UNL     1      17.293 -12.692   4.114  1.00  0.00     0.135 A 
ATOM     41  C   UNL     1      18.545 -14.690   4.582  1.00  0.00     0.135 A 
ATOM     42  F   UNL     1      16.134 -12.052   3.890  1.00  0.00    -0.206 F 
ATOM     43  C   UNL     1      18.474 -11.958   4.044  1.00  0.00     0.059 A 
ATOM     44  C   UNL     1      19.736 -13.970   4.542  1.00  0.00     0.059 A 
ATOM     45  F   UNL     1      18.612 -16.006   4.833  1.00  0.00    -0.206 F 
ATOM     46  C   UNL     1      19.691 -12.607   4.257  1.00  0.00     0.060 A 
BRANCH  46  47
ATOM     47  S   UNL     1      21.214 -11.641   4.158  1.00  0.00     0.124 S 
ATOM     48  O   UNL     1      21.329 -11.428   2.719  1.00  0.00    -0.237 OA
ATOM     49  O   UNL     1      20.886 -10.459   4.948  1.00  0.00    -0.237 OA
ATOM     50  O   UNL     1      22.216 -12.525   4.744  1.00  0.00    -0.744 OA
ENDBRANCH  46  47
ENDBRANCH  25  39
BRANCH  26  51
ATOM     51  C   UNL     1       8.985 -19.617   4.544  1.00  0.00     0.058 A 
ATOM     52  C   UNL     1       7.814 -19.141   5.151  1.00  0.00     0.135 A 
ATOM     53  C   UNL     1       8.942 -20.884   3.941  1.00  0.00     0.135 A 
ATOM     54  F   UNL     1       7.808 -17.937   5.743  1.00  0.00    -0.206 F 
ATOM     55  C   UNL     1       6.647 -19.897   5.174  1.00  0.00     0.059 A 
ATOM     56  C   UNL     1       7.779 -21.647   3.925  1.00  0.00     0.059 A 
ATOM     57  F   UNL     1      10.031 -21.376   3.330  1.00  0.00    -0.206 F 
ATOM     58  C   UNL     1       6.639 -21.148   4.555  1.00  0.00     0.060 A 
BRANCH  58  59
ATOM     59  S   UNL     1       5.105 -22.100   4.542  1.00  0.00     0.124 S 
ATOM     60  O   UNL     1       5.045 -22.576   5.919  1.00  0.00    -0.237 OA
ATOM     61  O   UNL     1       4.120 -21.089   4.171  1.00  0.00    -0.237 OA
ATOM     62  O   UNL     1       5.354 -23.122   3.530  1.00  0.00    -0.744 OA
ENDBRANCH  58  59
ENDBRANCH  26  51
BRANCH  38  63
ATOM     63  C   UNL     1      13.437 -17.451   9.447  1.00  0.00     0.058 A 
ATOM     64  C   UNL     1      13.773 -18.683  10.030  1.00  0.00     0.135 A 
ATOM     65  C   UNL     1      13.151 -16.377  10.305  1.00  0.00     0.135 A 
ATOM     66  F   UNL     1      14.049 -19.745   9.255  1.00  0.00    -0.206 F 
ATOM     67  C   UNL     1      13.791 -18.853  11.411  1.00  0.00     0.059 A 
ATOM     68  C   UNL     1      13.189 -16.516  11.688  1.00  0.00     0.059 A 
ATOM     69  F   UNL     1      12.834 -15.174   9.799  1.00  0.00    -0.206 F 
ATOM     70  C   UNL     1      13.494 -17.763  12.231  1.00  0.00     0.060 A 
BRANCH  70  71
ATOM     71  S   UNL     1      13.529 -17.990  14.022  1.00  0.00     0.124 S 
ATOM     72  O   UNL     1      12.282 -18.712  14.251  1.00  0.00    -0.237 OA
ATOM     73  O   UNL     1      14.753 -18.761  14.217  1.00  0.00    -0.237 OA
ATOM     74  O   UNL     1      13.569 -16.624  14.536  1.00  0.00    -0.744 OA
ENDBRANCH  70  71
ENDBRANCH  38  63
ENDBRANCH  12  13
ENDBRANCH   5   7
ENDBRANCH   2   3
ENDBRANCH   1   2
BRANCH   1  75
ATOM     75  C   UNL     1      11.635 -10.741  -5.535  1.00  0.00     0.002 C 
BRANCH  75  76
ATOM     76  C   UNL     1      10.143 -10.472  -5.758  1.00  0.00     0.002 C 
BRANCH  76  77
ATOM     77  C   UNL     1       9.386  -9.784  -4.619  1.00  0.00     0.021 C 
BRANCH  77  78
ATOM     78  C   UNL     1       9.890  -8.406  -4.203  1.00  0.00     0.116 C 
BRANCH  78  79
ATOM     79  N   UNL     1       9.638  -7.386  -5.204  1.00  0.00    -0.356 N 
ATOM     80  C   UNL     1       9.191  -6.106  -5.143  1.00  0.00     0.228 C 
ATOM     81  H   UNL     1       9.832  -7.686  -6.122  1.00  0.00     0.163 HD
ATOM     82  O   UNL     1       9.164  -5.502  -6.225  1.00  0.00    -0.274 OA
BRANCH  80  83
ATOM     83  C   UNL     1       8.652  -5.410  -3.877  1.00  0.00     0.078 C 
ATOM     84  C   UNL     1       9.199  -5.876  -2.527  1.00  0.00     0.048 C 
ATOM     85  C   UNL     1       9.316  -4.008  -3.902  1.00  0.00     0.177 C 
ATOM     86  C   UNL     1       9.454  -4.626  -1.696  1.00  0.00     0.161 C 
ATOM     87  O   UNL     1       9.280  -3.508  -2.562  1.00  0.00    -0.380 OA
BRANCH  83  88
ATOM     88  C   UNL     1       7.083  -5.209  -3.980  1.00  0.00     0.012 C 
ATOM     89  C   UNL     1       6.326  -4.829  -2.683  1.00  0.00     0.033 C 
ATOM     90  C   UNL     1       6.269  -6.282  -4.743  1.00  0.00     0.043 C 
ATOM     91  C   UNL     1       5.064  -5.654  -2.448  1.00  0.00     0.161 C 
ATOM     92  C   UNL     1       4.798  -5.816  -4.849  1.00  0.00     0.094 C 
ATOM     93  O   UNL     1       4.181  -5.671  -3.559  1.00  0.00    -0.372 OA
ATOM     94  C   UNL     1       4.608  -4.488  -5.578  1.00  0.00     0.066 C 
ATOM     95  C   UNL     1       3.916  -6.727  -5.714  1.00  0.00     0.195 C 
ATOM     96  C   UNL     1       3.147  -4.543  -5.963  1.00  0.00     0.163 C 
ATOM     97  O   UNL     1       2.874  -5.909  -6.297  1.00  0.00    -0.378 OA
ENDBRANCH  83  88
ENDBRANCH  80  83
ENDBRANCH  78  79
ENDBRANCH  77  78
ENDBRANCH  76  77
ENDBRANCH  75  76
ENDBRANCH   1  75
TORSDOF 17
