REMARK SMILES O=C(NCCCCCCNC(=O)C1CC[NH+]([C@H]2CC(=O)N(c3ccc4c(c3)OCCO4)C2=O)CC1)c1ccc(-c2c3nc(c(-c4c(F)cc(S(=O)(=O)[O-])cc4F)c4ccc([nH]4)c(-c4c(F)cc(S(=O)(=O)[O-])cc4F)c4nc(c(-c5c(F)cc(S(=O)(=O)[O-])cc5F)c5ccc2[nH]5)C=C4)C=C3)cc1
REMARK SMILES IDX 6 1 5 2 4 3 3 4 1 5 2 6 36 8 37 9 101 10 38 11 100 12 39 13
REMARK SMILES IDX 40 14 41 15 94 16 42 17 99 18 93 19 95 20 43 21 98 22 92 23
REMARK SMILES IDX 91 24 44 26 78 27 57 28 77 29 58 30 61 31 76 32 96 33 59 34
REMARK SMILES IDX 60 35 75 37 97 38 62 39 45 40 46 41 55 42 47 43 48 44 54 45
REMARK SMILES IDX 56 46 49 47 50 48 51 49 52 50 53 51 79 52 80 53 89 54 81 55
REMARK SMILES IDX 82 56 88 57 90 58 83 59 84 60 85 61 86 62 87 63 63 64 64 65
REMARK SMILES IDX 73 66 65 67 66 68 72 69 74 70 67 71 68 72 69 73 70 74 71 75
REMARK SMILES IDX 7 76 8 77 9 78 10 79 11 80 12 82 13 83 14 84 35 85 15 86
REMARK SMILES IDX 34 87 16 88 17 90 18 91 32 92 19 93 21 94 33 95 20 96 22 97
REMARK SMILES IDX 23 98 27 99 24 100 26 101 25 102 28 103 31 104 29 105 30 106
REMARK H PARENT 3 7 95 25 61 36 10 81 16 89
REMARK Flexibility Score: inf
ROOT
ATOM      1  C   UNL     1       6.534  16.885  -7.768  1.00  0.00     0.002 C 
ENDROOT
BRANCH   1   2
ATOM      2  C   UNL     1       5.453  16.965  -8.846  1.00  0.00     0.021 C 
BRANCH   2   3
ATOM      3  C   UNL     1       4.075  17.345  -8.327  1.00  0.00     0.116 C 
BRANCH   3   4
ATOM      4  N   UNL     1       4.031  18.706  -7.819  1.00  0.00    -0.352 N 
ATOM      5  O   UNL     1       3.286  20.835  -7.706  1.00  0.00    -0.269 OA
ATOM      6  C   UNL     1       3.095  19.680  -8.075  1.00  0.00     0.251 C 
ATOM      7  H   UNL     1       4.765  18.964  -7.215  1.00  0.00     0.163 HD
BRANCH   6   8
ATOM      8  C   UNL     1       1.868  19.323  -8.819  1.00  0.00     0.039 A 
ATOM      9  C   UNL     1       1.156  18.169  -8.484  1.00  0.00     0.014 A 
ATOM     10  C   UNL     1       1.434  20.140  -9.866  1.00  0.00     0.014 A 
ATOM     11  C   UNL     1       0.089  17.765  -9.275  1.00  0.00     0.010 A 
ATOM     12  C   UNL     1       0.306  19.776 -10.608  1.00  0.00     0.010 A 
ATOM     13  C   UNL     1      -0.363  18.574 -10.331  1.00  0.00    -0.014 A 
BRANCH  13  14
ATOM     14  C   UNL     1      -1.594  18.173 -11.056  1.00  0.00     0.031 A 
ATOM     15  C   UNL     1      -1.563  17.780 -12.506  1.00  0.00     0.074 A 
ATOM     16  C   UNL     1      -2.746  18.116 -10.358  1.00  0.00     0.049 A 
ATOM     17  N   UNL     1      -2.544  17.351 -13.260  1.00  0.00    -0.248 NA
ATOM     18  C   UNL     1      -0.273  17.884 -13.206  1.00  0.00     0.031 C 
ATOM     19  C   UNL     1      -2.895  18.502  -8.951  1.00  0.00     0.029 A 
ATOM     20  N   UNL     1      -3.997  17.687 -10.716  1.00  0.00    -0.354 N 
ATOM     21  C   UNL     1      -1.998  17.144 -14.521  1.00  0.00     0.074 A 
ATOM     22  C   UNL     1      -0.601  17.517 -14.439  1.00  0.00     0.031 C 
ATOM     23  C   UNL     1      -4.147  18.240  -8.551  1.00  0.00     0.029 A 
ATOM     24  C   UNL     1      -4.904  17.723  -9.684  1.00  0.00     0.049 A 
ATOM     25  H   UNL     1      -4.224  17.383 -11.624  1.00  0.00     0.167 HD
ATOM     26  C   UNL     1      -2.608  16.678 -15.638  1.00  0.00     0.037 A 
ATOM     27  C   UNL     1      -6.206  17.386  -9.652  1.00  0.00     0.037 A 
ATOM     28  C   UNL     1      -3.998  16.300 -15.704  1.00  0.00     0.049 A 
ATOM     29  C   UNL     1      -6.849  16.861 -10.901  1.00  0.00     0.074 A 
ATOM     30  C   UNL     1      -4.707  15.808 -16.788  1.00  0.00     0.029 A 
ATOM     31  N   UNL     1      -4.890  16.365 -14.643  1.00  0.00    -0.354 N 
ATOM     32  N   UNL     1      -6.310  16.663 -12.081  1.00  0.00    -0.248 NA
ATOM     33  C   UNL     1      -8.274  16.519 -10.819  1.00  0.00     0.031 C 
ATOM     34  C   UNL     1      -6.033  15.603 -16.389  1.00  0.00     0.029 A 
ATOM     35  C   UNL     1      -6.143  15.932 -15.048  1.00  0.00     0.049 A 
ATOM     36  H   UNL     1      -4.666  16.674 -13.736  1.00  0.00     0.167 HD
ATOM     37  C   UNL     1      -7.333  16.176 -12.884  1.00  0.00     0.074 A 
ATOM     38  C   UNL     1      -8.511  16.075 -12.045  1.00  0.00     0.031 C 
ATOM     39  C   UNL     1      -7.304  15.853 -14.200  1.00  0.00     0.037 A 
BRANCH  26  40
ATOM     40  C   UNL     1      -1.782  16.547 -16.889  1.00  0.00     0.058 A 
ATOM     41  C   UNL     1      -0.852  15.509 -17.047  1.00  0.00     0.135 A 
ATOM     42  C   UNL     1      -1.977  17.423 -17.969  1.00  0.00     0.135 A 
ATOM     43  F   UNL     1      -0.615  14.654 -16.040  1.00  0.00    -0.206 F 
ATOM     44  C   UNL     1      -0.137  15.348 -18.230  1.00  0.00     0.059 A 
ATOM     45  C   UNL     1      -1.287  17.269 -19.169  1.00  0.00     0.059 A 
ATOM     46  F   UNL     1      -2.854  18.435 -17.870  1.00  0.00    -0.206 F 
ATOM     47  C   UNL     1      -0.363  16.231 -19.288  1.00  0.00     0.060 A 
BRANCH  47  48
ATOM     48  S   UNL     1       0.550  15.989 -20.827  1.00  0.00     0.124 S 
ATOM     49  O   UNL     1       1.882  16.453 -20.450  1.00  0.00    -0.237 OA
ATOM     50  O   UNL     1       0.419  14.553 -21.046  1.00  0.00    -0.237 OA
ATOM     51  O   UNL     1      -0.161  16.834 -21.781  1.00  0.00    -0.744 OA
ENDBRANCH  47  48
ENDBRANCH  26  40
BRANCH  27  52
ATOM     52  C   UNL     1      -6.983  17.554  -8.397  1.00  0.00     0.058 A 
ATOM     53  C   UNL     1      -7.426  16.445  -7.663  1.00  0.00     0.135 A 
ATOM     54  C   UNL     1      -7.280  18.832  -7.900  1.00  0.00     0.135 A 
ATOM     55  F   UNL     1      -7.166  15.203  -8.099  1.00  0.00    -0.206 F 
ATOM     56  C   UNL     1      -8.156  16.596  -6.488  1.00  0.00     0.059 A 
ATOM     57  C   UNL     1      -7.983  19.009  -6.714  1.00  0.00     0.059 A 
ATOM     58  F   UNL     1      -6.857  19.924  -8.556  1.00  0.00    -0.206 F 
ATOM     59  C   UNL     1      -8.430  17.884  -6.023  1.00  0.00     0.060 A 
BRANCH  59  60
ATOM     60  S   UNL     1      -9.341  18.080  -4.476  1.00  0.00     0.124 S 
ATOM     61  O   UNL     1     -10.714  17.864  -4.918  1.00  0.00    -0.237 OA
ATOM     62  O   UNL     1      -8.767  17.030  -3.641  1.00  0.00    -0.237 OA
ATOM     63  O   UNL     1      -9.013  19.442  -4.069  1.00  0.00    -0.744 OA
ENDBRANCH  59  60
ENDBRANCH  27  52
BRANCH  39  64
ATOM     64  C   UNL     1      -8.590  15.362 -14.799  1.00  0.00     0.058 A 
ATOM     65  C   UNL     1      -9.652  16.240 -15.066  1.00  0.00     0.135 A 
ATOM     66  C   UNL     1      -8.763  14.004 -15.106  1.00  0.00     0.135 A 
ATOM     67  F   UNL     1      -9.536  17.547 -14.782  1.00  0.00    -0.206 F 
ATOM     68  C   UNL     1     -10.858  15.782 -15.584  1.00  0.00     0.059 A 
ATOM     69  C   UNL     1      -9.953  13.527 -15.646  1.00  0.00     0.059 A 
ATOM     70  F   UNL     1      -7.774  13.126 -14.877  1.00  0.00    -0.206 F 
ATOM     71  C   UNL     1     -11.002  14.421 -15.863  1.00  0.00     0.060 A 
BRANCH  71  72
ATOM     72  S   UNL     1     -12.572  13.833 -16.531  1.00  0.00     0.124 S 
ATOM     73  O   UNL     1     -13.402  13.791 -15.331  1.00  0.00    -0.237 OA
ATOM     74  O   UNL     1     -12.912  14.869 -17.501  1.00  0.00    -0.237 OA
ATOM     75  O   UNL     1     -12.230  12.535 -17.105  1.00  0.00    -0.744 OA
ENDBRANCH  71  72
ENDBRANCH  39  64
ENDBRANCH  13  14
ENDBRANCH   6   8
ENDBRANCH   3   4
ENDBRANCH   2   3
ENDBRANCH   1   2
BRANCH   1  76
ATOM     76  C   UNL     1       6.257  15.880  -6.644  1.00  0.00     0.002 C 
BRANCH  76  77
ATOM     77  C   UNL     1       5.965  14.446  -7.107  1.00  0.00     0.021 C 
BRANCH  77  78
ATOM     78  C   UNL     1       7.027  13.868  -8.043  1.00  0.00     0.116 C 
BRANCH  78  79
ATOM     79  N   UNL     1       8.326  13.830  -7.391  1.00  0.00    -0.356 N 
ATOM     80  C   UNL     1       8.968  12.777  -6.808  1.00  0.00     0.223 C 
ATOM     81  H   UNL     1       8.812  14.686  -7.368  1.00  0.00     0.163 HD
ATOM     82  O   UNL     1       9.999  12.983  -6.170  1.00  0.00    -0.275 OA
BRANCH  80  83
ATOM     83  C   UNL     1       8.415  11.382  -7.046  1.00  0.00     0.089 C 
ATOM     84  C   UNL     1       8.761  10.425  -5.897  1.00  0.00     0.075 C 
ATOM     85  C   UNL     1       8.879  10.917  -8.436  1.00  0.00     0.075 C 
ATOM     86  C   UNL     1      10.100   9.712  -6.060  1.00  0.00     0.263 C 
ATOM     87  C   UNL     1      10.212  10.170  -8.416  1.00  0.00     0.263 C 
ATOM     88  N   UNL     1      10.314   9.136  -7.390  1.00  0.00    -0.324 N 
ATOM     89  H   UNL     1      11.280   8.815  -7.462  1.00  0.00     0.348 HD
BRANCH  88  90
ATOM     90  C   UNL     1       9.655   7.833  -7.620  1.00  0.00     0.284 C 
ATOM     91  C   UNL     1       8.171   7.790  -7.940  1.00  0.00     0.176 C 
ATOM     92  C   UNL     1      10.258   7.104  -8.825  1.00  0.00     0.292 C 
ATOM     93  C   UNL     1       8.129   7.654  -9.429  1.00  0.00     0.240 C 
ATOM     94  N   UNL     1       9.331   7.137  -9.846  1.00  0.00    -0.245 N 
ATOM     95  O   UNL     1      11.387   6.629  -8.850  1.00  0.00    -0.267 OA
ATOM     96  O   UNL     1       7.118   7.878 -10.081  1.00  0.00    -0.274 OA
BRANCH  94  97
ATOM     97  C   UNL     1       9.542   6.627 -11.148  1.00  0.00     0.056 A 
ATOM     98  C   UNL     1      10.216   5.412 -11.332  1.00  0.00     0.031 A 
ATOM     99  C   UNL     1       9.027   7.291 -12.270  1.00  0.00     0.077 A 
ATOM    100  C   UNL     1      10.323   4.844 -12.605  1.00  0.00     0.052 A 
ATOM    101  C   UNL     1       9.178   6.747 -13.547  1.00  0.00     0.163 A 
ATOM    102  C   UNL     1       9.816   5.517 -13.713  1.00  0.00     0.161 A 
ATOM    103  O   UNL     1       8.686   7.486 -14.591  1.00  0.00    -0.486 OA
ATOM    104  O   UNL     1       9.970   4.907 -14.930  1.00  0.00    -0.486 OA
ATOM    105  C   UNL     1       8.552   6.701 -15.778  1.00  0.00     0.271 C 
ATOM    106  C   UNL     1       9.778   5.831 -16.006  1.00  0.00     0.271 C 
ENDBRANCH  94  97
ENDBRANCH  88  90
ENDBRANCH  80  83
ENDBRANCH  78  79
ENDBRANCH  77  78
ENDBRANCH  76  77
ENDBRANCH   1  76
TORSDOF 18
