REMARK SMILES CCCN(C(=O)Cc1c(C(=O)NCCCCCCNC(=O)c2ccc(-c3c4nc(c(-c5c(F)cc(S(=O)(=O)[O-])cc5F)c5ccc([nH]5)c(-c5c(F)cc(S(=O)(=O)[O-])cc5F)c5nc(c(-c6c(F)cc(S(=O)(=O)[O-])cc6F)c6ccc3[nH]6)C=C5)C=C4)cc2)c(C)cn1CC)c1cccc(Cl)c1
REMARK SMILES IDX 14 1 13 2 12 3 10 4 11 5 9 7 8 8 91 9 88 10 90 11 89 12 7 13
REMARK SMILES IDX 5 14 6 15 4 16 3 17 2 18 1 19 94 20 95 21 100 22 96 23 98 24
REMARK SMILES IDX 97 25 99 26 92 27 93 28 15 29 16 30 17 31 18 32 19 33 20 34
REMARK SMILES IDX 21 36 22 37 23 38 87 39 24 40 86 41 25 42 26 43 27 44 80 45
REMARK SMILES IDX 28 46 85 47 79 48 81 49 29 50 84 51 78 52 77 53 30 55 64 56
REMARK SMILES IDX 43 57 63 58 44 59 47 60 62 61 82 62 45 63 46 64 61 66 83 67
REMARK SMILES IDX 48 68 31 69 32 70 41 71 33 72 34 73 40 74 42 75 35 76 36 77
REMARK SMILES IDX 37 78 38 79 39 80 65 81 66 82 75 83 67 84 68 85 74 86 76 87
REMARK SMILES IDX 69 88 70 89 71 90 72 91 73 92 49 93 50 94 59 95 51 96 52 97
REMARK SMILES IDX 58 98 60 99 53 100 54 101 55 102 56 103 57 104
REMARK H PARENT 12 6 19 35 81 54 47 65
REMARK Flexibility Score: inf
ROOT
ATOM      1  C   UNL     1      -5.182   0.319   0.036  1.00  0.00     0.021 C 
ENDROOT
BRANCH   1   2
ATOM      2  C   UNL     1      -3.656   0.415  -0.018  1.00  0.00     0.116 C 
BRANCH   2   3
ATOM      3  N   UNL     1      -3.208   0.085  -1.336  1.00  0.00    -0.352 N 
ATOM      4  C   UNL     1      -2.970   0.888  -2.412  1.00  0.00     0.253 C 
ATOM      5  O   UNL     1      -3.098   0.340  -3.510  1.00  0.00    -0.269 OA
ATOM      6  H   UNL     1      -3.047  -0.874  -1.491  1.00  0.00     0.163 HD
BRANCH   4   7
ATOM      7  C   UNL     1      -2.423   2.254  -2.310  1.00  0.00     0.064 A 
ATOM      8  C   UNL     1      -1.416   2.652  -3.215  1.00  0.00     0.040 A 
ATOM      9  N   UNL     1      -1.224   4.004  -3.065  1.00  0.00    -0.350 N 
ATOM     10  C   UNL     1      -2.662   3.407  -1.461  1.00  0.00    -0.020 A 
ATOM     11  C   UNL     1      -1.878   4.433  -1.952  1.00  0.00     0.090 A 
ATOM     12  C   UNL     1      -3.566   3.649  -0.302  1.00  0.00     0.047 C 
BRANCH   8  13
ATOM     13  C   UNL     1      -0.713   1.871  -4.298  1.00  0.00     0.155 C 
BRANCH  13  14
ATOM     14  C   UNL     1      -0.276   0.438  -3.978  1.00  0.00     0.232 C 
ATOM     15  O   UNL     1      -0.473  -0.408  -4.864  1.00  0.00    -0.274 OA
BRANCH  14  16
ATOM     16  N   UNL     1       0.397   0.123  -2.778  1.00  0.00    -0.312 N 
BRANCH  16  17
ATOM     17  C   UNL     1       1.147   1.124  -1.985  1.00  0.00     0.125 C 
BRANCH  17  18
ATOM     18  C   UNL     1       0.581   1.639  -0.650  1.00  0.00     0.019 C 
ATOM     19  C   UNL     1       0.919   0.847   0.606  1.00  0.00     0.006 C 
ENDBRANCH  17  18
ENDBRANCH  16  17
BRANCH  16  20
ATOM     20  C   UNL     1       0.718  -1.260  -2.520  1.00  0.00     0.045 A 
ATOM     21  C   UNL     1       1.237  -2.098  -3.519  1.00  0.00     0.026 A 
ATOM     22  C   UNL     1       0.485  -1.817  -1.263  1.00  0.00     0.046 A 
ATOM     23  C   UNL     1       1.515  -3.446  -3.269  1.00  0.00     0.004 A 
ATOM     24  C   UNL     1       0.789  -3.156  -1.002  1.00  0.00     0.043 A 
ATOM     25  C   UNL     1       1.300  -3.976  -2.001  1.00  0.00     0.020 A 
ATOM     26  Cl  UNL     1       0.511  -3.800   0.571  1.00  0.00    -0.084 Cl
ENDBRANCH  16  20
ENDBRANCH  14  16
ENDBRANCH  13  14
ENDBRANCH   8  13
BRANCH   9  27
ATOM     27  C   UNL     1      -0.545   4.914  -3.975  1.00  0.00     0.118 C 
ATOM     28  C   UNL     1       0.959   4.944  -3.774  1.00  0.00     0.027 C 
ENDBRANCH   9  27
ENDBRANCH   4   7
ENDBRANCH   2   3
ENDBRANCH   1   2
BRANCH   1  29
ATOM     29  C   UNL     1      -5.670  -1.109   0.310  1.00  0.00     0.002 C 
BRANCH  29  30
ATOM     30  C   UNL     1      -5.071  -1.768   1.565  1.00  0.00     0.002 C 
BRANCH  30  31
ATOM     31  C   UNL     1      -5.103  -0.921   2.849  1.00  0.00     0.021 C 
BRANCH  31  32
ATOM     32  C   UNL     1      -6.515  -0.661   3.339  1.00  0.00     0.116 C 
BRANCH  32  33
ATOM     33  N   UNL     1      -7.203  -1.901   3.736  1.00  0.00    -0.352 N 
ATOM     34  C   UNL     1      -8.497  -2.087   4.171  1.00  0.00     0.251 C 
ATOM     35  H   UNL     1      -6.657  -2.718   3.682  1.00  0.00     0.163 HD
ATOM     36  O   UNL     1      -8.810  -3.123   4.785  1.00  0.00    -0.269 OA
BRANCH  34  37
ATOM     37  C   UNL     1      -9.514  -1.074   3.880  1.00  0.00     0.039 A 
ATOM     38  C   UNL     1     -10.655  -0.824   4.650  1.00  0.00     0.014 A 
ATOM     39  C   UNL     1      -9.312  -0.344   2.732  1.00  0.00     0.014 A 
ATOM     40  C   UNL     1     -11.559   0.138   4.192  1.00  0.00     0.010 A 
ATOM     41  C   UNL     1      -9.872   0.879   2.695  1.00  0.00     0.010 A 
ATOM     42  C   UNL     1     -11.160   0.957   3.141  1.00  0.00    -0.014 A 
BRANCH  42  43
ATOM     43  C   UNL     1     -11.944   1.978   2.486  1.00  0.00     0.031 A 
ATOM     44  C   UNL     1     -12.188   3.160   3.329  1.00  0.00     0.074 A 
ATOM     45  C   UNL     1     -12.145   1.966   1.147  1.00  0.00     0.049 A 
ATOM     46  N   UNL     1     -13.264   3.428   3.984  1.00  0.00    -0.248 NA
ATOM     47  C   UNL     1     -11.042   4.010   3.689  1.00  0.00     0.031 C 
ATOM     48  C   UNL     1     -11.642   1.038   0.123  1.00  0.00     0.029 A 
ATOM     49  N   UNL     1     -12.824   2.879   0.404  1.00  0.00    -0.354 N 
ATOM     50  C   UNL     1     -13.009   4.625   4.637  1.00  0.00     0.074 A 
ATOM     51  C   UNL     1     -11.579   4.769   4.646  1.00  0.00     0.031 C 
ATOM     52  C   UNL     1     -11.869   1.550  -1.111  1.00  0.00     0.029 A 
ATOM     53  C   UNL     1     -12.656   2.760  -0.974  1.00  0.00     0.049 A 
ATOM     54  H   UNL     1     -13.392   3.573   0.809  1.00  0.00     0.167 HD
ATOM     55  C   UNL     1     -14.007   5.521   4.877  1.00  0.00     0.037 A 
ATOM     56  C   UNL     1     -13.109   3.651  -1.896  1.00  0.00     0.037 A 
ATOM     57  C   UNL     1     -15.293   4.932   4.573  1.00  0.00     0.049 A 
ATOM     58  C   UNL     1     -14.206   4.419  -1.224  1.00  0.00     0.074 A 
ATOM     59  C   UNL     1     -15.987   3.840   5.062  1.00  0.00     0.029 A 
ATOM     60  N   UNL     1     -15.835   5.198   3.334  1.00  0.00    -0.354 N 
ATOM     61  N   UNL     1     -15.328   3.867  -0.832  1.00  0.00    -0.248 NA
ATOM     62  C   UNL     1     -13.838   5.636  -0.510  1.00  0.00     0.031 C 
ATOM     63  C   UNL     1     -16.550   3.216   3.910  1.00  0.00     0.029 A 
ATOM     64  C   UNL     1     -16.259   4.006   2.795  1.00  0.00     0.049 A 
ATOM     65  H   UNL     1     -15.906   6.084   2.910  1.00  0.00     0.167 HD
ATOM     66  C   UNL     1     -15.586   4.409   0.423  1.00  0.00     0.074 A 
ATOM     67  C   UNL     1     -14.662   5.539   0.540  1.00  0.00     0.031 C 
ATOM     68  C   UNL     1     -16.290   3.718   1.372  1.00  0.00     0.037 A 
BRANCH  55  69
ATOM     69  C   UNL     1     -13.826   7.008   5.044  1.00  0.00     0.058 A 
ATOM     70  C   UNL     1     -14.927   7.781   5.465  1.00  0.00     0.135 A 
ATOM     71  C   UNL     1     -12.709   7.744   4.589  1.00  0.00     0.135 A 
ATOM     72  F   UNL     1     -16.041   7.191   5.929  1.00  0.00    -0.206 F 
ATOM     73  C   UNL     1     -14.948   9.172   5.365  1.00  0.00     0.059 A 
ATOM     74  C   UNL     1     -12.687   9.132   4.535  1.00  0.00     0.059 A 
ATOM     75  F   UNL     1     -11.616   7.161   4.086  1.00  0.00    -0.206 F 
ATOM     76  C   UNL     1     -13.827   9.836   4.881  1.00  0.00     0.060 A 
BRANCH  76  77
ATOM     77  S   UNL     1     -13.890  11.619   4.644  1.00  0.00     0.124 S 
ATOM     78  O   UNL     1     -14.851  11.733   3.553  1.00  0.00    -0.237 OA
ATOM     79  O   UNL     1     -14.345  12.080   5.951  1.00  0.00    -0.237 OA
ATOM     80  O   UNL     1     -12.511  11.962   4.309  1.00  0.00    -0.744 OA
ENDBRANCH  76  77
ENDBRANCH  55  69
BRANCH  56  81
ATOM     81  C   UNL     1     -12.396   4.124  -3.119  1.00  0.00     0.058 A 
ATOM     82  C   UNL     1     -13.035   4.917  -4.090  1.00  0.00     0.135 A 
ATOM     83  C   UNL     1     -10.992   4.033  -3.229  1.00  0.00     0.135 A 
ATOM     84  F   UNL     1     -14.367   5.077  -4.058  1.00  0.00    -0.206 F 
ATOM     85  C   UNL     1     -12.322   5.619  -5.074  1.00  0.00     0.059 A 
ATOM     86  C   UNL     1     -10.262   4.714  -4.203  1.00  0.00     0.059 A 
ATOM     87  F   UNL     1     -10.268   3.352  -2.329  1.00  0.00    -0.206 F 
ATOM     88  C   UNL     1     -10.930   5.530  -5.106  1.00  0.00     0.060 A 
BRANCH  88  89
ATOM     89  S   UNL     1      -9.985   6.585  -6.234  1.00  0.00     0.124 S 
ATOM     90  O   UNL     1     -10.286   5.991  -7.532  1.00  0.00    -0.237 OA
ATOM     91  O   UNL     1     -10.565   7.901  -5.985  1.00  0.00    -0.237 OA
ATOM     92  O   UNL     1      -8.607   6.423  -5.777  1.00  0.00    -0.744 OA
ENDBRANCH  88  89
ENDBRANCH  56  81
BRANCH  68  93
ATOM     93  C   UNL     1     -16.977   2.431   0.965  1.00  0.00     0.058 A 
ATOM     94  C   UNL     1     -16.306   1.272   0.532  1.00  0.00     0.135 A 
ATOM     95  C   UNL     1     -18.355   2.308   1.197  1.00  0.00     0.135 A 
ATOM     96  F   UNL     1     -14.977   1.260   0.390  1.00  0.00    -0.206 F 
ATOM     97  C   UNL     1     -16.973   0.066   0.299  1.00  0.00     0.059 A 
ATOM     98  C   UNL     1     -19.037   1.109   1.002  1.00  0.00     0.059 A 
ATOM     99  F   UNL     1     -19.049   3.353   1.679  1.00  0.00    -0.206 F 
ATOM    100  C   UNL     1     -18.343  -0.006   0.537  1.00  0.00     0.060 A 
BRANCH 100 101
ATOM    101  S   UNL     1     -19.198  -1.578   0.296  1.00  0.00     0.124 S 
ATOM    102  O   UNL     1     -19.207  -1.701  -1.158  1.00  0.00    -0.237 OA
ATOM    103  O   UNL     1     -18.339  -2.522   1.006  1.00  0.00    -0.237 OA
ATOM    104  O   UNL     1     -20.504  -1.354   0.912  1.00  0.00    -0.744 OA
ENDBRANCH 100 101
ENDBRANCH  68  93
ENDBRANCH  42  43
ENDBRANCH  34  37
ENDBRANCH  32  33
ENDBRANCH  31  32
ENDBRANCH  30  31
ENDBRANCH  29  30
ENDBRANCH   1  29
TORSDOF 23
