REMARK SMILES COc1ccccc1-c1ccc(O)c(C(=O)NCCCCCCNC(=O)c2ccc(-c3c4nc(c(-c5c(F)cc(S(=O)(=O)[O-])cc5F)c5ccc([nH]5)c(-c5c(F)cc(S(=O)(=O)[O-])cc5F)c5nc(c(-c6c(F)cc(S(=O)(=O)[O-])cc6F)c6ccc3[nH]6)C=C5)C=C4)cc2)c1
REMARK SMILES IDX 21 1 20 2 19 3 18 4 17 5 15 6 16 7 14 9 9 10 10 11 93 12
REMARK SMILES IDX 11 13 12 14 8 15 3 16 4 17 5 18 7 19 6 20 2 21 1 22 13 23
REMARK SMILES IDX 22 25 23 26 24 27 25 28 26 30 27 31 28 32 92 33 29 34 91 35
REMARK SMILES IDX 30 36 31 37 32 38 85 39 33 40 90 41 84 42 86 43 34 44 89 45
REMARK SMILES IDX 83 46 82 47 35 49 69 50 48 51 68 52 49 53 52 54 67 55 87 56
REMARK SMILES IDX 50 57 51 58 66 60 88 61 53 62 36 63 37 64 46 65 38 66 39 67
REMARK SMILES IDX 45 68 47 69 40 70 41 71 42 72 43 73 44 74 70 75 71 76 80 77
REMARK SMILES IDX 72 78 73 79 79 80 81 81 74 82 75 83 76 84 77 85 78 86 54 87
REMARK SMILES IDX 55 88 64 89 56 90 57 91 63 92 65 93 58 94 59 95 60 96 61 97
REMARK SMILES IDX 62 98
REMARK H PARENT 17 8 13 24 24 29 86 48 52 59
REMARK Flexibility Score: inf
ROOT
ATOM      1  C   UNL     1       2.220   0.965   6.556  1.00  0.00     0.002 C 
ENDROOT
BRANCH   1   2
ATOM      2  C   UNL     1       3.458   0.227   6.030  1.00  0.00     0.002 C 
BRANCH   2   3
ATOM      3  C   UNL     1       3.261  -0.462   4.673  1.00  0.00     0.021 C 
BRANCH   3   4
ATOM      4  C   UNL     1       2.938   0.526   3.548  1.00  0.00     0.116 C 
BRANCH   4   5
ATOM      5  N   UNL     1       4.161   1.154   3.074  1.00  0.00    -0.352 N 
ATOM      6  C   UNL     1       4.971   0.932   1.990  1.00  0.00     0.255 C 
ATOM      7  O   UNL     1       5.960   1.662   1.860  1.00  0.00    -0.269 OA
ATOM      8  H   UNL     1       4.471   1.889   3.650  1.00  0.00     0.163 HD
BRANCH   6   9
ATOM      9  C   UNL     1       4.694  -0.063   0.917  1.00  0.00     0.082 A 
ATOM     10  C   UNL     1       3.422  -1.944   0.008  1.00  0.00    -0.014 A 
ATOM     11  C   UNL     1       3.984  -1.715  -1.253  1.00  0.00     0.013 A 
ATOM     12  C   UNL     1       3.866  -1.171   1.095  1.00  0.00     0.026 A 
ATOM     13  C   UNL     1       4.920  -0.696  -1.428  1.00  0.00     0.047 A 
ATOM     14  C   UNL     1       5.251   0.136  -0.358  1.00  0.00     0.128 A 
BRANCH  10  15
ATOM     15  C   UNL     1       2.314  -2.889   0.207  1.00  0.00     0.024 A 
ATOM     16  C   UNL     1       1.035  -2.464   0.636  1.00  0.00     0.126 A 
ATOM     17  C   UNL     1       0.028  -3.391   0.921  1.00  0.00     0.047 A 
ATOM     18  C   UNL     1       0.268  -4.753   0.761  1.00  0.00     0.004 A 
ATOM     19  C   UNL     1       2.528  -4.268   0.042  1.00  0.00     0.012 A 
ATOM     20  C   UNL     1       1.515  -5.191   0.322  1.00  0.00     0.001 A 
BRANCH  16  21
ATOM     21  O   UNL     1       0.729  -1.155   0.929  1.00  0.00    -0.496 OA
ATOM     22  C   UNL     1       0.681  -0.320  -0.227  1.00  0.00     0.278 C 
ENDBRANCH  16  21
ENDBRANCH  10  15
BRANCH  14  23
ATOM     23  O   UNL     1       6.130   1.151  -0.643  1.00  0.00    -0.507 OA
ATOM     24  H   UNL     1       6.474   1.242  -1.510  1.00  0.00     0.293 HD
ENDBRANCH  14  23
ENDBRANCH   6   9
ENDBRANCH   4   5
ENDBRANCH   3   4
ENDBRANCH   2   3
ENDBRANCH   1   2
BRANCH   1  25
ATOM     25  C   UNL     1       0.956   0.107   6.655  1.00  0.00     0.021 C 
BRANCH  25  26
ATOM     26  C   UNL     1       1.083  -1.080   7.604  1.00  0.00     0.116 C 
BRANCH  26  27
ATOM     27  N   UNL     1       1.312  -0.644   8.973  1.00  0.00    -0.352 N 
ATOM     28  C   UNL     1       0.567  -0.893  10.099  1.00  0.00     0.251 C 
ATOM     29  H   UNL     1       2.115  -0.092   9.112  1.00  0.00     0.163 HD
ATOM     30  O   UNL     1       0.758  -0.241  11.119  1.00  0.00    -0.269 OA
BRANCH  28  31
ATOM     31  C   UNL     1      -0.469  -1.947  10.069  1.00  0.00     0.039 A 
ATOM     32  C   UNL     1      -1.711  -1.698  10.656  1.00  0.00     0.014 A 
ATOM     33  C   UNL     1      -0.205  -3.184   9.474  1.00  0.00     0.014 A 
ATOM     34  C   UNL     1      -2.708  -2.674  10.599  1.00  0.00     0.010 A 
ATOM     35  C   UNL     1      -1.222  -4.124   9.351  1.00  0.00     0.010 A 
ATOM     36  C   UNL     1      -2.481  -3.883   9.920  1.00  0.00    -0.014 A 
BRANCH  36  37
ATOM     37  C   UNL     1      -3.544  -4.912   9.803  1.00  0.00     0.031 A 
ATOM     38  C   UNL     1      -3.361  -6.262  10.439  1.00  0.00     0.074 A 
ATOM     39  C   UNL     1      -4.647  -4.649   9.075  1.00  0.00     0.049 A 
ATOM     40  N   UNL     1      -4.148  -7.306  10.405  1.00  0.00    -0.248 NA
ATOM     41  C   UNL     1      -2.114  -6.476  11.191  1.00  0.00     0.031 C 
ATOM     42  C   UNL     1      -4.920  -3.389   8.380  1.00  0.00     0.029 A 
ATOM     43  N   UNL     1      -5.742  -5.425   8.797  1.00  0.00    -0.354 N 
ATOM     44  C   UNL     1      -3.492  -8.299  11.123  1.00  0.00     0.074 A 
ATOM     45  C   UNL     1      -2.213  -7.754  11.522  1.00  0.00     0.031 C 
ATOM     46  C   UNL     1      -6.122  -3.466   7.787  1.00  0.00     0.029 A 
ATOM     47  C   UNL     1      -6.685  -4.792   8.021  1.00  0.00     0.049 A 
ATOM     48  H   UNL     1      -5.845  -6.349   9.121  1.00  0.00     0.167 HD
ATOM     49  C   UNL     1      -3.927  -9.541  11.446  1.00  0.00     0.037 A 
ATOM     50  C   UNL     1      -7.868  -5.232   7.552  1.00  0.00     0.037 A 
ATOM     51  C   UNL     1      -5.205 -10.073  11.048  1.00  0.00     0.049 A 
ATOM     52  C   UNL     1      -8.316  -6.628   7.890  1.00  0.00     0.074 A 
ATOM     53  C   UNL     1      -5.759 -11.304  11.351  1.00  0.00     0.029 A 
ATOM     54  N   UNL     1      -6.127  -9.405  10.253  1.00  0.00    -0.354 N 
ATOM     55  N   UNL     1      -7.708  -7.536   8.616  1.00  0.00    -0.248 NA
ATOM     56  C   UNL     1      -9.611  -7.057   7.348  1.00  0.00     0.031 C 
ATOM     57  C   UNL     1      -6.993 -11.400  10.698  1.00  0.00     0.029 A 
ATOM     58  C   UNL     1      -7.235 -10.208  10.034  1.00  0.00     0.049 A 
ATOM     59  H   UNL     1      -6.011  -8.495   9.897  1.00  0.00     0.167 HD
ATOM     60  C   UNL     1      -8.561  -8.634   8.644  1.00  0.00     0.074 A 
ATOM     61  C   UNL     1      -9.730  -8.271   7.868  1.00  0.00     0.031 C 
ATOM     62  C   UNL     1      -8.393  -9.832   9.259  1.00  0.00     0.037 A 
BRANCH  49  63
ATOM     63  C   UNL     1      -3.002 -10.404  12.264  1.00  0.00     0.058 A 
ATOM     64  C   UNL     1      -2.688 -10.092  13.598  1.00  0.00     0.135 A 
ATOM     65  C   UNL     1      -2.413 -11.552  11.709  1.00  0.00     0.135 A 
ATOM     66  F   UNL     1      -3.213  -9.000  14.178  1.00  0.00    -0.206 F 
ATOM     67  C   UNL     1      -1.785 -10.853  14.332  1.00  0.00     0.059 A 
ATOM     68  C   UNL     1      -1.532 -12.348  12.437  1.00  0.00     0.059 A 
ATOM     69  F   UNL     1      -2.679 -11.903  10.441  1.00  0.00    -0.206 F 
ATOM     70  C   UNL     1      -1.205 -11.975  13.740  1.00  0.00     0.060 A 
BRANCH  70  71
ATOM     71  S   UNL     1      -0.006 -12.930  14.693  1.00  0.00     0.124 S 
ATOM     72  O   UNL     1       1.151 -12.038  14.679  1.00  0.00    -0.237 OA
ATOM     73  O   UNL     1      -0.675 -13.078  15.980  1.00  0.00    -0.237 OA
ATOM     74  O   UNL     1       0.141 -14.159  13.920  1.00  0.00    -0.744 OA
ENDBRANCH  70  71
ENDBRANCH  49  63
BRANCH  50  75
ATOM     75  C   UNL     1      -8.729  -4.322   6.751  1.00  0.00     0.058 A 
ATOM     76  C   UNL     1      -9.919  -3.808   7.287  1.00  0.00     0.135 A 
ATOM     77  C   UNL     1      -8.370  -3.922   5.455  1.00  0.00     0.135 A 
ATOM     78  F   UNL     1     -10.309  -4.167   8.519  1.00  0.00    -0.206 F 
ATOM     79  C   UNL     1     -10.727  -2.935   6.566  1.00  0.00     0.059 A 
ATOM     80  C   UNL     1      -9.147  -3.030   4.723  1.00  0.00     0.059 A 
ATOM     81  F   UNL     1      -7.233  -4.373   4.902  1.00  0.00    -0.206 F 
ATOM     82  C   UNL     1     -10.328  -2.546   5.286  1.00  0.00     0.060 A 
BRANCH  82  83
ATOM     83  S   UNL     1     -11.352  -1.361   4.385  1.00  0.00     0.124 S 
ATOM     84  O   UNL     1     -12.518  -2.172   4.055  1.00  0.00    -0.237 OA
ATOM     85  O   UNL     1     -11.560  -0.318   5.385  1.00  0.00    -0.237 OA
ATOM     86  O   UNL     1     -10.508  -0.979   3.257  1.00  0.00    -0.744 OA
ENDBRANCH  82  83
ENDBRANCH  50  75
BRANCH  62  87
ATOM     87  C   UNL     1      -9.514 -10.829   9.148  1.00  0.00     0.058 A 
ATOM     88  C   UNL     1      -9.792 -11.501   7.947  1.00  0.00     0.135 A 
ATOM     89  C   UNL     1     -10.290 -11.152  10.274  1.00  0.00     0.135 A 
ATOM     90  F   UNL     1      -9.086 -11.224   6.839  1.00  0.00    -0.206 F 
ATOM     91  C   UNL     1     -10.814 -12.440   7.860  1.00  0.00     0.059 A 
ATOM     92  C   UNL     1     -11.298 -12.110  10.217  1.00  0.00     0.059 A 
ATOM     93  F   UNL     1     -10.061 -10.546  11.450  1.00  0.00    -0.206 F 
ATOM     94  C   UNL     1     -11.560 -12.740   9.002  1.00  0.00     0.060 A 
BRANCH  94  95
ATOM     95  S   UNL     1     -12.859 -13.988   8.882  1.00  0.00     0.124 S 
ATOM     96  O   UNL     1     -13.883 -13.274   8.127  1.00  0.00    -0.237 OA
ATOM     97  O   UNL     1     -12.187 -15.071   8.172  1.00  0.00    -0.237 OA
ATOM     98  O   UNL     1     -13.189 -14.270  10.276  1.00  0.00    -0.744 OA
ENDBRANCH  94  95
ENDBRANCH  62  87
ENDBRANCH  36  37
ENDBRANCH  28  31
ENDBRANCH  26  27
ENDBRANCH  25  26
ENDBRANCH   1  25
TORSDOF 19
