REMARK SMILES O=C(Cc1ccc(S(=O)(=O)N2CCNC(=O)C2)cc1)NCCCCCCNC(=O)c1ccc(-c2c3nc(c(-c4c(F)cc(S(=O)(=O)[O-])cc4F)c4ccc([nH]4)c(-c4c(F)cc(S(=O)(=O)[O-])cc4F)c4nc(c(-c5c(F)cc(S(=O)(=O)[O-])cc5F)c5ccc2[nH]5)C=C4)C=C3)cc1
REMARK SMILES IDX 23 1 22 2 21 3 20 4 1 5 2 6 3 8 4 9 5 10 19 11 6 12 18 13
REMARK SMILES IDX 7 14 8 15 9 16 10 17 11 18 12 19 17 20 13 21 15 22 14 23
REMARK SMILES IDX 16 24 24 26 25 27 26 28 27 29 28 30 29 32 30 33 31 34 95 35
REMARK SMILES IDX 32 36 94 37 33 38 34 39 35 40 88 41 36 42 93 43 87 44 89 45
REMARK SMILES IDX 37 46 92 47 86 48 85 49 38 51 72 52 51 53 71 54 52 55 55 56
REMARK SMILES IDX 70 57 90 58 53 59 54 60 69 62 91 63 56 64 39 65 40 66 49 67
REMARK SMILES IDX 41 68 42 69 48 70 50 71 43 72 44 73 45 74 46 75 47 76 73 77
REMARK SMILES IDX 74 78 83 79 75 80 76 81 82 82 84 83 77 84 78 85 79 86 80 87
REMARK SMILES IDX 81 88 57 89 58 90 67 91 59 92 60 93 66 94 68 95 61 96 62 97
REMARK SMILES IDX 63 98 64 99 65 100
REMARK H PARENT 20 7 14 25 27 31 89 50 55 61
REMARK Flexibility Score: inf
ROOT
ATOM      1  C   UNL     1       4.056  -3.561   1.738  1.00  0.00     0.002 C 
ENDROOT
BRANCH   1   2
ATOM      2  C   UNL     1       2.529  -3.513   1.543  1.00  0.00     0.021 C 
BRANCH   2   3
ATOM      3  C   UNL     1       1.895  -2.142   1.791  1.00  0.00     0.116 C 
BRANCH   3   4
ATOM      4  N   UNL     1       2.626  -1.124   1.076  1.00  0.00    -0.356 N 
ATOM      5  O   UNL     1       1.106  -0.703  -0.593  1.00  0.00    -0.275 OA
ATOM      6  C   UNL     1       2.224  -0.559  -0.110  1.00  0.00     0.224 C 
ATOM      7  H   UNL     1       3.474  -0.811   1.466  1.00  0.00     0.163 HD
BRANCH   6   8
ATOM      8  C   UNL     1       3.343   0.160  -0.852  1.00  0.00     0.135 C 
BRANCH   8   9
ATOM      9  C   UNL     1       4.032   1.231  -0.039  1.00  0.00    -0.039 A 
ATOM     10  C   UNL     1       5.130   0.940   0.784  1.00  0.00     0.005 A 
ATOM     11  C   UNL     1       3.522   2.530  -0.049  1.00  0.00     0.005 A 
ATOM     12  C   UNL     1       5.692   1.931   1.594  1.00  0.00     0.022 A 
ATOM     13  C   UNL     1       4.081   3.515   0.766  1.00  0.00     0.022 A 
ATOM     14  C   UNL     1       5.172   3.230   1.580  1.00  0.00     0.082 A 
BRANCH  14  15
ATOM     15  S   UNL     1       5.964   4.434   2.629  1.00  0.00     0.243 S 
ATOM     16  O   UNL     1       5.426   4.224   3.956  1.00  0.00    -0.207 OA
ATOM     17  O   UNL     1       7.383   4.307   2.369  1.00  0.00    -0.207 OA
BRANCH  15  18
ATOM     18  N   UNL     1       5.529   5.975   2.139  1.00  0.00    -0.187 NA
ATOM     19  C   UNL     1       6.149   6.633   0.977  1.00  0.00     0.124 C 
ATOM     20  C   UNL     1       4.243   6.571   2.546  1.00  0.00     0.202 C 
ATOM     21  C   UNL     1       5.199   6.617  -0.218  1.00  0.00     0.132 C 
ATOM     22  C   UNL     1       3.281   6.785   1.386  1.00  0.00     0.235 C 
ATOM     23  N   UNL     1       3.814   6.902   0.124  1.00  0.00    -0.354 N 
ATOM     24  O   UNL     1       2.065   6.874   1.539  1.00  0.00    -0.274 OA
ATOM     25  H   UNL     1       3.217   7.200  -0.600  1.00  0.00     0.163 HD
ENDBRANCH  15  18
ENDBRANCH  14  15
ENDBRANCH   8   9
ENDBRANCH   6   8
ENDBRANCH   3   4
ENDBRANCH   2   3
ENDBRANCH   1   2
BRANCH   1  26
ATOM     26  C   UNL     1       4.564  -3.098   3.107  1.00  0.00     0.002 C 
BRANCH  26  27
ATOM     27  C   UNL     1       3.970  -3.841   4.302  1.00  0.00     0.021 C 
BRANCH  27  28
ATOM     28  C   UNL     1       4.128  -5.354   4.249  1.00  0.00     0.116 C 
BRANCH  28  29
ATOM     29  N   UNL     1       5.519  -5.771   4.307  1.00  0.00    -0.352 N 
ATOM     30  C   UNL     1       6.077  -6.779   5.056  1.00  0.00     0.251 C 
ATOM     31  H   UNL     1       6.143  -5.265   3.737  1.00  0.00     0.163 HD
ATOM     32  O   UNL     1       7.297  -6.898   5.118  1.00  0.00    -0.269 OA
BRANCH  30  33
ATOM     33  C   UNL     1       5.195  -7.701   5.805  1.00  0.00     0.039 A 
ATOM     34  C   UNL     1       5.508  -8.013   7.129  1.00  0.00     0.014 A 
ATOM     35  C   UNL     1       4.056  -8.247   5.204  1.00  0.00     0.014 A 
ATOM     36  C   UNL     1       4.655  -8.839   7.864  1.00  0.00     0.010 A 
ATOM     37  C   UNL     1       3.166  -9.001   5.962  1.00  0.00     0.010 A 
ATOM     38  C   UNL     1       3.464  -9.321   7.295  1.00  0.00    -0.014 A 
BRANCH  38  39
ATOM     39  C   UNL     1       2.543 -10.200   8.063  1.00  0.00     0.031 A 
ATOM     40  C   UNL     1       2.291 -11.609   7.594  1.00  0.00     0.074 A 
ATOM     41  C   UNL     1       1.909  -9.724   9.154  1.00  0.00     0.049 A 
ATOM     42  N   UNL     1       1.475 -12.509   8.080  1.00  0.00    -0.248 NA
ATOM     43  C   UNL     1       3.035 -12.059   6.404  1.00  0.00     0.031 C 
ATOM     44  C   UNL     1       2.035  -8.364   9.683  1.00  0.00     0.029 A 
ATOM     45  N   UNL     1       1.024 -10.329  10.011  1.00  0.00    -0.354 N 
ATOM     46  C   UNL     1       1.610 -13.625   7.261  1.00  0.00     0.074 A 
ATOM     47  C   UNL     1       2.527 -13.266   6.204  1.00  0.00     0.031 C 
ATOM     48  C   UNL     1       1.270  -8.244  10.780  1.00  0.00     0.029 A 
ATOM     49  C   UNL     1       0.571  -9.504  11.014  1.00  0.00     0.049 A 
ATOM     50  H   UNL     1       0.739 -11.267   9.916  1.00  0.00     0.167 HD
ATOM     51  C   UNL     1       1.050 -14.850   7.398  1.00  0.00     0.037 A 
ATOM     52  C   UNL     1      -0.316  -9.734  12.003  1.00  0.00     0.037 A 
ATOM     53  C   UNL     1       0.152 -15.210   8.463  1.00  0.00     0.049 A 
ATOM     54  C   UNL     1      -0.935 -11.104  12.124  1.00  0.00     0.074 A 
ATOM     55  C   UNL     1      -0.461 -16.429   8.698  1.00  0.00     0.029 A 
ATOM     56  N   UNL     1      -0.253 -14.357   9.479  1.00  0.00    -0.354 N 
ATOM     57  N   UNL     1      -0.766 -12.157  11.360  1.00  0.00    -0.248 NA
ATOM     58  C   UNL     1      -1.853 -11.322  13.251  1.00  0.00     0.031 C 
ATOM     59  C   UNL     1      -1.263 -16.303   9.836  1.00  0.00     0.029 A 
ATOM     60  C   UNL     1      -1.106 -15.023  10.343  1.00  0.00     0.049 A 
ATOM     61  H   UNL     1       0.025 -13.417   9.573  1.00  0.00     0.167 HD
ATOM     62  C   UNL     1      -1.521 -13.172  11.940  1.00  0.00     0.074 A 
ATOM     63  C   UNL     1      -2.138 -12.609  13.123  1.00  0.00     0.031 C 
ATOM     64  C   UNL     1      -1.687 -14.455  11.533  1.00  0.00     0.037 A 
BRANCH  51  65
ATOM     65  C   UNL     1       1.417 -15.904   6.388  1.00  0.00     0.058 A 
ATOM     66  C   UNL     1       2.704 -16.465   6.353  1.00  0.00     0.135 A 
ATOM     67  C   UNL     1       0.463 -16.401   5.486  1.00  0.00     0.135 A 
ATOM     68  F   UNL     1       3.662 -16.013   7.179  1.00  0.00    -0.206 F 
ATOM     69  C   UNL     1       3.038 -17.468   5.450  1.00  0.00     0.059 A 
ATOM     70  C   UNL     1       0.766 -17.426   4.593  1.00  0.00     0.059 A 
ATOM     71  F   UNL     1      -0.781 -15.899   5.472  1.00  0.00    -0.206 F 
ATOM     72  C   UNL     1       2.059 -17.948   4.578  1.00  0.00     0.060 A 
BRANCH  72  73
ATOM     73  S   UNL     1       2.502 -19.276   3.439  1.00  0.00     0.124 S 
ATOM     74  O   UNL     1       3.383 -18.578   2.507  1.00  0.00    -0.237 OA
ATOM     75  O   UNL     1       3.150 -20.239   4.322  1.00  0.00    -0.237 OA
ATOM     76  O   UNL     1       1.217 -19.697   2.890  1.00  0.00    -0.744 OA
ENDBRANCH  72  73
ENDBRANCH  51  65
BRANCH  52  77
ATOM     77  C   UNL     1      -0.673  -8.654  12.964  1.00  0.00     0.058 A 
ATOM     78  C   UNL     1      -0.323  -8.741  14.320  1.00  0.00     0.135 A 
ATOM     79  C   UNL     1      -1.405  -7.530  12.552  1.00  0.00     0.135 A 
ATOM     80  F   UNL     1       0.376  -9.796  14.767  1.00  0.00    -0.206 F 
ATOM     81  C   UNL     1      -0.727  -7.779  15.242  1.00  0.00     0.059 A 
ATOM     82  C   UNL     1      -1.792  -6.538  13.448  1.00  0.00     0.059 A 
ATOM     83  F   UNL     1      -1.746  -7.384  11.262  1.00  0.00    -0.206 F 
ATOM     84  C   UNL     1      -1.468  -6.684  14.795  1.00  0.00     0.060 A 
BRANCH  84  85
ATOM     85  S   UNL     1      -1.993  -5.444  15.998  1.00  0.00     0.124 S 
ATOM     86  O   UNL     1      -3.052  -6.154  16.706  1.00  0.00    -0.237 OA
ATOM     87  O   UNL     1      -0.766  -5.207  16.752  1.00  0.00    -0.237 OA
ATOM     88  O   UNL     1      -2.430  -4.330  15.161  1.00  0.00    -0.744 OA
ENDBRANCH  84  85
ENDBRANCH  52  77
BRANCH  64  89
ATOM     89  C   UNL     1      -2.508 -15.362  12.411  1.00  0.00     0.058 A 
ATOM     90  C   UNL     1      -3.899 -15.226  12.531  1.00  0.00     0.135 A 
ATOM     91  C   UNL     1      -1.889 -16.410  13.113  1.00  0.00     0.135 A 
ATOM     92  F   UNL     1      -4.541 -14.241  11.883  1.00  0.00    -0.206 F 
ATOM     93  C   UNL     1      -4.643 -16.074  13.346  1.00  0.00     0.059 A 
ATOM     94  C   UNL     1      -2.617 -17.289  13.906  1.00  0.00     0.059 A 
ATOM     95  F   UNL     1      -0.562 -16.594  13.022  1.00  0.00    -0.206 F 
ATOM     96  C   UNL     1      -3.993 -17.102  14.030  1.00  0.00     0.060 A 
BRANCH  96  97
ATOM     97  S   UNL     1      -4.972 -18.205  15.071  1.00  0.00     0.124 S 
ATOM     98  O   UNL     1      -5.274 -17.344  16.209  1.00  0.00    -0.237 OA
ATOM     99  O   UNL     1      -6.101 -18.531  14.205  1.00  0.00    -0.237 OA
ATOM    100  O   UNL     1      -4.061 -19.312  15.346  1.00  0.00    -0.744 OA
ENDBRANCH  96  97
ENDBRANCH  64  89
ENDBRANCH  38  39
ENDBRANCH  30  33
ENDBRANCH  28  29
ENDBRANCH  27  28
ENDBRANCH  26  27
ENDBRANCH   1  26
TORSDOF 19
