REMARK SMILES CC(C)(C(=O)NCCCCCCNC(=O)c1ccc(-c2c3nc(c(-c4c(F)cc(S(=O)(=O)[O-])cc4F)c4ccc([nH]4)c(-c4c(F)cc(S(=O)(=O)[O-])cc4F)c4nc(c(-c5c(F)cc(S(=O)(=O)[O-])cc5F)c5ccc2[nH]5)C=C4)C=C3)cc1)c1ccc(C(=O)CCCCl)cc1
REMARK SMILES IDX 8 1 7 2 6 3 4 4 5 5 2 7 1 8 3 9 82 10 83 11 93 12 84 13
REMARK SMILES IDX 92 14 85 15 86 16 87 17 88 18 89 19 90 20 91 21 9 22 10 23
REMARK SMILES IDX 11 24 12 25 13 26 14 27 15 29 16 30 17 31 81 32 18 33 80 34
REMARK SMILES IDX 19 35 20 36 21 37 74 38 22 39 79 40 73 41 75 42 23 43 78 44
REMARK SMILES IDX 72 45 71 46 24 48 58 49 37 50 57 51 38 52 41 53 56 54 76 55
REMARK SMILES IDX 39 56 40 57 55 59 77 60 42 61 25 62 26 63 35 64 27 65 28 66
REMARK SMILES IDX 34 67 36 68 29 69 30 70 31 71 32 72 33 73 59 74 60 75 69 76
REMARK SMILES IDX 61 77 62 78 68 79 70 80 63 81 64 82 65 83 66 84 67 85 43 86
REMARK SMILES IDX 44 87 53 88 45 89 46 90 52 91 54 92 47 93 48 94 49 95 50 96
REMARK SMILES IDX 51 97
REMARK H PARENT 6 6 13 28 75 47 41 58
REMARK Flexibility Score: inf
ROOT
ATOM      1  C   UNL     1      -1.572   0.994   2.412  1.00  0.00     0.021 C 
ENDROOT
BRANCH   1   2
ATOM      2  C   UNL     1      -1.036  -0.435   2.334  1.00  0.00     0.116 C 
BRANCH   2   3
ATOM      3  N   UNL     1      -1.439  -1.067   1.093  1.00  0.00    -0.355 N 
ATOM      4  C   UNL     1      -0.746  -1.435  -0.020  1.00  0.00     0.230 C 
ATOM      5  O   UNL     1      -1.451  -1.753  -0.984  1.00  0.00    -0.274 OA
ATOM      6  H   UNL     1      -2.401  -1.270   1.045  1.00  0.00     0.163 HD
BRANCH   4   7
ATOM      7  C   UNL     1       0.816  -1.447  -0.075  1.00  0.00     0.068 C 
ATOM      8  C   UNL     1       1.305   0.015   0.054  1.00  0.00     0.026 C 
ATOM      9  C   UNL     1       1.399  -2.330   1.047  1.00  0.00     0.026 C 
BRANCH   7  10
ATOM     10  C   UNL     1       1.338  -2.080  -1.400  1.00  0.00    -0.033 A 
ATOM     11  C   UNL     1       0.800  -3.288  -1.885  1.00  0.00     0.005 A 
ATOM     12  C   UNL     1       2.385  -1.502  -2.136  1.00  0.00     0.005 A 
ATOM     13  C   UNL     1       1.193  -3.814  -3.119  1.00  0.00     0.012 A 
ATOM     14  C   UNL     1       2.805  -2.044  -3.351  1.00  0.00     0.012 A 
ATOM     15  C   UNL     1       2.161  -3.159  -3.882  1.00  0.00     0.018 A 
BRANCH  15  16
ATOM     16  C   UNL     1       2.419  -3.622  -5.272  1.00  0.00     0.162 C 
ATOM     17  O   UNL     1       2.111  -4.768  -5.597  1.00  0.00    -0.294 OA
BRANCH  16  18
ATOM     18  C   UNL     1       2.980  -2.644  -6.294  1.00  0.00     0.082 C 
BRANCH  18  19
ATOM     19  C   UNL     1       1.917  -1.708  -6.881  1.00  0.00     0.024 C 
BRANCH  19  20
ATOM     20  C   UNL     1       1.560  -0.470  -6.060  1.00  0.00     0.110 C 
ATOM     21  Cl  UNL     1       2.959   0.607  -5.832  1.00  0.00    -0.127 Cl
ENDBRANCH  19  20
ENDBRANCH  18  19
ENDBRANCH  16  18
ENDBRANCH  15  16
ENDBRANCH   7  10
ENDBRANCH   4   7
ENDBRANCH   2   3
ENDBRANCH   1   2
BRANCH   1  22
ATOM     22  C   UNL     1      -3.083   1.081   2.648  1.00  0.00     0.002 C 
BRANCH  22  23
ATOM     23  C   UNL     1      -3.587   0.322   3.880  1.00  0.00     0.002 C 
BRANCH  23  24
ATOM     24  C   UNL     1      -2.851   0.645   5.184  1.00  0.00     0.021 C 
BRANCH  24  25
ATOM     25  C   UNL     1      -2.886   2.116   5.581  1.00  0.00     0.116 C 
BRANCH  25  26
ATOM     26  N   UNL     1      -4.242   2.576   5.824  1.00  0.00    -0.352 N 
ATOM     27  C   UNL     1      -4.759   3.204   6.928  1.00  0.00     0.251 C 
ATOM     28  H   UNL     1      -4.880   2.415   5.092  1.00  0.00     0.163 HD
ATOM     29  O   UNL     1      -5.973   3.324   7.051  1.00  0.00    -0.269 OA
BRANCH  27  30
ATOM     30  C   UNL     1      -3.849   3.721   7.974  1.00  0.00     0.039 A 
ATOM     31  C   UNL     1      -4.179   3.519   9.315  1.00  0.00     0.014 A 
ATOM     32  C   UNL     1      -2.686   4.419   7.633  1.00  0.00     0.014 A 
ATOM     33  C   UNL     1      -3.321   3.982  10.315  1.00  0.00     0.010 A 
ATOM     34  C   UNL     1      -1.795   4.812   8.628  1.00  0.00     0.010 A 
ATOM     35  C   UNL     1      -2.110   4.611   9.980  1.00  0.00    -0.014 A 
BRANCH  35  36
ATOM     36  C   UNL     1      -1.178   5.089  11.034  1.00  0.00     0.031 A 
ATOM     37  C   UNL     1      -0.888   6.560  11.172  1.00  0.00     0.074 A 
ATOM     38  C   UNL     1      -0.564   4.197  11.836  1.00  0.00     0.049 A 
ATOM     39  N   UNL     1      -0.068   7.167  11.991  1.00  0.00    -0.248 NA
ATOM     40  C   UNL     1      -1.595   7.467  10.252  1.00  0.00     0.031 C 
ATOM     41  C   UNL     1      -0.727   2.743  11.768  1.00  0.00     0.029 A 
ATOM     42  N   UNL     1       0.327   4.382  12.864  1.00  0.00    -0.354 N 
ATOM     43  C   UNL     1      -0.160   8.520  11.686  1.00  0.00     0.074 A 
ATOM     44  C   UNL     1      -1.062   8.639  10.562  1.00  0.00     0.031 C 
ATOM     45  C   UNL     1       0.023   2.170  12.723  1.00  0.00     0.029 A 
ATOM     46  C   UNL     1       0.745   3.210  13.450  1.00  0.00     0.049 A 
ATOM     47  H   UNL     1       0.637   5.270  13.154  1.00  0.00     0.167 HD
ATOM     48  C   UNL     1       0.427   9.572  12.306  1.00  0.00     0.037 A 
ATOM     49  C   UNL     1       1.618   2.998  14.454  1.00  0.00     0.037 A 
ATOM     50  C   UNL     1       1.313   9.448  13.435  1.00  0.00     0.049 A 
ATOM     51  C   UNL     1       2.264   4.183  15.122  1.00  0.00     0.074 A 
ATOM     52  C   UNL     1       1.944  10.451  14.149  1.00  0.00     0.029 A 
ATOM     53  N   UNL     1       1.689   8.246  14.018  1.00  0.00    -0.354 N 
ATOM     54  N   UNL     1       2.130   5.459  14.849  1.00  0.00    -0.248 NA
ATOM     55  C   UNL     1       3.170   3.900  16.244  1.00  0.00     0.031 C 
ATOM     56  C   UNL     1       2.729   9.855  15.142  1.00  0.00     0.029 A 
ATOM     57  C   UNL     1       2.547   8.483  15.079  1.00  0.00     0.049 A 
ATOM     58  H   UNL     1       1.389   7.357  13.722  1.00  0.00     0.167 HD
ATOM     59  C   UNL     1       2.906   6.132  15.787  1.00  0.00     0.074 A 
ATOM     60  C   UNL     1       3.495   5.122  16.641  1.00  0.00     0.031 C 
ATOM     61  C   UNL     1       3.112   7.465  15.930  1.00  0.00     0.037 A 
BRANCH  48  62
ATOM     62  C   UNL     1       0.115  10.949  11.787  1.00  0.00     0.058 A 
ATOM     63  C   UNL     1      -1.159  11.521  11.949  1.00  0.00     0.135 A 
ATOM     64  C   UNL     1       1.101  11.722  11.154  1.00  0.00     0.135 A 
ATOM     65  F   UNL     1      -2.145  10.821  12.532  1.00  0.00    -0.206 F 
ATOM     66  C   UNL     1      -1.451  12.796  11.477  1.00  0.00     0.059 A 
ATOM     67  C   UNL     1       0.840  13.012  10.701  1.00  0.00     0.059 A 
ATOM     68  F   UNL     1       2.335  11.226  10.972  1.00  0.00    -0.206 F 
ATOM     69  C   UNL     1      -0.444  13.535  10.854  1.00  0.00     0.060 A 
BRANCH  69  70
ATOM     70  S   UNL     1      -0.839  15.192  10.256  1.00  0.00     0.124 S 
ATOM     71  O   UNL     1      -1.675  14.891   9.098  1.00  0.00    -0.237 OA
ATOM     72  O   UNL     1      -1.528  15.780  11.400  1.00  0.00    -0.237 OA
ATOM     73  O   UNL     1       0.469  15.765   9.953  1.00  0.00    -0.744 OA
ENDBRANCH  69  70
ENDBRANCH  48  62
BRANCH  49  74
ATOM     74  C   UNL     1       1.923   1.612  14.901  1.00  0.00     0.058 A 
ATOM     75  C   UNL     1       1.511   1.149  16.160  1.00  0.00     0.135 A 
ATOM     76  C   UNL     1       2.643   0.727  14.084  1.00  0.00     0.135 A 
ATOM     77  F   UNL     1       0.821   1.957  16.979  1.00  0.00    -0.206 F 
ATOM     78  C   UNL     1       1.832  -0.129  16.608  1.00  0.00     0.059 A 
ATOM     79  C   UNL     1       2.951  -0.565  14.498  1.00  0.00     0.059 A 
ATOM     80  F   UNL     1       3.042   1.112  12.862  1.00  0.00    -0.206 F 
ATOM     81  C   UNL     1       2.555  -0.978  15.770  1.00  0.00     0.060 A 
BRANCH  81  82
ATOM     82  S   UNL     1       2.952  -2.641  16.351  1.00  0.00     0.124 S 
ATOM     83  O   UNL     1       4.003  -2.368  17.324  1.00  0.00    -0.237 OA
ATOM     84  O   UNL     1       1.675  -3.088  16.898  1.00  0.00    -0.237 OA
ATOM     85  O   UNL     1       3.379  -3.327  15.135  1.00  0.00    -0.744 OA
ENDBRANCH  81  82
ENDBRANCH  49  74
BRANCH  61  86
ATOM     86  C   UNL     1       3.969   7.912  17.083  1.00  0.00     0.058 A 
ATOM     87  C   UNL     1       5.357   7.706  17.100  1.00  0.00     0.135 A 
ATOM     88  C   UNL     1       3.392   8.587  18.172  1.00  0.00     0.135 A 
ATOM     89  F   UNL     1       5.957   7.062  16.087  1.00  0.00    -0.206 F 
ATOM     90  C   UNL     1       6.139   8.123  18.172  1.00  0.00     0.059 A 
ATOM     91  C   UNL     1       4.160   9.040  19.239  1.00  0.00     0.059 A 
ATOM     92  F   UNL     1       2.071   8.821  18.200  1.00  0.00    -0.206 F 
ATOM     93  C   UNL     1       5.531   8.789  19.238  1.00  0.00     0.060 A 
BRANCH  93  94
ATOM     94  S   UNL     1       6.560   9.341  20.615  1.00  0.00     0.124 S 
ATOM     95  O   UNL     1       6.836   8.082  21.298  1.00  0.00    -0.237 OA
ATOM     96  O   UNL     1       7.694   9.954  19.931  1.00  0.00    -0.237 OA
ATOM     97  O   UNL     1       5.694  10.270  21.335  1.00  0.00    -0.744 OA
ENDBRANCH  93  94
ENDBRANCH  61  86
ENDBRANCH  35  36
ENDBRANCH  27  30
ENDBRANCH  25  26
ENDBRANCH  24  25
ENDBRANCH  23  24
ENDBRANCH  22  23
ENDBRANCH   1  22
TORSDOF 21
