REMARK SMILES O=C(CCN1C(=O)S/C(=C\c2ccc(F)cc2)C1=O)Nc1ccc(O)cc1C(=O)NCCCCCCNC(=O)c1ccc(-c2c3nc(c(-c4c(F)cc(S(=O)(=O)[O-])cc4F)c4ccc([nH]4)c(-c4c(F)cc(S(=O)(=O)[O-])cc4F)c4nc(c(-c5c(F)cc(S(=O)(=O)[O-])cc5F)c5ccc2[nH]5)C=C4)C=C3)cc1
REMARK SMILES IDX 32 1 31 2 30 3 28 4 29 5 27 7 21 8 22 9 23 10 26 11 24 12
REMARK SMILES IDX 20 13 1 14 2 15 3 17 4 18 5 19 6 20 18 21 7 22 8 23 9 24
REMARK SMILES IDX 19 25 10 26 11 27 12 28 17 29 13 30 16 31 14 32 15 33 25 34
REMARK SMILES IDX 33 36 34 37 35 38 36 39 37 40 38 41 39 43 40 44 41 45 105 46
REMARK SMILES IDX 42 47 104 48 43 49 44 50 45 51 98 52 46 53 103 54 97 55
REMARK SMILES IDX 99 56 47 57 102 58 96 59 95 60 48 62 82 63 61 64 81 65 62 66
REMARK SMILES IDX 65 67 80 68 100 69 63 70 64 71 79 73 101 74 66 75 49 76
REMARK SMILES IDX 50 77 59 78 51 79 52 80 58 81 60 82 53 83 54 84 55 85 56 86
REMARK SMILES IDX 57 87 83 88 84 89 93 90 85 91 86 92 92 93 94 94 87 95 88 96
REMARK SMILES IDX 89 97 90 98 91 99 67 100 68 101 77 102 69 103 70 104 76 105
REMARK SMILES IDX 78 106 71 107 72 108 73 109 74 110 75 111
REMARK H PARENT 30 6 20 16 25 35 37 42 99 61 65 72
REMARK Flexibility Score: inf
ROOT
ATOM      1  C   UNL     1       2.905  -3.176   1.727  1.00  0.00     0.021 C 
ENDROOT
BRANCH   1   2
ATOM      2  C   UNL     1       2.576  -2.660   0.290  1.00  0.00     0.116 C 
BRANCH   2   3
ATOM      3  N   UNL     1       3.253  -3.250  -0.866  1.00  0.00    -0.352 N 
ATOM      4  C   UNL     1       3.201  -2.998  -2.229  1.00  0.00     0.253 C 
ATOM      5  O   UNL     1       4.058  -3.522  -2.945  1.00  0.00    -0.269 OA
ATOM      6  H   UNL     1       3.874  -3.976  -0.627  1.00  0.00     0.163 HD
BRANCH   4   7
ATOM      7  C   UNL     1       2.170  -2.151  -2.905  1.00  0.00     0.067 A 
ATOM      8  C   UNL     1       1.786  -0.865  -2.497  1.00  0.00     0.054 A 
ATOM      9  C   UNL     1       0.726  -0.206  -3.144  1.00  0.00     0.031 A 
ATOM     10  C   UNL     1       0.134  -0.758  -4.279  1.00  0.00     0.048 A 
ATOM     11  C   UNL     1       1.604  -2.670  -4.085  1.00  0.00     0.062 A 
ATOM     12  C   UNL     1       0.609  -1.968  -4.765  1.00  0.00     0.116 A 
BRANCH   8  13
ATOM     13  N   UNL     1       2.585  -0.146  -1.596  1.00  0.00    -0.325 N 
ATOM     14  O   UNL     1       0.933   0.933  -0.406  1.00  0.00    -0.275 OA
ATOM     15  C   UNL     1       2.120   0.745  -0.658  1.00  0.00     0.226 C 
ATOM     16  H   UNL     1       3.558  -0.291  -1.638  1.00  0.00     0.169 HD
BRANCH  15  17
ATOM     17  C   UNL     1       3.210   1.497   0.074  1.00  0.00     0.122 C 
BRANCH  17  18
ATOM     18  C   UNL     1       4.368   0.653   0.594  1.00  0.00     0.140 C 
BRANCH  18  19
ATOM     19  N   UNL     1       5.346   0.134  -0.383  1.00  0.00    -0.268 N 
ATOM     20  C   UNL     1       6.233   0.936  -1.040  1.00  0.00     0.293 C 
ATOM     21  C   UNL     1       5.666  -1.192  -0.435  1.00  0.00     0.268 C 
ATOM     22  O   UNL     1       6.287   2.155  -0.972  1.00  0.00    -0.261 OA
ATOM     23  S   UNL     1       7.374  -0.034  -1.989  1.00  0.00    -0.022 SA
ATOM     24  C   UNL     1       6.755  -1.498  -1.375  1.00  0.00     0.083 C 
ATOM     25  O   UNL     1       5.152  -2.060   0.238  1.00  0.00    -0.268 OA
ATOM     26  C   UNL     1       7.064  -2.784  -1.597  1.00  0.00     0.029 C 
BRANCH  26  27
ATOM     27  C   UNL     1       8.080  -3.357  -2.476  1.00  0.00    -0.024 A 
ATOM     28  C   UNL     1       9.442  -3.171  -2.226  1.00  0.00     0.011 A 
ATOM     29  C   UNL     1       7.671  -4.199  -3.521  1.00  0.00     0.011 A 
ATOM     30  C   UNL     1      10.390  -3.781  -3.050  1.00  0.00     0.040 A 
ATOM     31  C   UNL     1       8.619  -4.805  -4.345  1.00  0.00     0.040 A 
ATOM     32  C   UNL     1       9.970  -4.581  -4.107  1.00  0.00     0.123 A 
ATOM     33  F   UNL     1      10.882  -5.153  -4.904  1.00  0.00    -0.207 F 
ENDBRANCH  26  27
ENDBRANCH  18  19
ENDBRANCH  17  18
ENDBRANCH  15  17
ENDBRANCH   8  13
BRANCH  12  34
ATOM     34  O   UNL     1       0.122  -2.499  -5.923  1.00  0.00    -0.508 OA
ATOM     35  H   UNL     1      -0.547  -2.048  -6.400  1.00  0.00     0.293 HD
ENDBRANCH  12  34
ENDBRANCH   4   7
ENDBRANCH   2   3
ENDBRANCH   1   2
BRANCH   1  36
ATOM     36  C   UNL     1       4.142  -3.144   2.725  1.00  0.00     0.002 C 
BRANCH  36  37
ATOM     37  C   UNL     1       5.592  -2.576   2.770  1.00  0.00     0.002 C 
BRANCH  37  38
ATOM     38  C   UNL     1       5.921  -1.110   3.114  1.00  0.00     0.021 C 
BRANCH  38  39
ATOM     39  C   UNL     1       5.304  -0.541   4.387  1.00  0.00     0.116 C 
BRANCH  39  40
ATOM     40  N   UNL     1       5.974  -1.087   5.555  1.00  0.00    -0.352 N 
ATOM     41  C   UNL     1       6.417  -0.420   6.670  1.00  0.00     0.251 C 
ATOM     42  H   UNL     1       6.129  -2.059   5.546  1.00  0.00     0.163 HD
ATOM     43  O   UNL     1       7.304  -0.914   7.360  1.00  0.00    -0.269 OA
BRANCH  41  44
ATOM     44  C   UNL     1       5.812   0.876   7.050  1.00  0.00     0.039 A 
ATOM     45  C   UNL     1       6.616   1.859   7.633  1.00  0.00     0.014 A 
ATOM     46  C   UNL     1       4.436   1.087   6.912  1.00  0.00     0.014 A 
ATOM     47  C   UNL     1       6.039   3.053   8.071  1.00  0.00     0.010 A 
ATOM     48  C   UNL     1       3.873   2.304   7.289  1.00  0.00     0.010 A 
ATOM     49  C   UNL     1       4.665   3.287   7.895  1.00  0.00    -0.014 A 
BRANCH  49  50
ATOM     50  C   UNL     1       4.057   4.560   8.355  1.00  0.00     0.031 A 
ATOM     51  C   UNL     1       3.054   4.569   9.476  1.00  0.00     0.074 A 
ATOM     52  C   UNL     1       4.408   5.705   7.742  1.00  0.00     0.049 A 
ATOM     53  N   UNL     1       2.472   5.590  10.050  1.00  0.00    -0.248 NA
ATOM     54  C   UNL     1       2.630   3.264  10.006  1.00  0.00     0.031 C 
ATOM     55  C   UNL     1       5.321   5.799   6.600  1.00  0.00     0.029 A 
ATOM     56  N   UNL     1       4.057   7.006   7.995  1.00  0.00    -0.354 N 
ATOM     57  C   UNL     1       1.615   5.053  11.003  1.00  0.00     0.074 A 
ATOM     58  C   UNL     1       1.705   3.614  10.888  1.00  0.00     0.031 C 
ATOM     59  C   UNL     1       5.495   7.090   6.282  1.00  0.00     0.029 A 
ATOM     60  C   UNL     1       4.684   7.913   7.174  1.00  0.00     0.049 A 
ATOM     61  H   UNL     1       3.417   7.265   8.696  1.00  0.00     0.167 HD
ATOM     62  C   UNL     1       0.845   5.703  11.908  1.00  0.00     0.037 A 
ATOM     63  C   UNL     1       4.622   9.258   7.151  1.00  0.00     0.037 A 
ATOM     64  C   UNL     1       0.781   7.138  12.015  1.00  0.00     0.049 A 
ATOM     65  C   UNL     1       3.778   9.960   8.175  1.00  0.00     0.074 A 
ATOM     66  C   UNL     1       0.092   7.902  12.940  1.00  0.00     0.029 A 
ATOM     67  N   UNL     1       1.420   8.026  11.161  1.00  0.00    -0.354 N 
ATOM     68  N   UNL     1       3.042   9.440   9.129  1.00  0.00    -0.248 NA
ATOM     69  C   UNL     1       3.761  11.427   8.128  1.00  0.00     0.031 C 
ATOM     70  C   UNL     1       0.265   9.250  12.607  1.00  0.00     0.029 A 
ATOM     71  C   UNL     1       1.111   9.331  11.511  1.00  0.00     0.049 A 
ATOM     72  H   UNL     1       2.008   7.767  10.414  1.00  0.00     0.167 HD
ATOM     73  C   UNL     1       2.469  10.515   9.797  1.00  0.00     0.074 A 
ATOM     74  C   UNL     1       2.976  11.715   9.158  1.00  0.00     0.031 C 
ATOM     75  C   UNL     1       1.599  10.512  10.838  1.00  0.00     0.037 A 
BRANCH  62  76
ATOM     76  C   UNL     1       0.011   4.872  12.850  1.00  0.00     0.058 A 
ATOM     77  C   UNL     1      -1.391   4.898  12.774  1.00  0.00     0.135 A 
ATOM     78  C   UNL     1       0.593   4.077  13.852  1.00  0.00     0.135 A 
ATOM     79  F   UNL     1      -2.005   5.634  11.835  1.00  0.00    -0.206 F 
ATOM     80  C   UNL     1      -2.184   4.172  13.658  1.00  0.00     0.059 A 
ATOM     81  C   UNL     1      -0.180   3.317  14.727  1.00  0.00     0.059 A 
ATOM     82  F   UNL     1       1.929   3.997  13.961  1.00  0.00    -0.206 F 
ATOM     83  C   UNL     1      -1.569   3.381  14.630  1.00  0.00     0.060 A 
BRANCH  83  84
ATOM     84  S   UNL     1      -2.613   2.405  15.734  1.00  0.00     0.124 S 
ATOM     85  O   UNL     1      -3.232   3.439  16.555  1.00  0.00    -0.237 OA
ATOM     86  O   UNL     1      -3.497   1.722  14.794  1.00  0.00    -0.237 OA
ATOM     87  O   UNL     1      -1.659   1.541  16.424  1.00  0.00    -0.744 OA
ENDBRANCH  83  84
ENDBRANCH  62  76
BRANCH  63  88
ATOM     88  C   UNL     1       5.425  10.000   6.144  1.00  0.00     0.058 A 
ATOM     89  C   UNL     1       5.117   9.925   4.776  1.00  0.00     0.135 A 
ATOM     90  C   UNL     1       6.574  10.713   6.517  1.00  0.00     0.135 A 
ATOM     91  F   UNL     1       4.036   9.244   4.365  1.00  0.00    -0.206 F 
ATOM     92  C   UNL     1       5.944  10.489   3.811  1.00  0.00     0.059 A 
ATOM     93  C   UNL     1       7.404  11.309   5.571  1.00  0.00     0.059 A 
ATOM     94  F   UNL     1       6.904  10.820   7.813  1.00  0.00    -0.206 F 
ATOM     95  C   UNL     1       7.094  11.168   4.219  1.00  0.00     0.060 A 
BRANCH  95  96
ATOM     96  S   UNL     1       8.189  11.830   2.945  1.00  0.00     0.124 S 
ATOM     97  O   UNL     1       8.693  10.606   2.330  1.00  0.00    -0.237 OA
ATOM     98  O   UNL     1       7.269  12.618   2.132  1.00  0.00    -0.237 OA
ATOM     99  O   UNL     1       9.168  12.598   3.707  1.00  0.00    -0.744 OA
ENDBRANCH  95  96
ENDBRANCH  63  88
BRANCH  75 100
ATOM    100  C   UNL     1       1.115  11.848  11.332  1.00  0.00     0.058 A 
ATOM    101  C   UNL     1       1.494  12.327  12.596  1.00  0.00     0.135 A 
ATOM    102  C   UNL     1       0.239  12.636  10.568  1.00  0.00     0.135 A 
ATOM    103  F   UNL     1       2.321  11.611  13.373  1.00  0.00    -0.206 F 
ATOM    104  C   UNL     1       1.018  13.538  13.087  1.00  0.00     0.059 A 
ATOM    105  C   UNL     1      -0.223  13.867  11.025  1.00  0.00     0.059 A 
ATOM    106  F   UNL     1      -0.147  12.228   9.349  1.00  0.00    -0.206 F 
ATOM    107  C   UNL     1       0.165  14.303  12.291  1.00  0.00     0.060 A 
BRANCH 107 108
ATOM    108  S   UNL     1      -0.399  15.898  12.922  1.00  0.00     0.124 S 
ATOM    109  O   UNL     1      -1.317  15.493  13.982  1.00  0.00    -0.237 OA
ATOM    110  O   UNL     1       0.850  16.512  13.364  1.00  0.00    -0.237 OA
ATOM    111  O   UNL     1      -1.019  16.523  11.758  1.00  0.00    -0.744 OA
ENDBRANCH 107 108
ENDBRANCH  75 100
ENDBRANCH  49  50
ENDBRANCH  41  44
ENDBRANCH  39  40
ENDBRANCH  38  39
ENDBRANCH  37  38
ENDBRANCH  36  37
ENDBRANCH   1  36
TORSDOF 22
