REMARK SMILES CCC[C@@H](C)[C@H](NS(=O)(=O)c1ccc(C)c(C)c1)C(=O)NCCCCCCNC(=O)c1ccc(-c2c3nc(c(-c4c(F)cc(S(=O)(=O)[O-])cc4F)c4ccc([nH]4)c(-c4c(F)cc(S(=O)(=O)[O-])cc4F)c4nc(c(-c5c(F)cc(S(=O)(=O)[O-])cc5F)c5ccc2[nH]5)C=C4)C=C3)cc1
REMARK SMILES IDX 24 1 23 2 22 3 21 4 19 5 20 6 6 8 4 9 5 10 3 11 2 12 1 13
REMARK SMILES IDX 7 14 8 16 9 17 10 18 11 19 12 20 18 21 13 22 16 23 14 24
REMARK SMILES IDX 17 25 15 26 25 27 26 28 27 29 28 30 29 31 30 33 31 34 32 35
REMARK SMILES IDX 96 36 33 37 95 38 34 39 35 40 36 41 89 42 37 43 94 44 88 45
REMARK SMILES IDX 90 46 38 47 93 48 87 49 86 50 39 52 73 53 52 54 72 55 53 56
REMARK SMILES IDX 56 57 71 58 91 59 54 60 55 61 70 63 92 64 57 65 40 66 41 67
REMARK SMILES IDX 50 68 42 69 43 70 49 71 51 72 44 73 45 74 46 75 47 76 48 77
REMARK SMILES IDX 74 78 75 79 84 80 76 81 77 82 83 83 85 84 78 85 79 86 80 87
REMARK SMILES IDX 81 88 82 89 58 90 59 91 68 92 60 93 61 94 67 95 69 96 62 97
REMARK SMILES IDX 63 98 64 99 65 100 66 101
REMARK H PARENT 21 7 7 15 28 32 90 51 56 62
REMARK Flexibility Score: inf
ROOT
ATOM      1  C   UNL     1       0.524   1.842   5.637  1.00  0.00     0.002 C 
ENDROOT
BRANCH   1   2
ATOM      2  C   UNL     1       0.745   1.287   4.230  1.00  0.00     0.021 C 
BRANCH   2   3
ATOM      3  C   UNL     1       1.627   0.053   4.187  1.00  0.00     0.116 C 
BRANCH   3   4
ATOM      4  N   UNL     1       1.154  -1.040   5.021  1.00  0.00    -0.355 N 
ATOM      5  C   UNL     1       1.091  -2.378   4.736  1.00  0.00     0.238 C 
ATOM      6  O   UNL     1       0.937  -3.176   5.664  1.00  0.00    -0.273 OA
ATOM      7  H   UNL     1       0.834  -0.781   5.915  1.00  0.00     0.163 HD
BRANCH   5   8
ATOM      8  C   UNL     1       1.257  -2.864   3.296  1.00  0.00     0.161 C 
BRANCH   8   9
ATOM      9  C   UNL     1       2.788  -3.062   2.993  1.00  0.00     0.013 C 
ATOM     10  C   UNL     1       3.769  -2.130   3.737  1.00  0.00     0.010 C 
BRANCH   9  11
ATOM     11  C   UNL     1       3.158  -3.155   1.498  1.00  0.00     0.005 C 
BRANCH  11  12
ATOM     12  C   UNL     1       4.661  -3.344   1.206  1.00  0.00    -0.003 C 
ATOM     13  C   UNL     1       5.296  -4.560   1.870  1.00  0.00     0.004 C 
ENDBRANCH  11  12
ENDBRANCH   9  11
ENDBRANCH   8   9
BRANCH   8  14
ATOM     14  N   UNL     1       0.464  -2.009   2.370  1.00  0.00    -0.198 NA
ATOM     15  H   UNL     1       0.815  -2.192   1.430  1.00  0.00     0.142 HD
BRANCH  14  16
ATOM     16  S   UNL     1      -1.231  -2.155   2.294  1.00  0.00     0.241 S 
ATOM     17  O   UNL     1      -1.618  -1.346   1.162  1.00  0.00    -0.207 OA
ATOM     18  O   UNL     1      -1.559  -3.567   2.342  1.00  0.00    -0.207 OA
BRANCH  16  19
ATOM     19  C   UNL     1      -1.912  -1.383   3.752  1.00  0.00     0.082 A 
ATOM     20  C   UNL     1      -2.505  -0.121   3.698  1.00  0.00     0.022 A 
ATOM     21  C   UNL     1      -1.862  -2.062   4.969  1.00  0.00     0.025 A 
ATOM     22  C   UNL     1      -2.903   0.508   4.888  1.00  0.00     0.005 A 
ATOM     23  C   UNL     1      -2.170  -1.409   6.176  1.00  0.00    -0.047 A 
ATOM     24  C   UNL     1      -2.695  -0.104   6.137  1.00  0.00    -0.048 A 
ATOM     25  C   UNL     1      -1.751  -2.083   7.456  1.00  0.00     0.044 C 
ATOM     26  C   UNL     1      -2.969   0.673   7.397  1.00  0.00     0.044 C 
ENDBRANCH  16  19
ENDBRANCH  14  16
ENDBRANCH   8  14
ENDBRANCH   5   8
ENDBRANCH   3   4
ENDBRANCH   2   3
ENDBRANCH   1   2
BRANCH   1  27
ATOM     27  C   UNL     1       1.809   2.113   6.423  1.00  0.00     0.002 C 
BRANCH  27  28
ATOM     28  C   UNL     1       2.838   2.973   5.691  1.00  0.00     0.021 C 
BRANCH  28  29
ATOM     29  C   UNL     1       2.292   4.292   5.166  1.00  0.00     0.116 C 
BRANCH  29  30
ATOM     30  N   UNL     1       1.802   5.142   6.237  1.00  0.00    -0.352 N 
ATOM     31  C   UNL     1       2.115   6.455   6.487  1.00  0.00     0.251 C 
ATOM     32  H   UNL     1       1.165   4.725   6.861  1.00  0.00     0.163 HD
ATOM     33  O   UNL     1       1.769   6.991   7.533  1.00  0.00    -0.269 OA
BRANCH  31  34
ATOM     34  C   UNL     1       2.902   7.196   5.482  1.00  0.00     0.039 A 
ATOM     35  C   UNL     1       4.045   7.886   5.887  1.00  0.00     0.014 A 
ATOM     36  C   UNL     1       2.536   7.151   4.133  1.00  0.00     0.014 A 
ATOM     37  C   UNL     1       4.859   8.487   4.925  1.00  0.00     0.010 A 
ATOM     38  C   UNL     1       3.389   7.681   3.173  1.00  0.00     0.010 A 
ATOM     39  C   UNL     1       4.556   8.360   3.560  1.00  0.00    -0.014 A 
BRANCH  39  40
ATOM     40  C   UNL     1       5.429   8.941   2.509  1.00  0.00     0.031 A 
ATOM     41  C   UNL     1       4.883  10.009   1.601  1.00  0.00     0.074 A 
ATOM     42  C   UNL     1       6.672   8.456   2.321  1.00  0.00     0.049 A 
ATOM     43  N   UNL     1       5.429  10.554   0.545  1.00  0.00    -0.248 NA
ATOM     44  C   UNL     1       3.532  10.509   1.904  1.00  0.00     0.031 C 
ATOM     45  C   UNL     1       7.300   7.399   3.117  1.00  0.00     0.029 A 
ATOM     46  N   UNL     1       7.626   8.776   1.387  1.00  0.00    -0.354 N 
ATOM     47  C   UNL     1       4.484  11.445   0.050  1.00  0.00     0.074 A 
ATOM     48  C   UNL     1       3.310  11.326   0.886  1.00  0.00     0.031 C 
ATOM     49  C   UNL     1       8.537   7.171   2.648  1.00  0.00     0.029 A 
ATOM     50  C   UNL     1       8.775   8.028   1.491  1.00  0.00     0.049 A 
ATOM     51  H   UNL     1       7.499   9.476   0.707  1.00  0.00     0.167 HD
ATOM     52  C   UNL     1       4.594  12.301  -0.993  1.00  0.00     0.037 A 
ATOM     53  C   UNL     1       9.886   8.021   0.728  1.00  0.00     0.037 A 
ATOM     54  C   UNL     1       5.776  12.429  -1.804  1.00  0.00     0.049 A 
ATOM     55  C   UNL     1       9.976   8.964  -0.443  1.00  0.00     0.074 A 
ATOM     56  C   UNL     1       6.006  13.297  -2.856  1.00  0.00     0.029 A 
ATOM     57  N   UNL     1       6.926  11.667  -1.654  1.00  0.00    -0.354 N 
ATOM     58  N   UNL     1       9.092   9.835  -0.869  1.00  0.00    -0.248 NA
ATOM     59  C   UNL     1      11.213   8.927  -1.236  1.00  0.00     0.031 C 
ATOM     60  C   UNL     1       7.277  13.029  -3.372  1.00  0.00     0.029 A 
ATOM     61  C   UNL     1       7.862  12.032  -2.606  1.00  0.00     0.049 A 
ATOM     62  H   UNL     1       7.057  10.970  -0.971  1.00  0.00     0.167 HD
ATOM     63  C   UNL     1       9.680  10.475  -1.955  1.00  0.00     0.074 A 
ATOM     64  C   UNL     1      10.996   9.893  -2.119  1.00  0.00     0.031 C 
ATOM     65  C   UNL     1       9.178  11.458  -2.741  1.00  0.00     0.037 A 
BRANCH  52  66
ATOM     66  C   UNL     1       3.408  13.168  -1.314  1.00  0.00     0.058 A 
ATOM     67  C   UNL     1       3.003  14.209  -0.462  1.00  0.00     0.135 A 
ATOM     68  C   UNL     1       2.686  12.980  -2.504  1.00  0.00     0.135 A 
ATOM     69  F   UNL     1       3.646  14.423   0.697  1.00  0.00    -0.206 F 
ATOM     70  C   UNL     1       1.908  15.011  -0.763  1.00  0.00     0.059 A 
ATOM     71  C   UNL     1       1.607  13.792  -2.841  1.00  0.00     0.059 A 
ATOM     72  F   UNL     1       3.028  12.000  -3.355  1.00  0.00    -0.206 F 
ATOM     73  C   UNL     1       1.216  14.796  -1.956  1.00  0.00     0.060 A 
BRANCH  73  74
ATOM     74  S   UNL     1      -0.198  15.851  -2.332  1.00  0.00     0.124 S 
ATOM     75  O   UNL     1      -1.187  15.364  -1.375  1.00  0.00    -0.237 OA
ATOM     76  O   UNL     1       0.331  17.186  -2.071  1.00  0.00    -0.237 OA
ATOM     77  O   UNL     1      -0.482  15.554  -3.732  1.00  0.00    -0.744 OA
ENDBRANCH  73  74
ENDBRANCH  52  66
BRANCH  53  78
ATOM     78  C   UNL     1      11.010   7.101   1.054  1.00  0.00     0.058 A 
ATOM     79  C   UNL     1      12.231   7.597   1.535  1.00  0.00     0.135 A 
ATOM     80  C   UNL     1      10.888   5.712   0.896  1.00  0.00     0.135 A 
ATOM     81  F   UNL     1      12.400   8.918   1.698  1.00  0.00    -0.206 F 
ATOM     82  C   UNL     1      13.297   6.754   1.828  1.00  0.00     0.059 A 
ATOM     83  C   UNL     1      11.931   4.845   1.208  1.00  0.00     0.059 A 
ATOM     84  F   UNL     1       9.736   5.183   0.455  1.00  0.00    -0.206 F 
ATOM     85  C   UNL     1      13.136   5.377   1.663  1.00  0.00     0.060 A 
BRANCH  85  86
ATOM     86  S   UNL     1      14.515   4.288   2.082  1.00  0.00     0.124 S 
ATOM     87  O   UNL     1      15.443   4.555   0.990  1.00  0.00    -0.237 OA
ATOM     88  O   UNL     1      14.910   4.788   3.395  1.00  0.00    -0.237 OA
ATOM     89  O   UNL     1      13.905   2.961   2.083  1.00  0.00    -0.744 OA
ENDBRANCH  85  86
ENDBRANCH  53  78
BRANCH  65  90
ATOM     90  C   UNL     1      10.064  12.016  -3.820  1.00  0.00     0.058 A 
ATOM     91  C   UNL     1      10.343  11.300  -4.994  1.00  0.00     0.135 A 
ATOM     92  C   UNL     1      10.565  13.324  -3.713  1.00  0.00     0.135 A 
ATOM     93  F   UNL     1       9.895  10.044  -5.142  1.00  0.00    -0.206 F 
ATOM     94  C   UNL     1      11.093  11.860  -6.023  1.00  0.00     0.059 A 
ATOM     95  C   UNL     1      11.293  13.914  -4.741  1.00  0.00     0.059 A 
ATOM     96  F   UNL     1      10.320  14.054  -2.613  1.00  0.00    -0.206 F 
ATOM     97  C   UNL     1      11.556  13.172  -5.891  1.00  0.00     0.060 A 
BRANCH  97  98
ATOM     98  S   UNL     1      12.468  13.908  -7.263  1.00  0.00     0.124 S 
ATOM     99  O   UNL     1      13.742  13.202  -7.183  1.00  0.00    -0.237 OA
ATOM    100  O   UNL     1      11.629  13.574  -8.410  1.00  0.00    -0.237 OA
ATOM    101  O   UNL     1      12.514  15.327  -6.920  1.00  0.00    -0.744 OA
ENDBRANCH  97  98
ENDBRANCH  65  90
ENDBRANCH  39  40
ENDBRANCH  31  34
ENDBRANCH  29  30
ENDBRANCH  28  29
ENDBRANCH  27  28
ENDBRANCH   1  27
TORSDOF 22
