REMARK SMILES Cc1c(CC(=O)NCCCCCCNC(=O)c2ccc(-c3c4nc(c(-c5c(F)cc(S(=O)(=O)[O-])cc5F)c5ccc([nH]5)c(-c5c(F)cc(S(=O)(=O)[O-])cc5F)c5nc(c(-c6c(F)cc(S(=O)(=O)[O-])cc6F)c6ccc3[nH]6)C=C5)C=C4)cc2)cc(-c2ccc(S(C)(=O)=O)cc2)n1-c1cccc(F)c1
REMARK SMILES IDX 10 1 9 2 8 3 7 4 5 5 6 6 4 8 3 9 1 10 2 11 95 12 83 13 84 14
REMARK SMILES IDX 96 15 97 16 102 17 98 18 100 19 99 20 101 21 85 22 86 23
REMARK SMILES IDX 94 24 87 25 93 26 88 27 89 28 90 29 91 30 92 31 11 32 12 33
REMARK SMILES IDX 13 34 14 35 15 36 16 38 17 39 18 40 82 41 19 42 81 43 20 44
REMARK SMILES IDX 21 45 22 46 75 47 23 48 80 49 74 50 76 51 24 52 79 53 73 54
REMARK SMILES IDX 72 55 25 57 59 58 38 59 58 60 39 61 42 62 57 63 77 64 40 65
REMARK SMILES IDX 41 66 56 68 78 69 43 70 26 71 27 72 36 73 28 74 29 75 35 76
REMARK SMILES IDX 37 77 30 78 31 79 32 80 33 81 34 82 60 83 61 84 70 85 62 86
REMARK SMILES IDX 63 87 69 88 71 89 64 90 65 91 66 92 67 93 68 94 44 95 45 96
REMARK SMILES IDX 54 97 46 98 47 99 53 100 55 101 48 102 49 103 50 104 51 105
REMARK SMILES IDX 52 106
REMARK H PARENT 7 7 14 37 76 56 42 67
REMARK Flexibility Score: inf
ROOT
ATOM      1  C   UNL     1       4.556  -0.426  -3.984  1.00  0.00     0.002 C 
ENDROOT
BRANCH   1   2
ATOM      2  C   UNL     1       3.111   0.072  -3.863  1.00  0.00     0.021 C 
BRANCH   2   3
ATOM      3  C   UNL     1       2.058  -0.929  -4.340  1.00  0.00     0.116 C 
BRANCH   3   4
ATOM      4  N   UNL     1       1.863  -1.999  -3.378  1.00  0.00    -0.356 N 
ATOM      5  C   UNL     1       0.847  -2.177  -2.482  1.00  0.00     0.224 C 
ATOM      6  O   UNL     1       0.902  -3.146  -1.720  1.00  0.00    -0.275 OA
ATOM      7  H   UNL     1       2.560  -2.694  -3.370  1.00  0.00     0.163 HD
BRANCH   5   8
ATOM      8  C   UNL     1      -0.352  -1.244  -2.478  1.00  0.00     0.137 C 
BRANCH   8   9
ATOM      9  C   UNL     1      -0.018   0.165  -2.104  1.00  0.00    -0.017 A 
ATOM     10  C   UNL     1       1.024  -0.128   0.249  1.00  0.00     0.065 C 
ATOM     11  C   UNL     1       0.610   0.642  -0.959  1.00  0.00     0.024 A 
ATOM     12  N   UNL     1       0.749   2.025  -1.073  1.00  0.00    -0.313 N 
ATOM     13  C   UNL     1      -0.328   1.288  -2.899  1.00  0.00     0.033 A 
ATOM     14  C   UNL     1       0.178   2.411  -2.282  1.00  0.00     0.053 A 
BRANCH  12  15
ATOM     15  C   UNL     1       1.374   2.900  -0.136  1.00  0.00     0.049 A 
ATOM     16  C   UNL     1       0.758   4.113   0.216  1.00  0.00     0.027 A 
ATOM     17  C   UNL     1       2.646   2.597   0.357  1.00  0.00     0.065 A 
ATOM     18  C   UNL     1       1.420   5.025   1.041  1.00  0.00     0.005 A 
ATOM     19  C   UNL     1       3.292   3.520   1.174  1.00  0.00     0.125 A 
ATOM     20  C   UNL     1       2.696   4.730   1.516  1.00  0.00     0.039 A 
ATOM     21  F   UNL     1       4.525   3.246   1.621  1.00  0.00    -0.207 F 
ENDBRANCH  12  15
BRANCH  14  22
ATOM     22  C   UNL     1       0.163   3.760  -2.825  1.00  0.00    -0.001 A 
ATOM     23  C   UNL     1       1.344   4.498  -2.976  1.00  0.00     0.011 A 
ATOM     24  C   UNL     1      -1.073   4.308  -3.193  1.00  0.00     0.011 A 
ATOM     25  C   UNL     1       1.276   5.810  -3.420  1.00  0.00     0.021 A 
ATOM     26  C   UNL     1      -1.147   5.609  -3.644  1.00  0.00     0.021 A 
ATOM     27  C   UNL     1       0.022   6.352  -3.722  1.00  0.00     0.067 A 
BRANCH  27  28
ATOM     28  S   UNL     1      -0.089   8.028  -4.241  1.00  0.00     0.175 S 
ATOM     29  C   UNL     1       0.587   8.882  -2.820  1.00  0.00     0.163 C 
ATOM     30  O   UNL     1       0.758   8.073  -5.403  1.00  0.00    -0.224 OA
ATOM     31  O   UNL     1      -1.502   8.368  -4.329  1.00  0.00    -0.224 OA
ENDBRANCH  27  28
ENDBRANCH  14  22
ENDBRANCH   8   9
ENDBRANCH   5   8
ENDBRANCH   3   4
ENDBRANCH   2   3
ENDBRANCH   1   2
BRANCH   1  32
ATOM     32  C   UNL     1       5.068  -0.647  -5.413  1.00  0.00     0.002 C 
BRANCH  32  33
ATOM     33  C   UNL     1       4.779   0.466  -6.440  1.00  0.00     0.021 C 
BRANCH  33  34
ATOM     34  C   UNL     1       4.993   1.931  -5.998  1.00  0.00     0.116 C 
BRANCH  34  35
ATOM     35  N   UNL     1       6.208   2.535  -6.491  1.00  0.00    -0.352 N 
ATOM     36  C   UNL     1       6.501   3.879  -6.672  1.00  0.00     0.251 C 
ATOM     37  H   UNL     1       6.927   1.908  -6.732  1.00  0.00     0.163 HD
ATOM     38  O   UNL     1       7.614   4.149  -7.123  1.00  0.00    -0.269 OA
BRANCH  36  39
ATOM     39  C   UNL     1       5.484   4.983  -6.460  1.00  0.00     0.039 A 
ATOM     40  C   UNL     1       4.764   5.414  -7.560  1.00  0.00     0.014 A 
ATOM     41  C   UNL     1       5.382   5.791  -5.309  1.00  0.00     0.014 A 
ATOM     42  C   UNL     1       3.929   6.573  -7.482  1.00  0.00     0.010 A 
ATOM     43  C   UNL     1       4.594   7.034  -5.267  1.00  0.00     0.010 A 
ATOM     44  C   UNL     1       3.840   7.493  -6.365  1.00  0.00    -0.014 A 
BRANCH  44  45
ATOM     45  C   UNL     1       3.344   9.026  -6.748  1.00  0.00     0.031 A 
ATOM     46  C   UNL     1       4.130   9.265  -7.987  1.00  0.00     0.074 A 
ATOM     47  C   UNL     1       2.648  10.170  -6.315  1.00  0.00     0.049 A 
ATOM     48  N   UNL     1       5.426   9.119  -7.928  1.00  0.00    -0.248 NA
ATOM     49  C   UNL     1       3.572   9.225  -9.336  1.00  0.00     0.031 C 
ATOM     50  C   UNL     1       2.130  10.457  -4.975  1.00  0.00     0.029 A 
ATOM     51  N   UNL     1       2.197  11.378  -6.959  1.00  0.00    -0.354 N 
ATOM     52  C   UNL     1       5.896   9.302  -9.198  1.00  0.00     0.074 A 
ATOM     53  C   UNL     1       4.710   9.109 -10.033  1.00  0.00     0.031 C 
ATOM     54  C   UNL     1       1.252  11.504  -4.944  1.00  0.00     0.029 A 
ATOM     55  C   UNL     1       1.205  12.175  -6.238  1.00  0.00     0.049 A 
ATOM     56  H   UNL     1       2.540  11.652  -7.840  1.00  0.00     0.167 HD
ATOM     57  C   UNL     1       6.844  10.280  -9.294  1.00  0.00     0.037 A 
ATOM     58  C   UNL     1       0.532  13.366  -6.554  1.00  0.00     0.037 A 
ATOM     59  C   UNL     1       6.261  11.539  -9.676  1.00  0.00     0.049 A 
ATOM     60  C   UNL     1       1.519  14.092  -7.356  1.00  0.00     0.074 A 
ATOM     61  C   UNL     1       5.333  11.875 -10.642  1.00  0.00     0.029 A 
ATOM     62  N   UNL     1       6.230  12.539  -8.724  1.00  0.00    -0.354 N 
ATOM     63  N   UNL     1       2.577  14.629  -6.830  1.00  0.00    -0.248 NA
ATOM     64  C   UNL     1       1.346  14.283  -8.789  1.00  0.00     0.031 C 
ATOM     65  C   UNL     1       4.430  12.722  -9.970  1.00  0.00     0.029 A 
ATOM     66  C   UNL     1       5.042  13.228  -8.830  1.00  0.00     0.049 A 
ATOM     67  H   UNL     1       6.943  12.729  -8.073  1.00  0.00     0.167 HD
ATOM     68  C   UNL     1       3.422  14.698  -7.891  1.00  0.00     0.074 A 
ATOM     69  C   UNL     1       2.562  14.758  -9.062  1.00  0.00     0.031 C 
ATOM     70  C   UNL     1       4.625  14.087  -7.747  1.00  0.00     0.037 A 
BRANCH  57  71
ATOM     71  C   UNL     1       7.965  10.148  -8.295  1.00  0.00     0.058 A 
ATOM     72  C   UNL     1       9.226   9.753  -8.750  1.00  0.00     0.135 A 
ATOM     73  C   UNL     1       7.806  10.322  -6.900  1.00  0.00     0.135 A 
ATOM     74  F   UNL     1       9.449   9.598 -10.065  1.00  0.00    -0.206 F 
ATOM     75  C   UNL     1      10.277   9.517  -7.866  1.00  0.00     0.059 A 
ATOM     76  C   UNL     1       8.825  10.044  -5.996  1.00  0.00     0.059 A 
ATOM     77  F   UNL     1       6.654  10.795  -6.396  1.00  0.00    -0.206 F 
ATOM     78  C   UNL     1      10.063   9.649  -6.491  1.00  0.00     0.060 A 
BRANCH  78  79
ATOM     79  S   UNL     1      11.431   9.302  -5.367  1.00  0.00     0.124 S 
ATOM     80  O   UNL     1      11.934   8.025  -5.871  1.00  0.00    -0.237 OA
ATOM     81  O   UNL     1      12.302  10.449  -5.601  1.00  0.00    -0.237 OA
ATOM     82  O   UNL     1      10.796   9.236  -4.055  1.00  0.00    -0.744 OA
ENDBRANCH  78  79
ENDBRANCH  57  71
BRANCH  58  83
ATOM     83  C   UNL     1      -0.661  14.343  -6.223  1.00  0.00     0.058 A 
ATOM     84  C   UNL     1      -0.561  15.761  -6.467  1.00  0.00     0.135 A 
ATOM     85  C   UNL     1      -1.997  13.915  -6.119  1.00  0.00     0.135 A 
ATOM     86  F   UNL     1       0.632  16.368  -6.544  1.00  0.00    -0.206 F 
ATOM     87  C   UNL     1      -1.650  16.620  -6.734  1.00  0.00     0.059 A 
ATOM     88  C   UNL     1      -3.117  14.773  -6.356  1.00  0.00     0.059 A 
ATOM     89  F   UNL     1      -2.263  12.625  -5.874  1.00  0.00    -0.206 F 
ATOM     90  C   UNL     1      -2.934  16.109  -6.719  1.00  0.00     0.060 A 
BRANCH  90  91
ATOM     91  S   UNL     1      -4.304  17.160  -7.322  1.00  0.00     0.124 S 
ATOM     92  O   UNL     1      -4.386  18.201  -6.303  1.00  0.00    -0.237 OA
ATOM     93  O   UNL     1      -3.814  17.596  -8.628  1.00  0.00    -0.237 OA
ATOM     94  O   UNL     1      -5.439  16.243  -7.370  1.00  0.00    -0.744 OA
ENDBRANCH  90  91
ENDBRANCH  58  83
BRANCH  70  95
ATOM     95  C   UNL     1       5.353  14.276  -6.424  1.00  0.00     0.058 A 
ATOM     96  C   UNL     1       4.837  14.058  -5.124  1.00  0.00     0.135 A 
ATOM     97  C   UNL     1       6.651  14.812  -6.479  1.00  0.00     0.135 A 
ATOM     98  F   UNL     1       3.655  13.460  -4.919  1.00  0.00    -0.206 F 
ATOM     99  C   UNL     1       5.526  14.444  -3.969  1.00  0.00     0.059 A 
ATOM    100  C   UNL     1       7.378  15.156  -5.340  1.00  0.00     0.059 A 
ATOM    101  F   UNL     1       7.234  15.020  -7.671  1.00  0.00    -0.206 F 
ATOM    102  C   UNL     1       6.790  15.010  -4.088  1.00  0.00     0.060 A 
BRANCH 102 103
ATOM    103  S   UNL     1       7.646  15.565  -2.597  1.00  0.00     0.124 S 
ATOM    104  O   UNL     1       6.851  16.726  -2.207  1.00  0.00    -0.237 OA
ATOM    105  O   UNL     1       7.536  14.406  -1.716  1.00  0.00    -0.237 OA
ATOM    106  O   UNL     1       8.992  15.872  -3.072  1.00  0.00    -0.744 OA
ENDBRANCH 102 103
ENDBRANCH  70  95
ENDBRANCH  44  45
ENDBRANCH  36  39
ENDBRANCH  34  35
ENDBRANCH  33  34
ENDBRANCH  32  33
ENDBRANCH   1  32
TORSDOF 20
