REMARK SMILES COc1ccc(CCc2nnc(NC(=O)[C@@H]3[C@@H](C(=O)NCCCCCCNC(=O)c4ccc(-c5c6nc(c(-c7c(F)cc(S(=O)(=O)[O-])cc7F)c7ccc([nH]7)c(-c7c(F)cc(S(=O)(=O)[O-])cc7F)c7nc(c(-c8c(F)cc(S(=O)(=O)[O-])cc8F)c8ccc5[nH]8)C=C7)C=C6)cc4)C3(C)C)s2)cc1
REMARK SMILES IDX 22 1 21 2 20 3 18 4 19 5 17 7 16 8 96 9 97 10 98 11 14 12
REMARK SMILES IDX 13 13 15 15 12 16 9 17 10 18 99 19 11 20 8 21 7 22 6 23 3 24
REMARK SMILES IDX 4 25 101 26 5 27 100 28 2 29 1 30 23 31 24 32 25 33 26 34
REMARK SMILES IDX 27 35 28 36 29 38 30 39 31 40 95 41 32 42 94 43 33 44 34 45
REMARK SMILES IDX 35 46 88 47 36 48 93 49 87 50 89 51 37 52 92 53 86 54 85 55
REMARK SMILES IDX 38 57 72 58 51 59 71 60 52 61 55 62 70 63 90 64 53 65 54 66
REMARK SMILES IDX 69 68 91 69 56 70 39 71 40 72 49 73 41 74 42 75 48 76 50 77
REMARK SMILES IDX 43 78 44 79 45 80 46 81 47 82 73 83 74 84 83 85 75 86 76 87
REMARK SMILES IDX 82 88 84 89 77 90 78 91 79 92 80 93 81 94 57 95 58 96 67 97
REMARK SMILES IDX 59 98 60 99 66 100 68 101 61 102 62 103 63 104 64 105 65 106
REMARK H PARENT 20 6 13 14 27 37 89 56 55 67
REMARK Flexibility Score: inf
ROOT
ATOM      1  C   UNL     1      -4.276   4.489  -2.712  1.00  0.00     0.021 C 
ENDROOT
BRANCH   1   2
ATOM      2  C   UNL     1      -3.940   4.491  -4.205  1.00  0.00     0.116 C 
BRANCH   2   3
ATOM      3  N   UNL     1      -2.569   4.077  -4.426  1.00  0.00    -0.356 N 
ATOM      4  C   UNL     1      -1.976   3.070  -5.128  1.00  0.00     0.224 C 
ATOM      5  O   UNL     1      -0.759   2.941  -4.977  1.00  0.00    -0.275 OA
ATOM      6  H   UNL     1      -1.918   4.653  -3.964  1.00  0.00     0.163 HD
BRANCH   4   7
ATOM      7  C   UNL     1      -2.634   2.147  -6.086  1.00  0.00     0.098 C 
ATOM      8  C   UNL     1      -3.994   2.243  -6.712  1.00  0.00     0.098 C 
ATOM      9  C   UNL     1      -3.685   1.099  -5.732  1.00  0.00    -0.011 C 
ATOM     10  C   UNL     1      -4.423   1.136  -4.410  1.00  0.00     0.013 C 
ATOM     11  C   UNL     1      -3.462  -0.308  -6.235  1.00  0.00     0.013 C 
BRANCH   8  12
ATOM     12  C   UNL     1      -4.113   2.100  -8.198  1.00  0.00     0.230 C 
ATOM     13  N   UNL     1      -4.650   3.126  -8.937  1.00  0.00    -0.300 N 
ATOM     14  H   UNL     1      -4.912   2.927  -9.865  1.00  0.00     0.172 HD
ATOM     15  O   UNL     1      -3.795   1.056  -8.765  1.00  0.00    -0.274 OA
BRANCH  13  16
ATOM     16  C   UNL     1      -4.849   4.399  -8.488  1.00  0.00     0.212 A 
ATOM     17  C   UNL     1      -5.757   6.560  -8.183  1.00  0.00     0.119 A 
ATOM     18  N   UNL     1      -4.917   6.230  -7.223  1.00  0.00    -0.142 NA
ATOM     19  S   UNL     1      -5.839   5.397  -9.458  1.00  0.00    -0.080 S 
ATOM     20  N   UNL     1      -4.400   4.968  -7.398  1.00  0.00    -0.120 NA
BRANCH  17  21
ATOM     21  C   UNL     1      -6.591   7.802  -8.170  1.00  0.00     0.074 C 
BRANCH  21  22
ATOM     22  C   UNL     1      -8.058   7.567  -7.775  1.00  0.00     0.043 C 
BRANCH  22  23
ATOM     23  C   UNL     1      -8.291   6.940  -6.416  1.00  0.00    -0.047 A 
ATOM     24  C   UNL     1      -8.799   5.743  -3.933  1.00  0.00     0.118 A 
ATOM     25  C   UNL     1      -8.339   4.968  -4.988  1.00  0.00     0.046 A 
ATOM     26  C   UNL     1      -8.983   7.116  -4.093  1.00  0.00     0.046 A 
ATOM     27  C   UNL     1      -8.114   5.560  -6.229  1.00  0.00     0.007 A 
ATOM     28  C   UNL     1      -8.725   7.714  -5.330  1.00  0.00     0.007 A 
BRANCH  24  29
ATOM     29  O   UNL     1      -8.972   5.129  -2.723  1.00  0.00    -0.497 OA
ATOM     30  C   UNL     1     -10.356   5.083  -2.377  1.00  0.00     0.278 C 
ENDBRANCH  24  29
ENDBRANCH  22  23
ENDBRANCH  21  22
ENDBRANCH  17  21
ENDBRANCH  13  16
ENDBRANCH   8  12
ENDBRANCH   4   7
ENDBRANCH   2   3
ENDBRANCH   1   2
BRANCH   1  31
ATOM     31  C   UNL     1      -3.709   5.678  -1.929  1.00  0.00     0.002 C 
BRANCH  31  32
ATOM     32  C   UNL     1      -4.200   7.058  -2.381  1.00  0.00     0.002 C 
BRANCH  32  33
ATOM     33  C   UNL     1      -5.719   7.206  -2.497  1.00  0.00     0.021 C 
BRANCH  33  34
ATOM     34  C   UNL     1      -6.495   6.938  -1.209  1.00  0.00     0.116 C 
BRANCH  34  35
ATOM     35  N   UNL     1      -6.224   7.940  -0.191  1.00  0.00    -0.352 N 
ATOM     36  C   UNL     1      -7.099   8.784   0.449  1.00  0.00     0.251 C 
ATOM     37  H   UNL     1      -5.280   8.025   0.078  1.00  0.00     0.163 HD
ATOM     38  O   UNL     1      -6.668   9.723   1.113  1.00  0.00    -0.269 OA
BRANCH  36  39
ATOM     39  C   UNL     1      -8.560   8.573   0.333  1.00  0.00     0.039 A 
ATOM     40  C   UNL     1      -9.389   9.666   0.068  1.00  0.00     0.014 A 
ATOM     41  C   UNL     1      -9.121   7.308   0.519  1.00  0.00     0.014 A 
ATOM     42  C   UNL     1     -10.770   9.479  -0.076  1.00  0.00     0.010 A 
ATOM     43  C   UNL     1     -10.491   7.120   0.324  1.00  0.00     0.010 A 
ATOM     44  C   UNL     1     -11.337   8.195   0.005  1.00  0.00    -0.014 A 
BRANCH  44  45
ATOM     45  C   UNL     1     -12.789   7.962  -0.269  1.00  0.00     0.031 A 
ATOM     46  C   UNL     1     -13.677   7.294   0.754  1.00  0.00     0.074 A 
ATOM     47  C   UNL     1     -13.310   8.275  -1.476  1.00  0.00     0.049 A 
ATOM     48  N   UNL     1     -14.937   6.949   0.657  1.00  0.00    -0.248 NA
ATOM     49  C   UNL     1     -13.056   6.929   2.036  1.00  0.00     0.031 C 
ATOM     50  C   UNL     1     -12.565   8.850  -2.598  1.00  0.00     0.029 A 
ATOM     51  N   UNL     1     -14.588   8.144  -1.967  1.00  0.00    -0.354 N 
ATOM     52  C   UNL     1     -15.253   6.313   1.853  1.00  0.00     0.074 A 
ATOM     53  C   UNL     1     -14.030   6.253   2.626  1.00  0.00     0.031 C 
ATOM     54  C   UNL     1     -13.401   9.051  -3.629  1.00  0.00     0.029 A 
ATOM     55  C   UNL     1     -14.736   8.588  -3.262  1.00  0.00     0.049 A 
ATOM     56  H   UNL     1     -15.330   7.768  -1.440  1.00  0.00     0.167 HD
ATOM     57  C   UNL     1     -16.451   5.851   2.290  1.00  0.00     0.037 A 
ATOM     58  C   UNL     1     -15.815   8.621  -4.070  1.00  0.00     0.037 A 
ATOM     59  C   UNL     1     -17.679   5.939   1.542  1.00  0.00     0.049 A 
ATOM     60  C   UNL     1     -17.144   8.130  -3.561  1.00  0.00     0.074 A 
ATOM     61  C   UNL     1     -18.953   5.563   1.933  1.00  0.00     0.029 A 
ATOM     62  N   UNL     1     -17.791   6.435   0.251  1.00  0.00    -0.354 N 
ATOM     63  N   UNL     1     -17.435   7.605  -2.395  1.00  0.00    -0.248 NA
ATOM     64  C   UNL     1     -18.292   8.245  -4.471  1.00  0.00     0.031 C 
ATOM     65  C   UNL     1     -19.827   5.791   0.864  1.00  0.00     0.029 A 
ATOM     66  C   UNL     1     -19.108   6.359  -0.175  1.00  0.00     0.049 A 
ATOM     67  H   UNL     1     -17.044   6.790  -0.283  1.00  0.00     0.167 HD
ATOM     68  C   UNL     1     -18.803   7.350  -2.424  1.00  0.00     0.074 A 
ATOM     69  C   UNL     1     -19.283   7.790  -3.717  1.00  0.00     0.031 C 
ATOM     70  C   UNL     1     -19.587   6.801  -1.462  1.00  0.00     0.037 A 
BRANCH  57  71
ATOM     71  C   UNL     1     -16.490   5.217   3.657  1.00  0.00     0.058 A 
ATOM     72  C   UNL     1     -16.273   5.969   4.824  1.00  0.00     0.135 A 
ATOM     73  C   UNL     1     -16.752   3.845   3.806  1.00  0.00     0.135 A 
ATOM     74  F   UNL     1     -16.012   7.284   4.742  1.00  0.00    -0.206 F 
ATOM     75  C   UNL     1     -16.255   5.375   6.081  1.00  0.00     0.059 A 
ATOM     76  C   UNL     1     -16.775   3.236   5.058  1.00  0.00     0.059 A 
ATOM     77  F   UNL     1     -16.980   3.078   2.728  1.00  0.00    -0.206 F 
ATOM     78  C   UNL     1     -16.499   4.006   6.187  1.00  0.00     0.060 A 
BRANCH  78  79
ATOM     79  S   UNL     1     -16.436   3.245   7.822  1.00  0.00     0.124 S 
ATOM     80  O   UNL     1     -14.999   3.235   8.081  1.00  0.00    -0.237 OA
ATOM     81  O   UNL     1     -17.218   4.175   8.631  1.00  0.00    -0.237 OA
ATOM     82  O   UNL     1     -17.044   1.935   7.612  1.00  0.00    -0.744 OA
ENDBRANCH  78  79
ENDBRANCH  57  71
BRANCH  58  83
ATOM     83  C   UNL     1     -15.687   9.172  -5.447  1.00  0.00     0.058 A 
ATOM     84  C   UNL     1     -16.248  10.413  -5.785  1.00  0.00     0.135 A 
ATOM     85  C   UNL     1     -14.975   8.485  -6.443  1.00  0.00     0.135 A 
ATOM     86  F   UNL     1     -16.948  11.103  -4.872  1.00  0.00    -0.206 F 
ATOM     87  C   UNL     1     -16.113  10.952  -7.061  1.00  0.00     0.059 A 
ATOM     88  C   UNL     1     -14.804   9.015  -7.718  1.00  0.00     0.059 A 
ATOM     89  F   UNL     1     -14.406   7.301  -6.167  1.00  0.00    -0.206 F 
ATOM     90  C   UNL     1     -15.380  10.248  -8.018  1.00  0.00     0.060 A 
BRANCH  90  91
ATOM     91  S   UNL     1     -15.139  10.994  -9.646  1.00  0.00     0.124 S 
ATOM     92  O   UNL     1     -16.467  10.857 -10.233  1.00  0.00    -0.237 OA
ATOM     93  O   UNL     1     -14.728  12.352  -9.301  1.00  0.00    -0.237 OA
ATOM     94  O   UNL     1     -14.095  10.166 -10.242  1.00  0.00    -0.744 OA
ENDBRANCH  90  91
ENDBRANCH  58  83
BRANCH  70  95
ATOM     95  C   UNL     1     -21.059   6.670  -1.748  1.00  0.00     0.058 A 
ATOM     96  C   UNL     1     -21.556   5.726  -2.660  1.00  0.00     0.135 A 
ATOM     97  C   UNL     1     -21.991   7.459  -1.053  1.00  0.00     0.135 A 
ATOM     98  F   UNL     1     -20.711   4.950  -3.357  1.00  0.00    -0.206 F 
ATOM     99  C   UNL     1     -22.922   5.583  -2.888  1.00  0.00     0.059 A 
ATOM    100  C   UNL     1     -23.362   7.314  -1.244  1.00  0.00     0.059 A 
ATOM    101  F   UNL     1     -21.572   8.372  -0.162  1.00  0.00    -0.206 F 
ATOM    102  C   UNL     1     -23.818   6.379  -2.172  1.00  0.00     0.060 A 
BRANCH 102 103
ATOM    103  S   UNL     1     -25.588   6.154  -2.448  1.00  0.00     0.124 S 
ATOM    104  O   UNL     1     -25.759   6.753  -3.768  1.00  0.00    -0.237 OA
ATOM    105  O   UNL     1     -25.732   4.703  -2.387  1.00  0.00    -0.237 OA
ATOM    106  O   UNL     1     -26.201   6.886  -1.343  1.00  0.00    -0.744 OA
ENDBRANCH 102 103
ENDBRANCH  70  95
ENDBRANCH  44  45
ENDBRANCH  36  39
ENDBRANCH  34  35
ENDBRANCH  33  34
ENDBRANCH  32  33
ENDBRANCH  31  32
ENDBRANCH   1  31
TORSDOF 22
