REMARK SMILES O=C(NCCCCCCNC(=O)[C@H]1CCCN(c2cc(-c3ccccn3)nc(-c3ccccc3F)n2)C1)c1ccc(-c2c3nc(c(-c4c(F)cc(S(=O)(=O)[O-])cc4F)c4ccc([nH]4)c(-c4c(F)cc(S(=O)(=O)[O-])cc4F)c4nc(c(-c5c(F)cc(S(=O)(=O)[O-])cc5F)c5ccc2[nH]5)C=C4)C=C3)cc1
REMARK SMILES IDX 6 1 5 2 4 3 3 4 1 5 2 6 38 8 39 9 103 10 40 11 102 12 41 13
REMARK SMILES IDX 42 14 43 15 96 16 44 17 101 18 95 19 97 20 45 21 100 22
REMARK SMILES IDX 94 23 93 24 46 26 80 27 59 28 79 29 60 30 63 31 78 32 98 33
REMARK SMILES IDX 61 34 62 35 77 37 99 38 64 39 47 40 48 41 57 42 49 43 50 44
REMARK SMILES IDX 56 45 58 46 51 47 52 48 53 49 54 50 55 51 81 52 82 53 91 54
REMARK SMILES IDX 83 55 84 56 90 57 92 58 85 59 86 60 87 61 88 62 89 63 65 64
REMARK SMILES IDX 66 65 75 66 67 67 68 68 74 69 76 70 69 71 70 72 71 73 72 74
REMARK SMILES IDX 73 75 7 76 8 77 9 78 10 79 11 80 12 82 13 83 14 84 37 85
REMARK SMILES IDX 15 86 17 87 16 88 18 89 19 90 36 91 20 92 28 93 27 94 21 95
REMARK SMILES IDX 22 96 26 97 23 98 25 99 24 100 29 101 30 102 34 103 31 104
REMARK SMILES IDX 33 105 35 106 32 107
REMARK H PARENT 3 7 97 25 63 36 10 81
REMARK Flexibility Score: inf
ROOT
ATOM      1  C   UNL     1       5.392   1.942   2.067  1.00  0.00     0.002 C 
ENDROOT
BRANCH   1   2
ATOM      2  C   UNL     1       3.990   2.425   2.437  1.00  0.00     0.021 C 
BRANCH   2   3
ATOM      3  C   UNL     1       3.315   3.279   1.373  1.00  0.00     0.116 C 
BRANCH   3   4
ATOM      4  N   UNL     1       3.053   2.528   0.158  1.00  0.00    -0.352 N 
ATOM      5  O   UNL     1       1.766   1.521  -1.396  1.00  0.00    -0.269 OA
ATOM      6  C   UNL     1       1.860   2.351  -0.495  1.00  0.00     0.251 C 
ATOM      7  H   UNL     1       3.834   2.088  -0.249  1.00  0.00     0.163 HD
BRANCH   6   8
ATOM      8  C   UNL     1       0.688   3.158  -0.096  1.00  0.00     0.039 A 
ATOM      9  C   UNL     1       0.815   4.535   0.111  1.00  0.00     0.014 A 
ATOM     10  C   UNL     1      -0.553   2.534   0.052  1.00  0.00     0.014 A 
ATOM     11  C   UNL     1      -0.274   5.271   0.559  1.00  0.00     0.010 A 
ATOM     12  C   UNL     1      -1.666   3.290   0.428  1.00  0.00     0.010 A 
ATOM     13  C   UNL     1      -1.533   4.663   0.687  1.00  0.00    -0.014 A 
BRANCH  13  14
ATOM     14  C   UNL     1      -2.724   5.504   0.957  1.00  0.00     0.031 A 
ATOM     15  C   UNL     1      -3.513   5.360   2.225  1.00  0.00     0.074 A 
ATOM     16  C   UNL     1      -3.094   6.395   0.015  1.00  0.00     0.049 A 
ATOM     17  N   UNL     1      -4.607   5.981   2.581  1.00  0.00    -0.248 NA
ATOM     18  C   UNL     1      -3.018   4.398   3.224  1.00  0.00     0.031 C 
ATOM     19  C   UNL     1      -2.402   6.602  -1.262  1.00  0.00     0.029 A 
ATOM     20  N   UNL     1      -4.135   7.287  -0.028  1.00  0.00    -0.354 N 
ATOM     21  C   UNL     1      -4.945   5.477   3.830  1.00  0.00     0.074 A 
ATOM     22  C   UNL     1      -3.945   4.488   4.171  1.00  0.00     0.031 C 
ATOM     23  C   UNL     1      -3.023   7.569  -1.950  1.00  0.00     0.029 A 
ATOM     24  C   UNL     1      -4.196   8.002  -1.201  1.00  0.00     0.049 A 
ATOM     25  H   UNL     1      -4.776   7.404   0.710  1.00  0.00     0.167 HD
ATOM     26  C   UNL     1      -5.995   5.819   4.614  1.00  0.00     0.037 A 
ATOM     27  C   UNL     1      -5.115   8.878  -1.649  1.00  0.00     0.037 A 
ATOM     28  C   UNL     1      -6.968   6.823   4.263  1.00  0.00     0.049 A 
ATOM     29  C   UNL     1      -6.290   9.205  -0.775  1.00  0.00     0.074 A 
ATOM     30  C   UNL     1      -8.028   7.287   5.023  1.00  0.00     0.029 A 
ATOM     31  N   UNL     1      -7.010   7.506   3.057  1.00  0.00    -0.354 N 
ATOM     32  N   UNL     1      -6.562   8.760   0.429  1.00  0.00    -0.248 NA
ATOM     33  C   UNL     1      -7.287  10.137  -1.315  1.00  0.00     0.031 C 
ATOM     34  C   UNL     1      -8.745   8.208   4.255  1.00  0.00     0.029 A 
ATOM     35  C   UNL     1      -8.102   8.358   3.036  1.00  0.00     0.049 A 
ATOM     36  H   UNL     1      -6.361   7.401   2.325  1.00  0.00     0.167 HD
ATOM     37  C   UNL     1      -7.761   9.359   0.791  1.00  0.00     0.074 A 
ATOM     38  C   UNL     1      -8.150  10.216  -0.309  1.00  0.00     0.031 C 
ATOM     39  C   UNL     1      -8.476   9.205   1.931  1.00  0.00     0.037 A 
BRANCH  26  40
ATOM     40  C   UNL     1      -6.172   5.120   5.933  1.00  0.00     0.058 A 
ATOM     41  C   UNL     1      -7.245   4.233   6.124  1.00  0.00     0.135 A 
ATOM     42  C   UNL     1      -5.374   5.432   7.043  1.00  0.00     0.135 A 
ATOM     43  F   UNL     1      -8.036   3.896   5.093  1.00  0.00    -0.206 F 
ATOM     44  C   UNL     1      -7.542   3.709   7.378  1.00  0.00     0.059 A 
ATOM     45  C   UNL     1      -5.640   4.903   8.304  1.00  0.00     0.059 A 
ATOM     46  F   UNL     1      -4.325   6.260   6.910  1.00  0.00    -0.206 F 
ATOM     47  C   UNL     1      -6.740   4.060   8.465  1.00  0.00     0.060 A 
BRANCH  47  48
ATOM     48  S   UNL     1      -7.155   3.393  10.091  1.00  0.00     0.124 S 
ATOM     49  O   UNL     1      -8.412   4.070  10.384  1.00  0.00    -0.237 OA
ATOM     50  O   UNL     1      -7.250   1.962   9.818  1.00  0.00    -0.237 OA
ATOM     51  O   UNL     1      -6.019   3.789  10.919  1.00  0.00    -0.744 OA
ENDBRANCH  47  48
ENDBRANCH  26  40
BRANCH  27  52
ATOM     52  C   UNL     1      -4.968   9.463  -3.007  1.00  0.00     0.058 A 
ATOM     53  C   UNL     1      -5.090   8.663  -4.155  1.00  0.00     0.135 A 
ATOM     54  C   UNL     1      -4.659  10.819  -3.185  1.00  0.00     0.135 A 
ATOM     55  F   UNL     1      -5.372   7.356  -4.039  1.00  0.00    -0.206 F 
ATOM     56  C   UNL     1      -4.882   9.178  -5.428  1.00  0.00     0.059 A 
ATOM     57  C   UNL     1      -4.475  11.365  -4.452  1.00  0.00     0.059 A 
ATOM     58  F   UNL     1      -4.541  11.624  -2.118  1.00  0.00    -0.206 F 
ATOM     59  C   UNL     1      -4.573  10.532  -5.566  1.00  0.00     0.060 A 
BRANCH  59  60
ATOM     60  S   UNL     1      -4.312  11.183  -7.230  1.00  0.00     0.124 S 
ATOM     61  O   UNL     1      -3.029  10.583  -7.580  1.00  0.00    -0.237 OA
ATOM     62  O   UNL     1      -5.473  10.666  -7.947  1.00  0.00    -0.237 OA
ATOM     63  O   UNL     1      -4.297  12.628  -7.027  1.00  0.00    -0.744 OA
ENDBRANCH  59  60
ENDBRANCH  27  52
BRANCH  39  64
ATOM     64  C   UNL     1      -9.762   9.970   2.058  1.00  0.00     0.058 A 
ATOM     65  C   UNL     1      -9.867  11.043   2.957  1.00  0.00     0.135 A 
ATOM     66  C   UNL     1     -10.918   9.565   1.375  1.00  0.00     0.135 A 
ATOM     67  F   UNL     1      -8.789  11.467   3.635  1.00  0.00    -0.206 F 
ATOM     68  C   UNL     1     -11.086  11.663   3.204  1.00  0.00     0.059 A 
ATOM     69  C   UNL     1     -12.144  10.188   1.588  1.00  0.00     0.059 A 
ATOM     70  F   UNL     1     -10.862   8.555   0.492  1.00  0.00    -0.206 F 
ATOM     71  C   UNL     1     -12.221  11.220   2.523  1.00  0.00     0.060 A 
BRANCH  71  72
ATOM     72  S   UNL     1     -13.802  12.011   2.887  1.00  0.00     0.124 S 
ATOM     73  O   UNL     1     -14.054  11.563   4.252  1.00  0.00    -0.237 OA
ATOM     74  O   UNL     1     -13.480  13.426   2.732  1.00  0.00    -0.237 OA
ATOM     75  O   UNL     1     -14.698  11.464   1.871  1.00  0.00    -0.744 OA
ENDBRANCH  71  72
ENDBRANCH  39  64
ENDBRANCH  13  14
ENDBRANCH   6   8
ENDBRANCH   3   4
ENDBRANCH   2   3
ENDBRANCH   1   2
BRANCH   1  76
ATOM     76  C   UNL     1       6.383   3.047   1.688  1.00  0.00     0.002 C 
BRANCH  76  77
ATOM     77  C   UNL     1       6.511   4.190   2.701  1.00  0.00     0.021 C 
BRANCH  77  78
ATOM     78  C   UNL     1       6.840   3.748   4.123  1.00  0.00     0.116 C 
BRANCH  78  79
ATOM     79  N   UNL     1       8.134   3.092   4.192  1.00  0.00    -0.356 N 
ATOM     80  C   UNL     1       9.164   3.320   5.054  1.00  0.00     0.224 C 
ATOM     81  H   UNL     1       8.287   2.386   3.524  1.00  0.00     0.163 HD
ATOM     82  O   UNL     1      10.181   2.633   4.950  1.00  0.00    -0.275 OA
BRANCH  80  83
ATOM     83  C   UNL     1       9.034   4.434   6.073  1.00  0.00     0.098 C 
ATOM     84  C   UNL     1       9.933   4.186   7.291  1.00  0.00     0.017 C 
ATOM     85  C   UNL     1       9.407   5.752   5.397  1.00  0.00     0.131 C 
ATOM     86  C   UNL     1       9.831   5.359   8.266  1.00  0.00     0.022 C 
ATOM     87  N   UNL     1       9.409   6.835   6.374  1.00  0.00    -0.356 N 
ATOM     88  C   UNL     1      10.198   6.680   7.587  1.00  0.00     0.118 C 
BRANCH  87  89
ATOM     89  C   UNL     1       8.631   7.949   6.150  1.00  0.00     0.133 A 
ATOM     90  C   UNL     1       9.161   9.210   6.323  1.00  0.00     0.077 A 
ATOM     91  N   UNL     1       7.365   7.778   5.734  1.00  0.00    -0.211 NA
ATOM     92  C   UNL     1       8.357  10.292   6.026  1.00  0.00     0.095 A 
ATOM     93  C   UNL     1       6.633   8.888   5.506  1.00  0.00     0.165 A 
ATOM     94  N   UNL     1       7.082  10.146   5.621  1.00  0.00    -0.226 NA
BRANCH  92  95
ATOM     95  C   UNL     1       8.885  11.660   6.090  1.00  0.00     0.089 A 
ATOM     96  C   UNL     1       9.889  12.088   5.220  1.00  0.00     0.030 A 
ATOM     97  N   UNL     1       8.387  12.462   7.066  1.00  0.00    -0.255 NA
ATOM     98  C   UNL     1      10.391  13.381   5.345  1.00  0.00     0.004 A 
ATOM     99  C   UNL     1       8.877  13.718   7.151  1.00  0.00     0.112 A 
ATOM    100  C   UNL     1       9.873  14.215   6.327  1.00  0.00     0.020 A 
ENDBRANCH  92  95
BRANCH  93 101
ATOM    101  C   UNL     1       5.219   8.712   5.191  1.00  0.00     0.055 A 
ATOM    102  C   UNL     1       4.357   8.037   6.077  1.00  0.00     0.015 A 
ATOM    103  C   UNL     1       4.664   9.243   4.022  1.00  0.00     0.134 A 
ATOM    104  C   UNL     1       2.989   7.923   5.805  1.00  0.00     0.001 A 
ATOM    105  C   UNL     1       3.303   9.125   3.740  1.00  0.00     0.040 A 
ATOM    106  F   UNL     1       5.443   9.867   3.124  1.00  0.00    -0.206 F 
ATOM    107  C   UNL     1       2.462   8.469   4.636  1.00  0.00     0.003 A 
ENDBRANCH  93 101
ENDBRANCH  87  89
ENDBRANCH  80  83
ENDBRANCH  78  79
ENDBRANCH  77  78
ENDBRANCH  76  77
ENDBRANCH   1  76
TORSDOF 19
