REMARK SMILES C#Cc1cc(Cl)c2c(c1)C=C(C(=O)NCCCCCCNC(=O)c1ccc(-c3c4nc(c(-c5c(F)cc(S(=O)(=O)[O-])cc5F)c5ccc([nH]5)c(-c5c(F)cc(S(=O)(=O)[O-])cc5F)c5nc(c(-c6c(F)cc(S(=O)(=O)[O-])cc6F)c6ccc3[nH]6)C=C5)C=C4)cc1)[C@@H](C(F)(F)F)O2
REMARK SMILES IDX 18 1 17 2 16 3 15 4 14 5 12 6 13 7 11 9 3 10 4 11 9 12 5 13
REMARK SMILES IDX 8 14 6 15 7 16 10 17 95 18 90 19 2 20 1 21 91 22 92 23 93 24
REMARK SMILES IDX 94 25 19 26 20 27 21 28 22 29 23 31 24 32 25 33 89 34 26 35
REMARK SMILES IDX 88 36 27 37 28 38 29 39 82 40 30 41 87 42 81 43 83 44 31 45
REMARK SMILES IDX 86 46 80 47 79 48 32 50 66 51 45 52 65 53 46 54 49 55 64 56
REMARK SMILES IDX 84 57 47 58 48 59 63 61 85 62 50 63 33 64 34 65 43 66 35 67
REMARK SMILES IDX 36 68 42 69 44 70 37 71 38 72 39 73 40 74 41 75 67 76 68 77
REMARK SMILES IDX 77 78 69 79 70 80 76 81 78 82 71 83 72 84 73 85 74 86 75 87
REMARK SMILES IDX 51 88 52 89 61 90 53 91 54 92 60 93 62 94 55 95 56 96 57 97
REMARK SMILES IDX 58 98 59 99
REMARK H PARENT 14 8 21 30 83 49 49 60
REMARK Flexibility Score: inf
ROOT
ATOM      1  C   UNL     1     -11.974   3.759   0.181  1.00  0.00     0.002 C 
ENDROOT
BRANCH   1   2
ATOM      2  C   UNL     1     -11.022   3.853   1.381  1.00  0.00     0.002 C 
BRANCH   2   3
ATOM      3  C   UNL     1      -9.985   2.731   1.457  1.00  0.00     0.021 C 
BRANCH   3   4
ATOM      4  C   UNL     1      -9.151   2.610   0.189  1.00  0.00     0.116 C 
BRANCH   4   5
ATOM      5  N   UNL     1      -8.029   3.534   0.195  1.00  0.00    -0.352 N 
ATOM      6  C   UNL     1      -6.680   3.452   0.120  1.00  0.00     0.251 C 
ATOM      7  O   UNL     1      -6.077   4.530   0.134  1.00  0.00    -0.270 OA
ATOM      8  H   UNL     1      -8.331   4.468   0.275  1.00  0.00     0.163 HD
BRANCH   6   9
ATOM      9  C   UNL     1      -5.909   2.175   0.027  1.00  0.00     0.067 C 
ATOM     10  C   UNL     1      -1.611  -0.049   0.015  1.00  0.00     0.027 A 
ATOM     11  C   UNL     1      -2.243  -1.293   0.014  1.00  0.00     0.041 A 
ATOM     12  C   UNL     1      -2.367   1.128   0.039  1.00  0.00     0.029 A 
ATOM     13  C   UNL     1      -3.631  -1.359   0.036  1.00  0.00     0.084 A 
ATOM     14  C   UNL     1      -3.764   1.063   0.061  1.00  0.00     0.020 A 
ATOM     15  Cl  UNL     1      -4.384  -2.914   0.049  1.00  0.00    -0.080 Cl
ATOM     16  C   UNL     1      -4.391  -0.185   0.051  1.00  0.00     0.146 A 
ATOM     17  C   UNL     1      -4.572   2.276   0.144  1.00  0.00     0.025 C 
ATOM     18  O   UNL     1      -5.746  -0.317   0.108  1.00  0.00    -0.474 OA
ATOM     19  C   UNL     1      -6.548   0.840  -0.218  1.00  0.00     0.314 C 
BRANCH  10  20
ATOM     20  C   UNL     1      -0.183   0.007   0.007  1.00  0.00    -0.070 C 
ATOM     21  C   UNL     1       1.018   0.018   0.006  1.00  0.00     0.010 C 
ENDBRANCH  10  20
BRANCH  19  22
ATOM     22  C   UNL     1      -7.083   0.698  -1.656  1.00  0.00     0.429 C 
ATOM     23  F   UNL     1      -7.997  -0.300  -1.729  1.00  0.00    -0.167 F 
ATOM     24  F   UNL     1      -7.703   1.817  -2.098  1.00  0.00    -0.167 F 
ATOM     25  F   UNL     1      -6.099   0.422  -2.541  1.00  0.00    -0.167 F 
ENDBRANCH  19  22
ENDBRANCH   6   9
ENDBRANCH   4   5
ENDBRANCH   3   4
ENDBRANCH   2   3
ENDBRANCH   1   2
BRANCH   1  26
ATOM     26  C   UNL     1     -12.655   2.398   0.007  1.00  0.00     0.021 C 
BRANCH  26  27
ATOM     27  C   UNL     1     -13.465   1.959   1.220  1.00  0.00     0.116 C 
BRANCH  27  28
ATOM     28  N   UNL     1     -14.510   2.920   1.536  1.00  0.00    -0.352 N 
ATOM     29  C   UNL     1     -15.868   2.739   1.562  1.00  0.00     0.251 C 
ATOM     30  H   UNL     1     -14.198   3.826   1.762  1.00  0.00     0.163 HD
ATOM     31  O   UNL     1     -16.620   3.708   1.595  1.00  0.00    -0.269 OA
BRANCH  29  32
ATOM     32  C   UNL     1     -16.409   1.367   1.537  1.00  0.00     0.039 A 
ATOM     33  C   UNL     1     -17.475   1.073   0.687  1.00  0.00     0.014 A 
ATOM     34  C   UNL     1     -15.850   0.374   2.348  1.00  0.00     0.014 A 
ATOM     35  C   UNL     1     -17.952  -0.236   0.617  1.00  0.00     0.010 A 
ATOM     36  C   UNL     1     -16.268  -0.944   2.212  1.00  0.00     0.010 A 
ATOM     37  C   UNL     1     -17.334  -1.258   1.357  1.00  0.00    -0.014 A 
BRANCH  37  38
ATOM     38  C   UNL     1     -17.812  -2.659   1.268  1.00  0.00     0.031 A 
ATOM     39  C   UNL     1     -18.399  -3.326   2.482  1.00  0.00     0.074 A 
ATOM     40  C   UNL     1     -17.694  -3.332   0.107  1.00  0.00     0.049 A 
ATOM     41  N   UNL     1     -18.851  -4.546   2.613  1.00  0.00    -0.248 NA
ATOM     42  C   UNL     1     -18.472  -2.525   3.715  1.00  0.00     0.031 C 
ATOM     43  C   UNL     1     -17.114  -2.794  -1.126  1.00  0.00     0.029 A 
ATOM     44  N   UNL     1     -18.059  -4.611  -0.230  1.00  0.00    -0.354 N 
ATOM     45  C   UNL     1     -19.265  -4.655   3.934  1.00  0.00     0.074 A 
ATOM     46  C   UNL     1     -18.945  -3.405   4.585  1.00  0.00     0.031 C 
ATOM     47  C   UNL     1     -17.200  -3.721  -2.093  1.00  0.00     0.029 A 
ATOM     48  C   UNL     1     -17.796  -4.934  -1.540  1.00  0.00     0.049 A 
ATOM     49  H   UNL     1     -18.471  -5.238   0.407  1.00  0.00     0.167 HD
ATOM     50  C   UNL     1     -19.889  -5.692   4.540  1.00  0.00     0.037 A 
ATOM     51  C   UNL     1     -18.009  -6.079  -2.218  1.00  0.00     0.037 A 
ATOM     52  C   UNL     1     -20.214  -6.928   3.879  1.00  0.00     0.049 A 
ATOM     53  C   UNL     1     -18.654  -7.237  -1.505  1.00  0.00     0.074 A 
ATOM     54  C   UNL     1     -20.870  -8.030   4.396  1.00  0.00     0.029 A 
ATOM     55  N   UNL     1     -19.906  -7.228   2.559  1.00  0.00    -0.354 N 
ATOM     56  N   UNL     1     -19.087  -7.306  -0.268  1.00  0.00    -0.248 NA
ATOM     57  C   UNL     1     -18.842  -8.473  -2.277  1.00  0.00     0.031 C 
ATOM     58  C   UNL     1     -20.904  -9.019   3.410  1.00  0.00     0.029 A 
ATOM     59  C   UNL     1     -20.331  -8.510   2.256  1.00  0.00     0.049 A 
ATOM     60  H   UNL     1     -19.452  -6.619   1.933  1.00  0.00     0.167 HD
ATOM     61  C   UNL     1     -19.621  -8.582  -0.122  1.00  0.00     0.074 A 
ATOM     62  C   UNL     1     -19.473  -9.244  -1.402  1.00  0.00     0.031 C 
ATOM     63  C   UNL     1     -20.180  -9.154   0.974  1.00  0.00     0.037 A 
BRANCH  50  64
ATOM     64  C   UNL     1     -20.274  -5.534   5.986  1.00  0.00     0.058 A 
ATOM     65  C   UNL     1     -21.288  -4.648   6.384  1.00  0.00     0.135 A 
ATOM     66  C   UNL     1     -19.667  -6.320   6.979  1.00  0.00     0.135 A 
ATOM     67  F   UNL     1     -21.890  -3.857   5.480  1.00  0.00    -0.206 F 
ATOM     68  C   UNL     1     -21.675  -4.534   7.715  1.00  0.00     0.059 A 
ATOM     69  C   UNL     1     -20.061  -6.247   8.312  1.00  0.00     0.059 A 
ATOM     70  F   UNL     1     -18.689  -7.180   6.657  1.00  0.00    -0.206 F 
ATOM     71  C   UNL     1     -21.060  -5.344   8.671  1.00  0.00     0.060 A 
BRANCH  71  72
ATOM     72  S   UNL     1     -21.595  -5.197  10.388  1.00  0.00     0.124 S 
ATOM     73  O   UNL     1     -21.145  -3.848  10.720  1.00  0.00    -0.237 OA
ATOM     74  O   UNL     1     -23.039  -5.373  10.277  1.00  0.00    -0.237 OA
ATOM     75  O   UNL     1     -20.882  -6.277  11.062  1.00  0.00    -0.744 OA
ENDBRANCH  71  72
ENDBRANCH  50  64
BRANCH  51  76
ATOM     76  C   UNL     1     -17.633  -6.172  -3.656  1.00  0.00     0.058 A 
ATOM     77  C   UNL     1     -18.615  -6.281  -4.652  1.00  0.00     0.135 A 
ATOM     78  C   UNL     1     -16.291  -6.132  -4.066  1.00  0.00     0.135 A 
ATOM     79  F   UNL     1     -19.912  -6.331  -4.312  1.00  0.00    -0.206 F 
ATOM     80  C   UNL     1     -18.282  -6.358  -6.000  1.00  0.00     0.059 A 
ATOM     81  C   UNL     1     -15.934  -6.176  -5.410  1.00  0.00     0.059 A 
ATOM     82  F   UNL     1     -15.312  -6.015  -3.155  1.00  0.00    -0.206 F 
ATOM     83  C   UNL     1     -16.937  -6.297  -6.370  1.00  0.00     0.060 A 
BRANCH  83  84
ATOM     84  S   UNL     1     -16.523  -6.346  -8.127  1.00  0.00     0.124 S 
ATOM     85  O   UNL     1     -16.919  -7.704  -8.486  1.00  0.00    -0.237 OA
ATOM     86  O   UNL     1     -17.357  -5.275  -8.664  1.00  0.00    -0.237 OA
ATOM     87  O   UNL     1     -15.088  -6.083  -8.143  1.00  0.00    -0.744 OA
ENDBRANCH  83  84
ENDBRANCH  51  76
BRANCH  63  88
ATOM     88  C   UNL     1     -20.696 -10.563   0.844  1.00  0.00     0.058 A 
ATOM     89  C   UNL     1     -19.825 -11.656   0.719  1.00  0.00     0.135 A 
ATOM     90  C   UNL     1     -22.073 -10.828   0.932  1.00  0.00     0.135 A 
ATOM     91  F   UNL     1     -18.501 -11.460   0.626  1.00  0.00    -0.206 F 
ATOM     92  C   UNL     1     -20.302 -12.962   0.667  1.00  0.00     0.059 A 
ATOM     93  C   UNL     1     -22.569 -12.128   0.918  1.00  0.00     0.059 A 
ATOM     94  F   UNL     1     -22.950  -9.820   1.065  1.00  0.00    -0.206 F 
ATOM     95  C   UNL     1     -21.676 -13.188   0.777  1.00  0.00     0.060 A 
BRANCH  95  96
ATOM     96  S   UNL     1     -22.271 -14.892   0.753  1.00  0.00     0.124 S 
ATOM     97  O   UNL     1     -21.976 -15.288  -0.620  1.00  0.00    -0.237 OA
ATOM     98  O   UNL     1     -21.450 -15.519   1.784  1.00  0.00    -0.237 OA
ATOM     99  O   UNL     1     -23.688 -14.764   1.077  1.00  0.00    -0.744 OA
ENDBRANCH  95  96
ENDBRANCH  63  88
ENDBRANCH  37  38
ENDBRANCH  29  32
ENDBRANCH  27  28
ENDBRANCH  26  27
ENDBRANCH   1  26
TORSDOF 18
