REMARK SMILES Cc1ccc(C(=O)N2CCC3(CCC(=O)N(CC(=O)NCCCCCCNC(=O)c4ccc(-c5c6nc(c(-c7c(F)cc(S(=O)(=O)[O-])cc7F)c7ccc([nH]7)c(-c7c(F)cc(S(=O)(=O)[O-])cc7F)c7nc(c(-c8c(F)cc(S(=O)(=O)[O-])cc8F)c8ccc5[nH]8)C=C7)C=C6)cc4)C3)CC2)cc1O
REMARK SMILES IDX 23 1 22 2 21 3 20 4 18 5 19 6 17 8 16 9 6 10 7 11 8 12 9 13
REMARK SMILES IDX 98 14 10 15 97 16 11 17 12 18 96 19 13 20 14 21 15 22 5 23
REMARK SMILES IDX 1 24 2 25 3 26 100 27 4 28 99 29 101 30 24 32 25 33 26 34
REMARK SMILES IDX 27 35 28 36 29 38 30 39 31 40 95 41 32 42 94 43 33 44 34 45
REMARK SMILES IDX 35 46 88 47 36 48 93 49 87 50 89 51 37 52 92 53 86 54 85 55
REMARK SMILES IDX 38 57 72 58 51 59 71 60 52 61 55 62 70 63 90 64 53 65 54 66
REMARK SMILES IDX 69 68 91 69 56 70 39 71 40 72 49 73 41 74 42 75 48 76 50 77
REMARK SMILES IDX 43 78 44 79 45 80 46 81 47 82 73 83 74 84 83 85 75 86 76 87
REMARK SMILES IDX 82 88 84 89 77 90 78 91 79 92 80 93 81 94 57 95 58 96 67 97
REMARK SMILES IDX 59 98 60 99 66 100 68 101 61 102 62 103 63 104 64 105 65 106
REMARK H PARENT 20 7 101 31 27 37 89 56 55 67
REMARK Flexibility Score: inf
ROOT
ATOM      1  C   UNL     1       9.947  -6.409   1.746  1.00  0.00     0.002 C 
ENDROOT
BRANCH   1   2
ATOM      2  C   UNL     1       8.905  -5.294   1.582  1.00  0.00     0.021 C 
BRANCH   2   3
ATOM      3  C   UNL     1       8.052  -5.073   2.826  1.00  0.00     0.116 C 
BRANCH   3   4
ATOM      4  N   UNL     1       8.836  -4.533   3.910  1.00  0.00    -0.355 N 
ATOM      5  C   UNL     1       8.834  -3.273   4.426  1.00  0.00     0.239 C 
ATOM      6  O   UNL     1       9.472  -3.083   5.466  1.00  0.00    -0.273 OA
ATOM      7  H   UNL     1       9.460  -5.164   4.336  1.00  0.00     0.163 HD
BRANCH   5   8
ATOM      8  C   UNL     1       7.902  -2.196   3.855  1.00  0.00     0.219 C 
BRANCH   8   9
ATOM      9  N   UNL     1       8.036  -1.819   2.443  1.00  0.00    -0.333 N 
ATOM     10  C   UNL     1       3.028   1.506   0.173  1.00  0.00     0.253 C 
ATOM     11  O   UNL     1       2.893   2.671   0.549  1.00  0.00    -0.269 OA
ATOM     12  N   UNL     1       4.285   0.911   0.099  1.00  0.00    -0.339 N 
ATOM     13  C   UNL     1       5.318   1.401   0.994  1.00  0.00     0.120 C 
ATOM     14  C   UNL     1       4.740  -0.005  -0.943  1.00  0.00     0.120 C 
ATOM     15  C   UNL     1       5.950   0.212   1.703  1.00  0.00     0.030 C 
ATOM     16  C   UNL     1       5.466  -1.214  -0.340  1.00  0.00     0.030 C 
ATOM     17  C   UNL     1       6.541  -0.828   0.715  1.00  0.00    -0.008 C 
ATOM     18  C   UNL     1       7.816  -0.337   0.002  1.00  0.00     0.019 C 
ATOM     19  C   UNL     1       6.950  -2.081   1.505  1.00  0.00     0.127 C 
ATOM     20  C   UNL     1       8.966  -0.072   0.961  1.00  0.00     0.101 C 
ATOM     21  C   UNL     1       9.147  -1.074   2.087  1.00  0.00     0.223 C 
ATOM     22  O   UNL     1      10.185  -1.080   2.746  1.00  0.00    -0.275 OA
BRANCH  10  23
ATOM     23  C   UNL     1       1.796   0.688  -0.041  1.00  0.00     0.043 A 
ATOM     24  C   UNL     1      -1.898  -1.573  -0.058  1.00  0.00     0.048 C 
ATOM     25  C   UNL     1      -0.633  -0.765  -0.084  1.00  0.00    -0.009 A 
ATOM     26  C   UNL     1       0.595  -1.427   0.016  1.00  0.00     0.008 A 
ATOM     27  C   UNL     1      -0.627   0.632  -0.158  1.00  0.00     0.119 A 
ATOM     28  C   UNL     1       1.792  -0.707   0.062  1.00  0.00     0.014 A 
ATOM     29  C   UNL     1       0.569   1.352  -0.150  1.00  0.00     0.060 A 
BRANCH  27  30
ATOM     30  O   UNL     1      -1.775   1.372  -0.206  1.00  0.00    -0.508 OA
ATOM     31  H   UNL     1      -2.608   0.944  -0.214  1.00  0.00     0.293 HD
ENDBRANCH  27  30
ENDBRANCH  10  23
ENDBRANCH   8   9
ENDBRANCH   5   8
ENDBRANCH   3   4
ENDBRANCH   2   3
ENDBRANCH   1   2
BRANCH   1  32
ATOM     32  C   UNL     1       9.375  -7.770   2.160  1.00  0.00     0.002 C 
BRANCH  32  33
ATOM     33  C   UNL     1       8.273  -8.309   1.245  1.00  0.00     0.021 C 
BRANCH  33  34
ATOM     34  C   UNL     1       8.707  -8.519  -0.201  1.00  0.00     0.116 C 
BRANCH  34  35
ATOM     35  N   UNL     1       9.755  -9.522  -0.310  1.00  0.00    -0.352 N 
ATOM     36  C   UNL     1       9.782 -10.668  -1.063  1.00  0.00     0.251 C 
ATOM     37  H   UNL     1      10.558  -9.354   0.234  1.00  0.00     0.163 HD
ATOM     38  O   UNL     1      10.652 -11.514  -0.863  1.00  0.00    -0.269 OA
BRANCH  36  39
ATOM     39  C   UNL     1       8.754 -10.888  -2.101  1.00  0.00     0.039 A 
ATOM     40  C   UNL     1       8.153 -12.144  -2.206  1.00  0.00     0.014 A 
ATOM     41  C   UNL     1       8.385  -9.856  -2.969  1.00  0.00     0.014 A 
ATOM     42  C   UNL     1       7.141 -12.348  -3.145  1.00  0.00     0.010 A 
ATOM     43  C   UNL     1       7.324 -10.039  -3.851  1.00  0.00     0.010 A 
ATOM     44  C   UNL     1       6.693 -11.288  -3.951  1.00  0.00    -0.014 A 
BRANCH  44  45
ATOM     45  C   UNL     1       5.566 -11.467  -4.903  1.00  0.00     0.031 A 
ATOM     46  C   UNL     1       5.791 -11.297  -6.382  1.00  0.00     0.074 A 
ATOM     47  C   UNL     1       4.330 -11.721  -4.430  1.00  0.00     0.049 A 
ATOM     48  N   UNL     1       4.922 -11.345  -7.359  1.00  0.00    -0.248 NA
ATOM     49  C   UNL     1       7.167 -11.010  -6.818  1.00  0.00     0.031 C 
ATOM     50  C   UNL     1       3.978 -11.861  -3.015  1.00  0.00     0.029 A 
ATOM     51  N   UNL     1       3.136 -11.895  -5.085  1.00  0.00    -0.354 N 
ATOM     52  C   UNL     1       5.642 -11.084  -8.519  1.00  0.00     0.074 A 
ATOM     53  C   UNL     1       7.007 -10.823  -8.120  1.00  0.00     0.031 C 
ATOM     54  C   UNL     1       2.665 -12.122  -2.911  1.00  0.00     0.029 A 
ATOM     55  C   UNL     1       2.072 -12.124  -4.245  1.00  0.00     0.049 A 
ATOM     56  H   UNL     1       3.050 -11.860  -6.065  1.00  0.00     0.167 HD
ATOM     57  C   UNL     1       5.208 -11.087  -9.803  1.00  0.00     0.037 A 
ATOM     58  C   UNL     1       0.764 -12.304  -4.515  1.00  0.00     0.037 A 
ATOM     59  C   UNL     1       3.851 -11.370 -10.193  1.00  0.00     0.049 A 
ATOM     60  C   UNL     1       0.305 -12.290  -5.949  1.00  0.00     0.074 A 
ATOM     61  C   UNL     1       3.325 -11.453 -11.470  1.00  0.00     0.029 A 
ATOM     62  N   UNL     1       2.806 -11.613  -9.314  1.00  0.00    -0.354 N 
ATOM     63  N   UNL     1       1.012 -12.105  -7.038  1.00  0.00    -0.248 NA
ATOM     64  C   UNL     1      -1.126 -12.514  -6.192  1.00  0.00     0.031 C 
ATOM     65  C   UNL     1       1.951 -11.691 -11.362  1.00  0.00     0.029 A 
ATOM     66  C   UNL     1       1.632 -11.819 -10.019  1.00  0.00     0.049 A 
ATOM     67  H   UNL     1       2.887 -11.636  -8.333  1.00  0.00     0.167 HD
ATOM     68  C   UNL     1       0.117 -12.223  -8.097  1.00  0.00     0.074 A 
ATOM     69  C   UNL     1      -1.179 -12.506  -7.517  1.00  0.00     0.031 C 
ATOM     70  C   UNL     1       0.349 -12.108  -9.428  1.00  0.00     0.037 A 
BRANCH  57  71
ATOM     71  C   UNL     1       6.210 -10.776 -10.883  1.00  0.00     0.058 A 
ATOM     72  C   UNL     1       7.249 -11.664 -11.205  1.00  0.00     0.135 A 
ATOM     73  C   UNL     1       6.101  -9.597 -11.639  1.00  0.00     0.135 A 
ATOM     74  F   UNL     1       7.411 -12.798 -10.505  1.00  0.00    -0.206 F 
ATOM     75  C   UNL     1       8.159 -11.382 -12.218  1.00  0.00     0.059 A 
ATOM     76  C   UNL     1       6.981  -9.310 -12.678  1.00  0.00     0.059 A 
ATOM     77  F   UNL     1       5.127  -8.711 -11.373  1.00  0.00    -0.206 F 
ATOM     78  C   UNL     1       8.015 -10.203 -12.951  1.00  0.00     0.060 A 
BRANCH  78  79
ATOM     79  S   UNL     1       9.197  -9.861 -14.272  1.00  0.00     0.124 S 
ATOM     80  O   UNL     1      10.404  -9.555 -13.510  1.00  0.00    -0.237 OA
ATOM     81  O   UNL     1       9.215 -11.122 -15.007  1.00  0.00    -0.237 OA
ATOM     82  O   UNL     1       8.600  -8.733 -14.980  1.00  0.00    -0.744 OA
ENDBRANCH  78  79
ENDBRANCH  57  71
BRANCH  58  83
ATOM     83  C   UNL     1      -0.203 -12.523  -3.406  1.00  0.00     0.058 A 
ATOM     84  C   UNL     1      -0.835 -13.763  -3.229  1.00  0.00     0.135 A 
ATOM     85  C   UNL     1      -0.514 -11.498  -2.498  1.00  0.00     0.135 A 
ATOM     86  F   UNL     1      -0.576 -14.774  -4.073  1.00  0.00    -0.206 F 
ATOM     87  C   UNL     1      -1.756 -13.974  -2.208  1.00  0.00     0.059 A 
ATOM     88  C   UNL     1      -1.409 -11.693  -1.451  1.00  0.00     0.059 A 
ATOM     89  F   UNL     1       0.076 -10.297  -2.611  1.00  0.00    -0.206 F 
ATOM     90  C   UNL     1      -2.035 -12.932  -1.322  1.00  0.00     0.060 A 
BRANCH  90  91
ATOM     91  S   UNL     1      -3.203 -13.226   0.023  1.00  0.00     0.124 S 
ATOM     92  O   UNL     1      -4.470 -13.280  -0.696  1.00  0.00    -0.237 OA
ATOM     93  O   UNL     1      -2.724 -14.490   0.573  1.00  0.00    -0.237 OA
ATOM     94  O   UNL     1      -3.017 -12.064   0.887  1.00  0.00    -0.744 OA
ENDBRANCH  90  91
ENDBRANCH  58  83
BRANCH  70  95
ATOM     95  C   UNL     1      -0.815 -12.327 -10.357  1.00  0.00     0.058 A 
ATOM     96  C   UNL     1      -1.858 -11.395 -10.471  1.00  0.00     0.135 A 
ATOM     97  C   UNL     1      -0.855 -13.460 -11.187  1.00  0.00     0.135 A 
ATOM     98  F   UNL     1      -1.872 -10.299  -9.696  1.00  0.00    -0.206 F 
ATOM     99  C   UNL     1      -2.913 -11.590 -11.357  1.00  0.00     0.059 A 
ATOM    100  C   UNL     1      -1.883 -13.659 -12.103  1.00  0.00     0.059 A 
ATOM    101  F   UNL     1       0.123 -14.377 -11.127  1.00  0.00    -0.206 F 
ATOM    102  C   UNL     1      -2.914 -12.724 -12.172  1.00  0.00     0.060 A 
BRANCH 102 103
ATOM    103  S   UNL     1      -4.270 -12.944 -13.343  1.00  0.00     0.124 S 
ATOM    104  O   UNL     1      -5.373 -13.290 -12.453  1.00  0.00    -0.237 OA
ATOM    105  O   UNL     1      -4.352 -11.631 -13.974  1.00  0.00    -0.237 OA
ATOM    106  O   UNL     1      -3.800 -14.022 -14.208  1.00  0.00    -0.744 OA
ENDBRANCH 102 103
ENDBRANCH  70  95
ENDBRANCH  44  45
ENDBRANCH  36  39
ENDBRANCH  34  35
ENDBRANCH  33  34
ENDBRANCH  32  33
ENDBRANCH   1  32
TORSDOF 19
