REMARK SMILES COc1cccc(NC(=O)NC2(C(=O)NCCCCCCNC(=O)c3ccc(-c4c5nc(c(-c6c(F)cc(S(=O)(=O)[O-])cc6F)c6ccc([nH]6)c(-c6c(F)cc(S(=O)(=O)[O-])cc6F)c6nc(c(-c7c(F)cc(S(=O)(=O)[O-])cc7F)c7ccc4[nH]7)C=C6)C=C5)cc3)CCCCC2)c1
REMARK SMILES IDX 18 1 17 2 16 3 15 4 13 5 14 6 12 8 91 9 95 10 92 11 94 12
REMARK SMILES IDX 93 13 11 14 8 15 9 16 10 18 7 20 3 21 4 22 96 23 5 24 6 25
REMARK SMILES IDX 2 26 1 27 19 28 20 29 21 30 22 31 23 32 24 34 25 35 26 36
REMARK SMILES IDX 90 37 27 38 89 39 28 40 29 41 30 42 83 43 31 44 88 45 82 46
REMARK SMILES IDX 84 47 32 48 87 49 81 50 80 51 33 53 67 54 46 55 66 56 47 57
REMARK SMILES IDX 50 58 65 59 85 60 48 61 49 62 64 64 86 65 51 66 34 67 35 68
REMARK SMILES IDX 44 69 36 70 37 71 43 72 45 73 38 74 39 75 40 76 41 77 42 78
REMARK SMILES IDX 68 79 69 80 78 81 70 82 71 83 77 84 79 85 72 86 73 87 74 88
REMARK SMILES IDX 75 89 76 90 52 91 53 92 62 93 54 94 55 95 61 96 63 97 56 98
REMARK SMILES IDX 57 99 58 100 59 101 60 102
REMARK H PARENT 15 7 8 17 11 19 22 33 84 52 50 63
REMARK Flexibility Score: inf
ROOT
ATOM      1  C   UNL     1      -2.864  -4.494   0.397  1.00  0.00     0.002 C 
ENDROOT
BRANCH   1   2
ATOM      2  C   UNL     1      -2.017  -4.488   1.675  1.00  0.00     0.021 C 
BRANCH   2   3
ATOM      3  C   UNL     1      -1.480  -5.856   2.068  1.00  0.00     0.116 C 
BRANCH   3   4
ATOM      4  N   UNL     1      -0.328  -6.260   1.297  1.00  0.00    -0.354 N 
ATOM      5  C   UNL     1       0.981  -6.470   1.570  1.00  0.00     0.245 C 
ATOM      6  O   UNL     1       1.549  -7.132   0.680  1.00  0.00    -0.272 OA
ATOM      7  H   UNL     1      -0.545  -6.421   0.350  1.00  0.00     0.163 HD
BRANCH   5   8
ATOM      8  C   UNL     1       1.779  -6.084   2.873  1.00  0.00     0.120 C 
ATOM      9  C   UNL     1       1.620  -7.249   3.886  1.00  0.00     0.039 C 
ATOM     10  C   UNL     1       1.552  -4.751   3.603  1.00  0.00     0.039 C 
ATOM     11  C   UNL     1       0.347  -7.216   4.716  1.00  0.00     0.003 C 
ATOM     12  C   UNL     1       0.410  -4.646   4.607  1.00  0.00     0.003 C 
ATOM     13  C   UNL     1       0.149  -5.891   5.442  1.00  0.00     0.000 C 
BRANCH   8  14
ATOM     14  N   UNL     1       3.232  -6.171   2.414  1.00  0.00    -0.323 N 
ATOM     15  N   UNL     1       4.098  -4.069   1.696  1.00  0.00    -0.308 N 
ATOM     16  C   UNL     1       4.220  -5.385   1.955  1.00  0.00     0.320 C 
ATOM     17  H   UNL     1       4.877  -3.532   1.971  1.00  0.00     0.171 HD
ATOM     18  O   UNL     1       5.350  -5.884   1.897  1.00  0.00    -0.248 OA
ATOM     19  H   UNL     1       3.547  -7.102   2.473  1.00  0.00     0.166 HD
BRANCH  15  20
ATOM     20  C   UNL     1       3.071  -3.324   1.108  1.00  0.00     0.046 A 
ATOM     21  C   UNL     1       1.919  -1.209   0.907  1.00  0.00     0.120 A 
ATOM     22  C   UNL     1       0.863  -1.849   0.260  1.00  0.00     0.046 A 
ATOM     23  C   UNL     1       3.020  -1.947   1.346  1.00  0.00     0.072 A 
ATOM     24  C   UNL     1       0.983  -3.186  -0.098  1.00  0.00     0.006 A 
ATOM     25  C   UNL     1       2.109  -3.908   0.291  1.00  0.00     0.026 A 
BRANCH  21  26
ATOM     26  O   UNL     1       1.879   0.121   1.228  1.00  0.00    -0.497 OA
ATOM     27  C   UNL     1       1.582   0.954   0.106  1.00  0.00     0.278 C 
ENDBRANCH  21  26
ENDBRANCH  15  20
ENDBRANCH   8  14
ENDBRANCH   5   8
ENDBRANCH   3   4
ENDBRANCH   2   3
ENDBRANCH   1   2
BRANCH   1  28
ATOM     28  C   UNL     1      -4.192  -5.257   0.496  1.00  0.00     0.002 C 
BRANCH  28  29
ATOM     29  C   UNL     1      -5.071  -4.909   1.702  1.00  0.00     0.021 C 
BRANCH  29  30
ATOM     30  C   UNL     1      -5.353  -3.421   1.890  1.00  0.00     0.116 C 
BRANCH  30  31
ATOM     31  N   UNL     1      -6.115  -2.866   0.785  1.00  0.00    -0.352 N 
ATOM     32  C   UNL     1      -7.337  -2.246   0.813  1.00  0.00     0.251 C 
ATOM     33  H   UNL     1      -5.698  -2.946  -0.103  1.00  0.00     0.163 HD
ATOM     34  O   UNL     1      -7.933  -2.013  -0.242  1.00  0.00    -0.269 OA
BRANCH  32  35
ATOM     35  C   UNL     1      -7.944  -1.873   2.106  1.00  0.00     0.039 A 
ATOM     36  C   UNL     1      -9.279  -2.204   2.347  1.00  0.00     0.014 A 
ATOM     37  C   UNL     1      -7.200  -1.189   3.074  1.00  0.00     0.014 A 
ATOM     38  C   UNL     1      -9.857  -1.887   3.578  1.00  0.00     0.010 A 
ATOM     39  C   UNL     1      -7.760  -0.930   4.324  1.00  0.00     0.010 A 
ATOM     40  C   UNL     1      -9.098  -1.265   4.583  1.00  0.00    -0.014 A 
BRANCH  40  41
ATOM     41  C   UNL     1      -9.702  -0.946   5.902  1.00  0.00     0.031 A 
ATOM     42  C   UNL     1      -9.884   0.488   6.323  1.00  0.00     0.074 A 
ATOM     43  C   UNL     1     -10.052  -1.946   6.734  1.00  0.00     0.049 A 
ATOM     44  N   UNL     1     -10.387   0.964   7.433  1.00  0.00    -0.248 NA
ATOM     45  C   UNL     1      -9.418   1.523   5.386  1.00  0.00     0.031 C 
ATOM     46  C   UNL     1      -9.870  -3.374   6.463  1.00  0.00     0.029 A 
ATOM     47  N   UNL     1     -10.630  -1.917   7.978  1.00  0.00    -0.354 N 
ATOM     48  C   UNL     1     -10.285   2.347   7.334  1.00  0.00     0.074 A 
ATOM     49  C   UNL     1      -9.628   2.633   6.078  1.00  0.00     0.031 C 
ATOM     50  C   UNL     1     -10.352  -4.084   7.496  1.00  0.00     0.029 A 
ATOM     51  C   UNL     1     -10.853  -3.164   8.514  1.00  0.00     0.049 A 
ATOM     52  H   UNL     1     -10.864  -1.082   8.443  1.00  0.00     0.167 HD
ATOM     53  C   UNL     1     -10.720   3.293   8.201  1.00  0.00     0.037 A 
ATOM     54  C   UNL     1     -11.402  -3.524   9.690  1.00  0.00     0.037 A 
ATOM     55  C   UNL     1     -11.407   3.002   9.433  1.00  0.00     0.049 A 
ATOM     56  C   UNL     1     -11.904  -2.454  10.621  1.00  0.00     0.074 A 
ATOM     57  C   UNL     1     -11.956   3.889  10.342  1.00  0.00     0.029 A 
ATOM     58  N   UNL     1     -11.637   1.728   9.929  1.00  0.00    -0.354 N 
ATOM     59  N   UNL     1     -11.873  -1.151  10.473  1.00  0.00    -0.248 NA
ATOM     60  C   UNL     1     -12.527  -2.904  11.874  1.00  0.00     0.031 C 
ATOM     61  C   UNL     1     -12.485   3.152  11.407  1.00  0.00     0.029 A 
ATOM     62  C   UNL     1     -12.303   1.804  11.141  1.00  0.00     0.049 A 
ATOM     63  H   UNL     1     -11.367   0.891   9.485  1.00  0.00     0.167 HD
ATOM     64  C   UNL     1     -12.495  -0.626  11.601  1.00  0.00     0.074 A 
ATOM     65  C   UNL     1     -12.905  -1.753  12.414  1.00  0.00     0.031 C 
ATOM     66  C   UNL     1     -12.708   0.671  11.934  1.00  0.00     0.037 A 
BRANCH  53  67
ATOM     67  C   UNL     1     -10.476   4.734   7.844  1.00  0.00     0.058 A 
ATOM     68  C   UNL     1     -11.177   5.365   6.804  1.00  0.00     0.135 A 
ATOM     69  C   UNL     1      -9.558   5.504   8.576  1.00  0.00     0.135 A 
ATOM     70  F   UNL     1     -12.055   4.672   6.062  1.00  0.00    -0.206 F 
ATOM     71  C   UNL     1     -10.958   6.702   6.486  1.00  0.00     0.059 A 
ATOM     72  C   UNL     1      -9.342   6.849   8.292  1.00  0.00     0.059 A 
ATOM     73  F   UNL     1      -8.860   4.950   9.580  1.00  0.00    -0.206 F 
ATOM     74  C   UNL     1     -10.037   7.436   7.235  1.00  0.00     0.060 A 
BRANCH  74  75
ATOM     75  S   UNL     1      -9.770   9.171   6.815  1.00  0.00     0.124 S 
ATOM     76  O   UNL     1      -8.986   9.056   5.589  1.00  0.00    -0.237 OA
ATOM     77  O   UNL     1     -11.133   9.667   6.651  1.00  0.00    -0.237 OA
ATOM     78  O   UNL     1      -9.052   9.694   7.973  1.00  0.00    -0.744 OA
ENDBRANCH  74  75
ENDBRANCH  53  67
BRANCH  54  79
ATOM     79  C   UNL     1     -11.538  -4.963  10.040  1.00  0.00     0.058 A 
ATOM     80  C   UNL     1     -12.795  -5.584  10.063  1.00  0.00     0.135 A 
ATOM     81  C   UNL     1     -10.416  -5.745  10.356  1.00  0.00     0.135 A 
ATOM     82  F   UNL     1     -13.898  -4.877   9.772  1.00  0.00    -0.206 F 
ATOM     83  C   UNL     1     -12.941  -6.923  10.409  1.00  0.00     0.059 A 
ATOM     84  C   UNL     1     -10.534  -7.092  10.681  1.00  0.00     0.059 A 
ATOM     85  F   UNL     1      -9.189  -5.202  10.330  1.00  0.00    -0.206 F 
ATOM     86  C   UNL     1     -11.802  -7.670  10.717  1.00  0.00     0.060 A 
BRANCH  86  87
ATOM     87  S   UNL     1     -11.995  -9.418  11.127  1.00  0.00     0.124 S 
ATOM     88  O   UNL     1     -12.522  -9.345  12.484  1.00  0.00    -0.237 OA
ATOM     89  O   UNL     1     -12.929  -9.874  10.101  1.00  0.00    -0.237 OA
ATOM     90  O   UNL     1     -10.637  -9.941  11.002  1.00  0.00    -0.744 OA
ENDBRANCH  86  87
ENDBRANCH  54  79
BRANCH  66  91
ATOM     91  C   UNL     1     -13.444   0.939  13.216  1.00  0.00     0.058 A 
ATOM     92  C   UNL     1     -12.838   0.749  14.467  1.00  0.00     0.135 A 
ATOM     93  C   UNL     1     -14.762   1.424  13.192  1.00  0.00     0.135 A 
ATOM     94  F   UNL     1     -11.582   0.281  14.545  1.00  0.00    -0.206 F 
ATOM     95  C   UNL     1     -13.523   1.000  15.652  1.00  0.00     0.059 A 
ATOM     96  C   UNL     1     -15.457   1.708  14.363  1.00  0.00     0.059 A 
ATOM     97  F   UNL     1     -15.383   1.635  12.020  1.00  0.00    -0.206 F 
ATOM     98  C   UNL     1     -14.834   1.478  15.589  1.00  0.00     0.060 A 
BRANCH  98  99
ATOM     99  S   UNL     1     -15.708   1.817  17.131  1.00  0.00     0.124 S 
ATOM    100  O   UNL     1     -16.056   0.470  17.573  1.00  0.00    -0.237 OA
ATOM    101  O   UNL     1     -14.693   2.502  17.925  1.00  0.00    -0.237 OA
ATOM    102  O   UNL     1     -16.830   2.650  16.708  1.00  0.00    -0.744 OA
ENDBRANCH  98  99
ENDBRANCH  66  91
ENDBRANCH  40  41
ENDBRANCH  32  35
ENDBRANCH  30  31
ENDBRANCH  29  30
ENDBRANCH  28  29
ENDBRANCH   1  28
TORSDOF 19
