REMARK SMILES C/C=C(\C)[C@H]1C(C)=C[C@H]2CC[C@@H](OS(=O)(=O)[O-])[C@@H](C)[C@H]2[C@H]1/C=C/C=C/C(=O)NCCCCCCNC(=O)c1ccc(-c2c3nc(c(-c4c(F)cc(S(=O)(=O)[O-])cc4F)c4ccc([nH]4)c(-c4c(F)cc(S(=O)(=O)[O-])cc4F)c4nc(c(-c5c(F)cc(S(=O)(=O)[O-])cc5F)c5ccc2[nH]5)C=C4)C=C3)cc1
REMARK SMILES IDX 31 1 30 2 29 3 28 4 26 5 27 6 25 8 24 9 23 10 22 11 21 12
REMARK SMILES IDX 5 13 6 14 7 15 8 16 20 17 9 18 18 19 10 20 12 21 19 22 11 23
REMARK SMILES IDX 3 24 1 25 2 26 4 27 13 28 14 29 15 30 16 31 17 32 32 33
REMARK SMILES IDX 33 34 34 35 35 36 36 37 37 39 38 40 39 41 103 42 40 43
REMARK SMILES IDX 102 44 41 45 42 46 43 47 96 48 44 49 101 50 95 51 97 52
REMARK SMILES IDX 45 53 100 54 94 55 93 56 46 58 80 59 59 60 79 61 60 62 63 63
REMARK SMILES IDX 78 64 98 65 61 66 62 67 77 69 99 70 64 71 47 72 48 73 57 74
REMARK SMILES IDX 49 75 50 76 56 77 58 78 51 79 52 80 53 81 54 82 55 83 81 84
REMARK SMILES IDX 82 85 91 86 83 87 84 88 90 89 92 90 85 91 86 92 87 93 88 94
REMARK SMILES IDX 89 95 65 96 66 97 75 98 67 99 68 100 74 101 76 102 69 103
REMARK SMILES IDX 70 104 71 105 72 106 73 107
REMARK H PARENT 28 7 35 38 97 57 63 68
REMARK Flexibility Score: inf
ROOT
ATOM      1  C   UNL     1       5.800  -0.544  -3.320  1.00  0.00     0.002 C 
ENDROOT
BRANCH   1   2
ATOM      2  C   UNL     1       4.607   0.337  -2.925  1.00  0.00     0.021 C 
BRANCH   2   3
ATOM      3  C   UNL     1       4.627   1.707  -3.608  1.00  0.00     0.116 C 
BRANCH   3   4
ATOM      4  N   UNL     1       4.111   1.600  -4.967  1.00  0.00    -0.353 N 
ATOM      5  C   UNL     1       3.056   2.179  -5.601  1.00  0.00     0.243 C 
ATOM      6  O   UNL     1       2.879   1.954  -6.798  1.00  0.00    -0.270 OA
ATOM      7  H   UNL     1       4.628   0.988  -5.539  1.00  0.00     0.163 HD
BRANCH   5   8
ATOM      8  C   UNL     1       2.162   3.139  -4.914  1.00  0.00     0.071 C 
ATOM      9  C   UNL     1       1.778   2.994  -3.644  1.00  0.00     0.005 C 
BRANCH   9  10
ATOM     10  C   UNL     1       0.945   3.898  -2.888  1.00  0.00    -0.004 C 
ATOM     11  C   UNL     1       1.001   3.818  -1.549  1.00  0.00    -0.022 C 
BRANCH  11  12
ATOM     12  C   UNL     1      -0.004   4.363  -0.564  1.00  0.00     0.027 C 
ATOM     13  C   UNL     1      -0.951   3.215   0.012  1.00  0.00     0.047 C 
ATOM     14  C   UNL     1      -1.300   3.356   1.492  1.00  0.00    -0.069 C 
ATOM     15  C   UNL     1      -2.030   2.227   2.171  1.00  0.00     0.040 C 
ATOM     16  C   UNL     1      -1.044   4.487   2.180  1.00  0.00    -0.024 C 
ATOM     17  C   UNL     1       0.650   5.320   0.491  1.00  0.00     0.009 C 
ATOM     18  C   UNL     1      -0.385   5.698   1.577  1.00  0.00     0.016 C 
ATOM     19  C   UNL     1       2.059   4.937   1.069  1.00  0.00     0.021 C 
ATOM     20  C   UNL     1       0.198   6.650   2.639  1.00  0.00     0.011 C 
ATOM     21  C   UNL     1       2.556   6.017   2.060  1.00  0.00     0.141 C 
ATOM     22  C   UNL     1       2.180   3.540   1.691  1.00  0.00     0.011 C 
ATOM     23  C   UNL     1       1.549   6.214   3.191  1.00  0.00     0.034 C 
BRANCH  13  24
ATOM     24  C   UNL     1      -0.580   1.775  -0.459  1.00  0.00    -0.070 C 
ATOM     25  C   UNL     1       0.819  -0.369  -0.188  1.00  0.00     0.035 C 
ATOM     26  C   UNL     1       0.271   0.965   0.208  1.00  0.00    -0.031 C 
ATOM     27  C   UNL     1      -1.236   1.374  -1.763  1.00  0.00     0.040 C 
ENDBRANCH  13  24
BRANCH  21  28
ATOM     28  O   UNL     1       3.811   5.610   2.596  1.00  0.00    -0.276 OA
BRANCH  28  29
ATOM     29  S   UNL     1       4.987   6.710   2.784  1.00  0.00     0.217 S 
ATOM     30  O   UNL     1       5.280   7.282   1.485  1.00  0.00    -0.213 OA
ATOM     31  O   UNL     1       4.662   7.533   3.921  1.00  0.00    -0.213 OA
ATOM     32  O   UNL     1       6.252   5.813   3.213  1.00  0.00    -0.726 OA
ENDBRANCH  28  29
ENDBRANCH  21  28
ENDBRANCH  11  12
ENDBRANCH   9  10
ENDBRANCH   5   8
ENDBRANCH   3   4
ENDBRANCH   2   3
ENDBRANCH   1   2
BRANCH   1  33
ATOM     33  C   UNL     1       7.170   0.033  -2.938  1.00  0.00     0.002 C 
BRANCH  33  34
ATOM     34  C   UNL     1       7.336   0.365  -1.453  1.00  0.00     0.021 C 
BRANCH  34  35
ATOM     35  C   UNL     1       7.201  -0.839  -0.527  1.00  0.00     0.116 C 
BRANCH  35  36
ATOM     36  N   UNL     1       8.237  -1.828  -0.784  1.00  0.00    -0.352 N 
ATOM     37  C   UNL     1       9.180  -2.340   0.071  1.00  0.00     0.251 C 
ATOM     38  H   UNL     1       8.266  -2.179  -1.703  1.00  0.00     0.163 HD
ATOM     39  O   UNL     1      10.132  -2.973  -0.374  1.00  0.00    -0.269 OA
BRANCH  37  40
ATOM     40  C   UNL     1       9.046  -2.118   1.526  1.00  0.00     0.039 A 
ATOM     41  C   UNL     1      10.179  -1.773   2.267  1.00  0.00     0.014 A 
ATOM     42  C   UNL     1       7.808  -2.264   2.158  1.00  0.00     0.014 A 
ATOM     43  C   UNL     1      10.057  -1.521   3.635  1.00  0.00     0.010 A 
ATOM     44  C   UNL     1       7.675  -1.937   3.504  1.00  0.00     0.010 A 
ATOM     45  C   UNL     1       8.799  -1.570   4.258  1.00  0.00    -0.014 A 
BRANCH  45  46
ATOM     46  C   UNL     1       8.641  -1.234   5.696  1.00  0.00     0.031 A 
ATOM     47  C   UNL     1       8.150  -2.273   6.668  1.00  0.00     0.074 A 
ATOM     48  C   UNL     1       8.879   0.026   6.113  1.00  0.00     0.049 A 
ATOM     49  N   UNL     1       7.893  -2.151   7.945  1.00  0.00    -0.248 NA
ATOM     50  C   UNL     1       7.887  -3.619   6.131  1.00  0.00     0.031 C 
ATOM     51  C   UNL     1       9.306   1.134   5.254  1.00  0.00     0.029 A 
ATOM     52  N   UNL     1       8.785   0.593   7.359  1.00  0.00    -0.354 N 
ATOM     53  C   UNL     1       7.423  -3.393   8.358  1.00  0.00     0.074 A 
ATOM     54  C   UNL     1       7.386  -4.241   7.187  1.00  0.00     0.031 C 
ATOM     55  C   UNL     1       9.453   2.239   6.001  1.00  0.00     0.029 A 
ATOM     56  C   UNL     1       9.090   1.934   7.381  1.00  0.00     0.049 A 
ATOM     57  H   UNL     1       8.523   0.087   8.162  1.00  0.00     0.167 HD
ATOM     58  C   UNL     1       7.075  -3.793   9.604  1.00  0.00     0.037 A 
ATOM     59  C   UNL     1       9.064   2.821   8.395  1.00  0.00     0.037 A 
ATOM     60  C   UNL     1       7.143  -2.948  10.768  1.00  0.00     0.049 A 
ATOM     61  C   UNL     1       8.680   2.349   9.771  1.00  0.00     0.074 A 
ATOM     62  C   UNL     1       6.886  -3.281  12.087  1.00  0.00     0.029 A 
ATOM     63  N   UNL     1       7.484  -1.603  10.756  1.00  0.00    -0.354 N 
ATOM     64  N   UNL     1       8.319   1.149  10.159  1.00  0.00    -0.248 NA
ATOM     65  C   UNL     1       8.707   3.347  10.849  1.00  0.00     0.031 C 
ATOM     66  C   UNL     1       7.011  -2.125  12.862  1.00  0.00     0.029 A 
ATOM     67  C   UNL     1       7.412  -1.085  12.038  1.00  0.00     0.049 A 
ATOM     68  H   UNL     1       7.739  -1.093   9.954  1.00  0.00     0.167 HD
ATOM     69  C   UNL     1       8.103   1.242  11.530  1.00  0.00     0.074 A 
ATOM     70  C   UNL     1       8.389   2.611  11.905  1.00  0.00     0.031 C 
ATOM     71  C   UNL     1       7.705   0.280  12.399  1.00  0.00     0.037 A 
BRANCH  58  72
ATOM     72  C   UNL     1       6.583  -5.205   9.782  1.00  0.00     0.058 A 
ATOM     73  C   UNL     1       7.438  -6.311   9.653  1.00  0.00     0.135 A 
ATOM     74  C   UNL     1       5.250  -5.450  10.150  1.00  0.00     0.135 A 
ATOM     75  F   UNL     1       8.719  -6.138   9.289  1.00  0.00    -0.206 F 
ATOM     76  C   UNL     1       6.985  -7.609   9.862  1.00  0.00     0.059 A 
ATOM     77  C   UNL     1       4.782  -6.738  10.394  1.00  0.00     0.059 A 
ATOM     78  F   UNL     1       4.387  -4.430  10.285  1.00  0.00    -0.206 F 
ATOM     79  C   UNL     1       5.656  -7.813  10.238  1.00  0.00     0.060 A 
BRANCH  79  80
ATOM     80  S   UNL     1       5.093  -9.502  10.532  1.00  0.00     0.124 S 
ATOM     81  O   UNL     1       5.079 -10.044   9.176  1.00  0.00    -0.237 OA
ATOM     82  O   UNL     1       6.131 -10.027  11.413  1.00  0.00    -0.237 OA
ATOM     83  O   UNL     1       3.782  -9.323  11.148  1.00  0.00    -0.744 OA
ENDBRANCH  79  80
ENDBRANCH  58  72
BRANCH  59  84
ATOM     84  C   UNL     1       9.414   4.246   8.145  1.00  0.00     0.058 A 
ATOM     85  C   UNL     1      10.585   4.811   8.672  1.00  0.00     0.135 A 
ATOM     86  C   UNL     1       8.583   5.071   7.370  1.00  0.00     0.135 A 
ATOM     87  F   UNL     1      11.410   4.065   9.424  1.00  0.00    -0.206 F 
ATOM     88  C   UNL     1      10.912   6.147   8.459  1.00  0.00     0.059 A 
ATOM     89  C   UNL     1       8.900   6.401   7.123  1.00  0.00     0.059 A 
ATOM     90  F   UNL     1       7.463   4.579   6.819  1.00  0.00    -0.206 F 
ATOM     91  C   UNL     1      10.062   6.933   7.680  1.00  0.00     0.060 A 
BRANCH  91  92
ATOM     92  S   UNL     1      10.511   8.652   7.359  1.00  0.00     0.124 S 
ATOM     93  O   UNL     1      10.232   9.273   8.648  1.00  0.00    -0.237 OA
ATOM     94  O   UNL     1      11.919   8.537   6.992  1.00  0.00    -0.237 OA
ATOM     95  O   UNL     1       9.615   9.025   6.267  1.00  0.00    -0.744 OA
ENDBRANCH  91  92
ENDBRANCH  59  84
BRANCH  71  96
ATOM     96  C   UNL     1       7.590   0.659  13.851  1.00  0.00     0.058 A 
ATOM     97  C   UNL     1       6.568   1.498  14.320  1.00  0.00     0.135 A 
ATOM     98  C   UNL     1       8.486   0.128  14.794  1.00  0.00     0.135 A 
ATOM     99  F   UNL     1       5.689   2.038  13.461  1.00  0.00    -0.206 F 
ATOM    100  C   UNL     1       6.452   1.818  15.669  1.00  0.00     0.059 A 
ATOM    101  C   UNL     1       8.369   0.408  16.152  1.00  0.00     0.059 A 
ATOM    102  F   UNL     1       9.476  -0.689  14.402  1.00  0.00    -0.206 F 
ATOM    103  C   UNL     1       7.356   1.265  16.578  1.00  0.00     0.060 A 
BRANCH 103 104
ATOM    104  S   UNL     1       7.174   1.662  18.329  1.00  0.00     0.124 S 
ATOM    105  O   UNL     1       7.617   3.052  18.363  1.00  0.00    -0.237 OA
ATOM    106  O   UNL     1       5.747   1.446  18.550  1.00  0.00    -0.237 OA
ATOM    107  O   UNL     1       8.057   0.706  18.989  1.00  0.00    -0.744 OA
ENDBRANCH 103 104
ENDBRANCH  71  96
ENDBRANCH  45  46
ENDBRANCH  37  40
ENDBRANCH  35  36
ENDBRANCH  34  35
ENDBRANCH  33  34
ENDBRANCH   1  33
TORSDOF 21
