REMARK SMILES O=C(CCC(=O)N1CCC(c2nnc3ccccn23)CC1)NCCCCCCNC(=O)c1ccc(-c2c3nc(c(-c4c(F)cc(S(=O)(=O)[O-])cc4F)c4ccc([nH]4)c(-c4c(F)cc(S(=O)(=O)[O-])cc4F)c4nc(c(-c5c(F)cc(S(=O)(=O)[O-])cc5F)c5ccc2[nH]5)C=C4)C=C3)cc1
REMARK SMILES IDX 25 1 24 2 23 3 22 4 1 5 2 6 3 8 4 9 5 10 6 11 7 12 8 13
REMARK SMILES IDX 21 14 9 15 20 16 10 17 11 18 12 19 19 20 13 21 14 22 18 23
REMARK SMILES IDX 15 24 17 25 16 26 26 27 27 28 28 29 29 30 30 31 31 33 32 34
REMARK SMILES IDX 33 35 97 36 34 37 96 38 35 39 36 40 37 41 90 42 38 43 95 44
REMARK SMILES IDX 89 45 91 46 39 47 94 48 88 49 87 50 40 52 74 53 53 54 73 55
REMARK SMILES IDX 54 56 57 57 72 58 92 59 55 60 56 61 71 63 93 64 58 65 41 66
REMARK SMILES IDX 42 67 51 68 43 69 44 70 50 71 52 72 45 73 46 74 47 75 48 76
REMARK SMILES IDX 49 77 75 78 76 79 85 80 77 81 78 82 84 83 86 84 79 85 80 86
REMARK SMILES IDX 81 87 82 88 83 89 59 90 60 91 69 92 61 93 62 94 68 95 70 96
REMARK SMILES IDX 63 97 64 98 65 99 66 100 67 101
REMARK H PARENT 22 7 29 32 91 51 57 62
REMARK Flexibility Score: inf
ROOT
ATOM      1  C   UNL     1       5.318   3.001   0.850  1.00  0.00     0.002 C 
ENDROOT
BRANCH   1   2
ATOM      2  C   UNL     1       4.072   2.847   1.962  1.00  0.00     0.021 C 
BRANCH   2   3
ATOM      3  C   UNL     1       2.779   1.902   2.074  1.00  0.00     0.116 C 
BRANCH   3   4
ATOM      4  N   UNL     1       3.084   0.476   1.844  1.00  0.00    -0.356 N 
ATOM      5  O   UNL     1       1.164  -0.304   0.811  1.00  0.00    -0.275 OA
ATOM      6  C   UNL     1       2.357  -0.421   1.072  1.00  0.00     0.220 C 
ATOM      7  H   UNL     1       3.891   0.123   2.285  1.00  0.00     0.163 HD
BRANCH   6   8
ATOM      8  C   UNL     1       3.218  -1.566   0.514  1.00  0.00     0.110 C 
BRANCH   8   9
ATOM      9  C   UNL     1       3.227  -1.798  -1.017  1.00  0.00     0.110 C 
BRANCH   9  10
ATOM     10  C   UNL     1       4.067  -0.863  -1.927  1.00  0.00     0.223 C 
ATOM     11  O   UNL     1       5.258  -1.108  -2.131  1.00  0.00    -0.275 OA
ATOM     12  N   UNL     1       3.419   0.236  -2.510  1.00  0.00    -0.343 N 
ATOM     13  C   UNL     1       4.075   1.195  -3.390  1.00  0.00     0.120 C 
ATOM     14  C   UNL     1       2.359   0.858  -1.800  1.00  0.00     0.120 C 
ATOM     15  C   UNL     1       3.923   2.732  -2.960  1.00  0.00     0.033 C 
ATOM     16  C   UNL     1       3.123   1.802  -0.897  1.00  0.00     0.033 C 
ATOM     17  C   UNL     1       3.218   3.152  -1.528  1.00  0.00     0.062 C 
BRANCH  17  18
ATOM     18  C   UNL     1       3.374   4.447  -0.306  1.00  0.00     0.140 A 
ATOM     19  N   UNL     1       2.297   4.669   0.463  1.00  0.00    -0.134 NA
ATOM     20  N   UNL     1       4.461   5.633   0.181  1.00  0.00    -0.286 N 
ATOM     21  N   UNL     1       2.091   6.004   0.767  1.00  0.00    -0.130 NA
ATOM     22  C   UNL     1       3.047   6.718   0.225  1.00  0.00     0.160 A 
ATOM     23  C   UNL     1       6.057   6.308  -0.551  1.00  0.00     0.095 A 
ATOM     24  C   UNL     1       3.072   8.204  -0.777  1.00  0.00     0.050 A 
ATOM     25  C   UNL     1       5.989   7.649  -1.548  1.00  0.00     0.019 A 
ATOM     26  C   UNL     1       4.337   8.628  -1.629  1.00  0.00     0.005 A 
ENDBRANCH  17  18
ENDBRANCH   9  10
ENDBRANCH   8   9
ENDBRANCH   6   8
ENDBRANCH   3   4
ENDBRANCH   2   3
ENDBRANCH   1   2
BRANCH   1  27
ATOM     27  C   UNL     1       5.730   3.623  -0.759  1.00  0.00     0.002 C 
BRANCH  27  28
ATOM     28  C   UNL     1       5.178   4.933  -1.948  1.00  0.00     0.021 C 
BRANCH  28  29
ATOM     29  C   UNL     1       4.305   6.539  -1.550  1.00  0.00     0.116 C 
BRANCH  29  30
ATOM     30  N   UNL     1       4.860   7.671   0.140  1.00  0.00    -0.352 N 
ATOM     31  C   UNL     1       5.837   8.761   0.527  1.00  0.00     0.251 C 
ATOM     32  H   UNL     1       4.315   7.410   0.918  1.00  0.00     0.163 HD
ATOM     33  O   UNL     1       6.898   8.522   1.100  1.00  0.00    -0.269 OA
BRANCH  31  34
ATOM     34  C   UNL     1       5.383  10.168   0.413  1.00  0.00     0.039 A 
ATOM     35  C   UNL     1       5.770  11.042  -0.623  1.00  0.00     0.014 A 
ATOM     36  C   UNL     1       4.279  10.423   1.205  1.00  0.00     0.014 A 
ATOM     37  C   UNL     1       4.909  12.093  -0.974  1.00  0.00     0.010 A 
ATOM     38  C   UNL     1       3.392  11.387   0.786  1.00  0.00     0.010 A 
ATOM     39  C   UNL     1       3.681  12.226  -0.309  1.00  0.00    -0.014 A 
BRANCH  39  40
ATOM     40  C   UNL     1       2.647  13.233  -0.659  1.00  0.00     0.031 A 
ATOM     41  C   UNL     1       2.198  14.177   0.426  1.00  0.00     0.074 A 
ATOM     42  C   UNL     1       1.980  13.176  -1.831  1.00  0.00     0.049 A 
ATOM     43  N   UNL     1       1.178  14.991   0.450  1.00  0.00    -0.248 NA
ATOM     44  C   UNL     1       2.945  14.116   1.698  1.00  0.00     0.031 C 
ATOM     45  C   UNL     1       2.225  12.220  -2.914  1.00  0.00     0.029 A 
ATOM     46  N   UNL     1       0.926  13.926  -2.293  1.00  0.00    -0.354 N 
ATOM     47  C   UNL     1       1.148  15.497   1.743  1.00  0.00     0.074 A 
ATOM     48  C   UNL     1       2.141  14.782   2.507  1.00  0.00     0.031 C 
ATOM     49  C   UNL     1       1.360  12.454  -3.918  1.00  0.00     0.029 A 
ATOM     50  C   UNL     1       0.493  13.569  -3.551  1.00  0.00     0.049 A 
ATOM     51  H   UNL     1       0.516  14.653  -1.772  1.00  0.00     0.167 HD
ATOM     52  C   UNL     1       0.424  16.528   2.235  1.00  0.00     0.037 A 
ATOM     53  C   UNL     1      -0.479  14.101  -4.321  1.00  0.00     0.037 A 
ATOM     54  C   UNL     1      -0.505  17.276   1.440  1.00  0.00     0.049 A 
ATOM     55  C   UNL     1      -1.235  15.297  -3.796  1.00  0.00     0.074 A 
ATOM     56  C   UNL     1      -1.220  18.407   1.779  1.00  0.00     0.029 A 
ATOM     57  N   UNL     1      -0.834  16.965   0.127  1.00  0.00    -0.354 N 
ATOM     58  N   UNL     1      -1.155  15.868  -2.615  1.00  0.00    -0.248 NA
ATOM     59  C   UNL     1      -2.187  15.941  -4.710  1.00  0.00     0.031 C 
ATOM     60  C   UNL     1      -2.011  18.760   0.679  1.00  0.00     0.029 A 
ATOM     61  C   UNL     1      -1.751  17.876  -0.358  1.00  0.00     0.049 A 
ATOM     62  H   UNL     1      -0.468  16.206  -0.382  1.00  0.00     0.167 HD
ATOM     63  C   UNL     1      -2.019  16.957  -2.657  1.00  0.00     0.074 A 
ATOM     64  C   UNL     1      -2.604  16.970  -3.984  1.00  0.00     0.031 C 
ATOM     65  C   UNL     1      -2.301  17.868  -1.692  1.00  0.00     0.037 A 
BRANCH  52  66
ATOM     66  C   UNL     1       0.675  16.911   3.668  1.00  0.00     0.058 A 
ATOM     67  C   UNL     1       1.931  17.392   4.086  1.00  0.00     0.135 A 
ATOM     68  C   UNL     1      -0.314  16.738   4.647  1.00  0.00     0.135 A 
ATOM     69  F   UNL     1       2.922  17.563   3.196  1.00  0.00    -0.206 F 
ATOM     70  C   UNL     1       2.220  17.608   5.428  1.00  0.00     0.059 A 
ATOM     71  C   UNL     1      -0.059  16.991   5.993  1.00  0.00     0.059 A 
ATOM     72  F   UNL     1      -1.532  16.289   4.307  1.00  0.00    -0.206 F 
ATOM     73  C   UNL     1       1.220  17.395   6.375  1.00  0.00     0.060 A 
BRANCH  73  74
ATOM     74  S   UNL     1       1.626  17.641   8.116  1.00  0.00     0.124 S 
ATOM     75  O   UNL     1       2.437  16.460   8.395  1.00  0.00    -0.237 OA
ATOM     76  O   UNL     1       2.345  18.911   8.092  1.00  0.00    -0.237 OA
ATOM     77  O   UNL     1       0.320  17.675   8.767  1.00  0.00    -0.744 OA
ENDBRANCH  73  74
ENDBRANCH  52  66
BRANCH  53  78
ATOM     78  C   UNL     1      -0.719  13.582  -5.698  1.00  0.00     0.058 A 
ATOM     79  C   UNL     1      -0.309  14.317  -6.822  1.00  0.00     0.135 A 
ATOM     80  C   UNL     1      -1.330  12.339  -5.926  1.00  0.00     0.135 A 
ATOM     81  F   UNL     1       0.274  15.514  -6.662  1.00  0.00    -0.206 F 
ATOM     82  C   UNL     1      -0.503  13.847  -8.119  1.00  0.00     0.059 A 
ATOM     83  C   UNL     1      -1.517  11.838  -7.214  1.00  0.00     0.059 A 
ATOM     84  F   UNL     1      -1.728  11.586  -4.889  1.00  0.00    -0.206 F 
ATOM     85  C   UNL     1      -1.102  12.601  -8.305  1.00  0.00     0.060 A 
BRANCH  85  86
ATOM     86  S   UNL     1      -1.274  11.970  -9.991  1.00  0.00     0.124 S 
ATOM     87  O   UNL     1      -2.304  12.848 -10.533  1.00  0.00    -0.237 OA
ATOM     88  O   UNL     1       0.072  12.161 -10.525  1.00  0.00    -0.237 OA
ATOM     89  O   UNL     1      -1.669  10.579  -9.791  1.00  0.00    -0.744 OA
ENDBRANCH  85  86
ENDBRANCH  53  78
BRANCH  65  90
ATOM     90  C   UNL     1      -3.255  18.976  -2.036  1.00  0.00     0.058 A 
ATOM     91  C   UNL     1      -4.633  18.747  -2.161  1.00  0.00     0.135 A 
ATOM     92  C   UNL     1      -2.792  20.297  -2.145  1.00  0.00     0.135 A 
ATOM     93  F   UNL     1      -5.123  17.501  -2.068  1.00  0.00    -0.206 F 
ATOM     94  C   UNL     1      -5.520  19.791  -2.395  1.00  0.00     0.059 A 
ATOM     95  C   UNL     1      -3.664  21.360  -2.349  1.00  0.00     0.059 A 
ATOM     96  F   UNL     1      -1.483  20.569  -2.018  1.00  0.00    -0.206 F 
ATOM     97  C   UNL     1      -5.027  21.095  -2.481  1.00  0.00     0.060 A 
BRANCH  97  98
ATOM     98  S   UNL     1      -6.196  22.446  -2.729  1.00  0.00     0.124 S 
ATOM     99  O   UNL     1      -6.563  22.262  -4.129  1.00  0.00    -0.237 OA
ATOM    100  O   UNL     1      -7.239  22.139  -1.755  1.00  0.00    -0.237 OA
ATOM    101  O   UNL     1      -5.406  23.638  -2.438  1.00  0.00    -0.744 OA
ENDBRANCH  97  98
ENDBRANCH  65  90
ENDBRANCH  39  40
ENDBRANCH  31  34
ENDBRANCH  29  30
ENDBRANCH  28  29
ENDBRANCH  27  28
ENDBRANCH   1  27
TORSDOF 19
