REMARK SMILES O=C(CC(=O)c1ccccc1)Nc1cccc(C(=O)NCCCCCCNC(=O)c2ccc(-c3c4nc(c(-c5c(F)cc(S(=O)(=O)[O-])cc5F)c5ccc([nH]5)c(-c5c(F)cc(S(=O)(=O)[O-])cc5F)c5nc(c(-c6c(F)cc(S(=O)(=O)[O-])cc6F)c6ccc3[nH]6)C=C5)C=C4)cc2)c1
REMARK SMILES IDX 23 1 22 2 21 3 20 4 18 5 19 6 17 8 13 9 14 10 96 11 15 12
REMARK SMILES IDX 16 13 12 14 1 15 2 16 3 18 4 19 5 20 6 21 7 22 11 23 8 24
REMARK SMILES IDX 10 25 9 26 24 27 25 28 26 29 27 30 28 31 29 33 30 34 31 35
REMARK SMILES IDX 95 36 32 37 94 38 33 39 34 40 35 41 88 42 36 43 93 44 87 45
REMARK SMILES IDX 89 46 37 47 92 48 86 49 85 50 38 52 72 53 51 54 71 55 52 56
REMARK SMILES IDX 55 57 70 58 90 59 53 60 54 61 69 63 91 64 56 65 39 66 40 67
REMARK SMILES IDX 49 68 41 69 42 70 48 71 50 72 43 73 44 74 45 75 46 76 47 77
REMARK SMILES IDX 73 78 74 79 83 80 75 81 76 82 82 83 84 84 77 85 78 86 79 87
REMARK SMILES IDX 80 88 81 89 57 90 58 91 67 92 59 93 60 94 66 95 68 96 61 97
REMARK SMILES IDX 62 98 63 99 64 100 65 101
REMARK H PARENT 20 7 12 17 27 32 89 51 55 62
REMARK Flexibility Score: inf
ROOT
ATOM      1  C   UNL     1      -0.719   3.002  -4.763  1.00  0.00     0.002 C 
ENDROOT
BRANCH   1   2
ATOM      2  C   UNL     1       0.470   2.119  -4.395  1.00  0.00     0.021 C 
BRANCH   2   3
ATOM      3  C   UNL     1       0.167   0.915  -3.512  1.00  0.00     0.116 C 
BRANCH   3   4
ATOM      4  N   UNL     1      -0.654  -0.116  -4.139  1.00  0.00    -0.352 N 
ATOM      5  C   UNL     1      -0.567  -1.494  -4.056  1.00  0.00     0.251 C 
ATOM      6  O   UNL     1      -1.354  -2.193  -4.690  1.00  0.00    -0.269 OA
ATOM      7  H   UNL     1      -1.382   0.221  -4.710  1.00  0.00     0.163 HD
BRANCH   5   8
ATOM      8  C   UNL     1       0.515  -2.145  -3.269  1.00  0.00     0.041 A 
ATOM      9  C   UNL     1       2.216  -1.933  -1.564  1.00  0.00     0.041 A 
ATOM     10  C   UNL     1       2.854  -3.068  -2.071  1.00  0.00     0.026 A 
ATOM     11  C   UNL     1       0.974  -1.581  -2.081  1.00  0.00     0.040 A 
ATOM     12  C   UNL     1       2.289  -3.775  -3.139  1.00  0.00     0.003 A 
ATOM     13  C   UNL     1       1.141  -3.290  -3.767  1.00  0.00     0.014 A 
BRANCH   9  14
ATOM     14  N   UNL     1       2.893  -1.141  -0.608  1.00  0.00    -0.326 N 
ATOM     15  O   UNL     1       1.380   0.613  -0.336  1.00  0.00    -0.274 OA
ATOM     16  C   UNL     1       2.432   0.044  -0.049  1.00  0.00     0.232 C 
ATOM     17  H   UNL     1       3.775  -1.460  -0.310  1.00  0.00     0.169 HD
BRANCH  16  18
ATOM     18  C   UNL     1       3.345   0.678   0.959  1.00  0.00     0.181 C 
BRANCH  18  19
ATOM     19  C   UNL     1       4.117  -0.227   1.873  1.00  0.00     0.172 C 
ATOM     20  O   UNL     1       5.349  -0.189   1.886  1.00  0.00    -0.294 OA
BRANCH  19  21
ATOM     21  C   UNL     1       3.434  -1.179   2.796  1.00  0.00     0.018 A 
ATOM     22  C   UNL     1       4.062  -1.438   4.021  1.00  0.00     0.012 A 
ATOM     23  C   UNL     1       2.283  -1.900   2.457  1.00  0.00     0.012 A 
ATOM     24  C   UNL     1       3.567  -2.423   4.876  1.00  0.00     0.001 A 
ATOM     25  C   UNL     1       1.809  -2.908   3.300  1.00  0.00     0.001 A 
ATOM     26  C   UNL     1       2.453  -3.172   4.505  1.00  0.00     0.000 A 
ENDBRANCH  19  21
ENDBRANCH  18  19
ENDBRANCH  16  18
ENDBRANCH   9  14
ENDBRANCH   5   8
ENDBRANCH   3   4
ENDBRANCH   2   3
ENDBRANCH   1   2
BRANCH   1  27
ATOM     27  C   UNL     1      -1.546   3.548  -3.596  1.00  0.00     0.002 C 
BRANCH  27  28
ATOM     28  C   UNL     1      -0.774   4.283  -2.496  1.00  0.00     0.021 C 
BRANCH  28  29
ATOM     29  C   UNL     1       0.117   5.432  -2.957  1.00  0.00     0.116 C 
BRANCH  29  30
ATOM     30  N   UNL     1      -0.622   6.474  -3.648  1.00  0.00    -0.352 N 
ATOM     31  C   UNL     1      -0.632   7.832  -3.439  1.00  0.00     0.251 C 
ATOM     32  H   UNL     1      -1.205   6.160  -4.376  1.00  0.00     0.163 HD
ATOM     33  O   UNL     1      -1.452   8.528  -4.032  1.00  0.00    -0.269 OA
BRANCH  31  34
ATOM     34  C   UNL     1       0.322   8.459  -2.495  1.00  0.00     0.039 A 
ATOM     35  C   UNL     1      -0.140   9.473  -1.650  1.00  0.00     0.014 A 
ATOM     36  C   UNL     1       1.669   8.086  -2.461  1.00  0.00     0.014 A 
ATOM     37  C   UNL     1       0.736  10.079  -0.745  1.00  0.00     0.010 A 
ATOM     38  C   UNL     1       2.523   8.640  -1.508  1.00  0.00     0.010 A 
ATOM     39  C   UNL     1       2.070   9.652  -0.647  1.00  0.00    -0.014 A 
BRANCH  39  40
ATOM     40  C   UNL     1       3.004  10.268   0.333  1.00  0.00     0.031 A 
ATOM     41  C   UNL     1       4.213  11.029  -0.147  1.00  0.00     0.074 A 
ATOM     42  C   UNL     1       2.790  10.105   1.655  1.00  0.00     0.049 A 
ATOM     43  N   UNL     1       5.165  11.594   0.551  1.00  0.00    -0.248 NA
ATOM     44  C   UNL     1       4.389  11.151  -1.604  1.00  0.00     0.031 C 
ATOM     45  C   UNL     1       1.684   9.348   2.246  1.00  0.00     0.029 A 
ATOM     46  N   UNL     1       3.497  10.557   2.741  1.00  0.00    -0.354 N 
ATOM     47  C   UNL     1       6.057  12.120  -0.377  1.00  0.00     0.074 A 
ATOM     48  C   UNL     1       5.560  11.766  -1.688  1.00  0.00     0.031 C 
ATOM     49  C   UNL     1       1.777   9.404   3.584  1.00  0.00     0.029 A 
ATOM     50  C   UNL     1       2.965  10.169   3.949  1.00  0.00     0.049 A 
ATOM     51  H   UNL     1       4.309  11.108   2.663  1.00  0.00     0.167 HD
ATOM     52  C   UNL     1       7.176  12.851  -0.157  1.00  0.00     0.037 A 
ATOM     53  C   UNL     1       3.390  10.396   5.208  1.00  0.00     0.037 A 
ATOM     54  C   UNL     1       7.647  13.231   1.151  1.00  0.00     0.049 A 
ATOM     55  C   UNL     1       4.626  11.229   5.424  1.00  0.00     0.074 A 
ATOM     56  C   UNL     1       8.735  14.022   1.476  1.00  0.00     0.029 A 
ATOM     57  N   UNL     1       7.059  12.849   2.348  1.00  0.00    -0.354 N 
ATOM     58  N   UNL     1       5.421  11.773   4.533  1.00  0.00    -0.248 NA
ATOM     59  C   UNL     1       5.017  11.490   6.816  1.00  0.00     0.031 C 
ATOM     60  C   UNL     1       8.832  14.081   2.870  1.00  0.00     0.029 A 
ATOM     61  C   UNL     1       7.771  13.375   3.413  1.00  0.00     0.049 A 
ATOM     62  H   UNL     1       6.255  12.287   2.429  1.00  0.00     0.167 HD
ATOM     63  C   UNL     1       6.382  12.471   5.257  1.00  0.00     0.074 A 
ATOM     64  C   UNL     1       6.063  12.289   6.657  1.00  0.00     0.031 C 
ATOM     65  C   UNL     1       7.432  13.200   4.803  1.00  0.00     0.037 A 
BRANCH  52  66
ATOM     66  C   UNL     1       7.971  13.303  -1.352  1.00  0.00     0.058 A 
ATOM     67  C   UNL     1       7.494  14.292  -2.227  1.00  0.00     0.135 A 
ATOM     68  C   UNL     1       9.257  12.787  -1.589  1.00  0.00     0.135 A 
ATOM     69  F   UNL     1       6.266  14.809  -2.058  1.00  0.00    -0.206 F 
ATOM     70  C   UNL     1       8.253  14.742  -3.302  1.00  0.00     0.059 A 
ATOM     71  C   UNL     1      10.046  13.243  -2.642  1.00  0.00     0.059 A 
ATOM     72  F   UNL     1       9.763  11.838  -0.786  1.00  0.00    -0.206 F 
ATOM     73  C   UNL     1       9.531  14.215  -3.498  1.00  0.00     0.060 A 
BRANCH  73  74
ATOM     74  S   UNL     1      10.516  14.834  -4.879  1.00  0.00     0.124 S 
ATOM     75  O   UNL     1       9.823  14.243  -6.020  1.00  0.00    -0.237 OA
ATOM     76  O   UNL     1      10.380  16.280  -4.734  1.00  0.00    -0.237 OA
ATOM     77  O   UNL     1      11.849  14.303  -4.612  1.00  0.00    -0.744 OA
ENDBRANCH  73  74
ENDBRANCH  52  66
BRANCH  53  78
ATOM     78  C   UNL     1       2.634   9.844   6.365  1.00  0.00     0.058 A 
ATOM     79  C   UNL     1       1.938  10.685   7.247  1.00  0.00     0.135 A 
ATOM     80  C   UNL     1       2.604   8.464   6.622  1.00  0.00     0.135 A 
ATOM     81  F   UNL     1       1.938  12.012   7.048  1.00  0.00    -0.206 F 
ATOM     82  C   UNL     1       1.267  10.183   8.358  1.00  0.00     0.059 A 
ATOM     83  C   UNL     1       1.915   7.936   7.709  1.00  0.00     0.059 A 
ATOM     84  F   UNL     1       3.237   7.612   5.799  1.00  0.00    -0.206 F 
ATOM     85  C   UNL     1       1.263   8.806   8.582  1.00  0.00     0.060 A 
BRANCH  85  86
ATOM     86  S   UNL     1       0.373   8.161  10.015  1.00  0.00     0.124 S 
ATOM     87  O   UNL     1       1.253   8.556  11.108  1.00  0.00    -0.237 OA
ATOM     88  O   UNL     1      -0.900   8.870   9.930  1.00  0.00    -0.237 OA
ATOM     89  O   UNL     1       0.302   6.728   9.747  1.00  0.00    -0.744 OA
ENDBRANCH  85  86
ENDBRANCH  53  78
BRANCH  65  90
ATOM     90  C   UNL     1       8.281  13.904   5.826  1.00  0.00     0.058 A 
ATOM     91  C   UNL     1       9.148  13.207   6.682  1.00  0.00     0.135 A 
ATOM     92  C   UNL     1       8.254  15.306   5.921  1.00  0.00     0.135 A 
ATOM     93  F   UNL     1       9.211  11.867   6.634  1.00  0.00    -0.206 F 
ATOM     94  C   UNL     1       9.931  13.871   7.621  1.00  0.00     0.059 A 
ATOM     95  C   UNL     1       9.052  15.992   6.831  1.00  0.00     0.059 A 
ATOM     96  F   UNL     1       7.454  16.023   5.117  1.00  0.00    -0.206 F 
ATOM     97  C   UNL     1       9.875  15.264   7.688  1.00  0.00     0.060 A 
BRANCH  97  98
ATOM     98  S   UNL     1      10.908  16.115   8.900  1.00  0.00     0.124 S 
ATOM     99  O   UNL     1      10.203  15.823  10.143  1.00  0.00    -0.237 OA
ATOM    100  O   UNL     1      12.198  15.453   8.732  1.00  0.00    -0.237 OA
ATOM    101  O   UNL     1      10.864  17.508   8.465  1.00  0.00    -0.744 OA
ENDBRANCH  97  98
ENDBRANCH  65  90
ENDBRANCH  39  40
ENDBRANCH  31  34
ENDBRANCH  29  30
ENDBRANCH  28  29
ENDBRANCH  27  28
ENDBRANCH   1  27
TORSDOF 20
