REMARK SMILES CCN(CC(=O)NC(C)C)C(=O)N[C@H]1C=C[C@H](C(=O)NCCCCCCNC(=O)c2ccc(-c3c4nc(c(-c5c(F)cc(S(=O)(=O)[O-])cc5F)c5ccc([nH]5)c(-c5c(F)cc(S(=O)(=O)[O-])cc5F)c5nc(c(-c6c(F)cc(S(=O)(=O)[O-])cc6F)c6ccc3[nH]6)C=C5)C=C4)cc2)C1
REMARK SMILES IDX 22 1 21 2 20 3 18 4 19 5 17 7 14 8 15 9 96 10 16 11 13 12
REMARK SMILES IDX 11 13 12 14 3 16 2 17 1 18 4 19 5 20 6 21 7 22 8 24 9 25
REMARK SMILES IDX 10 26 23 27 24 28 25 29 26 30 27 31 28 32 29 34 30 35 31 36
REMARK SMILES IDX 95 37 32 38 94 39 33 40 34 41 35 42 88 43 36 44 93 45 87 46
REMARK SMILES IDX 89 47 37 48 92 49 86 50 85 51 38 53 72 54 51 55 71 56 52 57
REMARK SMILES IDX 55 58 70 59 90 60 53 61 54 62 69 64 91 65 56 66 39 67 40 68
REMARK SMILES IDX 49 69 41 70 42 71 48 72 50 73 43 74 44 75 45 76 46 77 47 78
REMARK SMILES IDX 73 79 74 80 83 81 75 82 76 83 82 84 84 85 77 86 78 87 79 88
REMARK SMILES IDX 80 89 81 90 57 91 58 92 67 93 59 94 60 95 66 96 68 97 61 98
REMARK SMILES IDX 62 99 63 100 64 101 65 102
REMARK H PARENT 20 6 13 15 7 23 27 33 89 52 55 63
REMARK Flexibility Score: inf
ROOT
ATOM      1  C   UNL     1      -0.148   2.940   5.568  1.00  0.00     0.021 C 
ENDROOT
BRANCH   1   2
ATOM      2  C   UNL     1       0.808   2.991   6.764  1.00  0.00     0.116 C 
BRANCH   2   3
ATOM      3  N   UNL     1       0.528   1.899   7.670  1.00  0.00    -0.356 N 
ATOM      4  C   UNL     1       1.175   0.720   7.877  1.00  0.00     0.227 C 
ATOM      5  O   UNL     1       0.677  -0.032   8.722  1.00  0.00    -0.274 OA
ATOM      6  H   UNL     1      -0.268   2.031   8.235  1.00  0.00     0.163 HD
BRANCH   4   7
ATOM      7  C   UNL     1       2.522   0.405   7.192  1.00  0.00     0.103 C 
ATOM      8  C   UNL     1       2.106  -0.767   5.116  1.00  0.00     0.107 C 
ATOM      9  C   UNL     1       2.586  -1.720   6.156  1.00  0.00    -0.006 C 
ATOM     10  C   UNL     1       2.615   0.559   5.668  1.00  0.00     0.047 C 
ATOM     11  C   UNL     1       2.810  -1.077   7.310  1.00  0.00    -0.016 C 
BRANCH   8  12
ATOM     12  N   UNL     1       2.666  -1.093   3.831  1.00  0.00    -0.332 N 
ATOM     13  C   UNL     1       2.229  -1.202   2.566  1.00  0.00     0.318 C 
ATOM     14  O   UNL     1       3.121  -1.394   1.730  1.00  0.00    -0.249 OA
ATOM     15  H   UNL     1       3.628  -1.290   3.898  1.00  0.00     0.165 HD
BRANCH  13  16
ATOM     16  N   UNL     1       0.914  -1.133   2.191  1.00  0.00    -0.316 N 
BRANCH  16  17
ATOM     17  C   UNL     1       0.644  -1.135   0.746  1.00  0.00     0.118 C 
ATOM     18  C   UNL     1       0.993   0.179   0.061  1.00  0.00     0.027 C 
ENDBRANCH  16  17
BRANCH  16  19
ATOM     19  C   UNL     1      -0.253  -0.968   3.064  1.00  0.00     0.221 C 
BRANCH  19  20
ATOM     20  C   UNL     1      -0.540  -2.127   4.040  1.00  0.00     0.239 C 
ATOM     21  O   UNL     1      -1.042  -1.907   5.148  1.00  0.00    -0.273 OA
ATOM     22  N   UNL     1      -0.358  -3.428   3.684  1.00  0.00    -0.352 N 
ATOM     23  H   UNL     1      -0.097  -4.048   4.403  1.00  0.00     0.163 HD
BRANCH  22  24
ATOM     24  C   UNL     1      -0.506  -4.000   2.359  1.00  0.00     0.075 C 
ATOM     25  C   UNL     1       0.731  -4.785   1.948  1.00  0.00     0.030 C 
ATOM     26  C   UNL     1      -1.754  -4.881   2.352  1.00  0.00     0.030 C 
ENDBRANCH  22  24
ENDBRANCH  19  20
ENDBRANCH  16  19
ENDBRANCH  13  16
ENDBRANCH   8  12
ENDBRANCH   4   7
ENDBRANCH   2   3
ENDBRANCH   1   2
BRANCH   1  27
ATOM     27  C   UNL     1      -1.547   3.488   5.881  1.00  0.00     0.002 C 
BRANCH  27  28
ATOM     28  C   UNL     1      -1.580   4.967   6.284  1.00  0.00     0.002 C 
BRANCH  28  29
ATOM     29  C   UNL     1      -0.939   5.923   5.274  1.00  0.00     0.021 C 
BRANCH  29  30
ATOM     30  C   UNL     1      -1.621   5.938   3.909  1.00  0.00     0.116 C 
BRANCH  30  31
ATOM     31  N   UNL     1      -2.981   6.452   3.998  1.00  0.00    -0.352 N 
ATOM     32  C   UNL     1      -3.530   7.556   3.398  1.00  0.00     0.251 C 
ATOM     33  H   UNL     1      -3.592   5.933   4.570  1.00  0.00     0.163 HD
ATOM     34  O   UNL     1      -4.618   7.986   3.782  1.00  0.00    -0.269 OA
BRANCH  32  35
ATOM     35  C   UNL     1      -2.811   8.232   2.299  1.00  0.00     0.039 A 
ATOM     36  C   UNL     1      -2.728   9.626   2.295  1.00  0.00     0.014 A 
ATOM     37  C   UNL     1      -2.223   7.489   1.271  1.00  0.00     0.014 A 
ATOM     38  C   UNL     1      -2.002  10.272   1.291  1.00  0.00     0.010 A 
ATOM     39  C   UNL     1      -1.443   8.129   0.312  1.00  0.00     0.010 A 
ATOM     40  C   UNL     1      -1.323   9.527   0.312  1.00  0.00    -0.014 A 
BRANCH  40  41
ATOM     41  C   UNL     1      -0.468  10.188  -0.707  1.00  0.00     0.031 A 
ATOM     42  C   UNL     1      -0.816  10.084  -2.169  1.00  0.00     0.074 A 
ATOM     43  C   UNL     1       0.662  10.814  -0.321  1.00  0.00     0.049 A 
ATOM     44  N   UNL     1      -0.146  10.513  -3.207  1.00  0.00    -0.248 NA
ATOM     45  C   UNL     1      -2.068   9.388  -2.511  1.00  0.00     0.031 C 
ATOM     46  C   UNL     1       1.129  10.941   1.063  1.00  0.00     0.029 A 
ATOM     47  N   UNL     1       1.636  11.446  -1.054  1.00  0.00    -0.354 N 
ATOM     48  C   UNL     1      -0.878  10.119  -4.321  1.00  0.00     0.074 A 
ATOM     49  C   UNL     1      -2.029   9.389  -3.836  1.00  0.00     0.031 C 
ATOM     50  C   UNL     1       2.289  11.618   1.078  1.00  0.00     0.029 A 
ATOM     51  C   UNL     1       2.674  11.934  -0.294  1.00  0.00     0.049 A 
ATOM     52  H   UNL     1       1.595  11.541  -2.033  1.00  0.00     0.167 HD
ATOM     53  C   UNL     1      -0.619  10.359  -5.628  1.00  0.00     0.037 A 
ATOM     54  C   UNL     1       3.817  12.547  -0.661  1.00  0.00     0.037 A 
ATOM     55  C   UNL     1       0.507  11.123  -6.100  1.00  0.00     0.049 A 
ATOM     56  C   UNL     1       4.075  12.796  -2.124  1.00  0.00     0.074 A 
ATOM     57  C   UNL     1       0.804  11.496  -7.400  1.00  0.00     0.029 A 
ATOM     58  N   UNL     1       1.522  11.622  -5.299  1.00  0.00    -0.354 N 
ATOM     59  N   UNL     1       3.325  12.495  -3.158  1.00  0.00    -0.248 NA
ATOM     60  C   UNL     1       5.334  13.470  -2.473  1.00  0.00     0.031 C 
ATOM     61  C   UNL     1       2.029  12.169  -7.392  1.00  0.00     0.029 A 
ATOM     62  C   UNL     1       2.464  12.269  -6.081  1.00  0.00     0.049 A 
ATOM     63  H   UNL     1       1.566  11.530  -4.320  1.00  0.00     0.167 HD
ATOM     64  C   UNL     1       4.005  12.974  -4.273  1.00  0.00     0.074 A 
ATOM     65  C   UNL     1       5.217  13.598  -3.787  1.00  0.00     0.031 C 
ATOM     66  C   UNL     1       3.658  12.903  -5.581  1.00  0.00     0.037 A 
BRANCH  53  67
ATOM     67  C   UNL     1      -1.560   9.798  -6.659  1.00  0.00     0.058 A 
ATOM     68  C   UNL     1      -2.842  10.329  -6.859  1.00  0.00     0.135 A 
ATOM     69  C   UNL     1      -1.128   8.782  -7.529  1.00  0.00     0.135 A 
ATOM     70  F   UNL     1      -3.312  11.289  -6.046  1.00  0.00    -0.206 F 
ATOM     71  C   UNL     1      -3.665   9.875  -7.886  1.00  0.00     0.059 A 
ATOM     72  C   UNL     1      -1.923   8.331  -8.578  1.00  0.00     0.059 A 
ATOM     73  F   UNL     1       0.089   8.235  -7.378  1.00  0.00    -0.206 F 
ATOM     74  C   UNL     1      -3.192   8.883  -8.747  1.00  0.00     0.060 A 
BRANCH  74  75
ATOM     75  S   UNL     1      -4.248   8.350 -10.110  1.00  0.00     0.124 S 
ATOM     76  O   UNL     1      -5.291   7.614  -9.400  1.00  0.00    -0.237 OA
ATOM     77  O   UNL     1      -4.659   9.620 -10.700  1.00  0.00    -0.237 OA
ATOM     78  O   UNL     1      -3.359   7.537 -10.934  1.00  0.00    -0.744 OA
ENDBRANCH  74  75
ENDBRANCH  53  67
BRANCH  54  79
ATOM     79  C   UNL     1       4.817  12.963   0.362  1.00  0.00     0.058 A 
ATOM     80  C   UNL     1       5.099  14.318   0.590  1.00  0.00     0.135 A 
ATOM     81  C   UNL     1       5.543  12.014   1.098  1.00  0.00     0.135 A 
ATOM     82  F   UNL     1       4.435  15.265  -0.091  1.00  0.00    -0.206 F 
ATOM     83  C   UNL     1       6.096  14.718   1.474  1.00  0.00     0.059 A 
ATOM     84  C   UNL     1       6.522  12.389   2.013  1.00  0.00     0.059 A 
ATOM     85  F   UNL     1       5.300  10.704   0.936  1.00  0.00    -0.206 F 
ATOM     86  C   UNL     1       6.807  13.744   2.177  1.00  0.00     0.060 A 
BRANCH  86  87
ATOM     87  S   UNL     1       8.104  14.270   3.317  1.00  0.00     0.124 S 
ATOM     88  O   UNL     1       9.155  14.681   2.394  1.00  0.00    -0.237 OA
ATOM     89  O   UNL     1       7.447  15.343   4.057  1.00  0.00    -0.237 OA
ATOM     90  O   UNL     1       8.379  13.063   4.091  1.00  0.00    -0.744 OA
ENDBRANCH  86  87
ENDBRANCH  54  79
BRANCH  66  91
ATOM     91  C   UNL     1       4.575  13.555  -6.580  1.00  0.00     0.058 A 
ATOM     92  C   UNL     1       5.832  13.017  -6.894  1.00  0.00     0.135 A 
ATOM     93  C   UNL     1       4.165  14.708  -7.270  1.00  0.00     0.135 A 
ATOM     94  F   UNL     1       6.276  11.920  -6.259  1.00  0.00    -0.206 F 
ATOM     95  C   UNL     1       6.663  13.614  -7.836  1.00  0.00     0.059 A 
ATOM     96  C   UNL     1       4.965  15.303  -8.240  1.00  0.00     0.059 A 
ATOM     97  F   UNL     1       2.966  15.257  -7.018  1.00  0.00    -0.206 F 
ATOM     98  C   UNL     1       6.219  14.755  -8.507  1.00  0.00     0.060 A 
BRANCH  98  99
ATOM     99  S   UNL     1       7.293  15.501  -9.751  1.00  0.00     0.124 S 
ATOM    100  O   UNL     1       8.324  16.114  -8.920  1.00  0.00    -0.237 OA
ATOM    101  O   UNL     1       7.715  14.343 -10.533  1.00  0.00    -0.237 OA
ATOM    102  O   UNL     1       6.411  16.433 -10.448  1.00  0.00    -0.744 OA
ENDBRANCH  98  99
ENDBRANCH  66  91
ENDBRANCH  40  41
ENDBRANCH  32  35
ENDBRANCH  30  31
ENDBRANCH  29  30
ENDBRANCH  28  29
ENDBRANCH  27  28
ENDBRANCH   1  27
TORSDOF 22
