REMARK SMILES C[C@@H]1[C@H](C(=O)NCCCCCCNC(=O)c2ccc(-c3c4nc(c(-c5c(F)cc(S(=O)(=O)[O-])cc5F)c5ccc([nH]5)c(-c5c(F)cc(S(=O)(=O)[O-])cc5F)c5nc(c(-c6c(F)cc(S(=O)(=O)[O-])cc6F)c6ccc3[nH]6)C=C5)C=C4)cc2)CC[N@@H+]1[C@@H](C)c1cc(F)cc(F)c1
REMARK SMILES IDX 10 1 9 2 8 3 7 4 6 5 4 6 5 7 3 9 1 10 2 11 84 12 82 13 83 14
REMARK SMILES IDX 85 16 86 17 87 18 88 19 94 20 89 21 92 22 90 23 91 24 93 25
REMARK SMILES IDX 11 26 12 27 13 28 14 29 15 31 16 32 17 33 81 34 18 35 80 36
REMARK SMILES IDX 19 37 20 38 21 39 74 40 22 41 79 42 73 43 75 44 23 45 78 46
REMARK SMILES IDX 72 47 71 48 24 50 58 51 37 52 57 53 38 54 41 55 56 56 76 57
REMARK SMILES IDX 39 58 40 59 55 61 77 62 42 63 25 64 26 65 35 66 27 67 28 68
REMARK SMILES IDX 34 69 36 70 29 71 30 72 31 73 32 74 33 75 59 76 60 77 69 78
REMARK SMILES IDX 61 79 62 80 68 81 70 82 63 83 64 84 65 85 66 86 67 87 43 88
REMARK SMILES IDX 44 89 53 90 45 91 46 92 52 93 54 94 47 95 48 96 49 97 50 98
REMARK SMILES IDX 51 99
REMARK H PARENT 6 8 84 15 13 30 75 49 41 60
REMARK Flexibility Score: inf
ROOT
ATOM      1  C   UNL     1       2.989   3.236   4.473  1.00  0.00     0.002 C 
ENDROOT
BRANCH   1   2
ATOM      2  C   UNL     1       3.567   2.861   3.106  1.00  0.00     0.002 C 
BRANCH   2   3
ATOM      3  C   UNL     1       2.889   1.680   2.409  1.00  0.00     0.021 C 
BRANCH   3   4
ATOM      4  C   UNL     1       1.427   1.913   2.032  1.00  0.00     0.116 C 
BRANCH   4   5
ATOM      5  N   UNL     1       1.314   2.658   0.796  1.00  0.00    -0.356 N 
ATOM      6  C   UNL     1       0.716   2.342  -0.381  1.00  0.00     0.229 C 
ATOM      7  O   UNL     1       0.861   3.146  -1.308  1.00  0.00    -0.275 OA
ATOM      8  H   UNL     1       1.744   3.543   0.811  1.00  0.00     0.163 HD
BRANCH   6   9
ATOM      9  C   UNL     1      -0.117   1.083  -0.600  1.00  0.00     0.142 C 
ATOM     10  C   UNL     1       2.090  -0.337  -0.548  1.00  0.00     0.076 C 
ATOM     11  C   UNL     1       0.577  -0.289  -0.719  1.00  0.00     0.194 C 
ATOM     12  N   UNL     1      -0.254  -1.215   0.056  1.00  0.00    -0.326 N 
ATOM     13  C   UNL     1      -1.281   0.891   0.367  1.00  0.00     0.081 C 
ATOM     14  C   UNL     1      -1.536  -0.605   0.368  1.00  0.00     0.264 C 
ATOM     15  H   UNL     1      -0.370  -1.989  -0.598  1.00  0.00     0.348 HD
BRANCH  12  16
ATOM     16  C   UNL     1       0.280  -2.251   0.934  1.00  0.00     0.212 C 
ATOM     17  C   UNL     1       0.701  -1.732   2.317  1.00  0.00     0.081 C 
BRANCH  16  18
ATOM     18  C   UNL     1      -0.675  -3.448   1.010  1.00  0.00     0.015 A 
ATOM     19  C   UNL     1      -1.341  -3.831   2.188  1.00  0.00     0.049 A 
ATOM     20  C   UNL     1      -0.898  -4.217  -0.147  1.00  0.00     0.049 A 
ATOM     21  C   UNL     1      -2.170  -4.953   2.201  1.00  0.00     0.126 A 
ATOM     22  C   UNL     1      -1.736  -5.330  -0.110  1.00  0.00     0.126 A 
ATOM     23  F   UNL     1      -2.781  -5.301   3.341  1.00  0.00    -0.207 F 
ATOM     24  C   UNL     1      -2.372  -5.712   1.061  1.00  0.00     0.078 A 
ATOM     25  F   UNL     1      -1.928  -6.045  -1.226  1.00  0.00    -0.207 F 
ENDBRANCH  16  18
ENDBRANCH  12  16
ENDBRANCH   6   9
ENDBRANCH   4   5
ENDBRANCH   3   4
ENDBRANCH   2   3
ENDBRANCH   1   2
BRANCH   1  26
ATOM     26  C   UNL     1       2.856   2.088   5.480  1.00  0.00     0.021 C 
BRANCH  26  27
ATOM     27  C   UNL     1       4.129   1.283   5.736  1.00  0.00     0.116 C 
BRANCH  27  28
ATOM     28  N   UNL     1       5.216   2.111   6.227  1.00  0.00    -0.352 N 
ATOM     29  C   UNL     1       5.962   1.994   7.370  1.00  0.00     0.251 C 
ATOM     30  H   UNL     1       5.454   2.872   5.650  1.00  0.00     0.163 HD
ATOM     31  O   UNL     1       6.718   2.913   7.693  1.00  0.00    -0.269 OA
BRANCH  29  32
ATOM     32  C   UNL     1       5.860   0.791   8.225  1.00  0.00     0.039 A 
ATOM     33  C   UNL     1       5.828   0.957   9.613  1.00  0.00     0.014 A 
ATOM     34  C   UNL     1       5.848  -0.495   7.677  1.00  0.00     0.014 A 
ATOM     35  C   UNL     1       5.743  -0.160  10.447  1.00  0.00     0.010 A 
ATOM     36  C   UNL     1       5.701  -1.607   8.507  1.00  0.00     0.010 A 
ATOM     37  C   UNL     1       5.659  -1.451   9.901  1.00  0.00    -0.014 A 
BRANCH  37  38
ATOM     38  C   UNL     1       5.546  -2.642  10.782  1.00  0.00     0.031 A 
ATOM     39  C   UNL     1       6.665  -3.648  10.847  1.00  0.00     0.074 A 
ATOM     40  C   UNL     1       4.422  -2.836  11.499  1.00  0.00     0.049 A 
ATOM     41  N   UNL     1       6.739  -4.756  11.538  1.00  0.00    -0.248 NA
ATOM     42  C   UNL     1       7.844  -3.386  10.007  1.00  0.00     0.031 C 
ATOM     43  C   UNL     1       3.250  -1.958  11.486  1.00  0.00     0.029 A 
ATOM     44  N   UNL     1       4.079  -3.835  12.376  1.00  0.00    -0.354 N 
ATOM     45  C   UNL     1       7.964  -5.327  11.211  1.00  0.00     0.074 A 
ATOM     46  C   UNL     1       8.577  -4.469  10.221  1.00  0.00     0.031 C 
ATOM     47  C   UNL     1       2.327  -2.445  12.332  1.00  0.00     0.029 A 
ATOM     48  C   UNL     1       2.828  -3.681  12.926  1.00  0.00     0.049 A 
ATOM     49  H   UNL     1       4.672  -4.590  12.590  1.00  0.00     0.167 HD
ATOM     50  C   UNL     1       8.536  -6.451  11.708  1.00  0.00     0.037 A 
ATOM     51  C   UNL     1       2.161  -4.448  13.810  1.00  0.00     0.037 A 
ATOM     52  C   UNL     1       7.935  -7.286  12.715  1.00  0.00     0.049 A 
ATOM     53  C   UNL     1       2.822  -5.683  14.357  1.00  0.00     0.074 A 
ATOM     54  C   UNL     1       8.460  -8.412  13.326  1.00  0.00     0.029 A 
ATOM     55  N   UNL     1       6.675  -7.087  13.260  1.00  0.00    -0.354 N 
ATOM     56  N   UNL     1       4.008  -6.173  14.083  1.00  0.00    -0.248 NA
ATOM     57  C   UNL     1       2.059  -6.466  15.339  1.00  0.00     0.031 C 
ATOM     58  C   UNL     1       7.503  -8.914  14.216  1.00  0.00     0.029 A 
ATOM     59  C   UNL     1       6.398  -8.078  14.188  1.00  0.00     0.049 A 
ATOM     60  H   UNL     1       6.067  -6.350  13.023  1.00  0.00     0.167 HD
ATOM     61  C   UNL     1       4.141  -7.309  14.873  1.00  0.00     0.074 A 
ATOM     62  C   UNL     1       2.922  -7.425  15.647  1.00  0.00     0.031 C 
ATOM     63  C   UNL     1       5.179  -8.178  14.951  1.00  0.00     0.037 A 
BRANCH  50  64
ATOM     64  C   UNL     1       9.888  -6.836  11.174  1.00  0.00     0.058 A 
ATOM     65  C   UNL     1      11.042  -6.106  11.501  1.00  0.00     0.135 A 
ATOM     66  C   UNL     1      10.039  -7.965  10.353  1.00  0.00     0.135 A 
ATOM     67  F   UNL     1      10.953  -5.010  12.271  1.00  0.00    -0.206 F 
ATOM     68  C   UNL     1      12.293  -6.462  11.007  1.00  0.00     0.059 A 
ATOM     69  C   UNL     1      11.285  -8.355   9.868  1.00  0.00     0.059 A 
ATOM     70  F   UNL     1       8.969  -8.700  10.010  1.00  0.00    -0.206 F 
ATOM     71  C   UNL     1      12.404  -7.587  10.188  1.00  0.00     0.060 A 
BRANCH  71  72
ATOM     72  S   UNL     1      14.033  -8.036   9.553  1.00  0.00     0.124 S 
ATOM     73  O   UNL     1      14.228  -7.027   8.516  1.00  0.00    -0.237 OA
ATOM     74  O   UNL     1      14.879  -7.900  10.734  1.00  0.00    -0.237 OA
ATOM     75  O   UNL     1      13.846  -9.401   9.073  1.00  0.00    -0.744 OA
ENDBRANCH  71  72
ENDBRANCH  50  64
BRANCH  51  76
ATOM     76  C   UNL     1       0.799  -4.052  14.255  1.00  0.00     0.058 A 
ATOM     77  C   UNL     1       0.579  -3.562  15.551  1.00  0.00     0.135 A 
ATOM     78  C   UNL     1      -0.304  -4.142  13.393  1.00  0.00     0.135 A 
ATOM     79  F   UNL     1       1.602  -3.463  16.413  1.00  0.00    -0.206 F 
ATOM     80  C   UNL     1      -0.689  -3.187  15.982  1.00  0.00     0.059 A 
ATOM     81  C   UNL     1      -1.578  -3.752  13.794  1.00  0.00     0.059 A 
ATOM     82  F   UNL     1      -0.141  -4.588  12.137  1.00  0.00    -0.206 F 
ATOM     83  C   UNL     1      -1.762  -3.285  15.095  1.00  0.00     0.060 A 
BRANCH  83  84
ATOM     84  S   UNL     1      -3.396  -2.748  15.645  1.00  0.00     0.124 S 
ATOM     85  O   UNL     1      -3.795  -3.855  16.506  1.00  0.00    -0.237 OA
ATOM     86  O   UNL     1      -3.095  -1.489  16.321  1.00  0.00    -0.237 OA
ATOM     87  O   UNL     1      -4.142  -2.615  14.397  1.00  0.00    -0.744 OA
ENDBRANCH  83  84
ENDBRANCH  51  76
BRANCH  63  88
ATOM     88  C   UNL     1       5.051  -9.319  15.920  1.00  0.00     0.058 A 
ATOM     89  C   UNL     1       4.213 -10.414  15.658  1.00  0.00     0.135 A 
ATOM     90  C   UNL     1       5.806  -9.338  17.104  1.00  0.00     0.135 A 
ATOM     91  F   UNL     1       3.466 -10.442  14.543  1.00  0.00    -0.206 F 
ATOM     92  C   UNL     1       4.110 -11.479  16.547  1.00  0.00     0.059 A 
ATOM     93  C   UNL     1       5.737 -10.403  17.996  1.00  0.00     0.059 A 
ATOM     94  F   UNL     1       6.629  -8.319  17.396  1.00  0.00    -0.206 F 
ATOM     95  C   UNL     1       4.876 -11.463  17.715  1.00  0.00     0.060 A 
BRANCH  95  96
ATOM     96  S   UNL     1       4.757 -12.863  18.849  1.00  0.00     0.124 S 
ATOM     97  O   UNL     1       3.478 -12.604  19.501  1.00  0.00    -0.237 OA
ATOM     98  O   UNL     1       4.786 -14.006  17.942  1.00  0.00    -0.237 OA
ATOM     99  O   UNL     1       5.936 -12.714  19.697  1.00  0.00    -0.744 OA
ENDBRANCH  95  96
ENDBRANCH  63  88
ENDBRANCH  37  38
ENDBRANCH  29  32
ENDBRANCH  27  28
ENDBRANCH  26  27
ENDBRANCH   1  26
TORSDOF 18
