REMARK SMILES O=C(NCCCCCCNC(=O)C1CCN(c2ccc(C(F)(F)F)cc2[N+](=O)[O-])CC1)c1ccc(-c2c3nc(c(-c4c(F)cc(S(=O)(=O)[O-])cc4F)c4ccc([nH]4)c(-c4c(F)cc(S(=O)(=O)[O-])cc4F)c4nc(c(-c5c(F)cc(S(=O)(=O)[O-])cc5F)c5ccc2[nH]5)C=C4)C=C3)cc1
REMARK SMILES IDX 6 1 5 2 4 3 3 4 1 5 2 6 32 8 33 9 97 10 34 11 96 12 35 13
REMARK SMILES IDX 36 14 37 15 90 16 38 17 95 18 89 19 91 20 39 21 94 22 88 23
REMARK SMILES IDX 87 24 40 26 74 27 53 28 73 29 54 30 57 31 72 32 92 33 55 34
REMARK SMILES IDX 56 35 71 37 93 38 58 39 41 40 42 41 51 42 43 43 44 44 50 45
REMARK SMILES IDX 52 46 45 47 46 48 47 49 48 50 49 51 75 52 76 53 85 54 77 55
REMARK SMILES IDX 78 56 84 57 86 58 79 59 80 60 81 61 82 62 83 63 59 64 60 65
REMARK SMILES IDX 69 66 61 67 62 68 68 69 70 70 63 71 64 72 65 73 66 74 67 75
REMARK SMILES IDX 7 76 8 77 9 78 10 79 11 80 12 82 13 83 14 84 31 85 15 86
REMARK SMILES IDX 30 87 16 88 17 89 18 90 26 91 19 92 25 93 20 94 27 95 28 96
REMARK SMILES IDX 29 97 21 98 22 99 23 100 24 101
REMARK H PARENT 3 7 91 25 57 36 10 81
REMARK Flexibility Score: inf
ROOT
ATOM      1  C   UNL     1       3.630   0.633   3.905  1.00  0.00     0.002 C 
ENDROOT
BRANCH   1   2
ATOM      2  C   UNL     1       4.314   1.036   2.597  1.00  0.00     0.021 C 
BRANCH   2   3
ATOM      3  C   UNL     1       4.226   0.005   1.477  1.00  0.00     0.116 C 
BRANCH   3   4
ATOM      4  N   UNL     1       2.846  -0.282   1.120  1.00  0.00    -0.352 N 
ATOM      5  O   UNL     1       0.967  -0.157  -0.109  1.00  0.00    -0.269 OA
ATOM      6  C   UNL     1       2.190  -0.075  -0.066  1.00  0.00     0.251 C 
ATOM      7  H   UNL     1       2.303  -0.685   1.836  1.00  0.00     0.163 HD
BRANCH   6   8
ATOM      8  C   UNL     1       2.957   0.249  -1.289  1.00  0.00     0.039 A 
ATOM      9  C   UNL     1       4.126  -0.448  -1.605  1.00  0.00     0.014 A 
ATOM     10  C   UNL     1       2.467   1.229  -2.157  1.00  0.00     0.014 A 
ATOM     11  C   UNL     1       4.859  -0.098  -2.734  1.00  0.00     0.010 A 
ATOM     12  C   UNL     1       3.166   1.530  -3.329  1.00  0.00     0.010 A 
ATOM     13  C   UNL     1       4.374   0.878  -3.619  1.00  0.00    -0.014 A 
BRANCH  13  14
ATOM     14  C   UNL     1       5.096   1.136  -4.890  1.00  0.00     0.031 A 
ATOM     15  C   UNL     1       5.741   2.465  -5.161  1.00  0.00     0.074 A 
ATOM     16  C   UNL     1       5.153   0.151  -5.807  1.00  0.00     0.049 A 
ATOM     17  N   UNL     1       6.394   2.859  -6.224  1.00  0.00    -0.248 NA
ATOM     18  C   UNL     1       5.630   3.487  -4.110  1.00  0.00     0.031 C 
ATOM     19  C   UNL     1       4.537  -1.170  -5.659  1.00  0.00     0.029 A 
ATOM     20  N   UNL     1       5.749   0.102  -7.040  1.00  0.00    -0.354 N 
ATOM     21  C   UNL     1       6.758   4.178  -5.981  1.00  0.00     0.074 A 
ATOM     22  C   UNL     1       6.230   4.525  -4.678  1.00  0.00     0.031 C 
ATOM     23  C   UNL     1       4.803  -1.905  -6.748  1.00  0.00     0.029 A 
ATOM     24  C   UNL     1       5.558  -1.092  -7.694  1.00  0.00     0.049 A 
ATOM     25  H   UNL     1       6.263   0.850  -7.421  1.00  0.00     0.167 HD
ATOM     26  C   UNL     1       7.471   5.016  -6.773  1.00  0.00     0.037 A 
ATOM     27  C   UNL     1       5.925  -1.484  -8.928  1.00  0.00     0.037 A 
ATOM     28  C   UNL     1       7.993   4.653  -8.067  1.00  0.00     0.049 A 
ATOM     29  C   UNL     1       6.705  -0.535  -9.790  1.00  0.00     0.074 A 
ATOM     30  C   UNL     1       8.770   5.412  -8.926  1.00  0.00     0.029 A 
ATOM     31  N   UNL     1       7.781   3.434  -8.696  1.00  0.00    -0.354 N 
ATOM     32  N   UNL     1       7.090   0.690  -9.522  1.00  0.00    -0.248 NA
ATOM     33  C   UNL     1       7.102  -1.017 -11.118  1.00  0.00     0.031 C 
ATOM     34  C   UNL     1       8.985   4.670 -10.093  1.00  0.00     0.029 A 
ATOM     35  C   UNL     1       8.388   3.429  -9.943  1.00  0.00     0.049 A 
ATOM     36  H   UNL     1       7.274   2.682  -8.313  1.00  0.00     0.167 HD
ATOM     37  C   UNL     1       7.785   1.123 -10.644  1.00  0.00     0.074 A 
ATOM     38  C   UNL     1       7.783   0.021 -11.585  1.00  0.00     0.031 C 
ATOM     39  C   UNL     1       8.371   2.325 -10.872  1.00  0.00     0.037 A 
BRANCH  26  40
ATOM     40  C   UNL     1       7.706   6.417  -6.273  1.00  0.00     0.058 A 
ATOM     41  C   UNL     1       8.573   6.686  -5.201  1.00  0.00     0.135 A 
ATOM     42  C   UNL     1       7.074   7.509  -6.890  1.00  0.00     0.135 A 
ATOM     43  F   UNL     1       9.196   5.681  -4.566  1.00  0.00    -0.206 F 
ATOM     44  C   UNL     1       8.774   7.982  -4.736  1.00  0.00     0.059 A 
ATOM     45  C   UNL     1       7.281   8.816  -6.458  1.00  0.00     0.059 A 
ATOM     46  F   UNL     1       6.238   7.311  -7.922  1.00  0.00    -0.206 F 
ATOM     47  C   UNL     1       8.119   9.041  -5.367  1.00  0.00     0.060 A 
BRANCH  47  48
ATOM     48  S   UNL     1       8.372  10.713  -4.736  1.00  0.00     0.124 S 
ATOM     49  O   UNL     1       7.597  10.678  -3.499  1.00  0.00    -0.237 OA
ATOM     50  O   UNL     1       9.821  10.770  -4.571  1.00  0.00    -0.237 OA
ATOM     51  O   UNL     1       7.831  11.562  -5.792  1.00  0.00    -0.744 OA
ENDBRANCH  47  48
ENDBRANCH  26  40
BRANCH  27  52
ATOM     52  C   UNL     1       5.539  -2.837  -9.406  1.00  0.00     0.058 A 
ATOM     53  C   UNL     1       6.489  -3.857  -9.547  1.00  0.00     0.135 A 
ATOM     54  C   UNL     1       4.196  -3.150  -9.671  1.00  0.00     0.135 A 
ATOM     55  F   UNL     1       7.785  -3.604  -9.308  1.00  0.00    -0.206 F 
ATOM     56  C   UNL     1       6.124  -5.142  -9.935  1.00  0.00     0.059 A 
ATOM     57  C   UNL     1       3.802  -4.433 -10.035  1.00  0.00     0.059 A 
ATOM     58  F   UNL     1       3.246  -2.212  -9.532  1.00  0.00    -0.206 F 
ATOM     59  C   UNL     1       4.776  -5.422 -10.169  1.00  0.00     0.060 A 
BRANCH  59  60
ATOM     60  S   UNL     1       4.303  -7.111 -10.599  1.00  0.00     0.124 S 
ATOM     61  O   UNL     1       4.762  -7.202 -11.980  1.00  0.00    -0.237 OA
ATOM     62  O   UNL     1       5.052  -7.897  -9.624  1.00  0.00    -0.237 OA
ATOM     63  O   UNL     1       2.855  -7.112 -10.412  1.00  0.00    -0.744 OA
ENDBRANCH  59  60
ENDBRANCH  27  52
BRANCH  39  64
ATOM     64  C   UNL     1       9.077   2.506 -12.187  1.00  0.00     0.058 A 
ATOM     65  C   UNL     1       8.368   2.665 -13.387  1.00  0.00     0.135 A 
ATOM     66  C   UNL     1      10.479   2.570 -12.238  1.00  0.00     0.135 A 
ATOM     67  F   UNL     1       7.027   2.602 -13.394  1.00  0.00    -0.206 F 
ATOM     68  C   UNL     1       9.025   2.865 -14.597  1.00  0.00     0.059 A 
ATOM     69  C   UNL     1      11.155   2.794 -13.432  1.00  0.00     0.059 A 
ATOM     70  F   UNL     1      11.204   2.429 -11.117  1.00  0.00    -0.206 F 
ATOM     71  C   UNL     1      10.420   2.931 -14.609  1.00  0.00     0.060 A 
BRANCH  71  72
ATOM     72  S   UNL     1      11.259   3.231 -16.178  1.00  0.00     0.124 S 
ATOM     73  O   UNL     1      11.121   1.937 -16.838  1.00  0.00    -0.237 OA
ATOM     74  O   UNL     1      10.475   4.321 -16.750  1.00  0.00    -0.237 OA
ATOM     75  O   UNL     1      12.616   3.588 -15.775  1.00  0.00    -0.744 OA
ENDBRANCH  71  72
ENDBRANCH  39  64
ENDBRANCH  13  14
ENDBRANCH   6   8
ENDBRANCH   3   4
ENDBRANCH   2   3
ENDBRANCH   1   2
BRANCH   1  76
ATOM     76  C   UNL     1       4.078  -0.703   4.513  1.00  0.00     0.002 C 
BRANCH  76  77
ATOM     77  C   UNL     1       5.590  -0.906   4.624  1.00  0.00     0.021 C 
BRANCH  77  78
ATOM     78  C   UNL     1       6.311   0.174   5.422  1.00  0.00     0.116 C 
BRANCH  78  79
ATOM     79  N   UNL     1       6.419  -0.158   6.821  1.00  0.00    -0.356 N 
ATOM     80  C   UNL     1       7.479  -0.286   7.650  1.00  0.00     0.223 C 
ATOM     81  H   UNL     1       5.552  -0.323   7.258  1.00  0.00     0.163 HD
ATOM     82  O   UNL     1       7.211  -0.558   8.828  1.00  0.00    -0.275 OA
BRANCH  80  83
ATOM     83  C   UNL     1       8.947  -0.122   7.241  1.00  0.00     0.082 C 
ATOM     84  C   UNL     1       9.383   1.280   6.829  1.00  0.00     0.035 C 
ATOM     85  C   UNL     1       9.534  -1.226   6.369  1.00  0.00     0.035 C 
ATOM     86  C   UNL     1       9.442   1.558   5.333  1.00  0.00     0.117 C 
ATOM     87  C   UNL     1       9.531  -0.948   4.875  1.00  0.00     0.117 C 
ATOM     88  N   UNL     1       9.958   0.417   4.566  1.00  0.00    -0.366 N 
BRANCH  88  89
ATOM     89  C   UNL     1      10.456   0.720   3.295  1.00  0.00     0.116 A 
ATOM     90  C   UNL     1      11.626   1.500   3.237  1.00  0.00     0.034 A 
ATOM     91  C   UNL     1       9.923   0.338   2.048  1.00  0.00     0.293 A 
ATOM     92  C   UNL     1      12.227   1.865   2.026  1.00  0.00     0.016 A 
ATOM     93  C   UNL     1      10.510   0.697   0.819  1.00  0.00     0.101 A 
ATOM     94  C   UNL     1      11.679   1.463   0.802  1.00  0.00     0.062 A 
BRANCH  91  95
ATOM     95  N   UNL     1       8.675  -0.381   1.947  1.00  0.00     0.064 N 
ATOM     96  O   UNL     1       7.646   0.291   1.794  1.00  0.00    -0.258 OA
ATOM     97  O   UNL     1       8.726  -1.619   1.978  1.00  0.00    -0.258 OA
ENDBRANCH  91  95
BRANCH  94  98
ATOM     98  C   UNL     1      12.360   1.845  -0.492  1.00  0.00     0.416 C 
ATOM     99  F   UNL     1      12.548   3.186  -0.600  1.00  0.00    -0.166 F 
ATOM    100  F   UNL     1      13.593   1.280  -0.598  1.00  0.00    -0.166 F 
ATOM    101  F   UNL     1      11.670   1.460  -1.597  1.00  0.00    -0.166 F 
ENDBRANCH  94  98
ENDBRANCH  88  89
ENDBRANCH  80  83
ENDBRANCH  78  79
ENDBRANCH  77  78
ENDBRANCH  76  77
ENDBRANCH   1  76
TORSDOF 19
