REMARK SMILES O=C(C[N@H+]1CCC[C@@H]1C(=O)NCCCCCCNC(=O)c1ccc(-c2c3nc(c(-c4c(F)cc(S(=O)(=O)[O-])cc4F)c4ccc([nH]4)c(-c4c(F)cc(S(=O)(=O)[O-])cc4F)c4nc(c(-c5c(F)cc(S(=O)(=O)[O-])cc5F)c5ccc2[nH]5)C=C4)C=C3)cc1)NCc1ccc(Cl)cc1
REMARK SMILES IDX 14 1 13 2 12 3 11 4 9 5 10 6 8 8 4 9 5 10 6 12 7 13 3 14
REMARK SMILES IDX 2 15 1 16 87 17 88 19 89 20 90 21 95 22 91 23 94 24 92 25
REMARK SMILES IDX 93 26 15 27 16 28 17 29 18 30 19 31 20 33 21 34 22 35 86 36
REMARK SMILES IDX 23 37 85 38 24 39 25 40 26 41 79 42 27 43 84 44 78 45 80 46
REMARK SMILES IDX 28 47 83 48 77 49 76 50 29 52 63 53 42 54 62 55 43 56 46 57
REMARK SMILES IDX 61 58 81 59 44 60 45 61 60 63 82 64 47 65 30 66 31 67 40 68
REMARK SMILES IDX 32 69 33 70 39 71 41 72 34 73 35 74 36 75 37 76 38 77 64 78
REMARK SMILES IDX 65 79 74 80 66 81 67 82 73 83 75 84 68 85 69 86 70 87 71 88
REMARK SMILES IDX 72 89 48 90 49 91 58 92 50 93 51 94 57 95 59 96 52 97 53 98
REMARK SMILES IDX 54 99 55 100 56 101
REMARK H PARENT 11 7 4 11 87 18 18 32 80 51 46 62
REMARK Flexibility Score: inf
ROOT
ATOM      1  C   UNL     1      -1.250   3.514  -2.516  1.00  0.00     0.002 C 
ENDROOT
BRANCH   1   2
ATOM      2  C   UNL     1      -0.239   3.729  -1.393  1.00  0.00     0.021 C 
BRANCH   2   3
ATOM      3  C   UNL     1       0.931   2.762  -1.432  1.00  0.00     0.116 C 
BRANCH   3   4
ATOM      4  N   UNL     1       1.898   3.114  -2.456  1.00  0.00    -0.351 N 
ATOM      5  C   UNL     1       3.257   3.181  -2.355  1.00  0.00     0.278 C 
ATOM      6  O   UNL     1       3.907   3.422  -3.378  1.00  0.00    -0.268 OA
ATOM      7  H   UNL     1       1.524   3.332  -3.340  1.00  0.00     0.163 HD
BRANCH   5   8
ATOM      8  C   UNL     1       3.971   3.005  -1.006  1.00  0.00     0.274 C 
ATOM      9  N   UNL     1       3.456   1.878  -0.224  1.00  0.00    -0.317 N 
ATOM     10  C   UNL     1       3.824   2.115   1.159  1.00  0.00     0.263 C 
ATOM     11  H   UNL     1       2.438   1.861  -0.284  1.00  0.00     0.349 HD
ATOM     12  C   UNL     1       3.420   3.574   1.296  1.00  0.00     0.068 C 
ATOM     13  C   UNL     1       3.752   4.194  -0.062  1.00  0.00     0.081 C 
BRANCH   9  14
ATOM     14  C   UNL     1       3.597   0.540  -0.773  1.00  0.00     0.364 C 
BRANCH  14  15
ATOM     15  C   UNL     1       2.597  -0.373  -0.044  1.00  0.00     0.275 C 
ATOM     16  O   UNL     1       1.402  -0.413  -0.323  1.00  0.00    -0.268 OA
ATOM     17  N   UNL     1       3.158  -1.051   1.013  1.00  0.00    -0.347 N 
ATOM     18  H   UNL     1       4.135  -1.015   1.131  1.00  0.00     0.164 HD
BRANCH  17  19
ATOM     19  C   UNL     1       2.376  -1.814   1.957  1.00  0.00     0.151 C 
BRANCH  19  20
ATOM     20  C   UNL     1       2.743  -3.273   1.908  1.00  0.00    -0.029 A 
ATOM     21  C   UNL     1       1.740  -4.244   1.776  1.00  0.00     0.007 A 
ATOM     22  C   UNL     1       4.080  -3.687   2.019  1.00  0.00     0.007 A 
ATOM     23  C   UNL     1       2.070  -5.601   1.729  1.00  0.00     0.021 A 
ATOM     24  C   UNL     1       4.411  -5.040   1.960  1.00  0.00     0.021 A 
ATOM     25  C   UNL     1       3.404  -5.992   1.812  1.00  0.00     0.041 A 
ATOM     26  Cl  UNL     1       3.819  -7.659   1.730  1.00  0.00    -0.084 Cl
ENDBRANCH  19  20
ENDBRANCH  17  19
ENDBRANCH  14  15
ENDBRANCH   9  14
ENDBRANCH   5   8
ENDBRANCH   3   4
ENDBRANCH   2   3
ENDBRANCH   1   2
BRANCH   1  27
ATOM     27  C   UNL     1      -1.845   2.103  -2.585  1.00  0.00     0.002 C 
BRANCH  27  28
ATOM     28  C   UNL     1      -2.446   1.580  -1.276  1.00  0.00     0.021 C 
BRANCH  28  29
ATOM     29  C   UNL     1      -3.522   2.474  -0.670  1.00  0.00     0.116 C 
BRANCH  29  30
ATOM     30  N   UNL     1      -4.626   2.694  -1.591  1.00  0.00    -0.352 N 
ATOM     31  C   UNL     1      -5.969   2.528  -1.391  1.00  0.00     0.251 C 
ATOM     32  H   UNL     1      -4.370   3.006  -2.489  1.00  0.00     0.163 HD
ATOM     33  O   UNL     1      -6.740   2.553  -2.353  1.00  0.00    -0.269 OA
BRANCH  31  34
ATOM     34  C   UNL     1      -6.492   2.312  -0.028  1.00  0.00     0.039 A 
ATOM     35  C   UNL     1      -7.479   1.346   0.172  1.00  0.00     0.014 A 
ATOM     36  C   UNL     1      -6.026   3.076   1.048  1.00  0.00     0.014 A 
ATOM     37  C   UNL     1      -7.971   1.116   1.458  1.00  0.00     0.010 A 
ATOM     38  C   UNL     1      -6.463   2.795   2.338  1.00  0.00     0.010 A 
ATOM     39  C   UNL     1      -7.449   1.822   2.555  1.00  0.00    -0.014 A 
BRANCH  39  40
ATOM     40  C   UNL     1      -7.933   1.558   3.934  1.00  0.00     0.031 A 
ATOM     41  C   UNL     1      -8.643   2.638   4.705  1.00  0.00     0.074 A 
ATOM     42  C   UNL     1      -7.687   0.363   4.506  1.00  0.00     0.049 A 
ATOM     43  N   UNL     1      -9.097   2.612   5.932  1.00  0.00    -0.248 NA
ATOM     44  C   UNL     1      -8.844   3.924   4.019  1.00  0.00     0.031 C 
ATOM     45  C   UNL     1      -6.962  -0.743   3.875  1.00  0.00     0.029 A 
ATOM     46  N   UNL     1      -8.011  -0.120   5.748  1.00  0.00    -0.354 N 
ATOM     47  C   UNL     1      -9.625   3.877   6.167  1.00  0.00     0.074 A 
ATOM     48  C   UNL     1      -9.385   4.663   4.977  1.00  0.00     0.031 C 
ATOM     49  C   UNL     1      -6.918  -1.781   4.725  1.00  0.00     0.029 A 
ATOM     50  C   UNL     1      -7.576  -1.405   5.972  1.00  0.00     0.049 A 
ATOM     51  H   UNL     1      -8.509   0.404   6.417  1.00  0.00     0.167 HD
ATOM     52  C   UNL     1     -10.271   4.333   7.267  1.00  0.00     0.037 A 
ATOM     53  C   UNL     1      -7.688  -2.189   7.062  1.00  0.00     0.037 A 
ATOM     54  C   UNL     1     -10.527   3.534   8.438  1.00  0.00     0.049 A 
ATOM     55  C   UNL     1      -8.416  -1.662   8.268  1.00  0.00     0.074 A 
ATOM     56  C   UNL     1     -11.226   3.882   9.580  1.00  0.00     0.029 A 
ATOM     57  N   UNL     1     -10.091   2.229   8.618  1.00  0.00    -0.354 N 
ATOM     58  N   UNL     1      -8.969  -0.486   8.449  1.00  0.00    -0.248 NA
ATOM     59  C   UNL     1      -8.547  -2.571   9.415  1.00  0.00     0.031 C 
ATOM     60  C   UNL     1     -11.170   2.805  10.472  1.00  0.00     0.029 A 
ATOM     61  C   UNL     1     -10.486   1.765   9.862  1.00  0.00     0.049 A 
ATOM     62  H   UNL     1      -9.576   1.709   7.959  1.00  0.00     0.167 HD
ATOM     63  C   UNL     1      -9.537  -0.523   9.718  1.00  0.00     0.074 A 
ATOM     64  C   UNL     1      -9.272  -1.843  10.253  1.00  0.00     0.031 C 
ATOM     65  C   UNL     1     -10.217   0.446  10.379  1.00  0.00     0.037 A 
BRANCH  52  66
ATOM     66  C   UNL     1     -10.751   5.760   7.256  1.00  0.00     0.058 A 
ATOM     67  C   UNL     1     -11.805   6.180   6.429  1.00  0.00     0.135 A 
ATOM     68  C   UNL     1     -10.175   6.712   8.113  1.00  0.00     0.135 A 
ATOM     69  F   UNL     1     -12.383   5.317   5.579  1.00  0.00    -0.206 F 
ATOM     70  C   UNL     1     -12.252   7.497   6.431  1.00  0.00     0.059 A 
ATOM     71  C   UNL     1     -10.626   8.029   8.153  1.00  0.00     0.059 A 
ATOM     72  F   UNL     1      -9.163   6.368   8.925  1.00  0.00    -0.206 F 
ATOM     73  C   UNL     1     -11.656   8.415   7.297  1.00  0.00     0.060 A 
BRANCH  73  74
ATOM     74  S   UNL     1     -12.255  10.118   7.294  1.00  0.00     0.124 S 
ATOM     75  O   UNL     1     -11.735  10.607   6.021  1.00  0.00    -0.237 OA
ATOM     76  O   UNL     1     -13.702   9.939   7.361  1.00  0.00    -0.237 OA
ATOM     77  O   UNL     1     -11.643  10.697   8.485  1.00  0.00    -0.744 OA
ENDBRANCH  73  74
ENDBRANCH  52  66
BRANCH  53  78
ATOM     78  C   UNL     1      -7.113  -3.561   7.050  1.00  0.00     0.058 A 
ATOM     79  C   UNL     1      -7.942  -4.693   7.037  1.00  0.00     0.135 A 
ATOM     80  C   UNL     1      -5.725  -3.768   7.036  1.00  0.00     0.135 A 
ATOM     81  F   UNL     1      -9.276  -4.547   7.055  1.00  0.00    -0.206 F 
ATOM     82  C   UNL     1      -7.417  -5.981   7.027  1.00  0.00     0.059 A 
ATOM     83  C   UNL     1      -5.176  -5.046   6.998  1.00  0.00     0.059 A 
ATOM     84  F   UNL     1      -4.888  -2.719   7.030  1.00  0.00    -0.206 F 
ATOM     85  C   UNL     1      -6.031  -6.147   7.005  1.00  0.00     0.060 A 
BRANCH  85  86
ATOM     86  S   UNL     1      -5.360  -7.822   6.944  1.00  0.00     0.124 S 
ATOM     87  O   UNL     1      -5.623  -8.293   8.299  1.00  0.00    -0.237 OA
ATOM     88  O   UNL     1      -6.159  -8.434   5.887  1.00  0.00    -0.237 OA
ATOM     89  O   UNL     1      -3.954  -7.608   6.612  1.00  0.00    -0.744 OA
ENDBRANCH  85  86
ENDBRANCH  53  78
BRANCH  65  90
ATOM     90  C   UNL     1     -10.756   0.105  11.742  1.00  0.00     0.058 A 
ATOM     91  C   UNL     1      -9.914  -0.049  12.854  1.00  0.00     0.135 A 
ATOM     92  C   UNL     1     -12.140  -0.023  11.945  1.00  0.00     0.135 A 
ATOM     93  F   UNL     1      -8.583   0.059  12.715  1.00  0.00    -0.206 F 
ATOM     94  C   UNL     1     -10.422  -0.348  14.114  1.00  0.00     0.059 A 
ATOM     95  C   UNL     1     -12.672  -0.292  13.202  1.00  0.00     0.059 A 
ATOM     96  F   UNL     1     -12.991   0.126  10.918  1.00  0.00    -0.206 F 
ATOM     97  C   UNL     1     -11.804  -0.467  14.278  1.00  0.00     0.060 A 
BRANCH  97  98
ATOM     98  S   UNL     1     -12.452  -0.831  15.923  1.00  0.00     0.124 S 
ATOM     99  O   UNL     1     -12.096  -2.238  16.074  1.00  0.00    -0.237 OA
ATOM    100  O   UNL     1     -11.711   0.104  16.764  1.00  0.00    -0.237 OA
ATOM    101  O   UNL     1     -13.880  -0.554  15.795  1.00  0.00    -0.744 OA
ENDBRANCH  97  98
ENDBRANCH  65  90
ENDBRANCH  39  40
ENDBRANCH  31  34
ENDBRANCH  29  30
ENDBRANCH  28  29
ENDBRANCH  27  28
ENDBRANCH   1  27
TORSDOF 20
