REMARK SMILES COc1cc(C)cc2c1[C@@H](C)[C@@H](CC(=O)N[C@@H](Cc1c[nH]c3ccccc13)C(=O)NCCCCCCNC(=O)c1ccc(-c3c4nc(c(-c5c(F)cc(S(=O)(=O)[O-])cc5F)c5ccc([nH]5)c(-c5c(F)cc(S(=O)(=O)[O-])cc5F)c5nc(c(-c6c(F)cc(S(=O)(=O)[O-])cc6F)c6ccc3[nH]6)C=C5)C=C4)cc1)C(=O)O2
REMARK SMILES IDX 33 1 32 2 31 3 30 4 28 5 29 6 17 8 16 9 14 10 15 11 13 13
REMARK SMILES IDX 12 14 3 15 4 16 9 17 5 18 8 19 10 20 6 21 7 22 108 23 11 24
REMARK SMILES IDX 106 25 107 26 2 27 1 28 18 29 19 30 20 31 27 32 21 33 22 34
REMARK SMILES IDX 26 35 23 37 25 38 24 39 34 40 35 41 36 42 37 43 38 44 39 46
REMARK SMILES IDX 40 47 41 48 105 49 42 50 104 51 43 52 44 53 45 54 98 55
REMARK SMILES IDX 46 56 103 57 97 58 99 59 47 60 102 61 96 62 95 63 48 65
REMARK SMILES IDX 82 66 61 67 81 68 62 69 65 70 80 71 100 72 63 73 64 74 79 76
REMARK SMILES IDX 101 77 66 78 49 79 50 80 59 81 51 82 52 83 58 84 60 85 53 86
REMARK SMILES IDX 54 87 55 88 56 89 57 90 83 91 84 92 93 93 85 94 86 95 92 96
REMARK SMILES IDX 94 97 87 98 88 99 89 100 90 101 91 102 67 103 68 104 77 105
REMARK SMILES IDX 69 106 70 107 76 108 78 109 71 110 72 111 73 112 74 113
REMARK SMILES IDX 75 114
REMARK H PARENT 30 7 16 12 21 36 37 45 99 64 65 75
REMARK Flexibility Score: inf
ROOT
ATOM      1  C   UNL     1      -2.652  11.777  -2.069  1.00  0.00     0.002 C 
ENDROOT
BRANCH   1   2
ATOM      2  C   UNL     1      -3.259  10.399  -2.351  1.00  0.00     0.021 C 
BRANCH   2   3
ATOM      3  C   UNL     1      -2.498   9.643  -3.433  1.00  0.00     0.116 C 
BRANCH   3   4
ATOM      4  N   UNL     1      -1.343   9.005  -2.860  1.00  0.00    -0.354 N 
ATOM      5  C   UNL     1      -1.276   7.834  -2.187  1.00  0.00     0.242 C 
ATOM      6  O   UNL     1      -0.276   7.669  -1.474  1.00  0.00    -0.273 OA
ATOM      7  H   UNL     1      -0.490   9.483  -2.973  1.00  0.00     0.163 HD
BRANCH   5   8
ATOM      8  C   UNL     1      -2.340   6.715  -2.287  1.00  0.00     0.175 C 
BRANCH   8   9
ATOM      9  N   UNL     1      -2.922   6.277  -1.031  1.00  0.00    -0.344 N 
ATOM     10  C   UNL     1      -3.038   4.987  -0.597  1.00  0.00     0.221 C 
ATOM     11  O   UNL     1      -3.952   4.687   0.169  1.00  0.00    -0.275 OA
ATOM     12  H   UNL     1      -3.267   6.979  -0.433  1.00  0.00     0.164 HD
BRANCH  10  13
ATOM     13  C   UNL     1      -1.939   3.994  -0.944  1.00  0.00     0.116 C 
BRANCH  13  14
ATOM     14  C   UNL     1      -2.125   3.078  -2.179  1.00  0.00     0.116 C 
ATOM     15  C   UNL     1       1.192   1.421  -1.423  1.00  0.00     0.126 A 
ATOM     16  C   UNL     1       2.487   1.953  -1.298  1.00  0.00     0.050 A 
ATOM     17  C   UNL     1       0.182   2.158  -2.044  1.00  0.00     0.041 A 
ATOM     18  C   UNL     1       2.800   3.231  -1.786  1.00  0.00    -0.044 A 
ATOM     19  C   UNL     1       0.562   3.371  -2.644  1.00  0.00     0.138 A 
ATOM     20  C   UNL     1      -1.293   1.768  -2.106  1.00  0.00     0.038 C 
ATOM     21  C   UNL     1       4.173   3.806  -1.606  1.00  0.00     0.044 C 
ATOM     22  C   UNL     1       1.832   3.926  -2.501  1.00  0.00     0.051 A 
ATOM     23  O   UNL     1      -0.322   4.093  -3.462  1.00  0.00    -0.426 OA
ATOM     24  C   UNL     1      -1.837   0.870  -0.989  1.00  0.00     0.014 C 
ATOM     25  C   UNL     1      -1.631   3.661  -3.484  1.00  0.00     0.315 C 
ATOM     26  O   UNL     1      -2.314   3.741  -4.498  1.00  0.00    -0.251 OA
BRANCH  15  27
ATOM     27  O   UNL     1       0.914   0.133  -1.056  1.00  0.00    -0.496 OA
ATOM     28  C   UNL     1       1.314  -0.187   0.271  1.00  0.00     0.278 C 
ENDBRANCH  15  27
ENDBRANCH  13  14
ENDBRANCH  10  13
ENDBRANCH   8   9
BRANCH   8  29
ATOM     29  C   UNL     1      -3.254   6.497  -3.488  1.00  0.00     0.072 C 
BRANCH  29  30
ATOM     30  C   UNL     1      -4.647   7.021  -3.725  1.00  0.00    -0.020 A 
ATOM     31  C   UNL     1      -5.125   7.027  -5.031  1.00  0.00     0.087 A 
ATOM     32  C   UNL     1      -5.761   7.420  -2.897  1.00  0.00     0.003 A 
ATOM     33  N   UNL     1      -6.454   7.306  -5.026  1.00  0.00    -0.361 N 
ATOM     34  C   UNL     1      -6.865   7.578  -3.749  1.00  0.00     0.046 A 
ATOM     35  C   UNL     1      -6.004   7.634  -1.522  1.00  0.00     0.010 A 
ATOM     36  H   UNL     1      -7.034   7.311  -5.821  1.00  0.00     0.166 HD
ATOM     37  C   UNL     1      -8.150   7.923  -3.309  1.00  0.00     0.026 A 
ATOM     38  C   UNL     1      -7.280   8.004  -1.065  1.00  0.00     0.001 A 
ATOM     39  C   UNL     1      -8.339   8.146  -1.950  1.00  0.00     0.002 A 
ENDBRANCH  29  30
ENDBRANCH   8  29
ENDBRANCH   5   8
ENDBRANCH   3   4
ENDBRANCH   2   3
ENDBRANCH   1   2
BRANCH   1  40
ATOM     40  C   UNL     1      -2.602  12.705  -3.291  1.00  0.00     0.002 C 
BRANCH  40  41
ATOM     41  C   UNL     1      -3.924  12.819  -4.052  1.00  0.00     0.021 C 
BRANCH  41  42
ATOM     42  C   UNL     1      -5.083  13.307  -3.193  1.00  0.00     0.116 C 
BRANCH  42  43
ATOM     43  N   UNL     1      -4.833  14.642  -2.668  1.00  0.00    -0.352 N 
ATOM     44  C   UNL     1      -5.583  15.780  -2.829  1.00  0.00     0.251 C 
ATOM     45  H   UNL     1      -4.017  14.742  -2.126  1.00  0.00     0.163 HD
ATOM     46  O   UNL     1      -5.124  16.877  -2.527  1.00  0.00    -0.269 OA
BRANCH  44  47
ATOM     47  C   UNL     1      -6.942  15.658  -3.388  1.00  0.00     0.039 A 
ATOM     48  C   UNL     1      -7.801  14.666  -2.908  1.00  0.00     0.014 A 
ATOM     49  C   UNL     1      -7.338  16.502  -4.426  1.00  0.00     0.014 A 
ATOM     50  C   UNL     1      -8.991  14.412  -3.575  1.00  0.00     0.010 A 
ATOM     51  C   UNL     1      -8.578  16.302  -5.036  1.00  0.00     0.010 A 
ATOM     52  C   UNL     1      -9.394  15.228  -4.644  1.00  0.00    -0.014 A 
BRANCH  52  53
ATOM     53  C   UNL     1     -10.673  14.934  -5.338  1.00  0.00     0.031 A 
ATOM     54  C   UNL     1     -10.685  14.517  -6.783  1.00  0.00     0.074 A 
ATOM     55  C   UNL     1     -11.822  14.991  -4.636  1.00  0.00     0.049 A 
ATOM     56  N   UNL     1     -11.707  14.225  -7.546  1.00  0.00    -0.248 NA
ATOM     57  C   UNL     1      -9.384  14.419  -7.464  1.00  0.00     0.031 C 
ATOM     58  C   UNL     1     -11.927  15.364  -3.223  1.00  0.00     0.029 A 
ATOM     59  N   UNL     1     -13.113  14.714  -5.002  1.00  0.00    -0.354 N 
ATOM     60  C   UNL     1     -11.178  13.927  -8.796  1.00  0.00     0.074 A 
ATOM     61  C   UNL     1      -9.745  14.103  -8.700  1.00  0.00     0.031 C 
ATOM     62  C   UNL     1     -13.202  15.239  -2.828  1.00  0.00     0.029 A 
ATOM     63  C   UNL     1     -14.016  14.848  -3.974  1.00  0.00     0.049 A 
ATOM     64  H   UNL     1     -13.370  14.444  -5.913  1.00  0.00     0.167 HD
ATOM     65  C   UNL     1     -11.828  13.530  -9.916  1.00  0.00     0.037 A 
ATOM     66  C   UNL     1     -15.353  14.693  -3.956  1.00  0.00     0.037 A 
ATOM     67  C   UNL     1     -13.254  13.338  -9.995  1.00  0.00     0.049 A 
ATOM     68  C   UNL     1     -16.055  14.302  -5.224  1.00  0.00     0.074 A 
ATOM     69  C   UNL     1     -14.008  12.924 -11.079  1.00  0.00     0.029 A 
ATOM     70  N   UNL     1     -14.142  13.546  -8.948  1.00  0.00    -0.354 N 
ATOM     71  N   UNL     1     -15.539  14.031  -6.400  1.00  0.00    -0.248 NA
ATOM     72  C   UNL     1     -17.519  14.209  -5.170  1.00  0.00     0.031 C 
ATOM     73  C   UNL     1     -15.355  12.923 -10.700  1.00  0.00     0.029 A 
ATOM     74  C   UNL     1     -15.437  13.289  -9.366  1.00  0.00     0.049 A 
ATOM     75  H   UNL     1     -13.888  13.833  -8.041  1.00  0.00     0.167 HD
ATOM     76  C   UNL     1     -16.615  13.728  -7.224  1.00  0.00     0.074 A 
ATOM     77  C   UNL     1     -17.808  13.827  -6.407  1.00  0.00     0.031 C 
ATOM     78  C   UNL     1     -16.614  13.401  -8.540  1.00  0.00     0.037 A 
BRANCH  65  79
ATOM     79  C   UNL     1     -11.009  13.285 -11.155  1.00  0.00     0.058 A 
ATOM     80  C   UNL     1     -10.165  12.169 -11.273  1.00  0.00     0.135 A 
ATOM     81  C   UNL     1     -11.105  14.151 -12.257  1.00  0.00     0.135 A 
ATOM     82  F   UNL     1     -10.022  11.317 -10.245  1.00  0.00    -0.206 F 
ATOM     83  C   UNL     1      -9.430  11.932 -12.431  1.00  0.00     0.059 A 
ATOM     84  C   UNL     1     -10.398  13.920 -13.434  1.00  0.00     0.059 A 
ATOM     85  F   UNL     1     -11.896  15.234 -12.198  1.00  0.00    -0.206 F 
ATOM     86  C   UNL     1      -9.554  12.813 -13.507  1.00  0.00     0.060 A 
BRANCH  86  87
ATOM     87  S   UNL     1      -8.595  12.485 -15.001  1.00  0.00     0.124 S 
ATOM     88  O   UNL     1      -7.239  12.774 -14.545  1.00  0.00    -0.237 OA
ATOM     89  O   UNL     1      -8.891  11.079 -15.256  1.00  0.00    -0.237 OA
ATOM     90  O   UNL     1      -9.144  13.425 -15.973  1.00  0.00    -0.744 OA
ENDBRANCH  86  87
ENDBRANCH  65  79
BRANCH  66  91
ATOM     91  C   UNL     1     -16.100  14.913  -2.691  1.00  0.00     0.058 A 
ATOM     92  C   UNL     1     -16.678  13.840  -2.000  1.00  0.00     0.135 A 
ATOM     93  C   UNL     1     -16.203  16.192  -2.120  1.00  0.00     0.135 A 
ATOM     94  F   UNL     1     -16.612  12.600  -2.509  1.00  0.00    -0.206 F 
ATOM     95  C   UNL     1     -17.332  14.024  -0.786  1.00  0.00     0.059 A 
ATOM     96  C   UNL     1     -16.827  16.398  -0.895  1.00  0.00     0.059 A 
ATOM     97  F   UNL     1     -15.652  17.250  -2.736  1.00  0.00    -0.206 F 
ATOM     98  C   UNL     1     -17.392  15.307  -0.237  1.00  0.00     0.060 A 
BRANCH  98  99
ATOM     99  S   UNL     1     -18.177  15.520   1.375  1.00  0.00     0.124 S 
ATOM    100  O   UNL     1     -19.582  15.308   1.047  1.00  0.00    -0.237 OA
ATOM    101  O   UNL     1     -17.539  14.472   2.165  1.00  0.00    -0.237 OA
ATOM    102  O   UNL     1     -17.815  16.884   1.748  1.00  0.00    -0.744 OA
ENDBRANCH  98  99
ENDBRANCH  66  91
BRANCH  78 103
ATOM    103  C   UNL     1     -17.944  13.119  -9.180  1.00  0.00     0.058 A 
ATOM    104  C   UNL     1     -18.848  14.151  -9.476  1.00  0.00     0.135 A 
ATOM    105  C   UNL     1     -18.292  11.812  -9.557  1.00  0.00     0.135 A 
ATOM    106  F   UNL     1     -18.566  15.416  -9.128  1.00  0.00    -0.206 F 
ATOM    107  C   UNL     1     -20.059  13.895 -10.109  1.00  0.00     0.059 A 
ATOM    108  C   UNL     1     -19.486  11.536 -10.215  1.00  0.00     0.059 A 
ATOM    109  F   UNL     1     -17.458  10.790  -9.305  1.00  0.00    -0.206 F 
ATOM    110  C   UNL     1     -20.367  12.584 -10.480  1.00  0.00     0.060 A 
BRANCH 110 111
ATOM    111  S   UNL     1     -21.924  12.275 -11.338  1.00  0.00     0.124 S 
ATOM    112  O   UNL     1     -22.895  12.473 -10.267  1.00  0.00    -0.237 OA
ATOM    113  O   UNL     1     -21.913  13.297 -12.380  1.00  0.00    -0.237 OA
ATOM    114  O   UNL     1     -21.785  10.902 -11.814  1.00  0.00    -0.744 OA
ENDBRANCH 110 111
ENDBRANCH  78 103
ENDBRANCH  52  53
ENDBRANCH  44  47
ENDBRANCH  42  43
ENDBRANCH  41  42
ENDBRANCH  40  41
ENDBRANCH   1  40
TORSDOF 22
