REMARK SMILES O=C(NCCCCCCNC(=O)c1cc(N2Cc3ccccc3CC2=O)ccn1)c1ccc(-c2c3nc(c(-c4c(F)cc(S(=O)(=O)[O-])cc4F)c4ccc([nH]4)c(-c4c(F)cc(S(=O)(=O)[O-])cc4F)c4nc(c(-c5c(F)cc(S(=O)(=O)[O-])cc5F)c5ccc2[nH]5)C=C4)C=C3)cc1
REMARK SMILES IDX 5 1 4 2 3 3 1 4 2 5 30 7 31 8 95 9 32 10 94 11 33 12 34 13
REMARK SMILES IDX 35 14 88 15 36 16 93 17 87 18 89 19 37 20 92 21 86 22 85 23
REMARK SMILES IDX 38 25 72 26 51 27 71 28 52 29 55 30 70 31 90 32 53 33 54 34
REMARK SMILES IDX 69 36 91 37 56 38 39 39 40 40 49 41 41 42 42 43 48 44 50 45
REMARK SMILES IDX 43 46 44 47 45 48 46 49 47 50 73 51 74 52 83 53 75 54 76 55
REMARK SMILES IDX 82 56 84 57 77 58 78 59 79 60 80 61 81 62 57 63 58 64 67 65
REMARK SMILES IDX 59 66 60 67 66 68 68 69 61 70 62 71 63 72 64 73 65 74 6 75
REMARK SMILES IDX 7 76 8 77 9 78 10 79 11 80 12 82 13 83 14 84 29 85 15 86
REMARK SMILES IDX 28 87 27 88 16 89 17 90 25 91 18 92 24 93 26 94 19 95 23 96
REMARK SMILES IDX 20 97 22 98 21 99
REMARK H PARENT 3 6 89 24 55 35 10 81
REMARK Flexibility Score: inf
ROOT
ATOM      1  C   UNL     1       4.580  -0.076  -2.799  1.00  0.00     0.021 C 
ENDROOT
BRANCH   1   2
ATOM      2  C   UNL     1       4.361   0.330  -1.347  1.00  0.00     0.116 C 
BRANCH   2   3
ATOM      3  N   UNL     1       2.957   0.431  -0.986  1.00  0.00    -0.352 N 
ATOM      4  O   UNL     1       1.083  -0.010   0.191  1.00  0.00    -0.269 OA
ATOM      5  C   UNL     1       2.305  -0.091   0.108  1.00  0.00     0.251 C 
ATOM      6  H   UNL     1       2.394   0.943  -1.610  1.00  0.00     0.163 HD
BRANCH   5   7
ATOM      7  C   UNL     1       3.078  -0.778   1.170  1.00  0.00     0.039 A 
ATOM      8  C   UNL     1       4.268  -0.231   1.653  1.00  0.00     0.014 A 
ATOM      9  C   UNL     1       2.606  -1.989   1.688  1.00  0.00     0.014 A 
ATOM     10  C   UNL     1       5.056  -0.962   2.536  1.00  0.00     0.010 A 
ATOM     11  C   UNL     1       3.359  -2.682   2.644  1.00  0.00     0.010 A 
ATOM     12  C   UNL     1       4.607  -2.190   3.052  1.00  0.00    -0.014 A 
BRANCH  12  13
ATOM     13  C   UNL     1       5.445  -2.890   4.061  1.00  0.00     0.031 A 
ATOM     14  C   UNL     1       6.082  -4.222   3.772  1.00  0.00     0.074 A 
ATOM     15  C   UNL     1       5.683  -2.269   5.234  1.00  0.00     0.049 A 
ATOM     16  N   UNL     1       6.907  -4.915   4.515  1.00  0.00    -0.248 NA
ATOM     17  C   UNL     1       5.749  -4.864   2.491  1.00  0.00     0.031 C 
ATOM     18  C   UNL     1       5.092  -0.990   5.642  1.00  0.00     0.029 A 
ATOM     19  N   UNL     1       6.499  -2.604   6.283  1.00  0.00    -0.354 N 
ATOM     20  C   UNL     1       7.188  -6.075   3.801  1.00  0.00     0.074 A 
ATOM     21  C   UNL     1       6.420  -6.006   2.575  1.00  0.00     0.031 C 
ATOM     22  C   UNL     1       5.609  -0.623   6.823  1.00  0.00     0.029 A 
ATOM     23  C   UNL     1       6.527  -1.659   7.281  1.00  0.00     0.049 A 
ATOM     24  H   UNL     1       7.017  -3.441   6.317  1.00  0.00     0.167 HD
ATOM     25  C   UNL     1       8.016  -7.095   4.133  1.00  0.00     0.037 A 
ATOM     26  C   UNL     1       7.210  -1.627   8.439  1.00  0.00     0.037 A 
ATOM     27  C   UNL     1       8.783  -7.156   5.353  1.00  0.00     0.049 A 
ATOM     28  C   UNL     1       8.139  -2.758   8.770  1.00  0.00     0.074 A 
ATOM     29  C   UNL     1       9.651  -8.147   5.778  1.00  0.00     0.029 A 
ATOM     30  N   UNL     1       8.778  -6.183   6.342  1.00  0.00    -0.354 N 
ATOM     31  N   UNL     1       8.400  -3.837   8.071  1.00  0.00    -0.248 NA
ATOM     32  C   UNL     1       8.865  -2.670  10.042  1.00  0.00     0.031 C 
ATOM     33  C   UNL     1      10.152  -7.786   7.034  1.00  0.00     0.029 A 
ATOM     34  C   UNL     1       9.623  -6.552   7.376  1.00  0.00     0.049 A 
ATOM     35  H   UNL     1       8.251  -5.352   6.313  1.00  0.00     0.167 HD
ATOM     36  C   UNL     1       9.319  -4.559   8.821  1.00  0.00     0.074 A 
ATOM     37  C   UNL     1       9.595  -3.776  10.010  1.00  0.00     0.031 C 
ATOM     38  C   UNL     1       9.876  -5.766   8.557  1.00  0.00     0.037 A 
BRANCH  25  39
ATOM     39  C   UNL     1       8.144  -8.237   3.161  1.00  0.00     0.058 A 
ATOM     40  C   UNL     1       8.871  -8.104   1.968  1.00  0.00     0.135 A 
ATOM     41  C   UNL     1       7.586  -9.493   3.451  1.00  0.00     0.135 A 
ATOM     42  F   UNL     1       9.413  -6.922   1.635  1.00  0.00    -0.206 F 
ATOM     43  C   UNL     1       9.028  -9.171   1.088  1.00  0.00     0.059 A 
ATOM     44  C   UNL     1       7.747 -10.579   2.595  1.00  0.00     0.059 A 
ATOM     45  F   UNL     1       6.881  -9.675   4.579  1.00  0.00    -0.206 F 
ATOM     46  C   UNL     1       8.461 -10.405   1.410  1.00  0.00     0.060 A 
BRANCH  46  47
ATOM     47  S   UNL     1       8.688 -11.784   0.266  1.00  0.00     0.124 S 
ATOM     48  O   UNL     1       7.767 -11.423  -0.808  1.00  0.00    -0.237 OA
ATOM     49  O   UNL     1      10.107 -11.690  -0.061  1.00  0.00    -0.237 OA
ATOM     50  O   UNL     1       8.305 -12.949   1.057  1.00  0.00    -0.744 OA
ENDBRANCH  46  47
ENDBRANCH  25  39
BRANCH  26  51
ATOM     51  C   UNL     1       7.031  -0.481   9.367  1.00  0.00     0.058 A 
ATOM     52  C   UNL     1       8.046   0.467   9.556  1.00  0.00     0.135 A 
ATOM     53  C   UNL     1       5.824  -0.299  10.060  1.00  0.00     0.135 A 
ATOM     54  F   UNL     1       9.217   0.334   8.916  1.00  0.00    -0.206 F 
ATOM     55  C   UNL     1       7.876   1.551  10.412  1.00  0.00     0.059 A 
ATOM     56  C   UNL     1       5.622   0.789  10.899  1.00  0.00     0.059 A 
ATOM     57  F   UNL     1       4.816  -1.170   9.894  1.00  0.00    -0.206 F 
ATOM     58  C   UNL     1       6.659   1.703  11.078  1.00  0.00     0.060 A 
BRANCH  58  59
ATOM     59  S   UNL     1       6.420   3.141  12.144  1.00  0.00     0.124 S 
ATOM     60  O   UNL     1       7.115   2.723  13.356  1.00  0.00    -0.237 OA
ATOM     61  O   UNL     1       7.058   4.207  11.378  1.00  0.00    -0.237 OA
ATOM     62  O   UNL     1       4.967   3.239  12.247  1.00  0.00    -0.744 OA
ENDBRANCH  58  59
ENDBRANCH  26  51
BRANCH  38  63
ATOM     63  C   UNL     1      10.838  -6.304   9.577  1.00  0.00     0.058 A 
ATOM     64  C   UNL     1      10.389  -6.816  10.805  1.00  0.00     0.135 A 
ATOM     65  C   UNL     1      12.218  -6.309   9.325  1.00  0.00     0.135 A 
ATOM     66  F   UNL     1       9.078  -6.826  11.094  1.00  0.00    -0.206 F 
ATOM     67  C   UNL     1      11.280  -7.282  11.765  1.00  0.00     0.059 A 
ATOM     68  C   UNL     1      13.126  -6.791  10.262  1.00  0.00     0.059 A 
ATOM     69  F   UNL     1      12.696  -5.838   8.163  1.00  0.00    -0.206 F 
ATOM     70  C   UNL     1      12.648  -7.259  11.487  1.00  0.00     0.060 A 
BRANCH  70  71
ATOM     71  S   UNL     1      13.800  -7.863  12.739  1.00  0.00     0.124 S 
ATOM     72  O   UNL     1      13.855  -6.730  13.656  1.00  0.00    -0.237 OA
ATOM     73  O   UNL     1      13.124  -9.055  13.242  1.00  0.00    -0.237 OA
ATOM     74  O   UNL     1      15.020  -8.118  11.979  1.00  0.00    -0.744 OA
ENDBRANCH  70  71
ENDBRANCH  38  63
ENDBRANCH  12  13
ENDBRANCH   5   7
ENDBRANCH   2   3
ENDBRANCH   1   2
BRANCH   1  75
ATOM     75  C   UNL     1       4.124   0.941  -3.845  1.00  0.00     0.002 C 
BRANCH  75  76
ATOM     76  C   UNL     1       4.705   2.352  -3.710  1.00  0.00     0.002 C 
BRANCH  76  77
ATOM     77  C   UNL     1       6.231   2.448  -3.611  1.00  0.00     0.021 C 
BRANCH  77  78
ATOM     78  C   UNL     1       7.012   1.767  -4.732  1.00  0.00     0.116 C 
BRANCH  78  79
ATOM     79  N   UNL     1       6.729   2.332  -6.040  1.00  0.00    -0.351 N 
ATOM     80  C   UNL     1       7.614   2.792  -6.994  1.00  0.00     0.269 C 
ATOM     81  H   UNL     1       5.775   2.395  -6.278  1.00  0.00     0.163 HD
ATOM     82  O   UNL     1       7.188   3.300  -8.028  1.00  0.00    -0.268 OA
BRANCH  80  83
ATOM     83  C   UNL     1       9.077   2.664  -6.749  1.00  0.00     0.130 A 
ATOM     84  C   UNL     1       9.630   1.405  -6.553  1.00  0.00     0.060 A 
ATOM     85  N   UNL     1       9.767   3.826  -6.629  1.00  0.00    -0.251 NA
ATOM     86  C   UNL     1      10.951   1.324  -6.117  1.00  0.00     0.048 A 
ATOM     87  C   UNL     1      11.061   3.716  -6.281  1.00  0.00     0.114 A 
ATOM     88  C   UNL     1      11.681   2.509  -5.994  1.00  0.00     0.046 A 
BRANCH  86  89
ATOM     89  N   UNL     1      11.528   0.071  -5.738  1.00  0.00    -0.308 N 
ATOM     90  C   UNL     1      12.206   0.012  -4.437  1.00  0.00     0.161 C 
ATOM     91  C   UNL     1      11.229  -1.112  -6.424  1.00  0.00     0.231 C 
ATOM     92  C   UNL     1      13.291  -1.021  -4.392  1.00  0.00    -0.024 A 
ATOM     93  C   UNL     1      11.821  -2.401  -5.865  1.00  0.00     0.136 C 
ATOM     94  O   UNL     1      10.520  -1.164  -7.433  1.00  0.00    -0.274 OA
ATOM     95  C   UNL     1      14.427  -0.856  -3.591  1.00  0.00     0.006 A 
ATOM     96  C   UNL     1      13.100  -2.215  -5.096  1.00  0.00    -0.034 A 
ATOM     97  C   UNL     1      15.378  -1.872  -3.510  1.00  0.00     0.000 A 
ATOM     98  C   UNL     1      14.053  -3.235  -5.003  1.00  0.00     0.004 A 
ATOM     99  C   UNL     1      15.192  -3.058  -4.217  1.00  0.00     0.000 A 
ENDBRANCH  86  89
ENDBRANCH  80  83
ENDBRANCH  78  79
ENDBRANCH  77  78
ENDBRANCH  76  77
ENDBRANCH  75  76
ENDBRANCH   1  75
TORSDOF 17
