REMARK SMILES CN1C=C/C(=C\C=C/C=N\c2ccc(C(=O)NCCCCCCNC(=O)c3ccc(-c4c5nc(c(-c6c(F)cc(S(=O)(=O)[O-])cc6F)c6ccc([nH]6)c(-c6c(F)cc(S(=O)(=O)[O-])cc6F)c6nc(c(-c7c(F)cc(S(=O)(=O)[O-])cc7F)c7ccc4[nH]7)C=C6)C=C5)cc3)cc2)c2ccccc21
REMARK SMILES IDX 20 1 19 2 18 3 17 4 15 5 16 6 14 8 11 9 12 10 94 11 13 12
REMARK SMILES IDX 93 13 10 14 9 15 8 16 7 17 6 18 1 19 2 20 3 21 100 22 4 23
REMARK SMILES IDX 95 24 99 25 5 26 96 27 98 28 97 29 21 30 22 31 23 32 24 33
REMARK SMILES IDX 25 34 26 36 27 37 28 38 92 39 29 40 91 41 30 42 31 43 32 44
REMARK SMILES IDX 85 45 33 46 90 47 84 48 86 49 34 50 89 51 83 52 82 53 35 55
REMARK SMILES IDX 69 56 48 57 68 58 49 59 52 60 67 61 87 62 50 63 51 64 66 66
REMARK SMILES IDX 88 67 53 68 36 69 37 70 46 71 38 72 39 73 45 74 47 75 40 76
REMARK SMILES IDX 41 77 42 78 43 79 44 80 70 81 71 82 80 83 72 84 73 85 79 86
REMARK SMILES IDX 81 87 74 88 75 89 76 90 77 91 78 92 54 93 55 94 64 95 56 96
REMARK SMILES IDX 57 97 63 98 65 99 58 100 59 101 60 102 61 103 62 104
REMARK H PARENT 17 7 24 35 86 54 52 65
REMARK Flexibility Score: inf
ROOT
ATOM      1  C   UNL     1      -0.793   5.356  15.890  1.00  0.00     0.002 C 
ENDROOT
BRANCH   1   2
ATOM      2  C   UNL     1      -0.490   4.296  14.828  1.00  0.00     0.021 C 
BRANCH   2   3
ATOM      3  C   UNL     1      -1.683   3.602  14.177  1.00  0.00     0.116 C 
BRANCH   3   4
ATOM      4  N   UNL     1      -2.611   4.505  13.527  1.00  0.00    -0.352 N 
ATOM      5  C   UNL     1      -3.381   4.347  12.400  1.00  0.00     0.251 C 
ATOM      6  O   UNL     1      -4.086   5.291  12.042  1.00  0.00    -0.269 OA
ATOM      7  H   UNL     1      -2.705   5.380  13.967  1.00  0.00     0.163 HD
BRANCH   5   8
ATOM      8  C   UNL     1      -3.343   3.114  11.565  1.00  0.00     0.039 A 
ATOM      9  C   UNL     1      -3.086   0.919   9.809  1.00  0.00     0.063 A 
ATOM     10  C   UNL     1      -3.492   2.166   9.329  1.00  0.00     0.029 A 
ATOM     11  C   UNL     1      -2.950   0.751  11.188  1.00  0.00     0.029 A 
ATOM     12  C   UNL     1      -3.585   3.262  10.192  1.00  0.00     0.016 A 
ATOM     13  C   UNL     1      -3.110   1.831  12.065  1.00  0.00     0.016 A 
BRANCH   9  14
ATOM     14  N   UNL     1      -2.885  -0.191   8.981  1.00  0.00    -0.257 NA
ATOM     15  C   UNL     1      -2.116  -0.155   7.939  1.00  0.00     0.111 C 
BRANCH  15  16
ATOM     16  C   UNL     1      -1.319   0.970   7.372  1.00  0.00     0.020 C 
ATOM     17  C   UNL     1      -0.709   0.966   6.176  1.00  0.00     0.002 C 
BRANCH  17  18
ATOM     18  C   UNL     1      -0.577  -0.153   5.262  1.00  0.00     0.009 C 
ATOM     19  C   UNL     1       1.113   0.031  -0.148  1.00  0.00     0.149 C 
ATOM     20  N   UNL     1       0.639  -0.037   1.232  1.00  0.00    -0.351 N 
ATOM     21  C   UNL     1       0.353   1.105   1.957  1.00  0.00     0.086 C 
ATOM     22  C   UNL     1       0.477  -1.317   1.839  1.00  0.00     0.048 A 
ATOM     23  C   UNL     1      -0.057   1.128   3.231  1.00  0.00     0.026 C 
ATOM     24  C   UNL     1       0.009  -1.414   3.187  1.00  0.00     0.005 A 
ATOM     25  C   UNL     1       0.766  -2.511   1.146  1.00  0.00     0.027 A 
ATOM     26  C   UNL     1      -0.230  -0.130   3.955  1.00  0.00    -0.015 C 
ATOM     27  C   UNL     1      -0.177  -2.693   3.750  1.00  0.00     0.011 A 
ATOM     28  C   UNL     1       0.590  -3.764   1.737  1.00  0.00     0.002 A 
ATOM     29  C   UNL     1       0.112  -3.854   3.034  1.00  0.00     0.001 A 
ENDBRANCH  17  18
ENDBRANCH  15  16
ENDBRANCH   9  14
ENDBRANCH   5   8
ENDBRANCH   3   4
ENDBRANCH   2   3
ENDBRANCH   1   2
BRANCH   1  30
ATOM     30  C   UNL     1      -1.740   4.958  17.023  1.00  0.00     0.002 C 
BRANCH  30  31
ATOM     31  C   UNL     1      -1.415   3.666  17.770  1.00  0.00     0.021 C 
BRANCH  31  32
ATOM     32  C   UNL     1       0.009   3.524  18.293  1.00  0.00     0.116 C 
BRANCH  32  33
ATOM     33  N   UNL     1       0.375   4.531  19.273  1.00  0.00    -0.352 N 
ATOM     34  C   UNL     1       0.947   4.378  20.519  1.00  0.00     0.251 C 
ATOM     35  H   UNL     1       0.188   5.460  19.009  1.00  0.00     0.163 HD
ATOM     36  O   UNL     1       1.104   5.352  21.241  1.00  0.00    -0.269 OA
BRANCH  34  37
ATOM     37  C   UNL     1       1.331   3.027  20.998  1.00  0.00     0.039 A 
ATOM     38  C   UNL     1       2.007   2.129  20.170  1.00  0.00     0.014 A 
ATOM     39  C   UNL     1       0.987   2.649  22.299  1.00  0.00     0.014 A 
ATOM     40  C   UNL     1       2.176   0.808  20.575  1.00  0.00     0.010 A 
ATOM     41  C   UNL     1       1.237   1.343  22.737  1.00  0.00     0.010 A 
ATOM     42  C   UNL     1       1.785   0.395  21.860  1.00  0.00    -0.014 A 
BRANCH  42  43
ATOM     43  C   UNL     1       1.948  -1.033  22.251  1.00  0.00     0.031 A 
ATOM     44  C   UNL     1       0.747  -1.897  22.538  1.00  0.00     0.074 A 
ATOM     45  C   UNL     1       3.184  -1.571  22.282  1.00  0.00     0.049 A 
ATOM     46  N   UNL     1       0.702  -3.170  22.842  1.00  0.00    -0.248 NA
ATOM     47  C   UNL     1      -0.575  -1.252  22.481  1.00  0.00     0.031 C 
ATOM     48  C   UNL     1       4.426  -0.840  22.021  1.00  0.00     0.029 A 
ATOM     49  N   UNL     1       3.600  -2.857  22.515  1.00  0.00    -0.354 N 
ATOM     50  C   UNL     1      -0.643  -3.475  23.022  1.00  0.00     0.074 A 
ATOM     51  C   UNL     1      -1.382  -2.246  22.828  1.00  0.00     0.031 C 
ATOM     52  C   UNL     1       5.456  -1.698  22.048  1.00  0.00     0.029 A 
ATOM     53  C   UNL     1       4.959  -3.029  22.384  1.00  0.00     0.049 A 
ATOM     54  H   UNL     1       2.985  -3.588  22.753  1.00  0.00     0.167 HD
ATOM     55  C   UNL     1      -1.212  -4.672  23.305  1.00  0.00     0.037 A 
ATOM     56  C   UNL     1       5.723  -4.129  22.523  1.00  0.00     0.037 A 
ATOM     57  C   UNL     1      -0.477  -5.899  23.474  1.00  0.00     0.049 A 
ATOM     58  C   UNL     1       5.072  -5.437  22.872  1.00  0.00     0.074 A 
ATOM     59  C   UNL     1      -0.968  -7.165  23.742  1.00  0.00     0.029 A 
ATOM     60  N   UNL     1       0.903  -6.016  23.389  1.00  0.00    -0.354 N 
ATOM     61  N   UNL     1       3.798  -5.705  23.028  1.00  0.00    -0.248 NA
ATOM     62  C   UNL     1       5.960  -6.590  23.076  1.00  0.00     0.031 C 
ATOM     63  C   UNL     1       0.116  -8.040  23.856  1.00  0.00     0.029 A 
ATOM     64  C   UNL     1       1.280  -7.329  23.617  1.00  0.00     0.049 A 
ATOM     65  H   UNL     1       1.522  -5.276  23.194  1.00  0.00     0.167 HD
ATOM     66  C   UNL     1       3.730  -7.058  23.338  1.00  0.00     0.074 A 
ATOM     67  C   UNL     1       5.089  -7.558  23.331  1.00  0.00     0.031 C 
ATOM     68  C   UNL     1       2.638  -7.814  23.607  1.00  0.00     0.037 A 
BRANCH  55  69
ATOM     69  C   UNL     1      -2.708  -4.723  23.450  1.00  0.00     0.058 A 
ATOM     70  C   UNL     1      -3.558  -4.632  22.336  1.00  0.00     0.135 A 
ATOM     71  C   UNL     1      -3.299  -4.927  24.708  1.00  0.00     0.135 A 
ATOM     72  F   UNL     1      -3.047  -4.422  21.112  1.00  0.00    -0.206 F 
ATOM     73  C   UNL     1      -4.940  -4.724  22.466  1.00  0.00     0.059 A 
ATOM     74  C   UNL     1      -4.678  -5.045  24.859  1.00  0.00     0.059 A 
ATOM     75  F   UNL     1      -2.532  -5.022  25.806  1.00  0.00    -0.206 F 
ATOM     76  C   UNL     1      -5.491  -4.932  23.732  1.00  0.00     0.060 A 
BRANCH  76  77
ATOM     77  S   UNL     1      -7.286  -5.061  23.878  1.00  0.00     0.124 S 
ATOM     78  O   UNL     1      -7.697  -3.682  23.635  1.00  0.00    -0.237 OA
ATOM     79  O   UNL     1      -7.616  -6.015  22.824  1.00  0.00    -0.237 OA
ATOM     80  O   UNL     1      -7.484  -5.543  25.241  1.00  0.00    -0.744 OA
ENDBRANCH  76  77
ENDBRANCH  55  69
BRANCH  56  81
ATOM     81  C   UNL     1       7.192  -4.034  22.316  1.00  0.00     0.058 A 
ATOM     82  C   UNL     1       7.799  -4.601  21.187  1.00  0.00     0.135 A 
ATOM     83  C   UNL     1       8.009  -3.336  23.219  1.00  0.00     0.135 A 
ATOM     84  F   UNL     1       7.060  -5.284  20.300  1.00  0.00    -0.206 F 
ATOM     85  C   UNL     1       9.166  -4.480  20.959  1.00  0.00     0.059 A 
ATOM     86  C   UNL     1       9.374  -3.180  23.000  1.00  0.00     0.059 A 
ATOM     87  F   UNL     1       7.472  -2.763  24.308  1.00  0.00    -0.206 F 
ATOM     88  C   UNL     1       9.944  -3.761  21.868  1.00  0.00     0.060 A 
BRANCH  88  89
ATOM     89  S   UNL     1      11.704  -3.549  21.523  1.00  0.00     0.124 S 
ATOM     90  O   UNL     1      12.219  -4.885  21.795  1.00  0.00    -0.237 OA
ATOM     91  O   UNL     1      11.693  -3.140  20.122  1.00  0.00    -0.237 OA
ATOM     92  O   UNL     1      12.108  -2.511  22.467  1.00  0.00    -0.744 OA
ENDBRANCH  88  89
ENDBRANCH  56  81
BRANCH  68  93
ATOM     93  C   UNL     1       2.855  -9.269  23.910  1.00  0.00     0.058 A 
ATOM     94  C   UNL     1       3.349  -9.690  25.154  1.00  0.00     0.135 A 
ATOM     95  C   UNL     1       2.482 -10.255  22.982  1.00  0.00     0.135 A 
ATOM     96  F   UNL     1       3.729  -8.786  26.071  1.00  0.00    -0.206 F 
ATOM     97  C   UNL     1       3.468 -11.039  25.468  1.00  0.00     0.059 A 
ATOM     98  C   UNL     1       2.571 -11.610  23.283  1.00  0.00     0.059 A 
ATOM     99  F   UNL     1       1.997  -9.903  21.780  1.00  0.00    -0.206 F 
ATOM    100  C   UNL     1       3.068 -11.993  24.528  1.00  0.00     0.060 A 
BRANCH 100 101
ATOM    101  S   UNL     1       3.166 -13.739  24.977  1.00  0.00     0.124 S 
ATOM    102  O   UNL     1       4.606 -13.970  24.948  1.00  0.00    -0.237 OA
ATOM    103  O   UNL     1       2.547 -13.756  26.299  1.00  0.00    -0.237 OA
ATOM    104  O   UNL     1       2.402 -14.404  23.925  1.00  0.00    -0.744 OA
ENDBRANCH 100 101
ENDBRANCH  68  93
ENDBRANCH  42  43
ENDBRANCH  34  37
ENDBRANCH  32  33
ENDBRANCH  31  32
ENDBRANCH  30  31
ENDBRANCH   1  30
TORSDOF 19
