REMARK SMILES O=C(NCCCCCCNC(=O)[C@@H]1CCCC[C@H]1C(=O)Nc1ccc(NC(=O)c2ccco2)cc1)c1ccc(-c2c3nc(c(-c4c(F)cc(S(=O)(=O)[O-])cc4F)c4ccc([nH]4)c(-c4c(F)cc(S(=O)(=O)[O-])cc4F)c4nc(c(-c5c(F)cc(S(=O)(=O)[O-])cc5F)c5ccc2[nH]5)C=C4)C=C3)cc1
REMARK SMILES IDX 7 1 6 2 5 3 4 4 3 5 1 6 2 7 36 9 37 10 101 11 38 12 100 13
REMARK SMILES IDX 39 14 40 15 41 16 94 17 42 18 99 19 93 20 95 21 43 22 98 23
REMARK SMILES IDX 92 24 91 25 44 27 78 28 57 29 77 30 58 31 61 32 76 33 96 34
REMARK SMILES IDX 59 35 60 36 75 38 97 39 62 40 45 41 46 42 55 43 47 44 48 45
REMARK SMILES IDX 54 46 56 47 49 48 50 49 51 50 52 51 53 52 79 53 80 54 89 55
REMARK SMILES IDX 81 56 82 57 88 58 90 59 83 60 84 61 85 62 86 63 87 64 63 65
REMARK SMILES IDX 64 66 73 67 65 68 66 69 72 70 74 71 67 72 68 73 69 74 70 75
REMARK SMILES IDX 71 76 8 77 9 78 10 79 11 80 12 82 13 83 14 84 18 85 15 86
REMARK SMILES IDX 17 87 16 88 19 89 20 90 21 91 22 93 23 94 35 95 24 96 34 97
REMARK SMILES IDX 25 98 26 99 27 100 28 102 29 103 30 104 33 105 31 106 32 107
REMARK H PARENT 3 8 95 26 61 37 10 81 21 92 26 101
REMARK Flexibility Score: inf
ROOT
ATOM      1  C   UNL     1       4.518  -1.044  -4.239  1.00  0.00     0.002 C 
ENDROOT
BRANCH   1   2
ATOM      2  C   UNL     1       3.788  -2.014  -3.304  1.00  0.00     0.002 C 
BRANCH   2   3
ATOM      3  C   UNL     1       4.237  -1.975  -1.843  1.00  0.00     0.021 C 
BRANCH   3   4
ATOM      4  C   UNL     1       4.152  -0.602  -1.192  1.00  0.00     0.116 C 
BRANCH   4   5
ATOM      5  N   UNL     1       2.779  -0.150  -1.057  1.00  0.00    -0.352 N 
ATOM      6  O   UNL     1       0.901   0.402   0.066  1.00  0.00    -0.269 OA
ATOM      7  C   UNL     1       2.118   0.242   0.080  1.00  0.00     0.251 C 
ATOM      8  H   UNL     1       2.253  -0.121  -1.889  1.00  0.00     0.163 HD
BRANCH   7   9
ATOM      9  C   UNL     1       2.886   0.453   1.326  1.00  0.00     0.039 A 
ATOM     10  C   UNL     1       4.080   1.180   1.304  1.00  0.00     0.014 A 
ATOM     11  C   UNL     1       2.407  -0.081   2.524  1.00  0.00     0.014 A 
ATOM     12  C   UNL     1       4.852   1.272   2.455  1.00  0.00     0.010 A 
ATOM     13  C   UNL     1       3.146   0.083   3.699  1.00  0.00     0.010 A 
ATOM     14  C   UNL     1       4.383   0.744   3.670  1.00  0.00    -0.014 A 
BRANCH  14  15
ATOM     15  C   UNL     1       5.168   0.973   4.909  1.00  0.00     0.031 A 
ATOM     16  C   UNL     1       5.797  -0.167   5.658  1.00  0.00     0.074 A 
ATOM     17  C   UNL     1       5.321   2.240   5.340  1.00  0.00     0.049 A 
ATOM     18  N   UNL     1       6.523  -0.132   6.746  1.00  0.00    -0.248 NA
ATOM     19  C   UNL     1       5.581  -1.521   5.125  1.00  0.00     0.031 C 
ATOM     20  C   UNL     1       4.737   3.423   4.699  1.00  0.00     0.029 A 
ATOM     21  N   UNL     1       6.023   2.752   6.399  1.00  0.00    -0.354 N 
ATOM     22  C   UNL     1       6.835  -1.454   7.041  1.00  0.00     0.074 A 
ATOM     23  C   UNL     1       6.202  -2.270   6.026  1.00  0.00     0.031 C 
ATOM     24  C   UNL     1       5.142   4.522   5.349  1.00  0.00     0.029 A 
ATOM     25  C   UNL     1       5.963   4.123   6.486  1.00  0.00     0.049 A 
ATOM     26  H   UNL     1       6.522   2.192   7.037  1.00  0.00     0.167 HD
ATOM     27  C   UNL     1       7.586  -1.937   8.061  1.00  0.00     0.037 A 
ATOM     28  C   UNL     1       6.497   4.967   7.388  1.00  0.00     0.037 A 
ATOM     29  C   UNL     1       8.222  -1.111   9.057  1.00  0.00     0.049 A 
ATOM     30  C   UNL     1       7.319   4.404   8.509  1.00  0.00     0.074 A 
ATOM     31  C   UNL     1       9.027  -1.502  10.114  1.00  0.00     0.029 A 
ATOM     32  N   UNL     1       8.123   0.272   9.123  1.00  0.00    -0.354 N 
ATOM     33  N   UNL     1       7.624   3.153   8.757  1.00  0.00    -0.248 NA
ATOM     34  C   UNL     1       7.865   5.364   9.476  1.00  0.00     0.031 C 
ATOM     35  C   UNL     1       9.385  -0.359  10.839  1.00  0.00     0.029 A 
ATOM     36  C   UNL     1       8.838   0.748  10.210  1.00  0.00     0.049 A 
ATOM     37  H   UNL     1       7.619   0.832   8.490  1.00  0.00     0.167 HD
ATOM     38  C   UNL     1       8.408   3.175   9.903  1.00  0.00     0.074 A 
ATOM     39  C   UNL     1       8.546   4.566  10.287  1.00  0.00     0.031 C 
ATOM     40  C   UNL     1       8.961   2.137  10.578  1.00  0.00     0.037 A 
BRANCH  27  41
ATOM     41  C   UNL     1       7.749  -3.429   8.164  1.00  0.00     0.058 A 
ATOM     42  C   UNL     1       8.565  -4.145   7.274  1.00  0.00     0.135 A 
ATOM     43  C   UNL     1       7.115  -4.146   9.191  1.00  0.00     0.135 A 
ATOM     44  F   UNL     1       9.184  -3.512   6.265  1.00  0.00    -0.206 F 
ATOM     45  C   UNL     1       8.727  -5.523   7.384  1.00  0.00     0.059 A 
ATOM     46  C   UNL     1       7.280  -5.522   9.334  1.00  0.00     0.059 A 
ATOM     47  F   UNL     1       6.324  -3.511  10.070  1.00  0.00    -0.206 F 
ATOM     48  C   UNL     1       8.078  -6.204   8.415  1.00  0.00     0.060 A 
BRANCH  48  49
ATOM     49  S   UNL     1       8.296  -7.992   8.543  1.00  0.00     0.124 S 
ATOM     50  O   UNL     1       7.464  -8.464   7.441  1.00  0.00    -0.237 OA
ATOM     51  O   UNL     1       9.735  -8.146   8.361  1.00  0.00    -0.237 OA
ATOM     52  O   UNL     1       7.800  -8.300   9.881  1.00  0.00    -0.744 OA
ENDBRANCH  48  49
ENDBRANCH  27  41
BRANCH  28  53
ATOM     53  C   UNL     1       6.264   6.427   7.255  1.00  0.00     0.058 A 
ATOM     54  C   UNL     1       7.298   7.292   6.869  1.00  0.00     0.135 A 
ATOM     55  C   UNL     1       4.992   6.981   7.469  1.00  0.00     0.135 A 
ATOM     56  F   UNL     1       8.531   6.808   6.654  1.00  0.00    -0.206 F 
ATOM     57  C   UNL     1       7.082   8.656   6.708  1.00  0.00     0.059 A 
ATOM     58  C   UNL     1       4.745   8.337   7.290  1.00  0.00     0.059 A 
ATOM     59  F   UNL     1       3.965   6.190   7.820  1.00  0.00    -0.206 F 
ATOM     60  C   UNL     1       5.800   9.169   6.918  1.00  0.00     0.060 A 
BRANCH  60  61
ATOM     61  S   UNL     1       5.514  10.931   6.647  1.00  0.00     0.124 S 
ATOM     62  O   UNL     1       6.098  11.510   7.852  1.00  0.00    -0.237 OA
ATOM     63  O   UNL     1       6.240  11.175   5.405  1.00  0.00    -0.237 OA
ATOM     64  O   UNL     1       4.061  11.020   6.542  1.00  0.00    -0.744 OA
ENDBRANCH  60  61
ENDBRANCH  28  53
BRANCH  40  65
ATOM     65  C   UNL     1       9.782   2.475  11.789  1.00  0.00     0.058 A 
ATOM     66  C   UNL     1       9.184   2.882  12.992  1.00  0.00     0.135 A 
ATOM     67  C   UNL     1      11.181   2.366  11.753  1.00  0.00     0.135 A 
ATOM     68  F   UNL     1       7.850   3.010  13.073  1.00  0.00    -0.206 F 
ATOM     69  C   UNL     1       9.947   3.195  14.111  1.00  0.00     0.059 A 
ATOM     70  C   UNL     1      11.962   2.652  12.867  1.00  0.00     0.059 A 
ATOM     71  F   UNL     1      11.800   1.974  10.628  1.00  0.00    -0.206 F 
ATOM     72  C   UNL     1      11.337   3.080  14.038  1.00  0.00     0.060 A 
BRANCH  72  73
ATOM     73  S   UNL     1      12.318   3.469  15.502  1.00  0.00     0.124 S 
ATOM     74  O   UNL     1      12.296   4.928  15.489  1.00  0.00    -0.237 OA
ATOM     75  O   UNL     1      11.556   2.833  16.571  1.00  0.00    -0.237 OA
ATOM     76  O   UNL     1      13.612   2.857  15.214  1.00  0.00    -0.744 OA
ENDBRANCH  72  73
ENDBRANCH  40  65
ENDBRANCH  14  15
ENDBRANCH   7   9
ENDBRANCH   4   5
ENDBRANCH   3   4
ENDBRANCH   2   3
ENDBRANCH   1   2
BRANCH   1  77
ATOM     77  C   UNL     1       6.045  -1.068  -4.139  1.00  0.00     0.021 C 
BRANCH  77  78
ATOM     78  C   UNL     1       6.665  -2.450  -4.311  1.00  0.00     0.116 C 
BRANCH  78  79
ATOM     79  N   UNL     1       6.522  -2.936  -5.668  1.00  0.00    -0.356 N 
ATOM     80  C   UNL     1       7.456  -3.220  -6.607  1.00  0.00     0.223 C 
ATOM     81  H   UNL     1       5.593  -3.085  -5.955  1.00  0.00     0.163 HD
ATOM     82  O   UNL     1       7.071  -3.582  -7.723  1.00  0.00    -0.275 OA
BRANCH  80  83
ATOM     83  C   UNL     1       8.944  -3.105  -6.319  1.00  0.00     0.091 C 
ATOM     84  C   UNL     1       9.436  -4.091  -5.251  1.00  0.00     0.014 C 
ATOM     85  C   UNL     1       9.411  -1.657  -6.125  1.00  0.00     0.091 C 
ATOM     86  C   UNL     1      10.942  -3.960  -5.040  1.00  0.00     0.001 C 
ATOM     87  C   UNL     1      10.915  -1.562  -5.827  1.00  0.00     0.014 C 
ATOM     88  C   UNL     1      11.328  -2.522  -4.709  1.00  0.00     0.001 C 
BRANCH  85  89
ATOM     89  C   UNL     1       8.923  -0.637  -7.176  1.00  0.00     0.228 C 
ATOM     90  O   UNL     1       8.049   0.178  -6.853  1.00  0.00    -0.274 OA
ATOM     91  N   UNL     1       9.478  -0.469  -8.412  1.00  0.00    -0.326 N 
ATOM     92  H   UNL     1       9.178   0.339  -8.888  1.00  0.00     0.169 HD
BRANCH  91  93
ATOM     93  C   UNL     1      10.397  -1.246  -9.113  1.00  0.00     0.041 A 
ATOM     94  C   UNL     1      11.495  -0.620  -9.687  1.00  0.00     0.028 A 
ATOM     95  C   UNL     1      10.239  -2.610  -9.296  1.00  0.00     0.028 A 
ATOM     96  C   UNL     1      12.534  -1.391 -10.219  1.00  0.00     0.028 A 
ATOM     97  C   UNL     1      11.294  -3.385  -9.778  1.00  0.00     0.028 A 
ATOM     98  C   UNL     1      12.493  -2.784 -10.162  1.00  0.00     0.041 A 
BRANCH  98  99
ATOM     99  N   UNL     1      13.565  -3.649 -10.445  1.00  0.00    -0.319 N 
ATOM    100  C   UNL     1      14.913  -3.445 -10.664  1.00  0.00     0.291 C 
ATOM    101  H   UNL     1      13.299  -4.595 -10.497  1.00  0.00     0.170 HD
ATOM    102  O   UNL     1      15.604  -4.444 -10.881  1.00  0.00    -0.265 OA
BRANCH 100 103
ATOM    103  C   UNL     1      15.469  -2.119 -10.607  1.00  0.00     0.191 A 
ATOM    104  C   UNL     1      15.760  -1.272  -9.552  1.00  0.00     0.056 A 
ATOM    105  O   UNL     1      15.767  -1.497 -11.789  1.00  0.00    -0.459 OA
ATOM    106  C   UNL     1      16.212  -0.057 -10.126  1.00  0.00     0.043 A 
ATOM    107  C   UNL     1      16.207  -0.250 -11.487  1.00  0.00     0.196 A 
ENDBRANCH 100 103
ENDBRANCH  98  99
ENDBRANCH  91  93
ENDBRANCH  85  89
ENDBRANCH  80  83
ENDBRANCH  78  79
ENDBRANCH  77  78
ENDBRANCH   1  77
TORSDOF 20
