REMARK SMILES Cc1cccc(-n2c(C)cc(/C=N\c3ccc(O)c(C(=O)NCCCCCCNC(=O)c4ccc(-c5c6nc(c(-c7c(F)cc(S(=O)(=O)[O-])cc7F)c7ccc([nH]7)c(-c7c(F)cc(S(=O)(=O)[O-])cc7F)c7nc(c(-c8c(F)cc(S(=O)(=O)[O-])cc8F)c8ccc5[nH]8)C=C7)C=C6)cc4)c3)c2C)c1
REMARK SMILES IDX 25 1 24 2 23 3 22 4 20 5 21 6 19 8 14 9 15 10 98 11 16 12
REMARK SMILES IDX 17 13 13 14 12 15 11 16 7 17 8 18 99 19 9 20 10 21 100 22
REMARK SMILES IDX 6 23 1 24 2 25 3 26 101 27 4 28 5 29 18 30 26 32 27 33 28 34
REMARK SMILES IDX 29 35 30 36 31 38 32 39 33 40 97 41 34 42 96 43 35 44 36 45
REMARK SMILES IDX 37 46 90 47 38 48 95 49 89 50 91 51 39 52 94 53 88 54 87 55
REMARK SMILES IDX 40 57 74 58 53 59 73 60 54 61 57 62 72 63 92 64 55 65 56 66
REMARK SMILES IDX 71 68 93 69 58 70 41 71 42 72 51 73 43 74 44 75 50 76 52 77
REMARK SMILES IDX 45 78 46 79 47 80 48 81 49 82 75 83 76 84 85 85 77 86 78 87
REMARK SMILES IDX 84 88 86 89 79 90 80 91 81 92 82 93 83 94 59 95 60 96 69 97
REMARK SMILES IDX 61 98 62 99 68 100 70 101 63 102 64 103 65 104 66 105 67 106
REMARK H PARENT 22 7 18 31 29 37 91 56 57 67
REMARK Flexibility Score: inf
ROOT
ATOM      1  C   UNL     1      -5.311  -3.553   7.474  1.00  0.00     0.002 C 
ENDROOT
BRANCH   1   2
ATOM      2  C   UNL     1      -4.446  -2.294   7.604  1.00  0.00     0.021 C 
BRANCH   2   3
ATOM      3  C   UNL     1      -4.166  -1.437   6.374  1.00  0.00     0.116 C 
BRANCH   3   4
ATOM      4  N   UNL     1      -5.317  -0.994   5.618  1.00  0.00    -0.352 N 
ATOM      5  C   UNL     1      -5.489   0.056   4.743  1.00  0.00     0.255 C 
ATOM      6  O   UNL     1      -6.586   0.129   4.182  1.00  0.00    -0.269 OA
ATOM      7  H   UNL     1      -6.124  -1.541   5.754  1.00  0.00     0.163 HD
BRANCH   5   8
ATOM      8  C   UNL     1      -4.463   1.109   4.434  1.00  0.00     0.083 A 
ATOM      9  C   UNL     1      -4.103   3.303   3.381  1.00  0.00     0.064 A 
ATOM     10  C   UNL     1      -2.751   3.246   3.700  1.00  0.00     0.032 A 
ATOM     11  C   UNL     1      -4.960   2.299   3.861  1.00  0.00     0.046 A 
ATOM     12  C   UNL     1      -2.231   2.087   4.265  1.00  0.00     0.049 A 
ATOM     13  C   UNL     1      -3.071   0.997   4.517  1.00  0.00     0.128 A 
BRANCH   9  14
ATOM     14  N   UNL     1      -4.630   4.314   2.572  1.00  0.00    -0.256 NA
ATOM     15  C   UNL     1      -4.259   4.500   1.337  1.00  0.00     0.121 C 
BRANCH  15  16
ATOM     16  C   UNL     1      -3.285   3.789   0.504  1.00  0.00     0.014 A 
ATOM     17  N   UNL     1      -1.891   2.289  -0.459  1.00  0.00    -0.318 N 
ATOM     18  C   UNL     1      -1.646   3.514  -1.061  1.00  0.00     0.021 A 
ATOM     19  C   UNL     1      -3.028   2.425   0.345  1.00  0.00     0.029 A 
ATOM     20  C   UNL     1      -0.710   3.699  -2.206  1.00  0.00     0.065 C 
ATOM     21  C   UNL     1      -2.457   4.448  -0.451  1.00  0.00     0.033 A 
ATOM     22  C   UNL     1      -3.717   1.250   0.945  1.00  0.00     0.065 C 
BRANCH  17  23
ATOM     23  C   UNL     1      -1.071   1.128  -0.590  1.00  0.00     0.046 A 
ATOM     24  C   UNL     1       2.582   0.181  -0.014  1.00  0.00     0.044 C 
ATOM     25  C   UNL     1       1.121   0.096  -0.345  1.00  0.00    -0.049 A 
ATOM     26  C   UNL     1       0.543  -1.154  -0.604  1.00  0.00     0.003 A 
ATOM     27  C   UNL     1       0.307   1.238  -0.343  1.00  0.00     0.030 A 
ATOM     28  C   UNL     1      -0.818  -1.258  -0.886  1.00  0.00     0.002 A 
ATOM     29  C   UNL     1      -1.623  -0.119  -0.888  1.00  0.00     0.026 A 
ENDBRANCH  17  23
ENDBRANCH  15  16
ENDBRANCH   9  14
BRANCH  13  30
ATOM     30  O   UNL     1      -2.402  -0.186   4.646  1.00  0.00    -0.507 OA
ATOM     31  H   UNL     1      -1.466  -0.192   4.697  1.00  0.00     0.293 HD
ENDBRANCH  13  30
ENDBRANCH   5   8
ENDBRANCH   3   4
ENDBRANCH   2   3
ENDBRANCH   1   2
BRANCH   1  32
ATOM     32  C   UNL     1      -5.116  -4.527   6.304  1.00  0.00     0.002 C 
BRANCH  32  33
ATOM     33  C   UNL     1      -3.701  -4.939   5.903  1.00  0.00     0.021 C 
BRANCH  33  34
ATOM     34  C   UNL     1      -2.782  -5.400   7.026  1.00  0.00     0.116 C 
BRANCH  34  35
ATOM     35  N   UNL     1      -2.679  -6.841   7.169  1.00  0.00    -0.352 N 
ATOM     36  C   UNL     1      -1.631  -7.507   7.783  1.00  0.00     0.251 C 
ATOM     37  H   UNL     1      -3.410  -7.387   6.801  1.00  0.00     0.163 HD
ATOM     38  O   UNL     1      -1.281  -8.640   7.467  1.00  0.00    -0.269 OA
BRANCH  36  39
ATOM     39  C   UNL     1      -1.050  -6.846   8.971  1.00  0.00     0.039 A 
ATOM     40  C   UNL     1      -1.418  -7.342  10.227  1.00  0.00     0.014 A 
ATOM     41  C   UNL     1      -0.388  -5.627   8.848  1.00  0.00     0.014 A 
ATOM     42  C   UNL     1      -1.270  -6.537  11.355  1.00  0.00     0.010 A 
ATOM     43  C   UNL     1      -0.309  -4.803   9.955  1.00  0.00     0.010 A 
ATOM     44  C   UNL     1      -0.793  -5.237  11.200  1.00  0.00    -0.014 A 
BRANCH  44  45
ATOM     45  C   UNL     1      -0.849  -4.220  12.246  1.00  0.00     0.031 A 
ATOM     46  C   UNL     1       0.389  -3.740  12.904  1.00  0.00     0.074 A 
ATOM     47  C   UNL     1      -2.024  -3.612  12.526  1.00  0.00     0.049 A 
ATOM     48  N   UNL     1       0.406  -2.985  13.954  1.00  0.00    -0.248 NA
ATOM     49  C   UNL     1       1.730  -4.140  12.474  1.00  0.00     0.031 C 
ATOM     50  C   UNL     1      -2.212  -2.313  13.168  1.00  0.00     0.029 A 
ATOM     51  N   UNL     1      -3.305  -4.163  12.486  1.00  0.00    -0.354 N 
ATOM     52  C   UNL     1       1.693  -2.536  14.114  1.00  0.00     0.074 A 
ATOM     53  C   UNL     1       2.494  -3.397  13.283  1.00  0.00     0.031 C 
ATOM     54  C   UNL     1      -3.454  -2.244  13.665  1.00  0.00     0.029 A 
ATOM     55  C   UNL     1      -4.053  -3.557  13.514  1.00  0.00     0.049 A 
ATOM     56  H   UNL     1      -3.626  -4.849  11.856  1.00  0.00     0.167 HD
ATOM     57  C   UNL     1       1.909  -1.378  14.797  1.00  0.00     0.037 A 
ATOM     58  C   UNL     1      -4.572  -4.289  14.546  1.00  0.00     0.037 A 
ATOM     59  C   UNL     1       0.743  -1.005  15.599  1.00  0.00     0.049 A 
ATOM     60  C   UNL     1      -4.062  -3.901  15.916  1.00  0.00     0.074 A 
ATOM     61  C   UNL     1      -0.191   0.012  15.526  1.00  0.00     0.029 A 
ATOM     62  N   UNL     1       0.280  -1.895  16.567  1.00  0.00    -0.354 N 
ATOM     63  N   UNL     1      -3.050  -3.104  16.124  1.00  0.00    -0.248 NA
ATOM     64  C   UNL     1      -4.629  -4.410  17.164  1.00  0.00     0.031 C 
ATOM     65  C   UNL     1      -1.280  -0.339  16.372  1.00  0.00     0.029 A 
ATOM     66  C   UNL     1      -0.981  -1.537  16.999  1.00  0.00     0.049 A 
ATOM     67  H   UNL     1       0.784  -2.673  16.898  1.00  0.00     0.167 HD
ATOM     68  C   UNL     1      -2.777  -3.045  17.465  1.00  0.00     0.074 A 
ATOM     69  C   UNL     1      -3.825  -3.840  18.079  1.00  0.00     0.031 C 
ATOM     70  C   UNL     1      -1.694  -2.374  17.958  1.00  0.00     0.037 A 
BRANCH  57  71
ATOM     71  C   UNL     1       3.107  -0.468  14.583  1.00  0.00     0.058 A 
ATOM     72  C   UNL     1       3.316   0.652  15.418  1.00  0.00     0.135 A 
ATOM     73  C   UNL     1       3.994  -0.551  13.484  1.00  0.00     0.135 A 
ATOM     74  F   UNL     1       2.531   0.873  16.483  1.00  0.00    -0.206 F 
ATOM     75  C   UNL     1       4.312   1.609  15.177  1.00  0.00     0.059 A 
ATOM     76  C   UNL     1       5.028   0.358  13.257  1.00  0.00     0.059 A 
ATOM     77  F   UNL     1       3.862  -1.473  12.524  1.00  0.00    -0.206 F 
ATOM     78  C   UNL     1       5.164   1.455  14.090  1.00  0.00     0.060 A 
BRANCH  78  79
ATOM     79  S   UNL     1       6.427   2.693  13.742  1.00  0.00     0.124 S 
ATOM     80  O   UNL     1       5.639   3.760  13.133  1.00  0.00    -0.237 OA
ATOM     81  O   UNL     1       6.971   2.977  15.065  1.00  0.00    -0.237 OA
ATOM     82  O   UNL     1       7.339   1.998  12.835  1.00  0.00    -0.744 OA
ENDBRANCH  78  79
ENDBRANCH  57  71
BRANCH  58  83
ATOM     83  C   UNL     1      -4.995  -5.654  14.131  1.00  0.00     0.058 A 
ATOM     84  C   UNL     1      -6.103  -5.747  13.267  1.00  0.00     0.135 A 
ATOM     85  C   UNL     1      -4.093  -6.727  14.153  1.00  0.00     0.135 A 
ATOM     86  F   UNL     1      -7.011  -4.757  13.232  1.00  0.00    -0.206 F 
ATOM     87  C   UNL     1      -6.204  -6.760  12.321  1.00  0.00     0.059 A 
ATOM     88  C   UNL     1      -4.184  -7.761  13.220  1.00  0.00     0.059 A 
ATOM     89  F   UNL     1      -3.028  -6.698  14.967  1.00  0.00    -0.206 F 
ATOM     90  C   UNL     1      -5.193  -7.715  12.255  1.00  0.00     0.060 A 
BRANCH  90  91
ATOM     91  S   UNL     1      -5.119  -8.766  10.784  1.00  0.00     0.124 S 
ATOM     92  O   UNL     1      -6.461  -9.337  10.746  1.00  0.00    -0.237 OA
ATOM     93  O   UNL     1      -4.819  -7.791   9.737  1.00  0.00    -0.237 OA
ATOM     94  O   UNL     1      -4.045  -9.702  11.095  1.00  0.00    -0.744 OA
ENDBRANCH  90  91
ENDBRANCH  58  83
BRANCH  70  95
ATOM     95  C   UNL     1      -1.234  -2.406  19.396  1.00  0.00     0.058 A 
ATOM     96  C   UNL     1      -1.346  -3.530  20.234  1.00  0.00     0.135 A 
ATOM     97  C   UNL     1      -0.532  -1.305  19.942  1.00  0.00     0.135 A 
ATOM     98  F   UNL     1      -1.889  -4.674  19.792  1.00  0.00    -0.206 F 
ATOM     99  C   UNL     1      -0.866  -3.539  21.546  1.00  0.00     0.059 A 
ATOM    100  C   UNL     1      -0.000  -1.311  21.231  1.00  0.00     0.059 A 
ATOM    101  F   UNL     1      -0.339  -0.184  19.232  1.00  0.00    -0.206 F 
ATOM    102  C   UNL     1      -0.197  -2.423  22.038  1.00  0.00     0.060 A 
BRANCH 102 103
ATOM    103  S   UNL     1       0.472  -2.431  23.714  1.00  0.00     0.124 S 
ATOM    104  O   UNL     1      -0.591  -1.761  24.456  1.00  0.00    -0.237 OA
ATOM    105  O   UNL     1       0.635  -3.854  23.998  1.00  0.00    -0.237 OA
ATOM    106  O   UNL     1       1.717  -1.683  23.574  1.00  0.00    -0.744 OA
ENDBRANCH 102 103
ENDBRANCH  70  95
ENDBRANCH  44  45
ENDBRANCH  36  39
ENDBRANCH  34  35
ENDBRANCH  33  34
ENDBRANCH  32  33
ENDBRANCH   1  32
TORSDOF 20
