REMARK SMILES CCc1ccc(C[NH+]2CCC(Oc3ccccc3OC)(C(=O)NCCCCCCNC(=O)c3ccc(-c4c5nc(c(-c6c(F)cc(S(=O)(=O)[O-])cc6F)c6ccc([nH]6)c(-c6c(F)cc(S(=O)(=O)[O-])cc6F)c6nc(c(-c7c(F)cc(S(=O)(=O)[O-])cc7F)c7ccc4[nH]7)C=C6)C=C5)cc3)CC2)nc1
REMARK SMILES IDX 26 1 25 2 24 3 23 4 21 5 22 6 11 8 8 9 9 10 100 11 10 13
REMARK SMILES IDX 99 14 7 15 6 16 3 17 4 18 102 19 5 20 101 21 2 22 1 23 12 24
REMARK SMILES IDX 13 25 14 26 18 27 15 28 17 29 16 30 19 31 20 32 27 33 28 34
REMARK SMILES IDX 29 35 30 36 31 37 32 39 33 40 34 41 98 42 35 43 97 44 36 45
REMARK SMILES IDX 37 46 38 47 91 48 39 49 96 50 90 51 92 52 40 53 95 54 89 55
REMARK SMILES IDX 88 56 41 58 75 59 54 60 74 61 55 62 58 63 73 64 93 65 56 66
REMARK SMILES IDX 57 67 72 69 94 70 59 71 42 72 43 73 52 74 44 75 45 76 51 77
REMARK SMILES IDX 53 78 46 79 47 80 48 81 49 82 50 83 76 84 77 85 86 86 78 87
REMARK SMILES IDX 79 88 85 89 87 90 80 91 81 92 82 93 83 94 84 95 60 96 61 97
REMARK SMILES IDX 70 98 62 99 63 100 69 101 71 102 64 103 65 104 66 105 67 106
REMARK SMILES IDX 68 107
REMARK H PARENT 23 7 8 12 30 38 92 57 58 68
REMARK Flexibility Score: inf
ROOT
ATOM      1  C   UNL     1      -4.316  -2.126   3.913  1.00  0.00     0.002 C 
ENDROOT
BRANCH   1   2
ATOM      2  C   UNL     1      -3.689  -3.406   4.470  1.00  0.00     0.021 C 
BRANCH   2   3
ATOM      3  C   UNL     1      -4.213  -4.697   3.846  1.00  0.00     0.116 C 
BRANCH   3   4
ATOM      4  N   UNL     1      -3.727  -4.879   2.488  1.00  0.00    -0.353 N 
ATOM      5  C   UNL     1      -2.924  -5.850   1.952  1.00  0.00     0.264 C 
ATOM      6  O   UNL     1      -2.818  -5.839   0.720  1.00  0.00    -0.270 OA
ATOM      7  H   UNL     1      -4.024  -4.191   1.849  1.00  0.00     0.163 HD
BRANCH   5   8
ATOM      8  C   UNL     1      -2.189  -6.901   2.842  1.00  0.00     0.197 C 
ATOM      9  N   UNL     1       0.710  -6.651   2.304  1.00  0.00    -0.330 N 
ATOM     10  C   UNL     1      -0.008  -5.611   3.045  1.00  0.00     0.267 C 
ATOM     11  C   UNL     1      -0.165  -7.259   1.292  1.00  0.00     0.267 C 
ATOM     12  H   UNL     1       0.976  -7.378   2.968  1.00  0.00     0.348 HD
ATOM     13  C   UNL     1      -1.194  -6.213   3.783  1.00  0.00     0.120 C 
ATOM     14  C   UNL     1      -1.406  -7.890   1.947  1.00  0.00     0.120 C 
BRANCH   9  15
ATOM     15  C   UNL     1       1.978  -6.148   1.714  1.00  0.00     0.319 C 
BRANCH  15  16
ATOM     16  C   UNL     1       1.896  -4.807   0.999  1.00  0.00     0.095 A 
ATOM     17  C   UNL     1       1.241  -2.358  -0.105  1.00  0.00    -0.030 A 
ATOM     18  C   UNL     1       1.903  -2.406   1.121  1.00  0.00     0.007 A 
ATOM     19  C   UNL     1       1.005  -3.577  -0.739  1.00  0.00     0.115 A 
ATOM     20  C   UNL     1       2.238  -3.638   1.679  1.00  0.00     0.030 A 
ATOM     21  N   UNL     1       1.328  -4.786  -0.229  1.00  0.00    -0.255 NA
BRANCH  17  22
ATOM     22  C   UNL     1       0.707  -1.099  -0.736  1.00  0.00     0.034 C 
ATOM     23  C   UNL     1       1.109   0.216  -0.082  1.00  0.00     0.009 C 
ENDBRANCH  17  22
ENDBRANCH  15  16
ENDBRANCH   9  15
BRANCH   8  24
ATOM     24  O   UNL     1      -3.308  -7.469   3.575  1.00  0.00    -0.473 OA
BRANCH  24  25
ATOM     25  C   UNL     1      -3.190  -8.676   4.193  1.00  0.00     0.162 A 
ATOM     26  C   UNL     1      -3.353  -9.833   3.427  1.00  0.00     0.050 A 
ATOM     27  C   UNL     1      -3.174  -8.778   5.590  1.00  0.00     0.160 A 
ATOM     28  C   UNL     1      -3.389 -11.088   4.034  1.00  0.00     0.004 A 
ATOM     29  C   UNL     1      -3.190 -10.037   6.200  1.00  0.00     0.050 A 
ATOM     30  C   UNL     1      -3.281 -11.192   5.419  1.00  0.00     0.004 A 
BRANCH  27  31
ATOM     31  O   UNL     1      -3.403  -7.689   6.390  1.00  0.00    -0.493 OA
ATOM     32  C   UNL     1      -2.216  -7.037   6.821  1.00  0.00     0.278 C 
ENDBRANCH  27  31
ENDBRANCH  24  25
ENDBRANCH   8  24
ENDBRANCH   5   8
ENDBRANCH   3   4
ENDBRANCH   2   3
ENDBRANCH   1   2
BRANCH   1  33
ATOM     33  C   UNL     1      -5.839  -2.026   4.049  1.00  0.00     0.002 C 
BRANCH  33  34
ATOM     34  C   UNL     1      -6.397  -2.264   5.455  1.00  0.00     0.021 C 
BRANCH  34  35
ATOM     35  C   UNL     1      -5.847  -1.339   6.538  1.00  0.00     0.116 C 
BRANCH  35  36
ATOM     36  N   UNL     1      -6.154   0.056   6.274  1.00  0.00    -0.352 N 
ATOM     37  C   UNL     1      -6.773   0.985   7.072  1.00  0.00     0.251 C 
ATOM     38  H   UNL     1      -5.877   0.384   5.388  1.00  0.00     0.163 HD
ATOM     39  O   UNL     1      -7.121   2.058   6.589  1.00  0.00    -0.269 OA
BRANCH  37  40
ATOM     40  C   UNL     1      -7.030   0.699   8.502  1.00  0.00     0.039 A 
ATOM     41  C   UNL     1      -8.253   1.093   9.055  1.00  0.00     0.014 A 
ATOM     42  C   UNL     1      -6.062   0.096   9.310  1.00  0.00     0.014 A 
ATOM     43  C   UNL     1      -8.517   0.848  10.405  1.00  0.00     0.010 A 
ATOM     44  C   UNL     1      -6.352  -0.206  10.640  1.00  0.00     0.010 A 
ATOM     45  C   UNL     1      -7.577   0.179  11.205  1.00  0.00    -0.014 A 
BRANCH  45  46
ATOM     46  C   UNL     1      -7.857  -0.104  12.637  1.00  0.00     0.031 A 
ATOM     47  C   UNL     1      -7.037   0.552  13.716  1.00  0.00     0.074 A 
ATOM     48  C   UNL     1      -8.820  -0.989  12.964  1.00  0.00     0.049 A 
ATOM     49  N   UNL     1      -7.112   0.406  15.014  1.00  0.00    -0.248 NA
ATOM     50  C   UNL     1      -5.977   1.474  13.277  1.00  0.00     0.031 C 
ATOM     51  C   UNL     1      -9.645  -1.732  12.009  1.00  0.00     0.029 A 
ATOM     52  N   UNL     1      -9.263  -1.419  14.190  1.00  0.00    -0.354 N 
ATOM     53  C   UNL     1      -6.103   1.201  15.545  1.00  0.00     0.074 A 
ATOM     54  C   UNL     1      -5.398   1.790  14.427  1.00  0.00     0.031 C 
ATOM     55  C   UNL     1     -10.505  -2.510  12.684  1.00  0.00     0.029 A 
ATOM     56  C   UNL     1     -10.277  -2.344  14.117  1.00  0.00     0.049 A 
ATOM     57  H   UNL     1      -8.889  -1.095  15.041  1.00  0.00     0.167 HD
ATOM     58  C   UNL     1      -5.804   1.437  16.846  1.00  0.00     0.037 A 
ATOM     59  C   UNL     1     -10.947  -2.987  15.093  1.00  0.00     0.037 A 
ATOM     60  C   UNL     1      -6.529   0.873  17.955  1.00  0.00     0.049 A 
ATOM     61  C   UNL     1     -10.619  -2.686  16.529  1.00  0.00     0.074 A 
ATOM     62  C   UNL     1      -6.349   1.103  19.308  1.00  0.00     0.029 A 
ATOM     63  N   UNL     1      -7.574  -0.033  17.840  1.00  0.00    -0.354 N 
ATOM     64  N   UNL     1      -9.707  -1.876  17.014  1.00  0.00    -0.248 NA
ATOM     65  C   UNL     1     -11.418  -3.374  17.552  1.00  0.00     0.031 C 
ATOM     66  C   UNL     1      -7.260   0.308  20.012  1.00  0.00     0.029 A 
ATOM     67  C   UNL     1      -8.037  -0.384  19.098  1.00  0.00     0.049 A 
ATOM     68  H   UNL     1      -7.933  -0.375  16.990  1.00  0.00     0.167 HD
ATOM     69  C   UNL     1      -9.839  -1.940  18.397  1.00  0.00     0.074 A 
ATOM     70  C   UNL     1     -10.927  -2.856  18.670  1.00  0.00     0.031 C 
ATOM     71  C   UNL     1      -9.124  -1.296  19.353  1.00  0.00     0.037 A 
BRANCH  58  72
ATOM     72  C   UNL     1      -4.644   2.349  17.140  1.00  0.00     0.058 A 
ATOM     73  C   UNL     1      -4.712   3.730  16.894  1.00  0.00     0.135 A 
ATOM     74  C   UNL     1      -3.460   1.843  17.699  1.00  0.00     0.135 A 
ATOM     75  F   UNL     1      -5.815   4.267  16.348  1.00  0.00    -0.206 F 
ATOM     76  C   UNL     1      -3.636   4.571  17.161  1.00  0.00     0.059 A 
ATOM     77  C   UNL     1      -2.381   2.669  17.999  1.00  0.00     0.059 A 
ATOM     78  F   UNL     1      -3.341   0.530  17.955  1.00  0.00    -0.206 F 
ATOM     79  C   UNL     1      -2.473   4.030  17.710  1.00  0.00     0.060 A 
BRANCH  79  80
ATOM     80  S   UNL     1      -1.083   5.132  18.046  1.00  0.00     0.124 S 
ATOM     81  O   UNL     1      -0.570   5.371  16.700  1.00  0.00    -0.237 OA
ATOM     82  O   UNL     1      -1.732   6.271  18.688  1.00  0.00    -0.237 OA
ATOM     83  O   UNL     1      -0.220   4.337  18.914  1.00  0.00    -0.744 OA
ENDBRANCH  79  80
ENDBRANCH  58  72
BRANCH  59  84
ATOM     84  C   UNL     1     -12.018  -3.955  14.739  1.00  0.00     0.058 A 
ATOM     85  C   UNL     1     -13.370  -3.644  14.948  1.00  0.00     0.135 A 
ATOM     86  C   UNL     1     -11.714  -5.199  14.165  1.00  0.00     0.135 A 
ATOM     87  F   UNL     1     -13.710  -2.469  15.499  1.00  0.00    -0.206 F 
ATOM     88  C   UNL     1     -14.383  -4.536  14.613  1.00  0.00     0.059 A 
ATOM     89  C   UNL     1     -12.711  -6.098  13.800  1.00  0.00     0.059 A 
ATOM     90  F   UNL     1     -10.437  -5.536  13.929  1.00  0.00    -0.206 F 
ATOM     91  C   UNL     1     -14.043  -5.761  14.037  1.00  0.00     0.060 A 
BRANCH  91  92
ATOM     92  S   UNL     1     -15.368  -6.889  13.554  1.00  0.00     0.124 S 
ATOM     93  O   UNL     1     -15.796  -7.410  14.847  1.00  0.00    -0.237 OA
ATOM     94  O   UNL     1     -16.306  -5.994  12.884  1.00  0.00    -0.237 OA
ATOM     95  O   UNL     1     -14.693  -7.844  12.680  1.00  0.00    -0.744 OA
ENDBRANCH  91  92
ENDBRANCH  59  84
BRANCH  71  96
ATOM     96  C   UNL     1      -9.515  -1.538  20.784  1.00  0.00     0.058 A 
ATOM     97  C   UNL     1      -9.226  -2.749  21.433  1.00  0.00     0.135 A 
ATOM     98  C   UNL     1     -10.150  -0.530  21.528  1.00  0.00     0.135 A 
ATOM     99  F   UNL     1      -8.624  -3.746  20.765  1.00  0.00    -0.206 F 
ATOM    100  C   UNL     1      -9.578  -2.962  22.762  1.00  0.00     0.059 A 
ATOM    101  C   UNL     1     -10.488  -0.712  22.865  1.00  0.00     0.059 A 
ATOM    102  F   UNL     1     -10.438   0.651  20.958  1.00  0.00    -0.206 F 
ATOM    103  C   UNL     1     -10.210  -1.938  23.469  1.00  0.00     0.060 A 
BRANCH 103 104
ATOM    104  S   UNL     1     -10.642  -2.217  25.200  1.00  0.00     0.124 S 
ATOM    105  O   UNL     1     -11.816  -3.074  25.075  1.00  0.00    -0.237 OA
ATOM    106  O   UNL     1      -9.441  -2.860  25.724  1.00  0.00    -0.237 OA
ATOM    107  O   UNL     1     -10.897  -0.872  25.707  1.00  0.00    -0.744 OA
ENDBRANCH 103 104
ENDBRANCH  71  96
ENDBRANCH  45  46
ENDBRANCH  37  40
ENDBRANCH  35  36
ENDBRANCH  34  35
ENDBRANCH  33  34
ENDBRANCH   1  33
TORSDOF 22
