REMARK SMILES C=CC[N@@H+](CC(=O)NCCCCCCNC(=O)c1ccc(-c2c3nc(c(-c4c(F)cc(S(=O)(=O)[O-])cc4F)c4ccc([nH]4)c(-c4c(F)cc(S(=O)(=O)[O-])cc4F)c4nc(c(-c5c(F)cc(S(=O)(=O)[O-])cc5F)c5ccc2[nH]5)C=C4)C=C3)cc1)Cc1ccc([N+](=O)[O-])o1
REMARK SMILES IDX 11 1 10 2 9 3 8 4 6 5 7 6 5 8 4 9 3 11 2 12 1 13 84 14 85 15
REMARK SMILES IDX 86 16 92 17 87 18 88 19 89 20 90 21 91 22 12 23 13 24 14 25
REMARK SMILES IDX 15 26 16 27 17 29 18 30 19 31 83 32 20 33 82 34 21 35 22 36
REMARK SMILES IDX 23 37 76 38 24 39 81 40 75 41 77 42 25 43 80 44 74 45 73 46
REMARK SMILES IDX 26 48 60 49 39 50 59 51 40 52 43 53 58 54 78 55 41 56 42 57
REMARK SMILES IDX 57 59 79 60 44 61 27 62 28 63 37 64 29 65 30 66 36 67 38 68
REMARK SMILES IDX 31 69 32 70 33 71 34 72 35 73 61 74 62 75 71 76 63 77 64 78
REMARK SMILES IDX 70 79 72 80 65 81 66 82 67 83 68 84 69 85 45 86 46 87 55 88
REMARK SMILES IDX 47 89 48 90 54 91 56 92 49 93 50 94 51 95 52 96 53 97
REMARK H PARENT 8 7 4 10 15 28 77 47 43 58
REMARK Flexibility Score: inf
ROOT
ATOM      1  C   UNL     1      -2.102  -0.165  -3.031  1.00  0.00     0.002 C 
ENDROOT
BRANCH   1   2
ATOM      2  C   UNL     1      -1.781   0.462  -1.678  1.00  0.00     0.021 C 
BRANCH   2   3
ATOM      3  C   UNL     1      -2.957   1.085  -0.908  1.00  0.00     0.116 C 
BRANCH   3   4
ATOM      4  N   UNL     1      -3.749   0.098  -0.200  1.00  0.00    -0.351 N 
ATOM      5  C   UNL     1      -3.785  -0.250   1.122  1.00  0.00     0.275 C 
ATOM      6  O   UNL     1      -4.572  -1.142   1.464  1.00  0.00    -0.269 OA
ATOM      7  H   UNL     1      -4.369  -0.411  -0.771  1.00  0.00     0.163 HD
BRANCH   5   8
ATOM      8  C   UNL     1      -2.921   0.447   2.175  1.00  0.00     0.364 C 
BRANCH   8   9
ATOM      9  N   UNL     1      -1.513   0.022   2.274  1.00  0.00    -0.318 N 
ATOM     10  H   UNL     1      -1.242   0.290   3.220  1.00  0.00     0.349 HD
BRANCH   9  11
ATOM     11  C   UNL     1      -0.581   0.832   1.526  1.00  0.00     0.291 C 
BRANCH  11  12
ATOM     12  C   UNL     1       0.882   0.578   1.713  1.00  0.00     0.025 C 
ATOM     13  C   UNL     1       1.655   0.049   0.753  1.00  0.00     0.010 C 
ENDBRANCH  11  12
ENDBRANCH   9  11
BRANCH   9  14
ATOM     14  C   UNL     1      -1.228  -1.382   2.549  1.00  0.00     0.339 C 
BRANCH  14  15
ATOM     15  C   UNL     1      -1.391  -2.442   1.496  1.00  0.00     0.165 A 
ATOM     16  C   UNL     1      -1.012  -3.779   1.493  1.00  0.00     0.059 A 
ATOM     17  O   UNL     1      -2.117  -2.185   0.368  1.00  0.00    -0.400 OA
ATOM     18  C   UNL     1      -1.572  -4.374   0.332  1.00  0.00     0.134 A 
ATOM     19  C   UNL     1      -2.267  -3.365  -0.284  1.00  0.00     0.433 A 
BRANCH  19  20
ATOM     20  N   UNL     1      -3.101  -3.367  -1.442  1.00  0.00     0.102 N 
ATOM     21  O   UNL     1      -2.853  -4.232  -2.293  1.00  0.00    -0.256 OA
ATOM     22  O   UNL     1      -4.020  -2.539  -1.503  1.00  0.00    -0.256 OA
ENDBRANCH  19  20
ENDBRANCH  14  15
ENDBRANCH   9  14
ENDBRANCH   8   9
ENDBRANCH   5   8
ENDBRANCH   3   4
ENDBRANCH   2   3
ENDBRANCH   1   2
BRANCH   1  23
ATOM     23  C   UNL     1      -2.652   0.793  -4.080  1.00  0.00     0.002 C 
BRANCH  23  24
ATOM     24  C   UNL     1      -1.763   2.001  -4.369  1.00  0.00     0.021 C 
BRANCH  24  25
ATOM     25  C   UNL     1      -0.334   1.650  -4.774  1.00  0.00     0.116 C 
BRANCH  25  26
ATOM     26  N   UNL     1      -0.297   0.812  -5.964  1.00  0.00    -0.352 N 
ATOM     27  C   UNL     1       0.240   1.090  -7.195  1.00  0.00     0.251 C 
ATOM     28  H   UNL     1      -0.714  -0.075  -5.873  1.00  0.00     0.163 HD
ATOM     29  O   UNL     1      -0.022   0.383  -8.165  1.00  0.00    -0.269 OA
BRANCH  27  30
ATOM     30  C   UNL     1       1.131   2.257  -7.339  1.00  0.00     0.039 A 
ATOM     31  C   UNL     1       0.918   3.156  -8.384  1.00  0.00     0.014 A 
ATOM     32  C   UNL     1       2.160   2.467  -6.417  1.00  0.00     0.014 A 
ATOM     33  C   UNL     1       1.706   4.304  -8.470  1.00  0.00     0.010 A 
ATOM     34  C   UNL     1       2.888   3.650  -6.457  1.00  0.00     0.010 A 
ATOM     35  C   UNL     1       2.675   4.576  -7.488  1.00  0.00    -0.014 A 
BRANCH  35  36
ATOM     36  C   UNL     1       3.480   5.822  -7.527  1.00  0.00     0.031 A 
ATOM     37  C   UNL     1       4.974   5.746  -7.693  1.00  0.00     0.074 A 
ATOM     38  C   UNL     1       2.873   7.013  -7.354  1.00  0.00     0.049 A 
ATOM     39  N   UNL     1       5.854   6.713  -7.696  1.00  0.00    -0.248 NA
ATOM     40  C   UNL     1       5.559   4.404  -7.848  1.00  0.00     0.031 C 
ATOM     41  C   UNL     1       1.438   7.207  -7.134  1.00  0.00     0.029 A 
ATOM     42  N   UNL     1       3.386   8.286  -7.329  1.00  0.00    -0.354 N 
ATOM     43  C   UNL     1       7.092   6.098  -7.843  1.00  0.00     0.074 A 
ATOM     44  C   UNL     1       6.856   4.672  -7.862  1.00  0.00     0.031 C 
ATOM     45  C   UNL     1       1.183   8.521  -7.023  1.00  0.00     0.029 A 
ATOM     46  C   UNL     1       2.438   9.260  -7.122  1.00  0.00     0.049 A 
ATOM     47  H   UNL     1       4.343   8.483  -7.448  1.00  0.00     0.167 HD
ATOM     48  C   UNL     1       8.311   6.672  -7.976  1.00  0.00     0.037 A 
ATOM     49  C   UNL     1       2.566  10.597  -7.015  1.00  0.00     0.037 A 
ATOM     50  C   UNL     1       8.532   8.095  -7.975  1.00  0.00     0.049 A 
ATOM     51  C   UNL     1       3.934  11.210  -7.154  1.00  0.00     0.074 A 
ATOM     52  C   UNL     1       9.719   8.780  -8.158  1.00  0.00     0.029 A 
ATOM     53  N   UNL     1       7.545   9.050  -7.775  1.00  0.00    -0.354 N 
ATOM     54  N   UNL     1       5.086  10.618  -7.362  1.00  0.00    -0.248 NA
ATOM     55  C   UNL     1       4.020  12.673  -7.052  1.00  0.00     0.031 C 
ATOM     56  C   UNL     1       9.460  10.147  -8.014  1.00  0.00     0.029 A 
ATOM     57  C   UNL     1       8.101  10.318  -7.804  1.00  0.00     0.049 A 
ATOM     58  H   UNL     1       6.590   8.855  -7.634  1.00  0.00     0.167 HD
ATOM     59  C   UNL     1       6.029  11.637  -7.445  1.00  0.00     0.074 A 
ATOM     60  C   UNL     1       5.309  12.883  -7.278  1.00  0.00     0.031 C 
ATOM     61  C   UNL     1       7.368  11.550  -7.641  1.00  0.00     0.037 A 
BRANCH  48  62
ATOM     62  C   UNL     1       9.499   5.761  -8.137  1.00  0.00     0.058 A 
ATOM     63  C   UNL     1       9.689   4.992  -9.297  1.00  0.00     0.135 A 
ATOM     64  C   UNL     1      10.479   5.682  -7.135  1.00  0.00     0.135 A 
ATOM     65  F   UNL     1       8.777   5.015 -10.282  1.00  0.00    -0.206 F 
ATOM     66  C   UNL     1      10.791   4.155  -9.444  1.00  0.00     0.059 A 
ATOM     67  C   UNL     1      11.606   4.877  -7.275  1.00  0.00     0.059 A 
ATOM     68  F   UNL     1      10.349   6.394  -6.004  1.00  0.00    -0.206 F 
ATOM     69  C   UNL     1      11.745   4.106  -8.428  1.00  0.00     0.060 A 
BRANCH  69  70
ATOM     70  S   UNL     1      13.172   3.021  -8.639  1.00  0.00     0.124 S 
ATOM     71  O   UNL     1      12.560   1.704  -8.495  1.00  0.00    -0.237 OA
ATOM     72  O   UNL     1      13.627   3.365  -9.983  1.00  0.00    -0.237 OA
ATOM     73  O   UNL     1      14.066   3.419  -7.556  1.00  0.00    -0.744 OA
ENDBRANCH  69  70
ENDBRANCH  48  62
BRANCH  49  74
ATOM     74  C   UNL     1       1.366  11.444  -6.782  1.00  0.00     0.058 A 
ATOM     75  C   UNL     1       0.888  12.312  -7.775  1.00  0.00     0.135 A 
ATOM     76  C   UNL     1       0.666  11.398  -5.565  1.00  0.00     0.135 A 
ATOM     77  F   UNL     1       1.525  12.397  -8.953  1.00  0.00    -0.206 F 
ATOM     78  C   UNL     1      -0.228  13.116  -7.567  1.00  0.00     0.059 A 
ATOM     79  C   UNL     1      -0.469  12.171  -5.344  1.00  0.00     0.059 A 
ATOM     80  F   UNL     1       1.070  10.572  -4.587  1.00  0.00    -0.206 F 
ATOM     81  C   UNL     1      -0.902  13.036  -6.348  1.00  0.00     0.060 A 
BRANCH  81  82
ATOM     82  S   UNL     1      -2.374  14.054  -6.104  1.00  0.00     0.124 S 
ATOM     83  O   UNL     1      -1.794  15.386  -5.984  1.00  0.00    -0.237 OA
ATOM     84  O   UNL     1      -3.131  13.792  -7.324  1.00  0.00    -0.237 OA
ATOM     85  O   UNL     1      -2.960  13.508  -4.883  1.00  0.00    -0.744 OA
ENDBRANCH  81  82
ENDBRANCH  49  74
BRANCH  61  86
ATOM     86  C   UNL     1       8.142  12.838  -7.723  1.00  0.00     0.058 A 
ATOM     87  C   UNL     1       8.366  13.640  -6.594  1.00  0.00     0.135 A 
ATOM     88  C   UNL     1       8.714  13.245  -8.940  1.00  0.00     0.135 A 
ATOM     89  F   UNL     1       7.838  13.301  -5.407  1.00  0.00    -0.206 F 
ATOM     90  C   UNL     1       9.108  14.815  -6.673  1.00  0.00     0.059 A 
ATOM     91  C   UNL     1       9.486  14.398  -9.035  1.00  0.00     0.059 A 
ATOM     92  F   UNL     1       8.540  12.508 -10.049  1.00  0.00    -0.206 F 
ATOM     93  C   UNL     1       9.667  15.183  -7.898  1.00  0.00     0.060 A 
BRANCH  93  94
ATOM     94  S   UNL     1      10.656  16.690  -7.978  1.00  0.00     0.124 S 
ATOM     95  O   UNL     1       9.631  17.722  -7.862  1.00  0.00    -0.237 OA
ATOM     96  O   UNL     1      11.540  16.544  -6.826  1.00  0.00    -0.237 OA
ATOM     97  O   UNL     1      11.312  16.600  -9.279  1.00  0.00    -0.744 OA
ENDBRANCH  93  94
ENDBRANCH  61  86
ENDBRANCH  35  36
ENDBRANCH  27  30
ENDBRANCH  25  26
ENDBRANCH  24  25
ENDBRANCH  23  24
ENDBRANCH   1  23
TORSDOF 22
