REMARK SMILES CC1(C)S[C@H](c2ccc(-c3cccc([N+](=O)[O-])c3)o2)[NH2+][C@@H]1C(=O)NCCCCCCNC(=O)c1ccc(-c2c3nc(c(-c4c(F)cc(S(=O)(=O)[O-])cc4F)c4ccc([nH]4)c(-c4c(F)cc(S(=O)(=O)[O-])cc4F)c4nc(c(-c5c(F)cc(S(=O)(=O)[O-])cc5F)c5ccc2[nH]5)C=C4)C=C3)cc1
REMARK SMILES IDX 27 1 26 2 25 3 24 4 22 5 23 6 21 8 1 9 2 10 3 11 4 12 5 13
REMARK SMILES IDX 20 14 6 17 7 18 19 19 8 20 9 21 10 22 11 23 18 24 12 25
REMARK SMILES IDX 14 26 13 27 15 28 16 29 17 30 28 31 29 32 30 33 31 34 32 35
REMARK SMILES IDX 33 37 34 38 35 39 99 40 36 41 98 42 37 43 38 44 39 45 92 46
REMARK SMILES IDX 40 47 97 48 91 49 93 50 41 51 96 52 90 53 89 54 42 56 76 57
REMARK SMILES IDX 55 58 75 59 56 60 59 61 74 62 94 63 57 64 58 65 73 67 95 68
REMARK SMILES IDX 60 69 43 70 44 71 53 72 45 73 46 74 52 75 54 76 47 77 48 78
REMARK SMILES IDX 49 79 50 80 51 81 77 82 78 83 87 84 79 85 80 86 86 87 88 88
REMARK SMILES IDX 81 89 82 90 83 91 84 92 85 93 61 94 62 95 71 96 63 97 64 98
REMARK SMILES IDX 70 99 72 100 65 101 66 102 67 103 68 104 69 105
REMARK H PARENT 24 7 20 15 20 16 31 36 93 55 59 66
REMARK Flexibility Score: inf
ROOT
ATOM      1  C   UNL     1      -3.338   3.995  -3.880  1.00  0.00     0.002 C 
ENDROOT
BRANCH   1   2
ATOM      2  C   UNL     1      -2.821   4.205  -2.457  1.00  0.00     0.021 C 
BRANCH   2   3
ATOM      3  C   UNL     1      -2.239   2.959  -1.795  1.00  0.00     0.116 C 
BRANCH   3   4
ATOM      4  N   UNL     1      -1.177   2.341  -2.571  1.00  0.00    -0.351 N 
ATOM      5  C   UNL     1      -0.283   1.385  -2.155  1.00  0.00     0.279 C 
ATOM      6  O   UNL     1       0.458   0.895  -3.006  1.00  0.00    -0.268 OA
ATOM      7  H   UNL     1      -1.089   2.643  -3.504  1.00  0.00     0.163 HD
BRANCH   5   8
ATOM      8  C   UNL     1      -0.191   1.084  -0.639  1.00  0.00     0.289 C 
ATOM      9  C   UNL     1       1.239   0.367   1.324  1.00  0.00     0.030 C 
ATOM     10  C   UNL     1       0.854   0.055  -0.140  1.00  0.00     0.078 C 
ATOM     11  C   UNL     1       2.145  -0.085  -0.947  1.00  0.00     0.030 C 
ATOM     12  S   UNL     1      -0.044  -1.533  -0.165  1.00  0.00    -0.078 SA
ATOM     13  C   UNL     1      -1.677  -0.766  -0.255  1.00  0.00     0.311 C 
ATOM     14  N   UNL     1      -1.529   0.684  -0.105  1.00  0.00    -0.317 N 
ATOM     15  H   UNL     1      -1.595   0.936   0.881  1.00  0.00     0.348 HD
ATOM     16  H   UNL     1      -2.268   1.165  -0.619  1.00  0.00     0.348 HD
BRANCH  13  17
ATOM     17  C   UNL     1      -2.477  -1.254  -1.428  1.00  0.00     0.172 A 
ATOM     18  C   UNL     1      -3.224  -2.411  -1.566  1.00  0.00     0.054 A 
ATOM     19  O   UNL     1      -2.585  -0.508  -2.579  1.00  0.00    -0.454 OA
ATOM     20  C   UNL     1      -3.833  -2.363  -2.836  1.00  0.00     0.051 A 
ATOM     21  C   UNL     1      -3.426  -1.186  -3.425  1.00  0.00     0.134 A 
BRANCH  21  22
ATOM     22  C   UNL     1      -3.799  -0.542  -4.679  1.00  0.00     0.024 A 
ATOM     23  C   UNL     1      -2.849   0.035  -5.534  1.00  0.00     0.012 A 
ATOM     24  C   UNL     1      -5.158  -0.468  -5.030  1.00  0.00     0.097 A 
ATOM     25  C   UNL     1      -3.245   0.678  -6.717  1.00  0.00     0.008 A 
ATOM     26  C   UNL     1      -5.552   0.198  -6.200  1.00  0.00     0.270 A 
ATOM     27  C   UNL     1      -4.599   0.764  -7.055  1.00  0.00     0.085 A 
BRANCH  26  28
ATOM     28  N   UNL     1      -6.980   0.347  -6.501  1.00  0.00     0.062 N 
ATOM     29  O   UNL     1      -7.292   0.654  -7.659  1.00  0.00    -0.258 OA
ATOM     30  O   UNL     1      -7.783   0.141  -5.580  1.00  0.00    -0.258 OA
ENDBRANCH  26  28
ENDBRANCH  21  22
ENDBRANCH  13  17
ENDBRANCH   5   8
ENDBRANCH   3   4
ENDBRANCH   2   3
ENDBRANCH   1   2
BRANCH   1  31
ATOM     31  C   UNL     1      -4.302   2.826  -4.033  1.00  0.00     0.002 C 
BRANCH  31  32
ATOM     32  C   UNL     1      -5.634   2.929  -3.305  1.00  0.00     0.021 C 
BRANCH  32  33
ATOM     33  C   UNL     1      -6.460   4.133  -3.711  1.00  0.00     0.116 C 
BRANCH  33  34
ATOM     34  N   UNL     1      -6.729   4.192  -5.141  1.00  0.00    -0.352 N 
ATOM     35  C   UNL     1      -7.875   4.592  -5.787  1.00  0.00     0.251 C 
ATOM     36  H   UNL     1      -5.990   3.905  -5.725  1.00  0.00     0.163 HD
ATOM     37  O   UNL     1      -7.964   4.489  -7.002  1.00  0.00    -0.269 OA
BRANCH  35  38
ATOM     38  C   UNL     1      -8.995   5.137  -4.989  1.00  0.00     0.039 A 
ATOM     39  C   UNL     1     -10.300   4.740  -5.281  1.00  0.00     0.014 A 
ATOM     40  C   UNL     1      -8.748   6.024  -3.939  1.00  0.00     0.014 A 
ATOM     41  C   UNL     1     -11.351   5.206  -4.489  1.00  0.00     0.010 A 
ATOM     42  C   UNL     1      -9.774   6.384  -3.080  1.00  0.00     0.010 A 
ATOM     43  C   UNL     1     -11.093   6.013  -3.367  1.00  0.00    -0.014 A 
BRANCH  43  44
ATOM     44  C   UNL     1     -12.192   6.532  -2.517  1.00  0.00     0.031 A 
ATOM     45  C   UNL     1     -12.394   8.021  -2.387  1.00  0.00     0.074 A 
ATOM     46  C   UNL     1     -12.972   5.674  -1.831  1.00  0.00     0.049 A 
ATOM     47  N   UNL     1     -13.272   8.678  -1.674  1.00  0.00    -0.248 NA
ATOM     48  C   UNL     1     -11.459   8.890  -3.124  1.00  0.00     0.031 C 
ATOM     49  C   UNL     1     -12.825   4.216  -1.822  1.00  0.00     0.029 A 
ATOM     50  N   UNL     1     -14.045   5.904  -1.009  1.00  0.00    -0.354 N 
ATOM     51  C   UNL     1     -12.985  10.024  -1.865  1.00  0.00     0.074 A 
ATOM     52  C   UNL     1     -11.803  10.093  -2.693  1.00  0.00     0.031 C 
ATOM     53  C   UNL     1     -13.799   3.681  -1.068  1.00  0.00     0.029 A 
ATOM     54  C   UNL     1     -14.616   4.755  -0.513  1.00  0.00     0.049 A 
ATOM     55  H   UNL     1     -14.376   6.806  -0.795  1.00  0.00     0.167 HD
ATOM     56  C   UNL     1     -13.666  11.108  -1.426  1.00  0.00     0.037 A 
ATOM     57  C   UNL     1     -15.682   4.591   0.293  1.00  0.00     0.037 A 
ATOM     58  C   UNL     1     -14.865  11.027  -0.635  1.00  0.00     0.049 A 
ATOM     59  C   UNL     1     -16.439   5.809   0.749  1.00  0.00     0.074 A 
ATOM     60  C   UNL     1     -15.675  12.056  -0.190  1.00  0.00     0.029 A 
ATOM     61  N   UNL     1     -15.429   9.845  -0.174  1.00  0.00    -0.354 N 
ATOM     62  N   UNL     1     -16.199   7.075   0.496  1.00  0.00    -0.248 NA
ATOM     63  C   UNL     1     -17.622   5.577   1.588  1.00  0.00     0.031 C 
ATOM     64  C   UNL     1     -16.701  11.500   0.581  1.00  0.00     0.029 A 
ATOM     65  C   UNL     1     -16.564  10.121   0.569  1.00  0.00     0.049 A 
ATOM     66  H   UNL     1     -15.074   8.944  -0.350  1.00  0.00     0.167 HD
ATOM     67  C   UNL     1     -17.214   7.788   1.125  1.00  0.00     0.074 A 
ATOM     68  C   UNL     1     -18.082   6.810   1.748  1.00  0.00     0.031 C 
ATOM     69  C   UNL     1     -17.411   9.130   1.185  1.00  0.00     0.037 A 
BRANCH  56  70
ATOM     70  C   UNL     1     -13.137  12.467  -1.803  1.00  0.00     0.058 A 
ATOM     71  C   UNL     1     -13.155  12.926  -3.131  1.00  0.00     0.135 A 
ATOM     72  C   UNL     1     -12.625  13.332  -0.823  1.00  0.00     0.135 A 
ATOM     73  F   UNL     1     -13.615  12.136  -4.114  1.00  0.00    -0.206 F 
ATOM     74  C   UNL     1     -12.653  14.176  -3.478  1.00  0.00     0.059 A 
ATOM     75  C   UNL     1     -12.149  14.601  -1.142  1.00  0.00     0.059 A 
ATOM     76  F   UNL     1     -12.579  12.946   0.462  1.00  0.00    -0.206 F 
ATOM     77  C   UNL     1     -12.153  15.008  -2.475  1.00  0.00     0.060 A 
BRANCH  77  78
ATOM     78  S   UNL     1     -11.517  16.631  -2.942  1.00  0.00     0.124 S 
ATOM     79  O   UNL     1     -10.273  16.273  -3.617  1.00  0.00    -0.237 OA
ATOM     80  O   UNL     1     -12.578  17.147  -3.800  1.00  0.00    -0.237 OA
ATOM     81  O   UNL     1     -11.360  17.316  -1.662  1.00  0.00    -0.744 OA
ENDBRANCH  77  78
ENDBRANCH  56  70
BRANCH  57  82
ATOM     82  C   UNL     1     -16.116   3.223   0.687  1.00  0.00     0.058 A 
ATOM     83  C   UNL     1     -17.314   2.676   0.204  1.00  0.00     0.135 A 
ATOM     84  C   UNL     1     -15.338   2.431   1.546  1.00  0.00     0.135 A 
ATOM     85  F   UNL     1     -18.095   3.394  -0.617  1.00  0.00    -0.206 F 
ATOM     86  C   UNL     1     -17.739   1.404   0.575  1.00  0.00     0.059 A 
ATOM     87  C   UNL     1     -15.727   1.145   1.909  1.00  0.00     0.059 A 
ATOM     88  F   UNL     1     -14.173   2.898   2.022  1.00  0.00    -0.206 F 
ATOM     89  C   UNL     1     -16.936   0.645   1.427  1.00  0.00     0.060 A 
BRANCH  89  90
ATOM     90  S   UNL     1     -17.477  -1.020   1.872  1.00  0.00     0.124 S 
ATOM     91  O   UNL     1     -18.588  -0.737   2.773  1.00  0.00    -0.237 OA
ATOM     92  O   UNL     1     -17.835  -1.583   0.574  1.00  0.00    -0.237 OA
ATOM     93  O   UNL     1     -16.292  -1.603   2.494  1.00  0.00    -0.744 OA
ENDBRANCH  89  90
ENDBRANCH  57  82
BRANCH  69  94
ATOM     94  C   UNL     1     -18.627   9.610   1.929  1.00  0.00     0.058 A 
ATOM     95  C   UNL     1     -18.726   9.507   3.326  1.00  0.00     0.135 A 
ATOM     96  C   UNL     1     -19.697  10.199   1.237  1.00  0.00     0.135 A 
ATOM     97  F   UNL     1     -17.731   8.951   4.036  1.00  0.00    -0.206 F 
ATOM     98  C   UNL     1     -19.863   9.929   4.006  1.00  0.00     0.059 A 
ATOM     99  C   UNL     1     -20.829  10.660   1.900  1.00  0.00     0.059 A 
ATOM    100  F   UNL     1     -19.647  10.338  -0.097  1.00  0.00    -0.206 F 
ATOM    101  C   UNL     1     -20.912  10.501   3.283  1.00  0.00     0.060 A 
BRANCH 101 102
ATOM    102  S   UNL     1     -22.383  11.042   4.176  1.00  0.00     0.124 S 
ATOM    103  O   UNL     1     -23.016   9.767   4.497  1.00  0.00    -0.237 OA
ATOM    104  O   UNL     1     -21.813  11.769   5.307  1.00  0.00    -0.237 OA
ATOM    105  O   UNL     1     -23.090  11.866   3.201  1.00  0.00    -0.744 OA
ENDBRANCH 101 102
ENDBRANCH  69  94
ENDBRANCH  43  44
ENDBRANCH  35  38
ENDBRANCH  33  34
ENDBRANCH  32  33
ENDBRANCH  31  32
ENDBRANCH   1  31
TORSDOF 19
