REMARK SMILES C[C@@H](C(=O)NCCCCCCNC(=O)c1ccc(-c2c3nc(c(-c4c(F)cc(S(=O)(=O)[O-])cc4F)c4ccc([nH]4)c(-c4c(F)cc(S(=O)(=O)[O-])cc4F)c4nc(c(-c5c(F)cc(S(=O)(=O)[O-])cc5F)c5ccc2[nH]5)C=C4)C=C3)cc1)[C@@H](N[S@](=O)C(C)(C)C)C(C)(C)C
REMARK SMILES IDX 8 1 7 2 6 3 5 4 3 5 4 6 2 8 1 9 81 10 82 11 83 13 84 14
REMARK SMILES IDX 85 15 86 16 87 17 88 18 89 19 90 20 91 21 92 22 9 23 10 24
REMARK SMILES IDX 11 25 12 26 13 27 14 29 15 30 16 31 80 32 17 33 79 34 18 35
REMARK SMILES IDX 19 36 20 37 73 38 21 39 78 40 72 41 74 42 22 43 77 44 71 45
REMARK SMILES IDX 70 46 23 48 57 49 36 50 56 51 37 52 40 53 55 54 75 55 38 56
REMARK SMILES IDX 39 57 54 59 76 60 41 61 24 62 25 63 34 64 26 65 27 66 33 67
REMARK SMILES IDX 35 68 28 69 29 70 30 71 31 72 32 73 58 74 59 75 68 76 60 77
REMARK SMILES IDX 61 78 67 79 69 80 62 81 63 82 64 83 65 84 66 85 42 86 43 87
REMARK SMILES IDX 52 88 44 89 45 90 51 91 53 92 46 93 47 94 48 95 49 96 50 97
REMARK H PARENT 5 7 82 12 12 28 74 47 40 58
REMARK Flexibility Score: inf
ROOT
ATOM      1  C   UNL     1      -6.601  -8.111   2.911  1.00  0.00     0.002 C 
ENDROOT
BRANCH   1   2
ATOM      2  C   UNL     1      -6.303  -6.779   3.616  1.00  0.00     0.021 C 
BRANCH   2   3
ATOM      3  C   UNL     1      -4.963  -6.152   3.220  1.00  0.00     0.116 C 
BRANCH   3   4
ATOM      4  N   UNL     1      -5.022  -5.722   1.833  1.00  0.00    -0.356 N 
ATOM      5  C   UNL     1      -5.105  -4.460   1.326  1.00  0.00     0.224 C 
ATOM      6  O   UNL     1      -5.608  -4.310   0.212  1.00  0.00    -0.275 OA
ATOM      7  H   UNL     1      -4.998  -6.445   1.165  1.00  0.00     0.163 HD
BRANCH   5   8
ATOM      8  C   UNL     1      -4.587  -3.286   2.149  1.00  0.00     0.094 C 
ATOM      9  C   UNL     1      -5.815  -2.796   2.941  1.00  0.00     0.020 C 
BRANCH   8  10
ATOM     10  C   UNL     1      -3.914  -2.182   1.226  1.00  0.00     0.085 C 
BRANCH  10  11
ATOM     11  N   UNL     1      -3.751  -0.924   2.034  1.00  0.00    -0.233 NA
ATOM     12  H   UNL     1      -3.134  -1.163   2.810  1.00  0.00     0.138 HD
BRANCH  11  13
ATOM     13  S   UNL     1      -3.149   0.487   1.383  1.00  0.00     0.097 S 
ATOM     14  O   UNL     1      -1.697   0.685   1.694  1.00  0.00    -0.242 OA
BRANCH  13  15
ATOM     15  C   UNL     1      -4.084   1.753   2.367  1.00  0.00     0.052 C 
ATOM     16  C   UNL     1      -3.672   1.720   3.842  1.00  0.00     0.027 C 
ATOM     17  C   UNL     1      -3.686   3.118   1.765  1.00  0.00     0.027 C 
ATOM     18  C   UNL     1      -5.598   1.580   2.208  1.00  0.00     0.027 C 
ENDBRANCH  13  15
ENDBRANCH  11  13
ENDBRANCH  10  11
BRANCH  10  19
ATOM     19  C   UNL     1      -2.553  -2.677   0.505  1.00  0.00    -0.021 C 
ATOM     20  C   UNL     1      -2.685  -4.025  -0.244  1.00  0.00     0.012 C 
ATOM     21  C   UNL     1      -2.096  -1.688  -0.603  1.00  0.00     0.012 C 
ATOM     22  C   UNL     1      -1.414  -2.856   1.529  1.00  0.00     0.012 C 
ENDBRANCH  10  19
ENDBRANCH   8  10
ENDBRANCH   5   8
ENDBRANCH   3   4
ENDBRANCH   2   3
ENDBRANCH   1   2
BRANCH   1  23
ATOM     23  C   UNL     1      -5.647  -9.256   3.263  1.00  0.00     0.002 C 
BRANCH  23  24
ATOM     24  C   UNL     1      -5.585  -9.612   4.751  1.00  0.00     0.021 C 
BRANCH  24  25
ATOM     25  C   UNL     1      -6.924  -9.984   5.383  1.00  0.00     0.116 C 
BRANCH  25  26
ATOM     26  N   UNL     1      -7.508 -11.170   4.778  1.00  0.00    -0.352 N 
ATOM     27  C   UNL     1      -8.012 -12.296   5.376  1.00  0.00     0.251 C 
ATOM     28  H   UNL     1      -7.548 -11.163   3.795  1.00  0.00     0.163 HD
ATOM     29  O   UNL     1      -8.298 -13.274   4.682  1.00  0.00    -0.269 OA
BRANCH  27  30
ATOM     30  C   UNL     1      -8.192 -12.356   6.843  1.00  0.00     0.039 A 
ATOM     31  C   UNL     1      -7.820 -13.522   7.517  1.00  0.00     0.014 A 
ATOM     32  C   UNL     1      -8.748 -11.286   7.554  1.00  0.00     0.014 A 
ATOM     33  C   UNL     1      -7.951 -13.594   8.905  1.00  0.00     0.010 A 
ATOM     34  C   UNL     1      -8.821 -11.337   8.947  1.00  0.00     0.010 A 
ATOM     35  C   UNL     1      -8.423 -12.491   9.637  1.00  0.00    -0.014 A 
BRANCH  35  36
ATOM     36  C   UNL     1      -8.479 -12.537  11.122  1.00  0.00     0.031 A 
ATOM     37  C   UNL     1      -9.799 -12.486  11.843  1.00  0.00     0.074 A 
ATOM     38  C   UNL     1      -7.329 -12.593  11.823  1.00  0.00     0.049 A 
ATOM     39  N   UNL     1     -10.035 -12.502  13.130  1.00  0.00    -0.248 NA
ATOM     40  C   UNL     1     -11.010 -12.383  11.014  1.00  0.00     0.031 C 
ATOM     41  C   UNL     1      -5.983 -12.588  11.241  1.00  0.00     0.029 A 
ATOM     42  N   UNL     1      -7.103 -12.662  13.175  1.00  0.00    -0.354 N 
ATOM     43  C   UNL     1     -11.416 -12.418  13.266  1.00  0.00     0.074 A 
ATOM     44  C   UNL     1     -11.962 -12.292  11.932  1.00  0.00     0.031 C 
ATOM     45  C   UNL     1      -5.076 -12.671  12.228  1.00  0.00     0.029 A 
ATOM     46  C   UNL     1      -5.770 -12.708  13.511  1.00  0.00     0.049 A 
ATOM     47  H   UNL     1      -7.827 -12.677  13.841  1.00  0.00     0.167 HD
ATOM     48  C   UNL     1     -12.162 -12.468  14.396  1.00  0.00     0.037 A 
ATOM     49  C   UNL     1      -5.173 -12.770  14.717  1.00  0.00     0.037 A 
ATOM     50  C   UNL     1     -11.616 -12.609  15.722  1.00  0.00     0.049 A 
ATOM     51  C   UNL     1      -6.026 -12.835  15.955  1.00  0.00     0.074 A 
ATOM     52  C   UNL     1     -12.293 -12.705  16.927  1.00  0.00     0.029 A 
ATOM     53  N   UNL     1     -10.264 -12.679  16.020  1.00  0.00    -0.354 N 
ATOM     54  N   UNL     1      -7.333 -12.810  16.057  1.00  0.00    -0.248 NA
ATOM     55  C   UNL     1      -5.323 -12.950  17.240  1.00  0.00     0.031 C 
ATOM     56  C   UNL     1     -11.349 -12.801  17.955  1.00  0.00     0.029 A 
ATOM     57  C   UNL     1     -10.085 -12.807  17.389  1.00  0.00     0.049 A 
ATOM     58  H   UNL     1      -9.537 -12.644  15.357  1.00  0.00     0.167 HD
ATOM     59  C   UNL     1      -7.609 -12.924  17.415  1.00  0.00     0.074 A 
ATOM     60  C   UNL     1      -6.334 -13.043  18.092  1.00  0.00     0.031 C 
ATOM     61  C   UNL     1      -8.809 -12.923  18.047  1.00  0.00     0.037 A 
BRANCH  48  62
ATOM     62  C   UNL     1     -13.658 -12.396  14.252  1.00  0.00     0.058 A 
ATOM     63  C   UNL     1     -14.392 -13.474  13.732  1.00  0.00     0.135 A 
ATOM     64  C   UNL     1     -14.371 -11.271  14.694  1.00  0.00     0.135 A 
ATOM     65  F   UNL     1     -13.759 -14.568  13.280  1.00  0.00    -0.206 F 
ATOM     66  C   UNL     1     -15.780 -13.433  13.643  1.00  0.00     0.059 A 
ATOM     67  C   UNL     1     -15.761 -11.218  14.637  1.00  0.00     0.059 A 
ATOM     68  F   UNL     1     -13.718 -10.211  15.197  1.00  0.00    -0.206 F 
ATOM     69  C   UNL     1     -16.456 -12.302  14.101  1.00  0.00     0.060 A 
BRANCH  69  70
ATOM     70  S   UNL     1     -18.259 -12.279  14.005  1.00  0.00     0.124 S 
ATOM     71  O   UNL     1     -18.472 -12.108  12.571  1.00  0.00    -0.237 OA
ATOM     72  O   UNL     1     -18.617 -13.585  14.547  1.00  0.00    -0.237 OA
ATOM     73  O   UNL     1     -18.629 -11.136  14.834  1.00  0.00    -0.744 OA
ENDBRANCH  69  70
ENDBRANCH  48  62
BRANCH  49  74
ATOM     74  C   UNL     1      -3.690 -12.783  14.817  1.00  0.00     0.058 A 
ATOM     75  C   UNL     1      -3.000 -13.932  15.227  1.00  0.00     0.135 A 
ATOM     76  C   UNL     1      -2.934 -11.639  14.517  1.00  0.00     0.135 A 
ATOM     77  F   UNL     1      -3.679 -15.050  15.529  1.00  0.00    -0.206 F 
ATOM     78  C   UNL     1      -1.616 -13.941  15.369  1.00  0.00     0.059 A 
ATOM     79  C   UNL     1      -1.547 -11.630  14.624  1.00  0.00     0.059 A 
ATOM     80  F   UNL     1      -3.545 -10.519  14.099  1.00  0.00    -0.206 F 
ATOM     81  C   UNL     1      -0.898 -12.782  15.068  1.00  0.00     0.060 A 
BRANCH  81  82
ATOM     82  S   UNL     1       0.900 -12.804  15.232  1.00  0.00     0.124 S 
ATOM     83  O   UNL     1       1.062 -12.708  16.678  1.00  0.00    -0.237 OA
ATOM     84  O   UNL     1       1.249 -14.088  14.633  1.00  0.00    -0.237 OA
ATOM     85  O   UNL     1       1.318 -11.631  14.470  1.00  0.00    -0.744 OA
ENDBRANCH  81  82
ENDBRANCH  49  74
BRANCH  61  86
ATOM     86  C   UNL     1      -8.794 -13.076  19.543  1.00  0.00     0.058 A 
ATOM     87  C   UNL     1      -8.364 -12.038  20.383  1.00  0.00     0.135 A 
ATOM     88  C   UNL     1      -9.229 -14.269  20.142  1.00  0.00     0.135 A 
ATOM     89  F   UNL     1      -7.934 -10.879  19.860  1.00  0.00    -0.206 F 
ATOM     90  C   UNL     1      -8.330 -12.189  21.765  1.00  0.00     0.059 A 
ATOM     91  C   UNL     1      -9.229 -14.432  21.524  1.00  0.00     0.059 A 
ATOM     92  F   UNL     1      -9.662 -15.289  19.385  1.00  0.00    -0.206 F 
ATOM     93  C   UNL     1      -8.760 -13.393  22.326  1.00  0.00     0.060 A 
BRANCH  93  94
ATOM     94  S   UNL     1      -8.714 -13.578  24.122  1.00  0.00     0.124 S 
ATOM     95  O   UNL     1      -7.291 -13.794  24.358  1.00  0.00    -0.237 OA
ATOM     96  O   UNL     1      -9.246 -12.299  24.583  1.00  0.00    -0.237 OA
ATOM     97  O   UNL     1      -9.575 -14.732  24.365  1.00  0.00    -0.744 OA
ENDBRANCH  93  94
ENDBRANCH  61  86
ENDBRANCH  35  36
ENDBRANCH  27  30
ENDBRANCH  25  26
ENDBRANCH  24  25
ENDBRANCH  23  24
ENDBRANCH   1  23
TORSDOF 21
