REMARK SMILES O=C(CSCc1ccc(C(=O)NCCCCCCNC(=O)c2ccc(-c3c4nc(c(-c5c(F)cc(S(=O)(=O)[O-])cc5F)c5ccc([nH]5)c(-c5c(F)cc(S(=O)(=O)[O-])cc5F)c5nc(c(-c6c(F)cc(S(=O)(=O)[O-])cc6F)c6ccc3[nH]6)C=C5)C=C4)cc2)cc1)Nc1ccc(Cl)cc1
REMARK SMILES IDX 14 1 13 2 12 3 10 4 11 5 9 7 6 8 7 9 89 10 8 11 88 12 5 13
REMARK SMILES IDX 4 14 3 15 2 16 1 17 90 18 91 20 92 21 97 22 93 23 96 24
REMARK SMILES IDX 94 25 95 26 15 27 16 28 17 29 18 30 19 31 20 32 21 34 22 35
REMARK SMILES IDX 23 36 87 37 24 38 86 39 25 40 26 41 27 42 80 43 28 44 85 45
REMARK SMILES IDX 79 46 81 47 29 48 84 49 78 50 77 51 30 53 64 54 43 55 63 56
REMARK SMILES IDX 44 57 47 58 62 59 82 60 45 61 46 62 61 64 83 65 48 66 31 67
REMARK SMILES IDX 32 68 41 69 33 70 34 71 40 72 42 73 35 74 36 75 37 76 38 77
REMARK SMILES IDX 39 78 65 79 66 80 75 81 67 82 68 83 74 84 76 85 69 86 70 87
REMARK SMILES IDX 71 88 72 89 73 90 49 91 50 92 59 93 51 94 52 95 58 96 60 97
REMARK SMILES IDX 53 98 54 99 55 100 56 101 57 102
REMARK H PARENT 12 6 90 19 19 33 81 52 47 63
REMARK Flexibility Score: inf
ROOT
ATOM      1  C   UNL     1      -3.192   3.986  -2.299  1.00  0.00     0.021 C 
ENDROOT
BRANCH   1   2
ATOM      2  C   UNL     1      -1.813   4.302  -2.880  1.00  0.00     0.116 C 
BRANCH   2   3
ATOM      3  N   UNL     1      -1.427   5.659  -2.531  1.00  0.00    -0.352 N 
ATOM      4  C   UNL     1      -0.512   6.146  -1.634  1.00  0.00     0.251 C 
ATOM      5  O   UNL     1      -0.369   7.365  -1.551  1.00  0.00    -0.269 OA
ATOM      6  H   UNL     1      -1.912   6.355  -3.031  1.00  0.00     0.163 HD
BRANCH   4   7
ATOM      7  C   UNL     1       0.354   5.257  -0.815  1.00  0.00     0.039 A 
ATOM      8  C   UNL     1       2.155   3.634   0.631  1.00  0.00    -0.038 A 
ATOM      9  C   UNL     1       2.555   4.889   0.154  1.00  0.00     0.005 A 
ATOM     10  C   UNL     1       0.830   3.229   0.424  1.00  0.00     0.005 A 
ATOM     11  C   UNL     1       1.661   5.693  -0.560  1.00  0.00     0.014 A 
ATOM     12  C   UNL     1      -0.069   4.044  -0.270  1.00  0.00     0.014 A 
BRANCH   8  13
ATOM     13  C   UNL     1       3.108   2.745   1.384  1.00  0.00     0.105 C 
BRANCH  13  14
ATOM     14  S   UNL     1       4.316   1.858   0.348  1.00  0.00    -0.147 SA
BRANCH  14  15
ATOM     15  C   UNL     1       3.220   0.892  -0.748  1.00  0.00     0.170 C 
BRANCH  15  16
ATOM     16  C   UNL     1       2.267  -0.036  -0.011  1.00  0.00     0.234 C 
ATOM     17  O   UNL     1       1.087  -0.102  -0.346  1.00  0.00    -0.274 OA
ATOM     18  N   UNL     1       2.859  -0.775   0.999  1.00  0.00    -0.325 N 
ATOM     19  H   UNL     1       3.786  -0.541   1.234  1.00  0.00     0.169 HD
BRANCH  18  20
ATOM     20  C   UNL     1       2.268  -1.829   1.724  1.00  0.00     0.041 A 
ATOM     21  C   UNL     1       2.879  -2.220   2.922  1.00  0.00     0.027 A 
ATOM     22  C   UNL     1       1.127  -2.512   1.292  1.00  0.00     0.027 A 
ATOM     23  C   UNL     1       2.333  -3.251   3.694  1.00  0.00     0.022 A 
ATOM     24  C   UNL     1       0.592  -3.558   2.053  1.00  0.00     0.022 A 
ATOM     25  C   UNL     1       1.190  -3.916   3.256  1.00  0.00     0.041 A 
ATOM     26  Cl  UNL     1       0.522  -5.183   4.207  1.00  0.00    -0.084 Cl
ENDBRANCH  18  20
ENDBRANCH  15  16
ENDBRANCH  14  15
ENDBRANCH  13  14
ENDBRANCH   8  13
ENDBRANCH   4   7
ENDBRANCH   2   3
ENDBRANCH   1   2
BRANCH   1  27
ATOM     27  C   UNL     1      -4.344   4.592  -3.111  1.00  0.00     0.002 C 
BRANCH  27  28
ATOM     28  C   UNL     1      -4.473   4.055  -4.542  1.00  0.00     0.002 C 
BRANCH  28  29
ATOM     29  C   UNL     1      -4.606   2.533  -4.649  1.00  0.00     0.021 C 
BRANCH  29  30
ATOM     30  C   UNL     1      -5.836   1.963  -3.949  1.00  0.00     0.116 C 
BRANCH  30  31
ATOM     31  N   UNL     1      -7.067   2.432  -4.566  1.00  0.00    -0.352 N 
ATOM     32  C   UNL     1      -8.095   1.704  -5.112  1.00  0.00     0.251 C 
ATOM     33  H   UNL     1      -7.179   3.410  -4.596  1.00  0.00     0.163 HD
ATOM     34  O   UNL     1      -8.939   2.260  -5.807  1.00  0.00    -0.269 OA
BRANCH  32  35
ATOM     35  C   UNL     1      -8.173   0.249  -4.865  1.00  0.00     0.039 A 
ATOM     36  C   UNL     1      -8.477  -0.606  -5.927  1.00  0.00     0.014 A 
ATOM     37  C   UNL     1      -7.958  -0.269  -3.584  1.00  0.00     0.014 A 
ATOM     38  C   UNL     1      -8.513  -1.985  -5.714  1.00  0.00     0.010 A 
ATOM     39  C   UNL     1      -7.922  -1.646  -3.390  1.00  0.00     0.010 A 
ATOM     40  C   UNL     1      -8.206  -2.519  -4.451  1.00  0.00    -0.014 A 
BRANCH  40  41
ATOM     41  C   UNL     1      -8.181  -3.986  -4.220  1.00  0.00     0.031 A 
ATOM     42  C   UNL     1      -9.152  -4.616  -3.259  1.00  0.00     0.074 A 
ATOM     43  C   UNL     1      -7.244  -4.739  -4.829  1.00  0.00     0.049 A 
ATOM     44  N   UNL     1      -9.245  -5.864  -2.877  1.00  0.00    -0.248 NA
ATOM     45  C   UNL     1     -10.133  -3.721  -2.622  1.00  0.00     0.031 C 
ATOM     46  C   UNL     1      -6.218  -4.234  -5.745  1.00  0.00     0.029 A 
ATOM     47  N   UNL     1      -6.994  -6.086  -4.763  1.00  0.00    -0.354 N 
ATOM     48  C   UNL     1     -10.280  -5.902  -1.950  1.00  0.00     0.074 A 
ATOM     49  C   UNL     1     -10.748  -4.543  -1.785  1.00  0.00     0.031 C 
ATOM     50  C   UNL     1      -5.465  -5.261  -6.171  1.00  0.00     0.029 A 
ATOM     51  C   UNL     1      -5.926  -6.489  -5.530  1.00  0.00     0.049 A 
ATOM     52  H   UNL     1      -7.529  -6.707  -4.217  1.00  0.00     0.167 HD
ATOM     53  C   UNL     1     -10.807  -6.975  -1.313  1.00  0.00     0.037 A 
ATOM     54  C   UNL     1      -5.374  -7.707  -5.692  1.00  0.00     0.037 A 
ATOM     55  C   UNL     1     -10.348  -8.326  -1.500  1.00  0.00     0.049 A 
ATOM     56  C   UNL     1      -5.973  -8.883  -4.968  1.00  0.00     0.074 A 
ATOM     57  C   UNL     1     -10.851  -9.491  -0.947  1.00  0.00     0.029 A 
ATOM     58  N   UNL     1      -9.274  -8.696  -2.299  1.00  0.00    -0.354 N 
ATOM     59  N   UNL     1      -6.995  -8.911  -4.146  1.00  0.00    -0.248 NA
ATOM     60  C   UNL     1      -5.350 -10.193  -5.199  1.00  0.00     0.031 C 
ATOM     61  C   UNL     1     -10.052 -10.558  -1.371  1.00  0.00     0.029 A 
ATOM     62  C   UNL     1      -9.086 -10.067  -2.234  1.00  0.00     0.049 A 
ATOM     63  H   UNL     1      -8.728  -8.076  -2.833  1.00  0.00     0.167 HD
ATOM     64  C   UNL     1      -7.155 -10.244  -3.783  1.00  0.00     0.074 A 
ATOM     65  C   UNL     1      -6.132 -10.992  -4.486  1.00  0.00     0.031 C 
ATOM     66  C   UNL     1      -8.066 -10.798  -2.946  1.00  0.00     0.037 A 
BRANCH  53  67
ATOM     67  C   UNL     1     -11.943  -6.731  -0.356  1.00  0.00     0.058 A 
ATOM     68  C   UNL     1     -13.214  -6.334  -0.803  1.00  0.00     0.135 A 
ATOM     69  C   UNL     1     -11.771  -6.931   1.024  1.00  0.00     0.135 A 
ATOM     70  F   UNL     1     -13.433  -6.114  -2.110  1.00  0.00    -0.206 F 
ATOM     71  C   UNL     1     -14.262  -6.113   0.084  1.00  0.00     0.059 A 
ATOM     72  C   UNL     1     -12.814  -6.745   1.926  1.00  0.00     0.059 A 
ATOM     73  F   UNL     1     -10.578  -7.310   1.508  1.00  0.00    -0.206 F 
ATOM     74  C   UNL     1     -14.053  -6.321   1.448  1.00  0.00     0.060 A 
BRANCH  74  75
ATOM     75  S   UNL     1     -15.426  -6.035   2.584  1.00  0.00     0.124 S 
ATOM     76  O   UNL     1     -15.518  -4.578   2.567  1.00  0.00    -0.237 OA
ATOM     77  O   UNL     1     -16.522  -6.746   1.933  1.00  0.00    -0.237 OA
ATOM     78  O   UNL     1     -14.959  -6.619   3.837  1.00  0.00    -0.744 OA
ENDBRANCH  74  75
ENDBRANCH  53  67
BRANCH  54  79
ATOM     79  C   UNL     1      -4.201  -7.878  -6.592  1.00  0.00     0.058 A 
ATOM     80  C   UNL     1      -4.319  -8.564  -7.809  1.00  0.00     0.135 A 
ATOM     81  C   UNL     1      -2.945  -7.347  -6.261  1.00  0.00     0.135 A 
ATOM     82  F   UNL     1      -5.498  -9.095  -8.168  1.00  0.00    -0.206 F 
ATOM     83  C   UNL     1      -3.231  -8.733  -8.660  1.00  0.00     0.059 A 
ATOM     84  C   UNL     1      -1.848  -7.479  -7.107  1.00  0.00     0.059 A 
ATOM     85  F   UNL     1      -2.782  -6.666  -5.115  1.00  0.00    -0.206 F 
ATOM     86  C   UNL     1      -1.999  -8.184  -8.300  1.00  0.00     0.060 A 
BRANCH  86  87
ATOM     87  S   UNL     1      -0.605  -8.368  -9.434  1.00  0.00     0.124 S 
ATOM     88  O   UNL     1      -0.284  -9.782  -9.277  1.00  0.00    -0.237 OA
ATOM     89  O   UNL     1      -1.196  -7.985 -10.711  1.00  0.00    -0.237 OA
ATOM     90  O   UNL     1       0.384  -7.434  -8.904  1.00  0.00    -0.744 OA
ENDBRANCH  86  87
ENDBRANCH  54  79
BRANCH  66  91
ATOM     91  C   UNL     1      -8.025 -12.292  -2.767  1.00  0.00     0.058 A 
ATOM     92  C   UNL     1      -7.002 -12.923  -2.043  1.00  0.00     0.135 A 
ATOM     93  C   UNL     1      -9.055 -13.096  -3.285  1.00  0.00     0.135 A 
ATOM     94  F   UNL     1      -5.991 -12.203  -1.534  1.00  0.00    -0.206 F 
ATOM     95  C   UNL     1      -6.988 -14.302  -1.859  1.00  0.00     0.059 A 
ATOM     96  C   UNL     1      -9.076 -14.472  -3.086  1.00  0.00     0.059 A 
ATOM     97  F   UNL     1     -10.063 -12.542  -3.976  1.00  0.00    -0.206 F 
ATOM     98  C   UNL     1      -8.031 -15.068  -2.382  1.00  0.00     0.060 A 
BRANCH  98  99
ATOM     99  S   UNL     1      -8.018 -16.852  -2.105  1.00  0.00     0.124 S 
ATOM    100  O   UNL     1      -6.955 -17.282  -3.007  1.00  0.00    -0.237 OA
ATOM    101  O   UNL     1      -7.716 -16.944  -0.680  1.00  0.00    -0.237 OA
ATOM    102  O   UNL     1      -9.367 -17.265  -2.482  1.00  0.00    -0.744 OA
ENDBRANCH  98  99
ENDBRANCH  66  91
ENDBRANCH  40  41
ENDBRANCH  32  35
ENDBRANCH  30  31
ENDBRANCH  29  30
ENDBRANCH  28  29
ENDBRANCH  27  28
ENDBRANCH   1  27
TORSDOF 21
