REMARK SMILES O=C(NCCCCCCNC(=O)c1ccccc1O[C@H]1CCOC2(CCSCC2)C1)c1ccc(-c2c3nc(c(-c4c(F)cc(S(=O)(=O)[O-])cc4F)c4ccc([nH]4)c(-c4c(F)cc(S(=O)(=O)[O-])cc4F)c4nc(c(-c5c(F)cc(S(=O)(=O)[O-])cc5F)c5ccc2[nH]5)C=C4)C=C3)cc1
REMARK SMILES IDX 6 1 5 2 4 3 3 4 1 5 2 6 31 8 32 9 96 10 33 11 95 12 34 13
REMARK SMILES IDX 35 14 36 15 89 16 37 17 94 18 88 19 90 20 38 21 93 22 87 23
REMARK SMILES IDX 86 24 39 26 73 27 52 28 72 29 53 30 56 31 71 32 91 33 54 34
REMARK SMILES IDX 55 35 70 37 92 38 57 39 40 40 41 41 50 42 42 43 43 44 49 45
REMARK SMILES IDX 51 46 44 47 45 48 46 49 47 50 48 51 74 52 75 53 84 54 76 55
REMARK SMILES IDX 77 56 83 57 85 58 78 59 79 60 80 61 81 62 82 63 58 64 59 65
REMARK SMILES IDX 68 66 60 67 61 68 67 69 69 70 62 71 63 72 64 73 65 74 66 75
REMARK SMILES IDX 7 76 8 77 9 78 10 79 11 80 12 82 13 83 14 84 18 85 15 86
REMARK SMILES IDX 17 87 16 88 19 89 20 90 21 91 30 92 22 93 24 94 23 95 25 96
REMARK SMILES IDX 29 97 26 98 28 99 27 100
REMARK H PARENT 3 7 90 25 56 36 10 81
REMARK Flexibility Score: inf
ROOT
ATOM      1  C   UNL     1       2.244   1.317  -3.429  1.00  0.00     0.002 C 
ENDROOT
BRANCH   1   2
ATOM      2  C   UNL     1       2.385   2.761  -3.907  1.00  0.00     0.021 C 
BRANCH   2   3
ATOM      3  C   UNL     1       1.131   3.383  -4.504  1.00  0.00     0.116 C 
BRANCH   3   4
ATOM      4  N   UNL     1       0.039   3.516  -3.555  1.00  0.00    -0.352 N 
ATOM      5  O   UNL     1      -1.623   4.573  -2.450  1.00  0.00    -0.269 OA
ATOM      6  C   UNL     1      -0.809   4.585  -3.369  1.00  0.00     0.251 C 
ATOM      7  H   UNL     1      -0.115   2.741  -2.969  1.00  0.00     0.163 HD
BRANCH   6   8
ATOM      8  C   UNL     1      -0.708   5.764  -4.261  1.00  0.00     0.039 A 
ATOM      9  C   UNL     1      -0.590   5.602  -5.642  1.00  0.00     0.014 A 
ATOM     10  C   UNL     1      -0.712   7.047  -3.705  1.00  0.00     0.014 A 
ATOM     11  C   UNL     1      -0.324   6.704  -6.445  1.00  0.00     0.010 A 
ATOM     12  C   UNL     1      -0.534   8.165  -4.529  1.00  0.00     0.010 A 
ATOM     13  C   UNL     1      -0.306   8.001  -5.903  1.00  0.00    -0.014 A 
BRANCH  13  14
ATOM     14  C   UNL     1      -0.118   9.154  -6.822  1.00  0.00     0.031 A 
ATOM     15  C   UNL     1       1.097  10.037  -6.743  1.00  0.00     0.074 A 
ATOM     16  C   UNL     1      -1.040   9.354  -7.785  1.00  0.00     0.049 A 
ATOM     17  N   UNL     1       1.443  11.027  -7.527  1.00  0.00    -0.248 NA
ATOM     18  C   UNL     1       2.044   9.787  -5.645  1.00  0.00     0.031 C 
ATOM     19  C   UNL     1      -2.277   8.582  -7.937  1.00  0.00     0.029 A 
ATOM     20  N   UNL     1      -1.071  10.236  -8.834  1.00  0.00    -0.354 N 
ATOM     21  C   UNL     1       2.636  11.525  -7.016  1.00  0.00     0.074 A 
ATOM     22  C   UNL     1       2.944  10.743  -5.837  1.00  0.00     0.031 C 
ATOM     23  C   UNL     1      -2.913   8.981  -9.047  1.00  0.00     0.029 A 
ATOM     24  C   UNL     1      -2.161  10.072  -9.655  1.00  0.00     0.049 A 
ATOM     25  H   UNL     1      -0.380  10.921  -8.984  1.00  0.00     0.167 HD
ATOM     26  C   UNL     1       3.406  12.533  -7.494  1.00  0.00     0.037 A 
ATOM     27  C   UNL     1      -2.522  10.728 -10.773  1.00  0.00     0.037 A 
ATOM     28  C   UNL     1       3.098  13.301  -8.675  1.00  0.00     0.049 A 
ATOM     29  C   UNL     1      -1.636  11.821 -11.294  1.00  0.00     0.074 A 
ATOM     30  C   UNL     1       3.818  14.339  -9.242  1.00  0.00     0.029 A 
ATOM     31  N   UNL     1       1.980  13.112  -9.475  1.00  0.00    -0.354 N 
ATOM     32  N   UNL     1      -0.505  12.265 -10.802  1.00  0.00    -0.248 NA
ATOM     33  C   UNL     1      -2.074  12.502 -12.518  1.00  0.00     0.031 C 
ATOM     34  C   UNL     1       3.122  14.795 -10.368  1.00  0.00     0.029 A 
ATOM     35  C   UNL     1       1.988  14.017 -10.526  1.00  0.00     0.049 A 
ATOM     36  H   UNL     1       1.283  12.434  -9.320  1.00  0.00     0.167 HD
ATOM     37  C   UNL     1      -0.097  13.283 -11.653  1.00  0.00     0.074 A 
ATOM     38  C   UNL     1      -1.084  13.362 -12.712  1.00  0.00     0.031 C 
ATOM     39  C   UNL     1       0.988  14.090 -11.561  1.00  0.00     0.037 A 
BRANCH  26  40
ATOM     40  C   UNL     1       4.664  12.873  -6.742  1.00  0.00     0.058 A 
ATOM     41  C   UNL     1       5.801  12.052  -6.803  1.00  0.00     0.135 A 
ATOM     42  C   UNL     1       4.758  14.064  -6.004  1.00  0.00     0.135 A 
ATOM     43  F   UNL     1       5.762  10.894  -7.482  1.00  0.00    -0.206 F 
ATOM     44  C   UNL     1       6.982  12.393  -6.151  1.00  0.00     0.059 A 
ATOM     45  C   UNL     1       5.935  14.436  -5.361  1.00  0.00     0.059 A 
ATOM     46  F   UNL     1       3.700  14.886  -5.912  1.00  0.00    -0.206 F 
ATOM     47  C   UNL     1       7.040  13.589  -5.433  1.00  0.00     0.060 A 
BRANCH  47  48
ATOM     48  S   UNL     1       8.588  14.035  -4.615  1.00  0.00     0.124 S 
ATOM     49  O   UNL     1       8.579  13.134  -3.467  1.00  0.00    -0.237 OA
ATOM     50  O   UNL     1       9.581  13.742  -5.644  1.00  0.00    -0.237 OA
ATOM     51  O   UNL     1       8.412  15.450  -4.305  1.00  0.00    -0.744 OA
ENDBRANCH  47  48
ENDBRANCH  26  40
BRANCH  27  52
ATOM     52  C   UNL     1      -3.787  10.365 -11.462  1.00  0.00     0.058 A 
ATOM     53  C   UNL     1      -3.779   9.711 -12.702  1.00  0.00     0.135 A 
ATOM     54  C   UNL     1      -5.031  10.643 -10.874  1.00  0.00     0.135 A 
ATOM     55  F   UNL     1      -2.614   9.426 -13.303  1.00  0.00    -0.206 F 
ATOM     56  C   UNL     1      -4.961   9.357 -13.344  1.00  0.00     0.059 A 
ATOM     57  C   UNL     1      -6.225  10.275 -11.483  1.00  0.00     0.059 A 
ATOM     58  F   UNL     1      -5.089  11.248  -9.678  1.00  0.00    -0.206 F 
ATOM     59  C   UNL     1      -6.180   9.643 -12.725  1.00  0.00     0.060 A 
BRANCH  59  60
ATOM     60  S   UNL     1      -7.712   9.133 -13.533  1.00  0.00     0.124 S 
ATOM     61  O   UNL     1      -7.882  10.188 -14.525  1.00  0.00    -0.237 OA
ATOM     62  O   UNL     1      -7.366   7.815 -14.054  1.00  0.00    -0.237 OA
ATOM     63  O   UNL     1      -8.679   9.130 -12.439  1.00  0.00    -0.744 OA
ENDBRANCH  59  60
ENDBRANCH  27  52
BRANCH  39  64
ATOM     64  C   UNL     1       1.153  15.123 -12.638  1.00  0.00     0.058 A 
ATOM     65  C   UNL     1       0.339  16.266 -12.682  1.00  0.00     0.135 A 
ATOM     66  C   UNL     1       2.128  14.970 -13.634  1.00  0.00     0.135 A 
ATOM     67  F   UNL     1      -0.614  16.454 -11.755  1.00  0.00    -0.206 F 
ATOM     68  C   UNL     1       0.461  17.204 -13.701  1.00  0.00     0.059 A 
ATOM     69  C   UNL     1       2.283  15.907 -14.650  1.00  0.00     0.059 A 
ATOM     70  F   UNL     1       2.937  13.898 -13.630  1.00  0.00    -0.206 F 
ATOM     71  C   UNL     1       1.431  17.011 -14.686  1.00  0.00     0.060 A 
BRANCH  71  72
ATOM     72  S   UNL     1       1.579  18.229 -16.011  1.00  0.00     0.124 S 
ATOM     73  O   UNL     1       0.464  17.856 -16.875  1.00  0.00    -0.237 OA
ATOM     74  O   UNL     1       1.433  19.493 -15.296  1.00  0.00    -0.237 OA
ATOM     75  O   UNL     1       2.909  17.974 -16.555  1.00  0.00    -0.744 OA
ENDBRANCH  71  72
ENDBRANCH  39  64
ENDBRANCH  13  14
ENDBRANCH   6   8
ENDBRANCH   3   4
ENDBRANCH   2   3
ENDBRANCH   1   2
BRANCH   1  76
ATOM     76  C   UNL     1       1.669   0.322  -4.443  1.00  0.00     0.002 C 
BRANCH  76  77
ATOM     77  C   UNL     1       2.347   0.275  -5.818  1.00  0.00     0.021 C 
BRANCH  77  78
ATOM     78  C   UNL     1       3.862   0.092  -5.807  1.00  0.00     0.116 C 
BRANCH  78  79
ATOM     79  N   UNL     1       4.270  -1.126  -5.139  1.00  0.00    -0.352 N 
ATOM     80  C   UNL     1       5.287  -1.985  -5.460  1.00  0.00     0.255 C 
ATOM     81  H   UNL     1       3.743  -1.370  -4.345  1.00  0.00     0.163 HD
ATOM     82  O   UNL     1       5.454  -3.002  -4.787  1.00  0.00    -0.269 OA
BRANCH  80  83
ATOM     83  C   UNL     1       6.148  -1.762  -6.644  1.00  0.00     0.081 A 
ATOM     84  C   UNL     1       6.215  -2.825  -7.559  1.00  0.00     0.018 A 
ATOM     85  C   UNL     1       6.940  -0.615  -6.823  1.00  0.00     0.132 A 
ATOM     86  C   UNL     1       7.061  -2.752  -8.663  1.00  0.00     0.001 A 
ATOM     87  C   UNL     1       7.820  -0.581  -7.913  1.00  0.00     0.047 A 
ATOM     88  C   UNL     1       7.870  -1.635  -8.832  1.00  0.00     0.004 A 
BRANCH  85  89
ATOM     89  O   UNL     1       6.805   0.398  -5.911  1.00  0.00    -0.489 OA
BRANCH  89  90
ATOM     90  C   UNL     1       7.404   1.675  -6.171  1.00  0.00     0.178 C 
ATOM     91  C   UNL     1       6.736   2.416  -7.332  1.00  0.00     0.074 C 
ATOM     92  C   UNL     1       7.223   2.535  -4.911  1.00  0.00     0.080 C 
ATOM     93  C   UNL     1       7.371   3.785  -7.487  1.00  0.00     0.165 C 
ATOM     94  C   UNL     1       7.783   3.963  -5.096  1.00  0.00     0.073 C 
ATOM     95  O   UNL     1       7.243   4.545  -6.293  1.00  0.00    -0.375 OA
ATOM     96  C   UNL     1       9.330   3.935  -5.121  1.00  0.00     0.046 C 
ATOM     97  C   UNL     1       7.269   4.852  -3.939  1.00  0.00     0.046 C 
ATOM     98  C   UNL     1       9.983   5.306  -5.248  1.00  0.00     0.072 C 
ATOM     99  C   UNL     1       7.775   6.292  -3.991  1.00  0.00     0.072 C 
ATOM    100  S   UNL     1       9.579   6.343  -3.825  1.00  0.00    -0.162 SA
ENDBRANCH  89  90
ENDBRANCH  85  89
ENDBRANCH  80  83
ENDBRANCH  78  79
ENDBRANCH  77  78
ENDBRANCH  76  77
ENDBRANCH   1  76
TORSDOF 18
