REMARK SMILES CCOc1ccc(OCC(=O)N2CCC[C@H](C(=O)NCCCCCCNC(=O)c3ccc(-c4c5nc(c(-c6c(F)cc(S(=O)(=O)[O-])cc6F)c6ccc([nH]6)c(-c6c(F)cc(S(=O)(=O)[O-])cc6F)c6nc(c(-c7c(F)cc(S(=O)(=O)[O-])cc7F)c7ccc4[nH]7)C=C6)C=C5)cc3)C2)cc1
REMARK SMILES IDX 21 1 20 2 19 3 17 4 18 5 16 7 12 8 13 9 95 10 14 11 15 12
REMARK SMILES IDX 10 13 11 14 9 15 8 16 7 17 4 18 5 19 97 20 6 21 96 22 3 23
REMARK SMILES IDX 2 24 1 25 22 26 23 27 24 28 25 29 26 30 27 31 28 33 29 34
REMARK SMILES IDX 30 35 94 36 31 37 93 38 32 39 33 40 34 41 87 42 35 43 92 44
REMARK SMILES IDX 86 45 88 46 36 47 91 48 85 49 84 50 37 52 71 53 50 54 70 55
REMARK SMILES IDX 51 56 54 57 69 58 89 59 52 60 53 61 68 63 90 64 55 65 38 66
REMARK SMILES IDX 39 67 48 68 40 69 41 70 47 71 49 72 42 73 43 74 44 75 45 76
REMARK SMILES IDX 46 77 72 78 73 79 82 80 74 81 75 82 81 83 83 84 76 85 77 86
REMARK SMILES IDX 78 87 79 88 80 89 56 90 57 91 66 92 58 93 59 94 65 95 67 96
REMARK SMILES IDX 60 97 61 98 62 99 63 100 64 101
REMARK H PARENT 19 6 26 32 88 51 54 62
REMARK Flexibility Score: inf
ROOT
ATOM      1  C   UNL     1       5.345  -1.067   2.608  1.00  0.00     0.021 C 
ENDROOT
BRANCH   1   2
ATOM      2  C   UNL     1       5.496   0.187   1.753  1.00  0.00     0.116 C 
BRANCH   2   3
ATOM      3  N   UNL     1       4.636   1.274   2.159  1.00  0.00    -0.356 N 
ATOM      4  C   UNL     1       4.896   2.574   2.449  1.00  0.00     0.224 C 
ATOM      5  O   UNL     1       3.904   3.301   2.600  1.00  0.00    -0.275 OA
ATOM      6  H   UNL     1       3.687   1.027   2.240  1.00  0.00     0.163 HD
BRANCH   4   7
ATOM      7  C   UNL     1       6.296   3.183   2.631  1.00  0.00     0.098 C 
ATOM      8  N   UNL     1       7.896   2.236   0.987  1.00  0.00    -0.339 N 
ATOM      9  C   UNL     1       8.810   1.756   2.030  1.00  0.00     0.119 C 
ATOM     10  C   UNL     1       7.105   3.399   1.353  1.00  0.00     0.133 C 
ATOM     11  C   UNL     1       8.150   1.547   3.397  1.00  0.00     0.022 C 
ATOM     12  C   UNL     1       7.128   2.614   3.782  1.00  0.00     0.017 C 
BRANCH   8  13
ATOM     13  C   UNL     1       7.817   1.558  -0.226  1.00  0.00     0.260 C 
ATOM     14  O   UNL     1       8.201   0.386  -0.319  1.00  0.00    -0.271 OA
BRANCH  13  15
ATOM     15  C   UNL     1       7.376   2.297  -1.518  1.00  0.00     0.329 C 
BRANCH  15  16
ATOM     16  O   UNL     1       6.335   3.246  -1.574  1.00  0.00    -0.484 OA
BRANCH  16  17
ATOM     17  C   UNL     1       5.042   2.823  -1.473  1.00  0.00     0.120 A 
ATOM     18  C   UNL     1       2.328   2.252  -1.146  1.00  0.00     0.119 A 
ATOM     19  C   UNL     1       2.761   3.571  -1.090  1.00  0.00     0.050 A 
ATOM     20  C   UNL     1       3.233   1.226  -1.413  1.00  0.00     0.050 A 
ATOM     21  C   UNL     1       4.117   3.852  -1.255  1.00  0.00     0.050 A 
ATOM     22  C   UNL     1       4.595   1.509  -1.567  1.00  0.00     0.050 A 
BRANCH  18  23
ATOM     23  O   UNL     1       0.989   1.996  -1.054  1.00  0.00    -0.494 OA
BRANCH  23  24
ATOM     24  C   UNL     1       0.621   1.469   0.227  1.00  0.00     0.226 C 
ATOM     25  C   UNL     1       0.596  -0.051   0.200  1.00  0.00     0.049 C 
ENDBRANCH  23  24
ENDBRANCH  18  23
ENDBRANCH  16  17
ENDBRANCH  15  16
ENDBRANCH  13  15
ENDBRANCH   8  13
ENDBRANCH   4   7
ENDBRANCH   2   3
ENDBRANCH   1   2
BRANCH   1  26
ATOM     26  C   UNL     1       4.441  -2.137   1.991  1.00  0.00     0.002 C 
BRANCH  26  27
ATOM     27  C   UNL     1       4.854  -2.634   0.598  1.00  0.00     0.002 C 
BRANCH  27  28
ATOM     28  C   UNL     1       6.299  -3.125   0.461  1.00  0.00     0.021 C 
BRANCH  28  29
ATOM     29  C   UNL     1       6.695  -4.256   1.407  1.00  0.00     0.116 C 
BRANCH  29  30
ATOM     30  N   UNL     1       5.809  -5.404   1.291  1.00  0.00    -0.352 N 
ATOM     31  C   UNL     1       6.094  -6.715   1.009  1.00  0.00     0.251 C 
ATOM     32  H   UNL     1       4.855  -5.209   1.439  1.00  0.00     0.163 HD
ATOM     33  O   UNL     1       5.181  -7.493   0.750  1.00  0.00    -0.269 OA
BRANCH  31  34
ATOM     34  C   UNL     1       7.494  -7.191   1.009  1.00  0.00     0.039 A 
ATOM     35  C   UNL     1       7.912  -8.059  -0.004  1.00  0.00     0.014 A 
ATOM     36  C   UNL     1       8.381  -6.815   2.021  1.00  0.00     0.014 A 
ATOM     37  C   UNL     1       9.234  -8.509  -0.029  1.00  0.00     0.010 A 
ATOM     38  C   UNL     1       9.715  -7.209   1.956  1.00  0.00     0.010 A 
ATOM     39  C   UNL     1      10.153  -8.065   0.935  1.00  0.00    -0.014 A 
BRANCH  39  40
ATOM     40  C   UNL     1      11.576  -8.487   0.892  1.00  0.00     0.031 A 
ATOM     41  C   UNL     1      12.155  -9.317   2.005  1.00  0.00     0.074 A 
ATOM     42  C   UNL     1      12.363  -8.063  -0.115  1.00  0.00     0.049 A 
ATOM     43  N   UNL     1      13.386  -9.725   2.179  1.00  0.00    -0.248 NA
ATOM     44  C   UNL     1      11.233  -9.715   3.080  1.00  0.00     0.031 C 
ATOM     45  C   UNL     1      11.930  -7.207  -1.222  1.00  0.00     0.029 A 
ATOM     46  N   UNL     1      13.695  -8.280  -0.364  1.00  0.00    -0.354 N 
ATOM     47  C   UNL     1      13.389 -10.416   3.384  1.00  0.00     0.074 A 
ATOM     48  C   UNL     1      12.052 -10.321   3.928  1.00  0.00     0.031 C 
ATOM     49  C   UNL     1      12.972  -6.982  -2.037  1.00  0.00     0.029 A 
ATOM     50  C   UNL     1      14.154  -7.646  -1.495  1.00  0.00     0.049 A 
ATOM     51  H   UNL     1      14.268  -8.836   0.212  1.00  0.00     0.167 HD
ATOM     52  C   UNL     1      14.408 -11.089   3.974  1.00  0.00     0.037 A 
ATOM     53  C   UNL     1      15.389  -7.596  -2.030  1.00  0.00     0.037 A 
ATOM     54  C   UNL     1      15.734 -11.186   3.419  1.00  0.00     0.049 A 
ATOM     55  C   UNL     1      16.505  -8.354  -1.367  1.00  0.00     0.074 A 
ATOM     56  C   UNL     1      16.823 -11.885   3.907  1.00  0.00     0.029 A 
ATOM     57  N   UNL     1      16.153 -10.557   2.254  1.00  0.00    -0.354 N 
ATOM     58  N   UNL     1      16.477  -9.060  -0.262  1.00  0.00    -0.248 NA
ATOM     59  C   UNL     1      17.817  -8.319  -2.027  1.00  0.00     0.031 C 
ATOM     60  C   UNL     1      17.912 -11.644   3.061  1.00  0.00     0.029 A 
ATOM     61  C   UNL     1      17.489 -10.836   2.018  1.00  0.00     0.049 A 
ATOM     62  H   UNL     1      15.583  -9.996   1.679  1.00  0.00     0.167 HD
ATOM     63  C   UNL     1      17.761  -9.570  -0.102  1.00  0.00     0.074 A 
ATOM     64  C   UNL     1      18.537  -9.101  -1.233  1.00  0.00     0.031 C 
ATOM     65  C   UNL     1      18.250 -10.356   0.889  1.00  0.00     0.037 A 
BRANCH  52  66
ATOM     66  C   UNL     1      14.119 -11.764   5.288  1.00  0.00     0.058 A 
ATOM     67  C   UNL     1      13.260 -12.873   5.375  1.00  0.00     0.135 A 
ATOM     68  C   UNL     1      14.699 -11.294   6.478  1.00  0.00     0.135 A 
ATOM     69  F   UNL     1      12.668 -13.358   4.272  1.00  0.00    -0.206 F 
ATOM     70  C   UNL     1      12.945 -13.457   6.598  1.00  0.00     0.059 A 
ATOM     71  C   UNL     1      14.423 -11.884   7.709  1.00  0.00     0.059 A 
ATOM     72  F   UNL     1      15.532 -10.242   6.456  1.00  0.00    -0.206 F 
ATOM     73  C   UNL     1      13.525 -12.949   7.761  1.00  0.00     0.060 A 
BRANCH  73  74
ATOM     74  S   UNL     1      13.078 -13.692   9.344  1.00  0.00     0.124 S 
ATOM     75  O   UNL     1      11.730 -13.167   9.540  1.00  0.00    -0.237 OA
ATOM     76  O   UNL     1      13.164 -15.120   9.056  1.00  0.00    -0.237 OA
ATOM     77  O   UNL     1      14.091 -13.178  10.260  1.00  0.00    -0.744 OA
ENDBRANCH  73  74
ENDBRANCH  52  66
BRANCH  53  78
ATOM     78  C   UNL     1      15.612  -6.816  -3.276  1.00  0.00     0.058 A 
ATOM     79  C   UNL     1      15.817  -7.460  -4.504  1.00  0.00     0.135 A 
ATOM     80  C   UNL     1      15.562  -5.413  -3.272  1.00  0.00     0.135 A 
ATOM     81  F   UNL     1      15.879  -8.799  -4.558  1.00  0.00    -0.206 F 
ATOM     82  C   UNL     1      15.963  -6.741  -5.687  1.00  0.00     0.059 A 
ATOM     83  C   UNL     1      15.682  -4.674  -4.444  1.00  0.00     0.059 A 
ATOM     84  F   UNL     1      15.352  -4.752  -2.123  1.00  0.00    -0.206 F 
ATOM     85  C   UNL     1      15.885  -5.348  -5.647  1.00  0.00     0.060 A 
BRANCH  85  86
ATOM     86  S   UNL     1      15.989  -4.431  -7.200  1.00  0.00     0.124 S 
ATOM     87  O   UNL     1      17.405  -4.562  -7.525  1.00  0.00    -0.237 OA
ATOM     88  O   UNL     1      15.066  -5.171  -8.055  1.00  0.00    -0.237 OA
ATOM     89  O   UNL     1      15.548  -3.090  -6.828  1.00  0.00    -0.744 OA
ENDBRANCH  85  86
ENDBRANCH  53  78
BRANCH  65  90
ATOM     90  C   UNL     1      19.690 -10.780   0.787  1.00  0.00     0.058 A 
ATOM     91  C   UNL     1      20.742  -9.880   1.021  1.00  0.00     0.135 A 
ATOM     92  C   UNL     1      20.020 -12.115   0.505  1.00  0.00     0.135 A 
ATOM     93  F   UNL     1      20.483  -8.591   1.288  1.00  0.00    -0.206 F 
ATOM     94  C   UNL     1      22.072 -10.286   0.958  1.00  0.00     0.059 A 
ATOM     95  C   UNL     1      21.341 -12.549   0.464  1.00  0.00     0.059 A 
ATOM     96  F   UNL     1      19.051 -13.018   0.283  1.00  0.00    -0.206 F 
ATOM     97  C   UNL     1      22.361 -11.624   0.681  1.00  0.00     0.060 A 
BRANCH  97  98
ATOM     98  S   UNL     1      24.089 -12.145   0.638  1.00  0.00     0.124 S 
ATOM     99  O   UNL     1      24.537 -11.574  -0.628  1.00  0.00    -0.237 OA
ATOM    100  O   UNL     1      24.633 -11.523   1.842  1.00  0.00    -0.237 OA
ATOM    101  O   UNL     1      24.006 -13.602   0.675  1.00  0.00    -0.744 OA
ENDBRANCH  97  98
ENDBRANCH  65  90
ENDBRANCH  39  40
ENDBRANCH  31  34
ENDBRANCH  29  30
ENDBRANCH  28  29
ENDBRANCH  27  28
ENDBRANCH  26  27
ENDBRANCH   1  26
TORSDOF 22
