REMARK SMILES C[C@@H](NC(=O)/C(=C/c1ccc(Cl)cc1)NC(=O)c1ccc(C(C)(C)C)cc1)C(=O)NCCCCCCNC(=O)c1ccc(-c2c3nc(c(-c4c(F)cc(S(=O)(=O)[O-])cc4F)c4ccc([nH]4)c(-c4c(F)cc(S(=O)(=O)[O-])cc4F)c4nc(c(-c5c(F)cc(S(=O)(=O)[O-])cc5F)c5ccc2[nH]5)C=C4)C=C3)cc1
REMARK SMILES IDX 32 1 31 2 30 3 28 4 29 5 2 7 1 8 3 9 4 10 5 12 6 13 7 14
REMARK SMILES IDX 15 15 16 16 17 18 18 19 19 20 27 21 20 22 26 23 21 24 22 25
REMARK SMILES IDX 23 26 24 27 25 28 8 29 9 30 14 31 10 32 13 33 11 34 12 35
REMARK SMILES IDX 33 36 34 37 35 38 36 39 37 40 38 41 39 43 40 44 41 45 105 46
REMARK SMILES IDX 42 47 104 48 43 49 44 50 45 51 98 52 46 53 103 54 97 55
REMARK SMILES IDX 99 56 47 57 102 58 96 59 95 60 48 62 82 63 61 64 81 65 62 66
REMARK SMILES IDX 65 67 80 68 100 69 63 70 64 71 79 73 101 74 66 75 49 76
REMARK SMILES IDX 50 77 59 78 51 79 52 80 58 81 60 82 53 83 54 84 55 85 56 86
REMARK SMILES IDX 57 87 83 88 84 89 93 90 85 91 86 92 92 93 94 94 87 95 88 96
REMARK SMILES IDX 89 97 90 98 91 99 67 100 68 101 77 102 69 103 70 104 76 105
REMARK SMILES IDX 78 106 71 107 72 108 73 109 74 110 75 111
REMARK H PARENT 30 6 3 11 15 17 37 42 99 61 65 72
REMARK Flexibility Score: inf
ROOT
ATOM      1  C   UNL     1      -1.568  -1.713   2.418  1.00  0.00     0.021 C 
ENDROOT
BRANCH   1   2
ATOM      2  C   UNL     1      -0.991  -1.723   1.010  1.00  0.00     0.116 C 
BRANCH   2   3
ATOM      3  N   UNL     1      -1.343  -0.498   0.324  1.00  0.00    -0.354 N 
ATOM      4  C   UNL     1      -0.704   0.123  -0.699  1.00  0.00     0.242 C 
ATOM      5  O   UNL     1      -1.125   1.226  -1.062  1.00  0.00    -0.273 OA
ATOM      6  H   UNL     1      -2.161  -0.054   0.645  1.00  0.00     0.163 HD
BRANCH   4   7
ATOM      7  C   UNL     1       0.574  -0.466  -1.316  1.00  0.00     0.168 C 
ATOM      8  C   UNL     1       1.740  -0.082  -0.395  1.00  0.00     0.041 C 
BRANCH   7   9
ATOM      9  N   UNL     1       0.594  -1.907  -1.638  1.00  0.00    -0.339 N 
ATOM     10  C   UNL     1      -0.134  -2.500  -2.652  1.00  0.00     0.268 C 
ATOM     11  H   UNL     1       1.169  -2.488  -1.090  1.00  0.00     0.164 HD
ATOM     12  O   UNL     1       0.452  -3.018  -3.599  1.00  0.00    -0.268 OA
BRANCH  10  13
ATOM     13  C   UNL     1      -1.622  -2.652  -2.476  1.00  0.00     0.107 C 
ATOM     14  C   UNL     1      -2.352  -1.522  -2.550  1.00  0.00     0.040 C 
BRANCH  13  15
ATOM     15  N   UNL     1      -2.231  -3.886  -2.352  1.00  0.00    -0.317 N 
ATOM     16  C   UNL     1      -1.804  -5.187  -2.256  1.00  0.00     0.255 C 
ATOM     17  H   UNL     1      -3.212  -3.814  -2.326  1.00  0.00     0.170 HD
ATOM     18  O   UNL     1      -2.644  -6.087  -2.267  1.00  0.00    -0.269 OA
BRANCH  16  19
ATOM     19  C   UNL     1      -0.389  -5.551  -2.168  1.00  0.00     0.040 A 
ATOM     20  C   UNL     1       0.155  -6.307  -3.204  1.00  0.00     0.014 A 
ATOM     21  C   UNL     1       0.384  -5.199  -1.066  1.00  0.00     0.014 A 
ATOM     22  C   UNL     1       1.515  -6.607  -3.192  1.00  0.00     0.005 A 
ATOM     23  C   UNL     1       1.750  -5.497  -1.065  1.00  0.00     0.005 A 
ATOM     24  C   UNL     1       2.353  -6.162  -2.150  1.00  0.00    -0.043 A 
BRANCH  24  25
ATOM     25  C   UNL     1       3.870  -6.399  -2.239  1.00  0.00    -0.013 C 
ATOM     26  C   UNL     1       4.164  -7.906  -2.118  1.00  0.00     0.016 C 
ATOM     27  C   UNL     1       4.401  -5.882  -3.598  1.00  0.00     0.016 C 
ATOM     28  C   UNL     1       4.672  -5.663  -1.143  1.00  0.00     0.016 C 
ENDBRANCH  24  25
ENDBRANCH  16  19
ENDBRANCH  13  15
BRANCH  14  29
ATOM     29  C   UNL     1      -3.771  -1.271  -2.208  1.00  0.00    -0.023 A 
ATOM     30  C   UNL     1      -4.511  -2.062  -1.316  1.00  0.00     0.010 A 
ATOM     31  C   UNL     1      -4.357  -0.082  -2.666  1.00  0.00     0.010 A 
ATOM     32  C   UNL     1      -5.813  -1.714  -0.940  1.00  0.00     0.021 A 
ATOM     33  C   UNL     1      -5.651   0.282  -2.277  1.00  0.00     0.021 A 
ATOM     34  C   UNL     1      -6.378  -0.540  -1.423  1.00  0.00     0.041 A 
ATOM     35  Cl  UNL     1      -7.965  -0.092  -0.941  1.00  0.00    -0.084 Cl
ENDBRANCH  14  29
ENDBRANCH  10  13
ENDBRANCH   7   9
ENDBRANCH   4   7
ENDBRANCH   2   3
ENDBRANCH   1   2
BRANCH   1  36
ATOM     36  C   UNL     1      -3.069  -2.017   2.441  1.00  0.00     0.002 C 
BRANCH  36  37
ATOM     37  C   UNL     1      -3.421  -3.461   2.066  1.00  0.00     0.002 C 
BRANCH  37  38
ATOM     38  C   UNL     1      -2.735  -4.535   2.908  1.00  0.00     0.021 C 
BRANCH  38  39
ATOM     39  C   UNL     1      -2.861  -4.334   4.412  1.00  0.00     0.116 C 
BRANCH  39  40
ATOM     40  N   UNL     1      -4.248  -4.287   4.843  1.00  0.00    -0.352 N 
ATOM     41  C   UNL     1      -4.850  -4.954   5.881  1.00  0.00     0.251 C 
ATOM     42  H   UNL     1      -4.836  -3.697   4.319  1.00  0.00     0.163 HD
ATOM     43  O   UNL     1      -6.068  -4.943   5.995  1.00  0.00    -0.269 OA
BRANCH  41  44
ATOM     44  C   UNL     1      -4.010  -5.702   6.840  1.00  0.00     0.039 A 
ATOM     45  C   UNL     1      -4.395  -6.993   7.203  1.00  0.00     0.014 A 
ATOM     46  C   UNL     1      -2.839  -5.140   7.358  1.00  0.00     0.014 A 
ATOM     47  C   UNL     1      -3.575  -7.739   8.049  1.00  0.00     0.010 A 
ATOM     48  C   UNL     1      -1.981  -5.918   8.129  1.00  0.00     0.010 A 
ATOM     49  C   UNL     1      -2.345  -7.222   8.491  1.00  0.00    -0.014 A 
BRANCH  49  50
ATOM     50  C   UNL     1      -1.433  -8.049   9.319  1.00  0.00     0.031 A 
ATOM     51  C   UNL     1      -1.088  -7.636  10.724  1.00  0.00     0.074 A 
ATOM     52  C   UNL     1      -0.891  -9.162   8.787  1.00  0.00     0.049 A 
ATOM     53  N   UNL     1      -0.344  -8.254  11.606  1.00  0.00    -0.248 NA
ATOM     54  C   UNL     1      -1.624  -6.348  11.193  1.00  0.00     0.031 C 
ATOM     55  C   UNL     1      -1.101  -9.631   7.415  1.00  0.00     0.029 A 
ATOM     56  N   UNL     1      -0.062 -10.108   9.335  1.00  0.00    -0.354 N 
ATOM     57  C   UNL     1      -0.316  -7.429  12.724  1.00  0.00     0.074 A 
ATOM     58  C   UNL     1      -1.066  -6.239  12.389  1.00  0.00     0.031 C 
ATOM     59  C   UNL     1      -0.465 -10.801   7.247  1.00  0.00     0.029 A 
ATOM     60  C   UNL     1       0.229 -11.147   8.483  1.00  0.00     0.049 A 
ATOM     61  H   UNL     1       0.290 -10.049  10.253  1.00  0.00     0.167 HD
ATOM     62  C   UNL     1       0.264  -7.654  13.928  1.00  0.00     0.037 A 
ATOM     63  C   UNL     1       0.963 -12.258   8.678  1.00  0.00     0.037 A 
ATOM     64  C   UNL     1       0.995  -8.852  14.256  1.00  0.00     0.049 A 
ATOM     65  C   UNL     1       1.591 -12.488  10.025  1.00  0.00     0.074 A 
ATOM     66  C   UNL     1       1.556  -9.214  15.468  1.00  0.00     0.029 A 
ATOM     67  N   UNL     1       1.280  -9.877  13.364  1.00  0.00    -0.354 N 
ATOM     68  N   UNL     1       1.533 -11.741  11.103  1.00  0.00    -0.248 NA
ATOM     69  C   UNL     1       2.380 -13.716  10.184  1.00  0.00     0.031 C 
ATOM     70  C   UNL     1       2.234 -10.426  15.293  1.00  0.00     0.029 A 
ATOM     71  C   UNL     1       2.041 -10.853  13.988  1.00  0.00     0.049 A 
ATOM     72  H   UNL     1       0.985  -9.906  12.425  1.00  0.00     0.167 HD
ATOM     73  C   UNL     1       2.257 -12.421  12.076  1.00  0.00     0.074 A 
ATOM     74  C   UNL     1       2.722 -13.649  11.463  1.00  0.00     0.031 C 
ATOM     75  C   UNL     1       2.513 -12.063  13.360  1.00  0.00     0.037 A 
BRANCH  62  76
ATOM     76  C   UNL     1       0.141  -6.576  14.974  1.00  0.00     0.058 A 
ATOM     77  C   UNL     1      -1.090  -6.250  15.568  1.00  0.00     0.135 A 
ATOM     78  C   UNL     1       1.277  -5.870  15.402  1.00  0.00     0.135 A 
ATOM     79  F   UNL     1      -2.213  -6.882  15.190  1.00  0.00    -0.206 F 
ATOM     80  C   UNL     1      -1.197  -5.236  16.515  1.00  0.00     0.059 A 
ATOM     81  C   UNL     1       1.199  -4.874  16.373  1.00  0.00     0.059 A 
ATOM     82  F   UNL     1       2.481  -6.138  14.872  1.00  0.00    -0.206 F 
ATOM     83  C   UNL     1      -0.046  -4.551  16.909  1.00  0.00     0.060 A 
BRANCH  83  84
ATOM     84  S   UNL     1      -0.204  -3.230  18.128  1.00  0.00     0.124 S 
ATOM     85  O   UNL     1      -0.865  -2.190  17.346  1.00  0.00    -0.237 OA
ATOM     86  O   UNL     1      -1.018  -3.857  19.164  1.00  0.00    -0.237 OA
ATOM     87  O   UNL     1       1.178  -2.947  18.505  1.00  0.00    -0.744 OA
ENDBRANCH  83  84
ENDBRANCH  62  76
BRANCH  63  88
ATOM     88  C   UNL     1       1.101 -13.259   7.586  1.00  0.00     0.058 A 
ATOM     89  C   UNL     1       0.487 -14.516   7.681  1.00  0.00     0.135 A 
ATOM     90  C   UNL     1       1.829 -12.973   6.420  1.00  0.00     0.135 A 
ATOM     91  F   UNL     1      -0.214 -14.839   8.779  1.00  0.00    -0.206 F 
ATOM     92  C   UNL     1       0.599 -15.461   6.667  1.00  0.00     0.059 A 
ATOM     93  C   UNL     1       1.931 -13.891   5.380  1.00  0.00     0.059 A 
ATOM     94  F   UNL     1       2.422 -11.779   6.273  1.00  0.00    -0.206 F 
ATOM     95  C   UNL     1       1.319 -15.136   5.516  1.00  0.00     0.060 A 
BRANCH  95  96
ATOM     96  S   UNL     1       1.410 -16.351   4.183  1.00  0.00     0.124 S 
ATOM     97  O   UNL     1       2.288 -17.360   4.763  1.00  0.00    -0.237 OA
ATOM     98  O   UNL     1       0.011 -16.735   4.025  1.00  0.00    -0.237 OA
ATOM     99  O   UNL     1       1.973 -15.588   3.072  1.00  0.00    -0.744 OA
ENDBRANCH  95  96
ENDBRANCH  63  88
BRANCH  75 100
ATOM    100  C   UNL     1       3.322 -13.026  14.189  1.00  0.00     0.058 A 
ATOM    101  C   UNL     1       4.683 -13.260  13.935  1.00  0.00     0.135 A 
ATOM    102  C   UNL     1       2.728 -13.722  15.255  1.00  0.00     0.135 A 
ATOM    103  F   UNL     1       5.301 -12.624  12.926  1.00  0.00    -0.206 F 
ATOM    104  C   UNL     1       5.413 -14.185  14.674  1.00  0.00     0.059 A 
ATOM    105  C   UNL     1       3.448 -14.625  16.030  1.00  0.00     0.059 A 
ATOM    106  F   UNL     1       1.433 -13.527  15.554  1.00  0.00    -0.206 F 
ATOM    107  C   UNL     1       4.784 -14.867  15.717  1.00  0.00     0.060 A 
BRANCH 107 108
ATOM    108  S   UNL     1       5.739 -16.072  16.662  1.00  0.00     0.124 S 
ATOM    109  O   UNL     1       5.842 -17.174  15.711  1.00  0.00    -0.237 OA
ATOM    110  O   UNL     1       6.978 -15.349  16.930  1.00  0.00    -0.237 OA
ATOM    111  O   UNL     1       4.903 -16.327  17.831  1.00  0.00    -0.744 OA
ENDBRANCH 107 108
ENDBRANCH  75 100
ENDBRANCH  49  50
ENDBRANCH  41  44
ENDBRANCH  39  40
ENDBRANCH  38  39
ENDBRANCH  37  38
ENDBRANCH  36  37
ENDBRANCH   1  36
TORSDOF 22
