REMARK SMILES NC(=O)c1ccccc1NC(=O)[C@@H]1CC=CC[C@@H]1C(=O)NCCCCCCNC(=O)c1ccc(-c2c3nc(c(-c4c(F)cc(S(=O)(=O)[O-])cc4F)c4ccc([nH]4)c(-c4c(F)cc(S(=O)(=O)[O-])cc4F)c4nc(c(-c5c(F)cc(S(=O)(=O)[O-])cc5F)c5ccc2[nH]5)C=C4)C=C3)cc1
REMARK SMILES IDX 24 1 23 2 22 3 21 4 19 5 20 6 18 8 13 9 14 10 15 11 17 12
REMARK SMILES IDX 16 13 11 14 10 15 12 17 9 18 4 19 5 20 6 21 8 22 7 23 2 24
REMARK SMILES IDX 1 25 3 28 25 29 26 30 27 31 28 32 29 33 30 35 31 36 32 37
REMARK SMILES IDX 96 38 33 39 95 40 34 41 35 42 36 43 89 44 37 45 94 46 88 47
REMARK SMILES IDX 90 48 38 49 93 50 87 51 86 52 39 54 73 55 52 56 72 57 53 58
REMARK SMILES IDX 56 59 71 60 91 61 54 62 55 63 70 65 92 66 57 67 40 68 41 69
REMARK SMILES IDX 50 70 42 71 43 72 49 73 51 74 44 75 45 76 46 77 47 78 48 79
REMARK SMILES IDX 74 80 75 81 84 82 76 83 77 84 83 85 85 86 78 87 79 88 80 89
REMARK SMILES IDX 81 90 82 91 58 92 59 93 68 94 60 95 61 96 67 97 69 98 62 99
REMARK SMILES IDX 63 100 64 101 65 102 66 103
REMARK H PARENT 21 7 10 16 1 26 1 27 28 34 90 53 56 64
REMARK Flexibility Score: inf
ROOT
ATOM      1  C   UNL     1       9.143  -2.499  -5.786  1.00  0.00     0.002 C 
ENDROOT
BRANCH   1   2
ATOM      2  C   UNL     1       8.276  -3.040  -4.653  1.00  0.00     0.021 C 
BRANCH   2   3
ATOM      3  C   UNL     1       6.814  -2.621  -4.743  1.00  0.00     0.116 C 
BRANCH   3   4
ATOM      4  N   UNL     1       6.004  -3.493  -5.567  1.00  0.00    -0.356 N 
ATOM      5  C   UNL     1       4.676  -3.726  -5.668  1.00  0.00     0.224 C 
ATOM      6  O   UNL     1       4.366  -4.492  -6.595  1.00  0.00    -0.275 OA
ATOM      7  H   UNL     1       6.538  -4.036  -6.191  1.00  0.00     0.163 HD
BRANCH   5   8
ATOM      8  C   UNL     1       3.552  -3.052  -4.864  1.00  0.00     0.095 C 
ATOM      9  C   UNL     1       3.788  -2.304  -3.545  1.00  0.00     0.095 C 
ATOM     10  C   UNL     1       4.264  -3.325  -2.459  1.00  0.00     0.041 C 
ATOM     11  C   UNL     1       3.590  -4.673  -2.531  1.00  0.00    -0.030 C 
ATOM     12  C   UNL     1       2.405  -4.070  -4.619  1.00  0.00     0.041 C 
ATOM     13  C   UNL     1       2.723  -5.006  -3.497  1.00  0.00    -0.030 C 
BRANCH   9  14
ATOM     14  C   UNL     1       4.608  -0.989  -3.547  1.00  0.00     0.228 C 
ATOM     15  N   UNL     1       4.691  -0.127  -4.616  1.00  0.00    -0.325 N 
ATOM     16  H   UNL     1       5.351   0.595  -4.508  1.00  0.00     0.169 HD
ATOM     17  O   UNL     1       5.270  -0.695  -2.544  1.00  0.00    -0.274 OA
BRANCH  15  18
ATOM     18  C   UNL     1       3.992  -0.101  -5.838  1.00  0.00     0.053 A 
ATOM     19  C   UNL     1       4.676  -0.070  -7.070  1.00  0.00     0.063 A 
ATOM     20  C   UNL     1       3.986  -0.301  -8.268  1.00  0.00     0.016 A 
ATOM     21  C   UNL     1       2.607  -0.470  -8.252  1.00  0.00     0.001 A 
ATOM     22  C   UNL     1       2.596  -0.156  -5.848  1.00  0.00     0.027 A 
ATOM     23  C   UNL     1       1.909  -0.347  -7.051  1.00  0.00     0.002 A 
BRANCH  19  24
ATOM     24  C   UNL     1       6.118   0.228  -7.159  1.00  0.00     0.250 C 
ATOM     25  N   UNL     1       6.852  -0.525  -8.040  1.00  0.00    -0.366 N 
ATOM     26  H   UNL     1       7.819  -0.366  -8.138  1.00  0.00     0.159 HD
ATOM     27  H   UNL     1       6.412  -1.225  -8.575  1.00  0.00     0.159 HD
ATOM     28  O   UNL     1       6.613   1.105  -6.473  1.00  0.00    -0.269 OA
ENDBRANCH  19  24
ENDBRANCH  15  18
ENDBRANCH   9  14
ENDBRANCH   5   8
ENDBRANCH   3   4
ENDBRANCH   2   3
ENDBRANCH   1   2
BRANCH   1  29
ATOM     29  C   UNL     1       9.222  -0.971  -5.854  1.00  0.00     0.002 C 
BRANCH  29  30
ATOM     30  C   UNL     1       9.847  -0.243  -4.676  1.00  0.00     0.021 C 
BRANCH  30  31
ATOM     31  C   UNL     1      11.234  -0.723  -4.314  1.00  0.00     0.116 C 
BRANCH  31  32
ATOM     32  N   UNL     1      12.111  -0.873  -5.468  1.00  0.00    -0.352 N 
ATOM     33  C   UNL     1      13.437  -0.552  -5.595  1.00  0.00     0.251 C 
ATOM     34  H   UNL     1      11.691  -1.260  -6.271  1.00  0.00     0.163 HD
ATOM     35  O   UNL     1      14.002  -0.659  -6.678  1.00  0.00    -0.269 OA
BRANCH  33  36
ATOM     36  C   UNL     1      14.154  -0.041  -4.414  1.00  0.00     0.039 A 
ATOM     37  C   UNL     1      14.965   1.085  -4.547  1.00  0.00     0.014 A 
ATOM     38  C   UNL     1      13.960  -0.639  -3.167  1.00  0.00     0.014 A 
ATOM     39  C   UNL     1      15.546   1.641  -3.409  1.00  0.00     0.010 A 
ATOM     40  C   UNL     1      14.428  -0.009  -2.027  1.00  0.00     0.010 A 
ATOM     41  C   UNL     1      15.258   1.113  -2.140  1.00  0.00    -0.014 A 
BRANCH  41  42
ATOM     42  C   UNL     1      15.876   1.671  -0.917  1.00  0.00     0.031 A 
ATOM     43  C   UNL     1      16.772   0.794  -0.082  1.00  0.00     0.074 A 
ATOM     44  C   UNL     1      15.591   2.932  -0.540  1.00  0.00     0.049 A 
ATOM     45  N   UNL     1      17.381   1.067   1.041  1.00  0.00    -0.248 NA
ATOM     46  C   UNL     1      16.970  -0.591  -0.545  1.00  0.00     0.031 C 
ATOM     47  C   UNL     1      14.667   3.837  -1.230  1.00  0.00     0.029 A 
ATOM     48  N   UNL     1      16.053   3.672   0.515  1.00  0.00    -0.354 N 
ATOM     49  C   UNL     1      18.004  -0.115   1.426  1.00  0.00     0.074 A 
ATOM     50  C   UNL     1      17.634  -1.127   0.465  1.00  0.00     0.031 C 
ATOM     51  C   UNL     1      14.667   5.026  -0.605  1.00  0.00     0.029 A 
ATOM     52  C   UNL     1      15.569   4.958   0.540  1.00  0.00     0.049 A 
ATOM     53  H   UNL     1      16.673   3.317   1.192  1.00  0.00     0.167 HD
ATOM     54  C   UNL     1      18.846  -0.328   2.463  1.00  0.00     0.037 A 
ATOM     55  C   UNL     1      15.843   5.970   1.385  1.00  0.00     0.037 A 
ATOM     56  C   UNL     1      19.254   0.708   3.373  1.00  0.00     0.049 A 
ATOM     57  C   UNL     1      16.844   5.734   2.483  1.00  0.00     0.074 A 
ATOM     58  C   UNL     1      20.157   0.635   4.417  1.00  0.00     0.029 A 
ATOM     59  N   UNL     1      18.790   2.016   3.331  1.00  0.00    -0.354 N 
ATOM     60  N   UNL     1      17.481   4.629   2.795  1.00  0.00    -0.248 NA
ATOM     61  C   UNL     1      17.180   6.885   3.330  1.00  0.00     0.031 C 
ATOM     62  C   UNL     1      20.220   1.895   5.023  1.00  0.00     0.029 A 
ATOM     63  C   UNL     1      19.386   2.761   4.332  1.00  0.00     0.049 A 
ATOM     64  H   UNL     1      18.134   2.361   2.684  1.00  0.00     0.167 HD
ATOM     65  C   UNL     1      18.310   4.956   3.862  1.00  0.00     0.074 A 
ATOM     66  C   UNL     1      18.107   6.368   4.125  1.00  0.00     0.031 C 
ATOM     67  C   UNL     1      19.160   4.166   4.564  1.00  0.00     0.037 A 
BRANCH  54  68
ATOM     68  C   UNL     1      19.390  -1.719   2.640  1.00  0.00     0.058 A 
ATOM     69  C   UNL     1      20.291  -2.282   1.720  1.00  0.00     0.135 A 
ATOM     70  C   UNL     1      19.000  -2.506   3.735  1.00  0.00     0.135 A 
ATOM     71  F   UNL     1      20.681  -1.584   0.642  1.00  0.00    -0.206 F 
ATOM     72  C   UNL     1      20.753  -3.587   1.856  1.00  0.00     0.059 A 
ATOM     73  C   UNL     1      19.474  -3.804   3.908  1.00  0.00     0.059 A 
ATOM     74  F   UNL     1      18.138  -2.023   4.643  1.00  0.00    -0.206 F 
ATOM     75  C   UNL     1      20.335  -4.342   2.952  1.00  0.00     0.060 A 
BRANCH  75  76
ATOM     76  S   UNL     1      20.939  -6.036   3.112  1.00  0.00     0.124 S 
ATOM     77  O   UNL     1      20.147  -6.724   2.097  1.00  0.00    -0.237 OA
ATOM     78  O   UNL     1      22.360  -5.892   2.815  1.00  0.00    -0.237 OA
ATOM     79  O   UNL     1      20.622  -6.379   4.495  1.00  0.00    -0.744 OA
ENDBRANCH  75  76
ENDBRANCH  54  68
BRANCH  55  80
ATOM     80  C   UNL     1      15.214   7.302   1.182  1.00  0.00     0.058 A 
ATOM     81  C   UNL     1      15.965   8.388   0.708  1.00  0.00     0.135 A 
ATOM     82  C   UNL     1      13.850   7.512   1.432  1.00  0.00     0.135 A 
ATOM     83  F   UNL     1      17.274   8.238   0.454  1.00  0.00    -0.206 F 
ATOM     84  C   UNL     1      15.393   9.640   0.509  1.00  0.00     0.059 A 
ATOM     85  C   UNL     1      13.249   8.750   1.218  1.00  0.00     0.059 A 
ATOM     86  F   UNL     1      13.082   6.500   1.865  1.00  0.00    -0.206 F 
ATOM     87  C   UNL     1      14.032   9.811   0.766  1.00  0.00     0.060 A 
BRANCH  87  88
ATOM     88  S   UNL     1      13.289  11.429   0.460  1.00  0.00     0.124 S 
ATOM     89  O   UNL     1      13.797  12.204   1.587  1.00  0.00    -0.237 OA
ATOM     90  O   UNL     1      13.833  11.775  -0.850  1.00  0.00    -0.237 OA
ATOM     91  O   UNL     1      11.856  11.149   0.480  1.00  0.00    -0.744 OA
ENDBRANCH  87  88
ENDBRANCH  55  80
BRANCH  67  92
ATOM     92  C   UNL     1      19.946   4.824   5.661  1.00  0.00     0.058 A 
ATOM     93  C   UNL     1      19.340   5.219   6.864  1.00  0.00     0.135 A 
ATOM     94  C   UNL     1      21.325   5.042   5.513  1.00  0.00     0.135 A 
ATOM     95  F   UNL     1      18.024   5.033   7.051  1.00  0.00    -0.206 F 
ATOM     96  C   UNL     1      20.067   5.848   7.867  1.00  0.00     0.059 A 
ATOM     97  C   UNL     1      22.077   5.643   6.516  1.00  0.00     0.059 A 
ATOM     98  F   UNL     1      21.953   4.666   4.388  1.00  0.00    -0.206 F 
ATOM     99  C   UNL     1      21.435   6.061   7.681  1.00  0.00     0.060 A 
BRANCH  99 100
ATOM    100  S   UNL     1      22.370   6.880   8.988  1.00  0.00     0.124 S 
ATOM    101  O   UNL     1      21.983   8.274   8.794  1.00  0.00    -0.237 OA
ATOM    102  O   UNL     1      21.854   6.241  10.194  1.00  0.00    -0.237 OA
ATOM    103  O   UNL     1      23.757   6.561   8.662  1.00  0.00    -0.744 OA
ENDBRANCH  99 100
ENDBRANCH  67  92
ENDBRANCH  41  42
ENDBRANCH  33  36
ENDBRANCH  31  32
ENDBRANCH  30  31
ENDBRANCH  29  30
ENDBRANCH   1  29
TORSDOF 19
