REMARK SMILES CCOc1ccc(N2C[C@H](C(=O)NCCCCCCNC(=O)c3ccc(-c4c5nc(c(-c6c(F)cc(S(=O)(=O)[O-])cc6F)c6ccc([nH]6)c(-c6c(F)cc(S(=O)(=O)[O-])cc6F)c6nc(c(-c7c(F)cc(S(=O)(=O)[O-])cc7F)c7ccc4[nH]7)C=C6)C=C5)cc3)CC2=O)cc1C(F)(F)F
REMARK SMILES IDX 16 1 15 2 14 3 13 4 11 5 12 6 10 8 8 9 9 10 90 11 89 12
REMARK SMILES IDX 91 13 7 14 4 15 5 16 93 17 6 18 92 19 3 20 2 21 1 22 94 23
REMARK SMILES IDX 95 24 96 25 97 26 17 27 18 28 19 29 20 30 21 31 22 33 23 34
REMARK SMILES IDX 24 35 88 36 25 37 87 38 26 39 27 40 28 41 81 42 29 43 86 44
REMARK SMILES IDX 80 45 82 46 30 47 85 48 79 49 78 50 31 52 65 53 44 54 64 55
REMARK SMILES IDX 45 56 48 57 63 58 83 59 46 60 47 61 62 63 84 64 49 65 32 66
REMARK SMILES IDX 33 67 42 68 34 69 35 70 41 71 43 72 36 73 37 74 38 75 39 76
REMARK SMILES IDX 40 77 66 78 67 79 76 80 68 81 69 82 75 83 77 84 70 85 71 86
REMARK SMILES IDX 72 87 73 88 74 89 50 90 51 91 60 92 52 93 53 94 59 95 61 96
REMARK SMILES IDX 54 97 55 98 56 99 57 100 58 101
REMARK H PARENT 13 7 20 32 82 51 48 62
REMARK Flexibility Score: inf
ROOT
ATOM      1  C   UNL     1       4.967   1.334  -7.850  1.00  0.00     0.002 C 
ENDROOT
BRANCH   1   2
ATOM      2  C   UNL     1       5.337   1.386  -6.365  1.00  0.00     0.021 C 
BRANCH   2   3
ATOM      3  C   UNL     1       6.570   0.554  -6.013  1.00  0.00     0.116 C 
BRANCH   3   4
ATOM      4  N   UNL     1       7.793   1.304  -6.224  1.00  0.00    -0.356 N 
ATOM      5  C   UNL     1       8.685   1.854  -5.363  1.00  0.00     0.225 C 
ATOM      6  O   UNL     1       9.637   2.466  -5.860  1.00  0.00    -0.275 OA
ATOM      7  H   UNL     1       8.020   1.440  -7.173  1.00  0.00     0.163 HD
BRANCH   5   8
ATOM      8  C   UNL     1       8.588   1.737  -3.849  1.00  0.00     0.107 C 
ATOM      9  N   UNL     1       6.620   1.063  -2.725  1.00  0.00    -0.312 N 
ATOM     10  C   UNL     1       7.287   2.232  -3.253  1.00  0.00     0.139 C 
ATOM     11  C   UNL     1       7.471  -0.050  -2.713  1.00  0.00     0.227 C 
ATOM     12  C   UNL     1       8.788   0.328  -3.329  1.00  0.00     0.116 C 
ATOM     13  O   UNL     1       7.240  -1.196  -2.343  1.00  0.00    -0.274 OA
BRANCH   9  14
ATOM     14  C   UNL     1       5.239   1.043  -2.371  1.00  0.00     0.044 A 
ATOM     15  C   UNL     1       2.462   0.844  -1.875  1.00  0.00     0.131 A 
ATOM     16  C   UNL     1       2.981   1.944  -2.559  1.00  0.00     0.049 A 
ATOM     17  C   UNL     1       3.311  -0.164  -1.422  1.00  0.00     0.100 A 
ATOM     18  C   UNL     1       4.360   2.053  -2.783  1.00  0.00     0.030 A 
ATOM     19  C   UNL     1       4.694  -0.033  -1.659  1.00  0.00     0.043 A 
BRANCH  15  20
ATOM     20  O   UNL     1       1.110   0.690  -1.784  1.00  0.00    -0.493 OA
BRANCH  20  21
ATOM     21  C   UNL     1       0.491   1.554  -0.823  1.00  0.00     0.226 C 
ATOM     22  C   UNL     1       0.246   0.792   0.468  1.00  0.00     0.049 C 
ENDBRANCH  20  21
ENDBRANCH  15  20
BRANCH  17  23
ATOM     23  C   UNL     1       2.823  -1.362  -0.648  1.00  0.00     0.420 C 
ATOM     24  F   UNL     1       3.595  -2.468  -0.857  1.00  0.00    -0.166 F 
ATOM     25  F   UNL     1       2.870  -1.142   0.698  1.00  0.00    -0.166 F 
ATOM     26  F   UNL     1       1.552  -1.752  -0.925  1.00  0.00    -0.166 F 
ENDBRANCH  17  23
ENDBRANCH   9  14
ENDBRANCH   5   8
ENDBRANCH   3   4
ENDBRANCH   2   3
ENDBRANCH   1   2
BRANCH   1  27
ATOM     27  C   UNL     1       4.642  -0.067  -8.385  1.00  0.00     0.002 C 
BRANCH  27  28
ATOM     28  C   UNL     1       3.587  -0.841  -7.589  1.00  0.00     0.021 C 
BRANCH  28  29
ATOM     29  C   UNL     1       2.236  -0.142  -7.478  1.00  0.00     0.116 C 
BRANCH  29  30
ATOM     30  N   UNL     1       1.654   0.108  -8.787  1.00  0.00    -0.352 N 
ATOM     31  C   UNL     1       0.461  -0.320  -9.309  1.00  0.00     0.251 C 
ATOM     32  H   UNL     1       2.197   0.669  -9.387  1.00  0.00     0.163 HD
ATOM     33  O   UNL     1       0.256  -0.219 -10.515  1.00  0.00    -0.269 OA
BRANCH  31  34
ATOM     34  C   UNL     1      -0.574  -0.899  -8.425  1.00  0.00     0.039 A 
ATOM     35  C   UNL     1      -1.309  -1.999  -8.874  1.00  0.00     0.014 A 
ATOM     36  C   UNL     1      -0.854  -0.329  -7.179  1.00  0.00     0.014 A 
ATOM     37  C   UNL     1      -2.305  -2.544  -8.062  1.00  0.00     0.010 A 
ATOM     38  C   UNL     1      -1.793  -0.921  -6.339  1.00  0.00     0.010 A 
ATOM     39  C   UNL     1      -2.545  -2.019  -6.781  1.00  0.00    -0.014 A 
BRANCH  39  40
ATOM     40  C   UNL     1      -3.610  -2.578  -5.910  1.00  0.00     0.031 A 
ATOM     41  C   UNL     1      -4.794  -1.727  -5.531  1.00  0.00     0.074 A 
ATOM     42  C   UNL     1      -3.490  -3.829  -5.426  1.00  0.00     0.049 A 
ATOM     43  N   UNL     1      -5.800  -2.012  -4.745  1.00  0.00    -0.248 NA
ATOM     44  C   UNL     1      -4.838  -0.365  -6.089  1.00  0.00     0.031 C 
ATOM     45  C   UNL     1      -2.367  -4.733  -5.684  1.00  0.00     0.029 A 
ATOM     46  N   UNL     1      -4.319  -4.556  -4.609  1.00  0.00    -0.354 N 
ATOM     47  C   UNL     1      -6.585  -0.865  -4.702  1.00  0.00     0.074 A 
ATOM     48  C   UNL     1      -5.909   0.139  -5.494  1.00  0.00     0.031 C 
ATOM     49  C   UNL     1      -2.587  -5.899  -5.056  1.00  0.00     0.029 A 
ATOM     50  C   UNL     1      -3.848  -5.816  -4.324  1.00  0.00     0.049 A 
ATOM     51  H   UNL     1      -5.171  -4.208  -4.259  1.00  0.00     0.167 HD
ATOM     52  C   UNL     1      -7.772  -0.673  -4.079  1.00  0.00     0.037 A 
ATOM     53  C   UNL     1      -4.371  -6.792  -3.557  1.00  0.00     0.037 A 
ATOM     54  C   UNL     1      -8.450  -1.687  -3.313  1.00  0.00     0.049 A 
ATOM     55  C   UNL     1      -5.699  -6.561  -2.887  1.00  0.00     0.074 A 
ATOM     56  C   UNL     1      -9.679  -1.612  -2.682  1.00  0.00     0.029 A 
ATOM     57  N   UNL     1      -7.957  -2.963  -3.077  1.00  0.00    -0.354 N 
ATOM     58  N   UNL     1      -6.456  -5.488  -2.901  1.00  0.00    -0.248 NA
ATOM     59  C   UNL     1      -6.253  -7.677  -2.110  1.00  0.00     0.031 C 
ATOM     60  C   UNL     1      -9.910  -2.827  -2.029  1.00  0.00     0.029 A 
ATOM     61  C   UNL     1      -8.852  -3.680  -2.300  1.00  0.00     0.049 A 
ATOM     62  H   UNL     1      -7.097  -3.307  -3.412  1.00  0.00     0.167 HD
ATOM     63  C   UNL     1      -7.592  -5.815  -2.168  1.00  0.00     0.074 A 
ATOM     64  C   UNL     1      -7.426  -7.186  -1.732  1.00  0.00     0.031 C 
ATOM     65  C   UNL     1      -8.678  -5.051  -1.888  1.00  0.00     0.037 A 
BRANCH  52  66
ATOM     66  C   UNL     1      -8.415   0.683  -4.202  1.00  0.00     0.058 A 
ATOM     67  C   UNL     1      -8.939   1.146  -5.420  1.00  0.00     0.135 A 
ATOM     68  C   UNL     1      -8.534   1.521  -3.081  1.00  0.00     0.135 A 
ATOM     69  F   UNL     1      -8.839   0.395  -6.528  1.00  0.00    -0.206 F 
ATOM     70  C   UNL     1      -9.529   2.401  -5.530  1.00  0.00     0.059 A 
ATOM     71  C   UNL     1      -9.148   2.768  -3.161  1.00  0.00     0.059 A 
ATOM     72  F   UNL     1      -8.050   1.133  -1.891  1.00  0.00    -0.206 F 
ATOM     73  C   UNL     1      -9.628   3.206  -4.394  1.00  0.00     0.060 A 
BRANCH  73  74
ATOM     74  S   UNL     1     -10.397   4.832  -4.554  1.00  0.00     0.124 S 
ATOM     75  O   UNL     1      -9.367   5.570  -5.279  1.00  0.00    -0.237 OA
ATOM     76  O   UNL     1     -11.610   4.531  -5.307  1.00  0.00    -0.237 OA
ATOM     77  O   UNL     1     -10.607   5.246  -3.171  1.00  0.00    -0.744 OA
ENDBRANCH  73  74
ENDBRANCH  52  66
BRANCH  53  78
ATOM     78  C   UNL     1      -3.656  -8.088  -3.412  1.00  0.00     0.058 A 
ATOM     79  C   UNL     1      -4.157  -9.260  -3.997  1.00  0.00     0.135 A 
ATOM     80  C   UNL     1      -2.452  -8.180  -2.696  1.00  0.00     0.135 A 
ATOM     81  F   UNL     1      -5.307  -9.225  -4.688  1.00  0.00    -0.206 F 
ATOM     82  C   UNL     1      -3.506 -10.481  -3.860  1.00  0.00     0.059 A 
ATOM     83  C   UNL     1      -1.766  -9.385  -2.568  1.00  0.00     0.059 A 
ATOM     84  F   UNL     1      -1.919  -7.085  -2.132  1.00  0.00    -0.206 F 
ATOM     85  C   UNL     1      -2.308 -10.533  -3.145  1.00  0.00     0.060 A 
BRANCH  85  86
ATOM     86  S   UNL     1      -1.450 -12.116  -3.009  1.00  0.00     0.124 S 
ATOM     87  O   UNL     1      -2.308 -12.836  -2.075  1.00  0.00    -0.237 OA
ATOM     88  O   UNL     1      -1.466 -12.592  -4.389  1.00  0.00    -0.237 OA
ATOM     89  O   UNL     1      -0.134 -11.742  -2.499  1.00  0.00    -0.744 OA
ENDBRANCH  85  86
ENDBRANCH  53  78
BRANCH  65  90
ATOM     90  C   UNL     1      -9.800  -5.699  -1.123  1.00  0.00     0.058 A 
ATOM     91  C   UNL     1      -9.687  -6.023   0.237  1.00  0.00     0.135 A 
ATOM     92  C   UNL     1     -11.023  -5.967  -1.761  1.00  0.00     0.135 A 
ATOM     93  F   UNL     1      -8.540  -5.790   0.895  1.00  0.00    -0.206 F 
ATOM     94  C   UNL     1     -10.733  -6.624   0.930  1.00  0.00     0.059 A 
ATOM     95  C   UNL     1     -12.093  -6.539  -1.080  1.00  0.00     0.059 A 
ATOM     96  F   UNL     1     -11.191  -5.664  -3.058  1.00  0.00    -0.206 F 
ATOM     97  C   UNL     1     -11.932  -6.880   0.262  1.00  0.00     0.060 A 
BRANCH  97  98
ATOM     98  S   UNL     1     -13.287  -7.649   1.174  1.00  0.00     0.124 S 
ATOM     99  O   UNL     1     -12.823  -9.028   1.282  1.00  0.00    -0.237 OA
ATOM    100  O   UNL     1     -13.300  -6.885   2.417  1.00  0.00    -0.237 OA
ATOM    101  O   UNL     1     -14.442  -7.441   0.306  1.00  0.00    -0.744 OA
ENDBRANCH  97  98
ENDBRANCH  65  90
ENDBRANCH  39  40
ENDBRANCH  31  34
ENDBRANCH  29  30
ENDBRANCH  28  29
ENDBRANCH  27  28
ENDBRANCH   1  27
TORSDOF 20
