REMARK SMILES CCCCCCNC(=O)Oc1cccc(-c2ccc([C@@H](C)C(=O)NCCCCCCNC(=O)c3ccc(-c4c5nc(c(-c6c(F)cc(S(=O)(=O)[O-])cc6F)c6ccc([nH]6)c(-c6c(F)cc(S(=O)(=O)[O-])cc6F)c6nc(c(-c7c(F)cc(S(=O)(=O)[O-])cc7F)c7ccc4[nH]7)C=C6)C=C5)cc3)cc2[N+](=O)[O-])c1
REMARK SMILES IDX 22 1 23 2 24 3 20 5 21 6 19 7 16 8 17 9 101 10 18 11 100 12
REMARK SMILES IDX 15 13 11 14 12 15 105 16 13 17 14 18 10 19 8 20 7 21 9 23
REMARK SMILES IDX 6 24 5 25 4 26 3 27 2 28 1 29 102 30 103 31 104 32 25 33
REMARK SMILES IDX 26 34 27 35 28 36 29 37 30 38 31 39 32 40 33 42 34 43 35 44
REMARK SMILES IDX 99 45 36 46 98 47 37 48 38 49 39 50 92 51 40 52 97 53 91 54
REMARK SMILES IDX 93 55 41 56 96 57 90 58 89 59 42 61 76 62 55 63 75 64 56 65
REMARK SMILES IDX 59 66 74 67 94 68 57 69 58 70 73 72 95 73 60 74 43 75 44 76
REMARK SMILES IDX 53 77 45 78 46 79 52 80 54 81 47 82 48 83 49 84 50 85 51 86
REMARK SMILES IDX 77 87 78 88 87 89 79 90 80 91 86 92 88 93 81 94 82 95 83 96
REMARK SMILES IDX 84 97 85 98 61 99 62 100 71 101 63 102 64 103 70 104 72 105
REMARK SMILES IDX 65 106 66 107 67 108 68 109 69 110
REMARK H PARENT 24 4 7 22 31 41 93 60 59 71
REMARK Flexibility Score: inf
ROOT
ATOM      1  C   UNL     1      -3.101  13.496  -3.275  1.00  0.00     0.227 C 
ATOM      2  O   UNL     1      -2.167  13.185  -4.025  1.00  0.00    -0.274 OA
ATOM      3  N   UNL     1      -2.818  14.405  -2.304  1.00  0.00    -0.356 N 
ATOM      4  H   UNL     1      -1.913  14.788  -2.364  1.00  0.00     0.163 HD
ENDROOT
BRANCH   1   5
ATOM      5  C   UNL     1      -4.488  12.867  -3.485  1.00  0.00     0.105 C 
ATOM      6  C   UNL     1      -5.609  13.873  -3.741  1.00  0.00     0.023 C 
BRANCH   5   7
ATOM      7  C   UNL     1      -4.816  11.751  -2.503  1.00  0.00    -0.029 A 
ATOM      8  C   UNL     1      -5.204   9.611  -0.624  1.00  0.00     0.060 A 
ATOM      9  C   UNL     1      -5.485  10.948  -0.298  1.00  0.00     0.016 A 
ATOM     10  C   UNL     1      -4.815   9.369  -1.955  1.00  0.00     0.277 A 
ATOM     11  C   UNL     1      -5.336  11.985  -1.228  1.00  0.00     0.005 A 
ATOM     12  C   UNL     1      -4.582  10.417  -2.869  1.00  0.00     0.090 A 
BRANCH   8  13
ATOM     13  C   UNL     1      -5.282   8.585   0.438  1.00  0.00    -0.008 A 
ATOM     14  C   UNL     1      -4.313   6.720   1.658  1.00  0.00     0.133 A 
ATOM     15  C   UNL     1      -5.433   6.634   2.478  1.00  0.00     0.047 A 
ATOM     16  C   UNL     1      -4.223   7.687   0.655  1.00  0.00     0.056 A 
ATOM     17  C   UNL     1      -6.476   7.537   2.299  1.00  0.00     0.004 A 
ATOM     18  C   UNL     1      -6.404   8.496   1.284  1.00  0.00     0.009 A 
BRANCH  14  19
ATOM     19  O   UNL     1      -3.359   5.695   1.776  1.00  0.00    -0.410 OA
BRANCH  19  20
ATOM     20  C   UNL     1      -2.010   6.011   1.771  1.00  0.00     0.412 C 
ATOM     21  N   UNL     1      -1.208   4.910   1.638  1.00  0.00    -0.321 N 
ATOM     22  H   UNL     1      -0.236   5.061   1.691  1.00  0.00     0.167 HD
ATOM     23  O   UNL     1      -1.531   7.133   1.870  1.00  0.00    -0.224 OA
BRANCH  21  24
ATOM     24  C   UNL     1      -1.644   3.544   1.426  1.00  0.00     0.119 C 
BRANCH  24  25
ATOM     25  C   UNL     1      -1.058   2.951   0.144  1.00  0.00     0.021 C 
BRANCH  25  26
ATOM     26  C   UNL     1       0.471   2.827   0.131  1.00  0.00     0.002 C 
BRANCH  26  27
ATOM     27  C   UNL     1       1.073   1.988   1.262  1.00  0.00    -0.000 C 
BRANCH  27  28
ATOM     28  C   UNL     1       0.590   0.537   1.330  1.00  0.00    -0.003 C 
ATOM     29  C   UNL     1       0.963  -0.278   0.101  1.00  0.00     0.004 C 
ENDBRANCH  27  28
ENDBRANCH  26  27
ENDBRANCH  25  26
ENDBRANCH  24  25
ENDBRANCH  21  24
ENDBRANCH  19  20
ENDBRANCH  14  19
ENDBRANCH   8  13
BRANCH  10  30
ATOM     30  N   UNL     1      -4.702   8.009  -2.477  1.00  0.00     0.063 N 
ATOM     31  O   UNL     1      -3.728   7.758  -3.201  1.00  0.00    -0.258 OA
ATOM     32  O   UNL     1      -5.614   7.211  -2.216  1.00  0.00    -0.258 OA
ENDBRANCH  10  30
ENDBRANCH   5   7
ENDBRANCH   1   5
BRANCH   3  33
ATOM     33  C   UNL     1      -3.603  14.912  -1.199  1.00  0.00     0.116 C 
BRANCH  33  34
ATOM     34  C   UNL     1      -3.196  14.256   0.123  1.00  0.00     0.021 C 
BRANCH  34  35
ATOM     35  C   UNL     1      -2.066  14.988   0.854  1.00  0.00     0.002 C 
BRANCH  35  36
ATOM     36  C   UNL     1      -2.402  16.419   1.294  1.00  0.00     0.002 C 
BRANCH  36  37
ATOM     37  C   UNL     1      -3.665  16.563   2.149  1.00  0.00     0.021 C 
BRANCH  37  38
ATOM     38  C   UNL     1      -3.635  15.786   3.461  1.00  0.00     0.116 C 
BRANCH  38  39
ATOM     39  N   UNL     1      -2.565  16.246   4.333  1.00  0.00    -0.352 N 
ATOM     40  C   UNL     1      -2.639  16.796   5.589  1.00  0.00     0.251 C 
ATOM     41  H   UNL     1      -1.656  16.148   3.970  1.00  0.00     0.163 HD
ATOM     42  O   UNL     1      -1.658  17.357   6.069  1.00  0.00    -0.269 OA
BRANCH  40  43
ATOM     43  C   UNL     1      -3.900  16.717   6.356  1.00  0.00     0.039 A 
ATOM     44  C   UNL     1      -4.341  17.842   7.058  1.00  0.00     0.014 A 
ATOM     45  C   UNL     1      -4.631  15.527   6.404  1.00  0.00     0.014 A 
ATOM     46  C   UNL     1      -5.545  17.787   7.765  1.00  0.00     0.010 A 
ATOM     47  C   UNL     1      -5.864  15.496   7.048  1.00  0.00     0.010 A 
ATOM     48  C   UNL     1      -6.329  16.623   7.742  1.00  0.00    -0.014 A 
BRANCH  48  49
ATOM     49  C   UNL     1      -7.636  16.559   8.445  1.00  0.00     0.031 A 
ATOM     50  C   UNL     1      -7.829  15.613   9.598  1.00  0.00     0.074 A 
ATOM     51  C   UNL     1      -8.665  17.309   8.006  1.00  0.00     0.049 A 
ATOM     52  N   UNL     1      -8.906  15.377  10.303  1.00  0.00    -0.248 NA
ATOM     53  C   UNL     1      -6.665  14.804   9.991  1.00  0.00     0.031 C 
ATOM     54  C   UNL     1      -8.610  18.239   6.875  1.00  0.00     0.029 A 
ATOM     55  N   UNL     1      -9.957  17.408   8.455  1.00  0.00    -0.354 N 
ATOM     56  C   UNL     1      -8.553  14.388  11.214  1.00  0.00     0.074 A 
ATOM     57  C   UNL     1      -7.181  14.025  10.928  1.00  0.00     0.031 C 
ATOM     58  C   UNL     1      -9.803  18.840   6.744  1.00  0.00     0.029 A 
ATOM     59  C   UNL     1     -10.717  18.312   7.753  1.00  0.00     0.049 A 
ATOM     60  H   UNL     1     -10.306  16.881   9.210  1.00  0.00     0.167 HD
ATOM     61  C   UNL     1      -9.294  13.849  12.212  1.00  0.00     0.037 A 
ATOM     62  C   UNL     1     -12.005  18.676   7.906  1.00  0.00     0.037 A 
ATOM     63  C   UNL     1     -10.655  14.223  12.495  1.00  0.00     0.049 A 
ATOM     64  C   UNL     1     -12.819  18.046   9.002  1.00  0.00     0.074 A 
ATOM     65  C   UNL     1     -11.481  13.774  13.510  1.00  0.00     0.029 A 
ATOM     66  N   UNL     1     -11.396  15.134  11.753  1.00  0.00    -0.354 N 
ATOM     67  N   UNL     1     -12.455  17.152   9.890  1.00  0.00    -0.248 NA
ATOM     68  C   UNL     1     -14.219  18.475   9.116  1.00  0.00     0.031 C 
ATOM     69  C   UNL     1     -12.734  14.378  13.355  1.00  0.00     0.029 A 
ATOM     70  C   UNL     1     -12.675  15.242  12.272  1.00  0.00     0.049 A 
ATOM     71  H   UNL     1     -11.060  15.630  10.972  1.00  0.00     0.167 HD
ATOM     72  C   UNL     1     -13.572  16.934  10.689  1.00  0.00     0.074 A 
ATOM     73  C   UNL     1     -14.622  17.793  10.180  1.00  0.00     0.031 C 
ATOM     74  C   UNL     1     -13.712  16.102  11.752  1.00  0.00     0.037 A 
BRANCH  61  75
ATOM     75  C   UNL     1      -8.638  12.788  13.057  1.00  0.00     0.058 A 
ATOM     76  C   UNL     1      -7.572  13.088  13.922  1.00  0.00     0.135 A 
ATOM     77  C   UNL     1      -9.062  11.452  12.984  1.00  0.00     0.135 A 
ATOM     78  F   UNL     1      -7.118  14.347  14.025  1.00  0.00    -0.206 F 
ATOM     79  C   UNL     1      -6.910  12.093  14.636  1.00  0.00     0.059 A 
ATOM     80  C   UNL     1      -8.436  10.445  13.714  1.00  0.00     0.059 A 
ATOM     81  F   UNL     1     -10.080  11.107  12.180  1.00  0.00    -0.206 F 
ATOM     82  C   UNL     1      -7.342  10.772  14.515  1.00  0.00     0.060 A 
BRANCH  82  83
ATOM     83  S   UNL     1      -6.441   9.484  15.402  1.00  0.00     0.124 S 
ATOM     84  O   UNL     1      -5.233   9.365  14.591  1.00  0.00    -0.237 OA
ATOM     85  O   UNL     1      -6.261  10.079  16.723  1.00  0.00    -0.237 OA
ATOM     86  O   UNL     1      -7.346   8.340  15.351  1.00  0.00    -0.744 OA
ENDBRANCH  82  83
ENDBRANCH  61  75
BRANCH  62  87
ATOM     87  C   UNL     1     -12.580  19.730   7.030  1.00  0.00     0.058 A 
ATOM     88  C   UNL     1     -12.843  21.012   7.537  1.00  0.00     0.135 A 
ATOM     89  C   UNL     1     -12.830  19.500   5.668  1.00  0.00     0.135 A 
ATOM     90  F   UNL     1     -12.626  21.277   8.834  1.00  0.00    -0.206 F 
ATOM     91  C   UNL     1     -13.334  22.029   6.726  1.00  0.00     0.059 A 
ATOM     92  C   UNL     1     -13.300  20.508   4.832  1.00  0.00     0.059 A 
ATOM     93  F   UNL     1     -12.580  18.295   5.133  1.00  0.00    -0.206 F 
ATOM     94  C   UNL     1     -13.551  21.770   5.372  1.00  0.00     0.060 A 
BRANCH  94  95
ATOM     95  S   UNL     1     -14.111  23.122   4.314  1.00  0.00     0.124 S 
ATOM     96  O   UNL     1     -15.492  23.286   4.752  1.00  0.00    -0.237 OA
ATOM     97  O   UNL     1     -13.192  24.195   4.678  1.00  0.00    -0.237 OA
ATOM     98  O   UNL     1     -13.934  22.588   2.966  1.00  0.00    -0.744 OA
ENDBRANCH  94  95
ENDBRANCH  62  87
BRANCH  74  99
ATOM     99  C   UNL     1     -15.041  16.101  12.456  1.00  0.00     0.058 A 
ATOM    100  C   UNL     1     -16.180  15.514  11.884  1.00  0.00     0.135 A 
ATOM    101  C   UNL     1     -15.163  16.652  13.742  1.00  0.00     0.135 A 
ATOM    102  F   UNL     1     -16.120  14.980  10.654  1.00  0.00    -0.206 F 
ATOM    103  C   UNL     1     -17.400  15.494  12.553  1.00  0.00     0.059 A 
ATOM    104  C   UNL     1     -16.365  16.619  14.441  1.00  0.00     0.059 A 
ATOM    105  F   UNL     1     -14.101  17.218  14.339  1.00  0.00    -0.206 F 
ATOM    106  C   UNL     1     -17.482  16.047  13.833  1.00  0.00     0.060 A 
BRANCH 106 107
ATOM    107  S   UNL     1     -19.062  15.982  14.704  1.00  0.00     0.124 S 
ATOM    108  O   UNL     1     -19.829  17.002  13.997  1.00  0.00    -0.237 OA
ATOM    109  O   UNL     1     -19.484  14.603  14.483  1.00  0.00    -0.237 OA
ATOM    110  O   UNL     1     -18.703  16.308  16.082  1.00  0.00    -0.744 OA
ENDBRANCH 106 107
ENDBRANCH  74  99
ENDBRANCH  48  49
ENDBRANCH  40  43
ENDBRANCH  38  39
ENDBRANCH  37  38
ENDBRANCH  36  37
ENDBRANCH  35  36
ENDBRANCH  34  35
ENDBRANCH  33  34
ENDBRANCH   3  33
TORSDOF 26
