REMARK SMILES C[C@@H]1CC[C@H](C)[N@H+]1Cc1cc2c(cc1Cl)C=C(C(=O)NCCCCCCNC(=O)c1ccc(-c3c4nc(c(-c5c(F)cc(S(=O)(=O)[O-])cc5F)c5ccc([nH]5)c(-c5c(F)cc(S(=O)(=O)[O-])cc5F)c5nc(c(-c6c(F)cc(S(=O)(=O)[O-])cc6F)c6ccc3[nH]6)C=C5)C=C4)cc1)[C@@H](C(F)(F)F)O2
REMARK SMILES IDX 24 1 23 2 22 3 21 4 20 5 18 6 19 7 17 9 9 10 10 11 14 12
REMARK SMILES IDX 11 13 13 14 15 15 12 16 101 17 16 18 96 19 8 20 7 21 6 22
REMARK SMILES IDX 5 23 4 24 3 25 2 26 1 28 97 29 98 30 99 31 100 32 25 33
REMARK SMILES IDX 26 34 27 35 28 36 29 38 30 39 31 40 95 41 32 42 94 43 33 44
REMARK SMILES IDX 34 45 35 46 88 47 36 48 93 49 87 50 89 51 37 52 92 53 86 54
REMARK SMILES IDX 85 55 38 57 72 58 51 59 71 60 52 61 55 62 70 63 90 64 53 65
REMARK SMILES IDX 54 66 69 68 91 69 56 70 39 71 40 72 49 73 41 74 42 75 48 76
REMARK SMILES IDX 50 77 43 78 44 79 45 80 46 81 47 82 73 83 74 84 83 85 75 86
REMARK SMILES IDX 76 87 82 88 84 89 77 90 78 91 79 92 80 93 81 94 57 95 58 96
REMARK SMILES IDX 67 97 59 98 60 99 66 100 68 101 61 102 62 103 63 104 64 105
REMARK SMILES IDX 65 106
REMARK H PARENT 20 8 7 27 27 37 89 56 55 67
REMARK Flexibility Score: inf
ROOT
ATOM      1  C   UNL     1     -11.086  -2.934   3.083  1.00  0.00     0.002 C 
ENDROOT
BRANCH   1   2
ATOM      2  C   UNL     1      -9.743  -3.600   3.412  1.00  0.00     0.002 C 
BRANCH   2   3
ATOM      3  C   UNL     1      -8.513  -2.946   2.774  1.00  0.00     0.021 C 
BRANCH   3   4
ATOM      4  C   UNL     1      -8.359  -1.465   3.108  1.00  0.00     0.116 C 
BRANCH   4   5
ATOM      5  N   UNL     1      -7.739  -1.281   4.407  1.00  0.00    -0.352 N 
ATOM      6  C   UNL     1      -6.627  -0.692   4.900  1.00  0.00     0.251 C 
ATOM      7  O   UNL     1      -6.492  -0.772   6.126  1.00  0.00    -0.270 OA
ATOM      8  H   UNL     1      -8.272  -1.698   5.122  1.00  0.00     0.163 HD
BRANCH   6   9
ATOM      9  C   UNL     1      -5.595   0.017   4.093  1.00  0.00     0.067 C 
ATOM     10  C   UNL     1      -1.391   2.414   2.633  1.00  0.00     0.029 A 
ATOM     11  C   UNL     1      -2.357   1.622   1.985  1.00  0.00     0.058 A 
ATOM     12  C   UNL     1      -1.612   2.738   3.982  1.00  0.00     0.050 A 
ATOM     13  C   UNL     1      -3.426   1.082   2.691  1.00  0.00     0.128 A 
ATOM     14  C   UNL     1      -2.654   2.139   4.702  1.00  0.00     0.033 A 
ATOM     15  Cl  UNL     1      -0.682   3.928   4.825  1.00  0.00    -0.084 Cl
ATOM     16  C   UNL     1      -3.546   1.283   4.062  1.00  0.00     0.019 A 
ATOM     17  O   UNL     1      -4.309   0.315   1.987  1.00  0.00    -0.475 OA
ATOM     18  C   UNL     1      -4.586   0.570   4.792  1.00  0.00     0.025 C 
ATOM     19  C   UNL     1      -5.625   0.179   2.597  1.00  0.00     0.314 C 
BRANCH  10  20
ATOM     20  C   UNL     1      -0.158   2.817   1.843  1.00  0.00     0.301 C 
BRANCH  20  21
ATOM     21  N   UNL     1       0.986   1.888   1.891  1.00  0.00    -0.327 N 
ATOM     22  C   UNL     1       1.056   0.331  -0.040  1.00  0.00     0.075 C 
ATOM     23  C   UNL     1       0.738   0.508   1.439  1.00  0.00     0.181 C 
ATOM     24  C   UNL     1       1.629  -0.368   2.318  1.00  0.00     0.071 C 
ATOM     25  C   UNL     1       1.675   0.404   3.619  1.00  0.00     0.071 C 
ATOM     26  C   UNL     1       1.716   1.856   3.163  1.00  0.00     0.181 C 
ATOM     27  H   UNL     1       1.581   2.325   1.186  1.00  0.00     0.348 HD
ATOM     28  C   UNL     1       3.143   2.349   2.923  1.00  0.00     0.075 C 
ENDBRANCH  20  21
ENDBRANCH  10  20
BRANCH  19  29
ATOM     29  C   UNL     1      -6.540   1.344   2.166  1.00  0.00     0.429 C 
ATOM     30  F   UNL     1      -6.791   1.290   0.837  1.00  0.00    -0.167 F 
ATOM     31  F   UNL     1      -7.742   1.304   2.789  1.00  0.00    -0.167 F 
ATOM     32  F   UNL     1      -6.003   2.555   2.433  1.00  0.00    -0.167 F 
ENDBRANCH  19  29
ENDBRANCH   6   9
ENDBRANCH   4   5
ENDBRANCH   3   4
ENDBRANCH   2   3
ENDBRANCH   1   2
BRANCH   1  33
ATOM     33  C   UNL     1     -11.332  -2.645   1.600  1.00  0.00     0.021 C 
BRANCH  33  34
ATOM     34  C   UNL     1     -11.252  -3.865   0.692  1.00  0.00     0.116 C 
BRANCH  34  35
ATOM     35  N   UNL     1     -12.277  -4.850   0.996  1.00  0.00    -0.352 N 
ATOM     36  C   UNL     1     -13.183  -5.441   0.146  1.00  0.00     0.251 C 
ATOM     37  H   UNL     1     -12.329  -5.133   1.938  1.00  0.00     0.163 HD
ATOM     38  O   UNL     1     -14.088  -6.135   0.589  1.00  0.00    -0.269 OA
BRANCH  36  39
ATOM     39  C   UNL     1     -13.064  -5.198  -1.307  1.00  0.00     0.039 A 
ATOM     40  C   UNL     1     -11.829  -5.337  -1.947  1.00  0.00     0.014 A 
ATOM     41  C   UNL     1     -14.188  -4.779  -2.021  1.00  0.00     0.014 A 
ATOM     42  C   UNL     1     -11.687  -4.913  -3.264  1.00  0.00     0.010 A 
ATOM     43  C   UNL     1     -14.057  -4.424  -3.365  1.00  0.00     0.010 A 
ATOM     44  C   UNL     1     -12.797  -4.446  -3.985  1.00  0.00    -0.014 A 
BRANCH  44  45
ATOM     45  C   UNL     1     -12.626  -3.978  -5.384  1.00  0.00     0.031 A 
ATOM     46  C   UNL     1     -12.871  -2.536  -5.743  1.00  0.00     0.074 A 
ATOM     47  C   UNL     1     -12.222  -4.851  -6.327  1.00  0.00     0.049 A 
ATOM     48  N   UNL     1     -12.832  -1.962  -6.918  1.00  0.00    -0.248 NA
ATOM     49  C   UNL     1     -13.208  -1.619  -4.641  1.00  0.00     0.031 C 
ATOM     50  C   UNL     1     -11.938  -6.270  -6.096  1.00  0.00     0.029 A 
ATOM     51  N   UNL     1     -11.972  -4.677  -7.664  1.00  0.00    -0.354 N 
ATOM     52  C   UNL     1     -13.164  -0.629  -6.704  1.00  0.00     0.074 A 
ATOM     53  C   UNL     1     -13.416  -0.479  -5.287  1.00  0.00     0.031 C 
ATOM     54  C   UNL     1     -11.527  -6.829  -7.244  1.00  0.00     0.029 A 
ATOM     55  C   UNL     1     -11.579  -5.828  -8.304  1.00  0.00     0.049 A 
ATOM     56  H   UNL     1     -12.065  -3.810  -8.121  1.00  0.00     0.167 HD
ATOM     57  C   UNL     1     -13.242   0.377  -7.608  1.00  0.00     0.037 A 
ATOM     58  C   UNL     1     -11.319  -6.063  -9.604  1.00  0.00     0.037 A 
ATOM     59  C   UNL     1     -12.957   0.227  -9.012  1.00  0.00     0.049 A 
ATOM     60  C   UNL     1     -11.441  -4.935 -10.588  1.00  0.00     0.074 A 
ATOM     61  C   UNL     1     -12.981   1.194 -10.002  1.00  0.00     0.029 A 
ATOM     62  N   UNL     1     -12.591  -0.962  -9.625  1.00  0.00    -0.354 N 
ATOM     63  N   UNL     1     -11.764  -3.683 -10.369  1.00  0.00    -0.248 NA
ATOM     64  C   UNL     1     -11.173  -5.252 -11.997  1.00  0.00     0.031 C 
ATOM     65  C   UNL     1     -12.666   0.583 -11.220  1.00  0.00     0.029 A 
ATOM     66  C   UNL     1     -12.403  -0.757 -10.982  1.00  0.00     0.049 A 
ATOM     67  H   UNL     1     -12.480  -1.825  -9.164  1.00  0.00     0.167 HD
ATOM     68  C   UNL     1     -11.733  -3.061 -11.611  1.00  0.00     0.074 A 
ATOM     69  C   UNL     1     -11.336  -4.069 -12.573  1.00  0.00     0.031 C 
ATOM     70  C   UNL     1     -12.014  -1.773 -11.926  1.00  0.00     0.037 A 
BRANCH  57  71
ATOM     71  C   UNL     1     -13.661   1.737  -7.121  1.00  0.00     0.058 A 
ATOM     72  C   UNL     1     -12.788   2.562  -6.396  1.00  0.00     0.135 A 
ATOM     73  C   UNL     1     -14.924   2.253  -7.458  1.00  0.00     0.135 A 
ATOM     74  F   UNL     1     -11.578   2.110  -6.032  1.00  0.00    -0.206 F 
ATOM     75  C   UNL     1     -13.152   3.851  -6.020  1.00  0.00     0.059 A 
ATOM     76  C   UNL     1     -15.301   3.547  -7.110  1.00  0.00     0.059 A 
ATOM     77  F   UNL     1     -15.798   1.503  -8.147  1.00  0.00    -0.206 F 
ATOM     78  C   UNL     1     -14.409   4.338  -6.387  1.00  0.00     0.060 A 
BRANCH  78  79
ATOM     79  S   UNL     1     -14.848   6.027  -5.924  1.00  0.00     0.124 S 
ATOM     80  O   UNL     1     -15.020   5.898  -4.481  1.00  0.00    -0.237 OA
ATOM     81  O   UNL     1     -13.676   6.782  -6.357  1.00  0.00    -0.237 OA
ATOM     82  O   UNL     1     -16.069   6.282  -6.681  1.00  0.00    -0.744 OA
ENDBRANCH  78  79
ENDBRANCH  57  71
BRANCH  58  83
ATOM     83  C   UNL     1     -10.944  -7.431 -10.044  1.00  0.00     0.058 A 
ATOM     84  C   UNL     1      -9.641  -7.723 -10.468  1.00  0.00     0.135 A 
ATOM     85  C   UNL     1     -11.877  -8.480 -10.019  1.00  0.00     0.135 A 
ATOM     86  F   UNL     1      -8.717  -6.752 -10.516  1.00  0.00    -0.206 F 
ATOM     87  C   UNL     1      -9.275  -9.007 -10.859  1.00  0.00     0.059 A 
ATOM     88  C   UNL     1     -11.528  -9.777 -10.380  1.00  0.00     0.059 A 
ATOM     89  F   UNL     1     -13.134  -8.254  -9.606  1.00  0.00    -0.206 F 
ATOM     90  C   UNL     1     -10.225 -10.029 -10.807  1.00  0.00     0.060 A 
BRANCH  90  91
ATOM     91  S   UNL     1      -9.724 -11.703 -11.258  1.00  0.00     0.124 S 
ATOM     92  O   UNL     1      -9.619 -11.597 -12.709  1.00  0.00    -0.237 OA
ATOM     93  O   UNL     1      -8.464 -11.851 -10.535  1.00  0.00    -0.237 OA
ATOM     94  O   UNL     1     -10.822 -12.527 -10.762  1.00  0.00    -0.744 OA
ENDBRANCH  90  91
ENDBRANCH  58  83
BRANCH  70  95
ATOM     95  C   UNL     1     -11.892  -1.378 -13.370  1.00  0.00     0.058 A 
ATOM     96  C   UNL     1     -12.848  -1.769 -14.319  1.00  0.00     0.135 A 
ATOM     97  C   UNL     1     -10.832  -0.564 -13.800  1.00  0.00     0.135 A 
ATOM     98  F   UNL     1     -13.876  -2.553 -13.959  1.00  0.00    -0.206 F 
ATOM     99  C   UNL     1     -12.747  -1.384 -15.652  1.00  0.00     0.059 A 
ATOM    100  C   UNL     1     -10.724  -0.147 -15.123  1.00  0.00     0.059 A 
ATOM    101  F   UNL     1      -9.896  -0.155 -12.928  1.00  0.00    -0.206 F 
ATOM    102  C   UNL     1     -11.680  -0.573 -16.044  1.00  0.00     0.060 A 
BRANCH 102 103
ATOM    103  S   UNL     1     -11.574  -0.061 -17.771  1.00  0.00     0.124 S 
ATOM    104  O   UNL     1     -11.143  -1.296 -18.417  1.00  0.00    -0.237 OA
ATOM    105  O   UNL     1     -12.941   0.361 -18.057  1.00  0.00    -0.237 OA
ATOM    106  O   UNL     1     -10.585   1.013 -17.747  1.00  0.00    -0.744 OA
ENDBRANCH 102 103
ENDBRANCH  70  95
ENDBRANCH  44  45
ENDBRANCH  36  39
ENDBRANCH  34  35
ENDBRANCH  33  34
ENDBRANCH   1  33
TORSDOF 19
