REMARK SMILES CC[NH+](CC)[C@](C)(C(=O)NCCCCCCNC(=O)c1ccc(-c2c3nc(c(-c4c(F)cc(S(=O)(=O)[O-])cc4F)c4ccc([nH]4)c(-c4c(F)cc(S(=O)(=O)[O-])cc4F)c4nc(c(-c5c(F)cc(S(=O)(=O)[O-])cc5F)c5ccc2[nH]5)C=C4)C=C3)cc1)c1cc(F)c(C)cc1F
REMARK SMILES IDX 14 1 13 2 12 3 11 4 10 5 8 6 9 7 6 9 7 10 3 11 2 13 1 14
REMARK SMILES IDX 4 15 5 16 86 17 87 18 93 19 88 20 92 21 94 22 89 23 90 24
REMARK SMILES IDX 91 25 15 26 16 27 17 28 18 29 19 31 20 32 21 33 85 34 22 35
REMARK SMILES IDX 84 36 23 37 24 38 25 39 78 40 26 41 83 42 77 43 79 44 27 45
REMARK SMILES IDX 82 46 76 47 75 48 28 50 62 51 41 52 61 53 42 54 45 55 60 56
REMARK SMILES IDX 80 57 43 58 44 59 59 61 81 62 46 63 29 64 30 65 39 66 31 67
REMARK SMILES IDX 32 68 38 69 40 70 33 71 34 72 35 73 36 74 37 75 63 76 64 77
REMARK SMILES IDX 73 78 65 79 66 80 72 81 74 82 67 83 68 84 69 85 70 86 71 87
REMARK SMILES IDX 47 88 48 89 57 90 49 91 50 92 56 93 58 94 51 95 52 96 53 97
REMARK SMILES IDX 54 98 55 99
REMARK H PARENT 10 8 3 12 17 30 79 49 45 60
REMARK Flexibility Score: inf
ROOT
ATOM      1  C   UNL     1       1.650  -2.985   1.937  1.00  0.00     0.002 C 
ENDROOT
BRANCH   1   2
ATOM      2  C   UNL     1       0.784  -2.818   0.681  1.00  0.00     0.002 C 
BRANCH   2   3
ATOM      3  C   UNL     1       0.080  -1.468   0.526  1.00  0.00     0.021 C 
BRANCH   3   4
ATOM      4  C   UNL     1       0.992  -0.262   0.684  1.00  0.00     0.116 C 
BRANCH   4   5
ATOM      5  N   UNL     1       1.935  -0.110  -0.409  1.00  0.00    -0.350 N 
ATOM      6  C   UNL     1       2.664   0.956  -0.877  1.00  0.00     0.286 C 
ATOM      7  O   UNL     1       3.619   0.584  -1.573  1.00  0.00    -0.267 OA
ATOM      8  H   UNL     1       2.082  -0.939  -0.918  1.00  0.00     0.163 HD
BRANCH   6   9
ATOM      9  C   UNL     1       2.341   2.510  -0.538  1.00  0.00     0.202 C 
ATOM     10  C   UNL     1       0.779   2.594  -0.519  1.00  0.00     0.096 C 
BRANCH   9  11
ATOM     11  N   UNL     1       3.051   2.928   0.770  1.00  0.00    -0.319 N 
ATOM     12  H   UNL     1       4.032   2.938   0.491  1.00  0.00     0.349 HD
BRANCH  11  13
ATOM     13  C   UNL     1       3.026   1.974   1.889  1.00  0.00     0.259 C 
ATOM     14  C   UNL     1       4.102   0.887   1.869  1.00  0.00     0.071 C 
ENDBRANCH  11  13
BRANCH  11  15
ATOM     15  C   UNL     1       2.631   4.283   1.218  1.00  0.00     0.259 C 
ATOM     16  C   UNL     1       3.125   4.804   2.571  1.00  0.00     0.071 C 
ENDBRANCH  11  15
ENDBRANCH   9  11
BRANCH   9  17
ATOM     17  C   UNL     1       2.841   3.477  -1.706  1.00  0.00     0.060 A 
ATOM     18  C   UNL     1       3.904   3.176  -2.580  1.00  0.00     0.053 A 
ATOM     19  C   UNL     1       2.280   4.766  -1.888  1.00  0.00     0.133 A 
ATOM     20  C   UNL     1       4.314   4.067  -3.585  1.00  0.00     0.126 A 
ATOM     21  C   UNL     1       2.706   5.665  -2.870  1.00  0.00     0.046 A 
ATOM     22  F   UNL     1       1.328   5.235  -1.067  1.00  0.00    -0.206 F 
ATOM     23  F   UNL     1       5.304   3.697  -4.411  1.00  0.00    -0.207 F 
ATOM     24  C   UNL     1       3.733   5.321  -3.738  1.00  0.00    -0.012 A 
ATOM     25  C   UNL     1       4.197   6.266  -4.801  1.00  0.00     0.047 C 
ENDBRANCH   9  17
ENDBRANCH   6   9
ENDBRANCH   4   5
ENDBRANCH   3   4
ENDBRANCH   2   3
ENDBRANCH   1   2
BRANCH   1  26
ATOM     26  C   UNL     1       0.972  -2.664   3.272  1.00  0.00     0.021 C 
BRANCH  26  27
ATOM     27  C   UNL     1      -0.360  -3.362   3.515  1.00  0.00     0.116 C 
BRANCH  27  28
ATOM     28  N   UNL     1      -0.262  -4.806   3.410  1.00  0.00    -0.352 N 
ATOM     29  C   UNL     1      -0.804  -5.776   4.216  1.00  0.00     0.251 C 
ATOM     30  H   UNL     1       0.270  -5.138   2.651  1.00  0.00     0.163 HD
ATOM     31  O   UNL     1      -0.496  -6.949   4.044  1.00  0.00    -0.269 OA
BRANCH  29  32
ATOM     32  C   UNL     1      -1.731  -5.399   5.306  1.00  0.00     0.039 A 
ATOM     33  C   UNL     1      -1.576  -6.012   6.551  1.00  0.00     0.014 A 
ATOM     34  C   UNL     1      -2.749  -4.460   5.109  1.00  0.00     0.014 A 
ATOM     35  C   UNL     1      -2.408  -5.649   7.610  1.00  0.00     0.010 A 
ATOM     36  C   UNL     1      -3.526  -4.042   6.187  1.00  0.00     0.010 A 
ATOM     37  C   UNL     1      -3.370  -4.638   7.447  1.00  0.00    -0.014 A 
BRANCH  37  38
ATOM     38  C   UNL     1      -4.213  -4.200   8.590  1.00  0.00     0.031 A 
ATOM     39  C   UNL     1      -5.706  -4.389   8.553  1.00  0.00     0.074 A 
ATOM     40  C   UNL     1      -3.631  -3.600   9.649  1.00  0.00     0.049 A 
ATOM     41  N   UNL     1      -6.600  -4.060   9.450  1.00  0.00    -0.248 NA
ATOM     42  C   UNL     1      -6.272  -5.005   7.342  1.00  0.00     0.031 C 
ATOM     43  C   UNL     1      -2.200  -3.313   9.775  1.00  0.00     0.029 A 
ATOM     44  N   UNL     1      -4.169  -3.122  10.817  1.00  0.00    -0.354 N 
ATOM     45  C   UNL     1      -7.830  -4.421   8.910  1.00  0.00     0.074 A 
ATOM     46  C   UNL     1      -7.573  -4.940   7.585  1.00  0.00     0.031 C 
ATOM     47  C   UNL     1      -1.970  -2.736  10.966  1.00  0.00     0.029 A 
ATOM     48  C   UNL     1      -3.238  -2.576  11.671  1.00  0.00     0.049 A 
ATOM     49  H   UNL     1      -5.130  -3.165  11.025  1.00  0.00     0.167 HD
ATOM     50  C   UNL     1      -9.058  -4.348   9.478  1.00  0.00     0.037 A 
ATOM     51  C   UNL     1      -3.389  -2.005  12.882  1.00  0.00     0.037 A 
ATOM     52  C   UNL     1      -9.301  -3.848  10.807  1.00  0.00     0.049 A 
ATOM     53  C   UNL     1      -4.764  -1.937  13.490  1.00  0.00     0.074 A 
ATOM     54  C   UNL     1     -10.500  -3.789  11.497  1.00  0.00     0.029 A 
ATOM     55  N   UNL     1      -8.332  -3.316  11.646  1.00  0.00    -0.354 N 
ATOM     56  N   UNL     1      -5.906  -2.352  12.996  1.00  0.00    -0.248 NA
ATOM     57  C   UNL     1      -4.870  -1.333  14.825  1.00  0.00     0.031 C 
ATOM     58  C   UNL     1     -10.266  -3.170  12.729  1.00  0.00     0.029 A 
ATOM     59  C   UNL     1      -8.911  -2.901  12.835  1.00  0.00     0.049 A 
ATOM     60  H   UNL     1      -7.375  -3.244  11.428  1.00  0.00     0.167 HD
ATOM     61  C   UNL     1      -6.862  -2.085  13.970  1.00  0.00     0.074 A 
ATOM     62  C   UNL     1      -6.160  -1.489  15.088  1.00  0.00     0.031 C 
ATOM     63  C   UNL     1      -8.199  -2.311  13.942  1.00  0.00     0.037 A 
BRANCH  50  64
ATOM     64  C   UNL     1     -10.236  -4.822   8.669  1.00  0.00     0.058 A 
ATOM     65  C   UNL     1     -10.429  -6.179   8.366  1.00  0.00     0.135 A 
ATOM     66  C   UNL     1     -11.214  -3.912   8.234  1.00  0.00     0.135 A 
ATOM     67  F   UNL     1      -9.519  -7.092   8.742  1.00  0.00    -0.206 F 
ATOM     68  C   UNL     1     -11.534  -6.615   7.642  1.00  0.00     0.059 A 
ATOM     69  C   UNL     1     -12.344  -4.329   7.535  1.00  0.00     0.059 A 
ATOM     70  F   UNL     1     -11.081  -2.601   8.493  1.00  0.00    -0.206 F 
ATOM     71  C   UNL     1     -12.488  -5.682   7.234  1.00  0.00     0.060 A 
BRANCH  71  72
ATOM     72  S   UNL     1     -13.925  -6.268   6.311  1.00  0.00     0.124 S 
ATOM     73  O   UNL     1     -13.324  -6.618   5.028  1.00  0.00    -0.237 OA
ATOM     74  O   UNL     1     -14.380  -7.390   7.125  1.00  0.00    -0.237 OA
ATOM     75  O   UNL     1     -14.813  -5.110   6.292  1.00  0.00    -0.744 OA
ENDBRANCH  71  72
ENDBRANCH  50  64
BRANCH  51  76
ATOM     76  C   UNL     1      -2.204  -1.468  13.605  1.00  0.00     0.058 A 
ATOM     77  C   UNL     1      -1.733  -2.074  14.779  1.00  0.00     0.135 A 
ATOM     78  C   UNL     1      -1.517  -0.338  13.134  1.00  0.00     0.135 A 
ATOM     79  F   UNL     1      -2.357  -3.154  15.274  1.00  0.00    -0.206 F 
ATOM     80  C   UNL     1      -0.639  -1.567  15.474  1.00  0.00     0.059 A 
ATOM     81  C   UNL     1      -0.402   0.169  13.793  1.00  0.00     0.059 A 
ATOM     82  F   UNL     1      -1.915   0.270  12.005  1.00  0.00    -0.206 F 
ATOM     83  C   UNL     1       0.022  -0.445  14.971  1.00  0.00     0.060 A 
BRANCH  83  84
ATOM     84  S   UNL     1       1.464   0.182  15.858  1.00  0.00     0.124 S 
ATOM     85  O   UNL     1       0.847   0.773  17.040  1.00  0.00    -0.237 OA
ATOM     86  O   UNL     1       2.238  -1.035  16.081  1.00  0.00    -0.237 OA
ATOM     87  O   UNL     1       2.053   1.127  14.914  1.00  0.00    -0.744 OA
ENDBRANCH  83  84
ENDBRANCH  51  76
BRANCH  63  88
ATOM     88  C   UNL     1      -8.988  -1.947  15.170  1.00  0.00     0.058 A 
ATOM     89  C   UNL     1      -9.213  -0.611  15.539  1.00  0.00     0.135 A 
ATOM     90  C   UNL     1      -9.560  -2.951  15.970  1.00  0.00     0.135 A 
ATOM     91  F   UNL     1      -8.686   0.388  14.813  1.00  0.00    -0.206 F 
ATOM     92  C   UNL     1      -9.946  -0.283  16.674  1.00  0.00     0.059 A 
ATOM     93  C   UNL     1     -10.325  -2.646  17.091  1.00  0.00     0.059 A 
ATOM     94  F   UNL     1      -9.388  -4.245  15.657  1.00  0.00    -0.206 F 
ATOM     95  C   UNL     1     -10.499  -1.309  17.444  1.00  0.00     0.060 A 
BRANCH  95  96
ATOM     96  S   UNL     1     -11.464  -0.869  18.905  1.00  0.00     0.124 S 
ATOM     97  O   UNL     1     -10.421  -0.425  19.823  1.00  0.00    -0.237 OA
ATOM     98  O   UNL     1     -12.345   0.177  18.393  1.00  0.00    -0.237 OA
ATOM     99  O   UNL     1     -12.127  -2.119  19.264  1.00  0.00    -0.744 OA
ENDBRANCH  95  96
ENDBRANCH  63  88
ENDBRANCH  37  38
ENDBRANCH  29  32
ENDBRANCH  27  28
ENDBRANCH  26  27
ENDBRANCH   1  26
TORSDOF 20
