REMARK SMILES [NH3+][C@H]1C=C[C@@H](C(=O)N2CCC(CC(=O)NCCCCCCNC(=O)c3ccc(-c4c5nc(c(-c6c(F)cc(S(=O)(=O)[O-])cc6F)c6ccc([nH]6)c(-c6c(F)cc(S(=O)(=O)[O-])cc6F)c6nc(c(-c7c(F)cc(S(=O)(=O)[O-])cc7F)c7ccc4[nH]7)C=C6)C=C5)cc3)CC2)C1
REMARK SMILES IDX 18 1 17 2 16 3 15 4 13 5 14 6 12 8 11 9 6 10 7 11 8 12 9 13
REMARK SMILES IDX 92 14 10 15 91 16 5 17 2 18 3 19 93 20 4 21 1 22 19 26 20 27
REMARK SMILES IDX 21 28 22 29 23 30 24 32 25 33 26 34 90 35 27 36 89 37 28 38
REMARK SMILES IDX 29 39 30 40 83 41 31 42 88 43 82 44 84 45 32 46 87 47 81 48
REMARK SMILES IDX 80 49 33 51 67 52 46 53 66 54 47 55 50 56 65 57 85 58 48 59
REMARK SMILES IDX 49 60 64 62 86 63 51 64 34 65 35 66 44 67 36 68 37 69 43 70
REMARK SMILES IDX 45 71 38 72 39 73 40 74 41 75 42 76 68 77 69 78 78 79 70 80
REMARK SMILES IDX 71 81 77 82 79 83 72 84 73 85 74 86 75 87 76 88 52 89 53 90
REMARK SMILES IDX 62 91 54 92 55 93 61 94 63 95 56 96 57 97 58 98 59 99 60 100
REMARK H PARENT 15 7 1 23 1 24 1 25 22 31 84 50 50 61
REMARK Flexibility Score: inf
ROOT
ATOM      1  C   UNL     1      -9.006  -4.370   0.911  1.00  0.00     0.002 C 
ENDROOT
BRANCH   1   2
ATOM      2  C   UNL     1      -7.492  -4.361   0.706  1.00  0.00     0.021 C 
BRANCH   2   3
ATOM      3  C   UNL     1      -6.907  -5.696   0.234  1.00  0.00     0.116 C 
BRANCH   3   4
ATOM      4  N   UNL     1      -6.818  -5.730  -1.217  1.00  0.00    -0.356 N 
ATOM      5  C   UNL     1      -5.726  -5.680  -2.032  1.00  0.00     0.220 C 
ATOM      6  O   UNL     1      -5.906  -5.596  -3.249  1.00  0.00    -0.275 OA
ATOM      7  H   UNL     1      -7.681  -5.801  -1.684  1.00  0.00     0.163 HD
BRANCH   5   8
ATOM      8  C   UNL     1      -4.323  -5.743  -1.456  1.00  0.00     0.103 C 
BRANCH   8   9
ATOM      9  C   UNL     1      -3.647  -4.369  -1.284  1.00  0.00     0.002 C 
ATOM     10  C   UNL     1      -1.814  -2.804   1.779  1.00  0.00     0.229 C 
ATOM     11  O   UNL     1      -2.330  -3.725   2.413  1.00  0.00    -0.274 OA
ATOM     12  N   UNL     1      -2.149  -2.558   0.454  1.00  0.00    -0.342 N 
ATOM     13  C   UNL     1      -3.539  -2.270   0.167  1.00  0.00     0.120 C 
ATOM     14  C   UNL     1      -1.448  -3.258  -0.608  1.00  0.00     0.120 C 
ATOM     15  C   UNL     1      -4.311  -3.537  -0.179  1.00  0.00     0.026 C 
ATOM     16  C   UNL     1      -2.151  -4.565  -0.977  1.00  0.00     0.026 C 
BRANCH  10  17
ATOM     17  C   UNL     1      -0.902  -1.770   2.457  1.00  0.00     0.107 C 
ATOM     18  C   UNL     1       0.622  -0.087   1.483  1.00  0.00     0.205 C 
ATOM     19  C   UNL     1      -0.698   0.495   1.842  1.00  0.00     0.033 C 
ATOM     20  C   UNL     1       0.479  -1.580   1.819  1.00  0.00     0.087 C 
ATOM     21  C   UNL     1      -1.515  -0.402   2.401  1.00  0.00    -0.012 C 
BRANCH  18  22
ATOM     22  N   UNL     1       0.935   0.126   0.079  1.00  0.00    -0.352 N 
ATOM     23  H   UNL     1       1.021   1.125  -0.103  1.00  0.00     0.345 HD
ATOM     24  H   UNL     1       0.188  -0.262  -0.498  1.00  0.00     0.345 HD
ATOM     25  H   UNL     1       1.814  -0.339  -0.148  1.00  0.00     0.345 HD
ENDBRANCH  18  22
ENDBRANCH  10  17
ENDBRANCH   8   9
ENDBRANCH   5   8
ENDBRANCH   3   4
ENDBRANCH   2   3
ENDBRANCH   1   2
BRANCH   1  26
ATOM     26  C   UNL     1      -9.493  -5.190   2.108  1.00  0.00     0.002 C 
BRANCH  26  27
ATOM     27  C   UNL     1      -8.856  -4.840   3.457  1.00  0.00     0.021 C 
BRANCH  27  28
ATOM     28  C   UNL     1      -8.911  -3.364   3.847  1.00  0.00     0.116 C 
BRANCH  28  29
ATOM     29  N   UNL     1     -10.275  -2.869   3.929  1.00  0.00    -0.352 N 
ATOM     30  C   UNL     1     -10.959  -2.353   5.001  1.00  0.00     0.251 C 
ATOM     31  H   UNL     1     -10.785  -2.909   3.088  1.00  0.00     0.163 HD
ATOM     32  O   UNL     1     -12.172  -2.182   4.924  1.00  0.00    -0.269 OA
BRANCH  30  33
ATOM     33  C   UNL     1     -10.242  -2.015   6.250  1.00  0.00     0.039 A 
ATOM     34  C   UNL     1     -10.807  -2.386   7.474  1.00  0.00     0.014 A 
ATOM     35  C   UNL     1      -9.040  -1.300   6.222  1.00  0.00     0.014 A 
ATOM     36  C   UNL     1     -10.142  -2.085   8.665  1.00  0.00     0.010 A 
ATOM     37  C   UNL     1      -8.349  -1.055   7.407  1.00  0.00     0.010 A 
ATOM     38  C   UNL     1      -8.897  -1.437   8.641  1.00  0.00    -0.014 A 
BRANCH  38  39
ATOM     39  C   UNL     1      -8.165  -1.137   9.898  1.00  0.00     0.031 A 
ATOM     40  C   UNL     1      -7.946   0.290  10.323  1.00  0.00     0.074 A 
ATOM     41  C   UNL     1      -7.654  -2.147  10.630  1.00  0.00     0.049 A 
ATOM     42  N   UNL     1      -7.287   0.753  11.355  1.00  0.00    -0.248 NA
ATOM     43  C   UNL     1      -8.522   1.335   9.462  1.00  0.00     0.031 C 
ATOM     44  C   UNL     1      -7.758  -3.570  10.296  1.00  0.00     0.029 A 
ATOM     45  N   UNL     1      -6.938  -2.133  11.800  1.00  0.00    -0.354 N 
ATOM     46  C   UNL     1      -7.360   2.139  11.261  1.00  0.00     0.074 A 
ATOM     47  C   UNL     1      -8.083   2.441  10.045  1.00  0.00     0.031 C 
ATOM     48  C   UNL     1      -7.143  -4.291  11.248  1.00  0.00     0.029 A 
ATOM     49  C   UNL     1      -6.578  -3.384  12.242  1.00  0.00     0.049 A 
ATOM     50  H   UNL     1      -6.704  -1.305  12.278  1.00  0.00     0.167 HD
ATOM     51  C   UNL     1      -6.889   3.073  12.122  1.00  0.00     0.037 A 
ATOM     52  C   UNL     1      -5.870  -3.757  13.326  1.00  0.00     0.037 A 
ATOM     53  C   UNL     1      -6.191   2.766  13.344  1.00  0.00     0.049 A 
ATOM     54  C   UNL     1      -5.371  -2.702  14.276  1.00  0.00     0.074 A 
ATOM     55  C   UNL     1      -5.711   3.639  14.305  1.00  0.00     0.029 A 
ATOM     56  N   UNL     1      -5.878   1.486  13.775  1.00  0.00    -0.354 N 
ATOM     57  N   UNL     1      -5.495  -1.398  14.198  1.00  0.00    -0.248 NA
ATOM     58  C   UNL     1      -4.647  -3.168  15.466  1.00  0.00     0.031 C 
ATOM     59  C   UNL     1      -5.081   2.887  15.303  1.00  0.00     0.029 A 
ATOM     60  C   UNL     1      -5.204   1.544  14.984  1.00  0.00     0.049 A 
ATOM     61  H   UNL     1      -6.101   0.657  13.293  1.00  0.00     0.167 HD
ATOM     62  C   UNL     1      -4.889  -0.891  15.342  1.00  0.00     0.074 A 
ATOM     63  C   UNL     1      -4.409  -2.028  16.100  1.00  0.00     0.031 C 
ATOM     64  C   UNL     1      -4.743   0.401  15.730  1.00  0.00     0.037 A 
BRANCH  51  65
ATOM     65  C   UNL     1      -7.124   4.518  11.774  1.00  0.00     0.058 A 
ATOM     66  C   UNL     1      -8.406   5.089  11.840  1.00  0.00     0.135 A 
ATOM     67  C   UNL     1      -6.058   5.348  11.394  1.00  0.00     0.135 A 
ATOM     68  F   UNL     1      -9.464   4.337  12.183  1.00  0.00    -0.206 F 
ATOM     69  C   UNL     1      -8.627   6.422  11.511  1.00  0.00     0.059 A 
ATOM     70  C   UNL     1      -6.251   6.691  11.085  1.00  0.00     0.059 A 
ATOM     71  F   UNL     1      -4.812   4.854  11.315  1.00  0.00    -0.206 F 
ATOM     72  C   UNL     1      -7.543   7.215  11.130  1.00  0.00     0.060 A 
BRANCH  72  73
ATOM     73  S   UNL     1      -7.845   8.942  10.702  1.00  0.00     0.124 S 
ATOM     74  O   UNL     1      -8.454   8.811   9.382  1.00  0.00    -0.237 OA
ATOM     75  O   UNL     1      -8.738   9.380  11.770  1.00  0.00    -0.237 OA
ATOM     76  O   UNL     1      -6.512   9.536  10.722  1.00  0.00    -0.744 OA
ENDBRANCH  72  73
ENDBRANCH  51  65
BRANCH  52  77
ATOM     77  C   UNL     1      -5.614  -5.199  13.586  1.00  0.00     0.058 A 
ATOM     78  C   UNL     1      -6.263  -5.868  14.634  1.00  0.00     0.135 A 
ATOM     79  C   UNL     1      -4.723  -5.936  12.791  1.00  0.00     0.135 A 
ATOM     80  F   UNL     1      -7.120  -5.204  15.424  1.00  0.00    -0.206 F 
ATOM     81  C   UNL     1      -6.024  -7.213  14.899  1.00  0.00     0.059 A 
ATOM     82  C   UNL     1      -4.485  -7.287  13.021  1.00  0.00     0.059 A 
ATOM     83  F   UNL     1      -4.090  -5.346  11.765  1.00  0.00    -0.206 F 
ATOM     84  C   UNL     1      -5.132  -7.914  14.086  1.00  0.00     0.060 A 
BRANCH  84  85
ATOM     85  S   UNL     1      -4.858  -9.669  14.411  1.00  0.00     0.124 S 
ATOM     86  O   UNL     1      -4.000  -9.619  15.590  1.00  0.00    -0.237 OA
ATOM     87  O   UNL     1      -6.216 -10.159  14.630  1.00  0.00    -0.237 OA
ATOM     88  O   UNL     1      -4.221 -10.141  13.185  1.00  0.00    -0.744 OA
ENDBRANCH  84  85
ENDBRANCH  52  77
BRANCH  64  89
ATOM     89  C   UNL     1      -4.071   0.650  17.051  1.00  0.00     0.058 A 
ATOM     90  C   UNL     1      -2.686   0.490  17.215  1.00  0.00     0.135 A 
ATOM     91  C   UNL     1      -4.818   1.090  18.155  1.00  0.00     0.135 A 
ATOM     92  F   UNL     1      -1.929   0.065  16.192  1.00  0.00    -0.206 F 
ATOM     93  C   UNL     1      -2.069   0.732  18.438  1.00  0.00     0.059 A 
ATOM     94  C   UNL     1      -4.217   1.362  19.380  1.00  0.00     0.059 A 
ATOM     95  F   UNL     1      -6.144   1.269  18.047  1.00  0.00    -0.206 F 
ATOM     96  C   UNL     1      -2.843   1.166  19.516  1.00  0.00     0.060 A 
BRANCH  96  97
ATOM     97  S   UNL     1      -2.029   1.500  21.092  1.00  0.00     0.124 S 
ATOM     98  O   UNL     1      -1.811   0.150  21.601  1.00  0.00    -0.237 OA
ATOM     99  O   UNL     1      -0.830   2.223  20.680  1.00  0.00    -0.237 OA
ATOM    100  O   UNL     1      -3.013   2.295  21.820  1.00  0.00    -0.744 OA
ENDBRANCH  96  97
ENDBRANCH  64  89
ENDBRANCH  38  39
ENDBRANCH  30  33
ENDBRANCH  28  29
ENDBRANCH  27  28
ENDBRANCH  26  27
ENDBRANCH   1  26
TORSDOF 19
