REMARK SMILES CC[C@@H]1C=CCN1S(=O)(=O)c1sc2c(c1C(=O)NCCCCCCNC(=O)c1ccc(-c3c4nc(c(-c5c(F)cc(S(=O)(=O)[O-])cc5F)c5ccc([nH]5)c(-c5c(F)cc(S(=O)(=O)[O-])cc5F)c5nc(c(-c6c(F)cc(S(=O)(=O)[O-])cc6F)c6ccc3[nH]6)C=C5)C=C4)cc1)CC[NH2+]C2
REMARK SMILES IDX 21 1 20 2 19 3 18 4 16 5 17 6 15 8 11 9 12 10 13 11 14 12
REMARK SMILES IDX 97 13 94 14 96 15 95 16 8 19 9 20 10 21 7 22 3 23 4 24 5 25
REMARK SMILES IDX 6 26 2 27 1 28 22 29 23 30 24 31 25 32 26 33 27 35 28 36
REMARK SMILES IDX 29 37 93 38 30 39 92 40 31 41 32 42 33 43 86 44 34 45 91 46
REMARK SMILES IDX 85 47 87 48 35 49 90 50 84 51 83 52 36 54 70 55 49 56 69 57
REMARK SMILES IDX 50 58 53 59 68 60 88 61 51 62 52 63 67 65 89 66 54 67 37 68
REMARK SMILES IDX 38 69 47 70 39 71 40 72 46 73 48 74 41 75 42 76 43 77 44 78
REMARK SMILES IDX 45 79 71 80 72 81 81 82 73 83 74 84 80 85 82 86 75 87 76 88
REMARK SMILES IDX 77 89 78 90 79 91 55 92 56 93 65 94 57 95 58 96 64 97 66 98
REMARK SMILES IDX 59 99 60 100 61 101 62 102 63 103
REMARK H PARENT 18 7 96 17 96 18 25 34 87 53 53 64
REMARK Flexibility Score: inf
ROOT
ATOM      1  C   UNL     1       5.255   0.045   2.720  1.00  0.00     0.002 C 
ENDROOT
BRANCH   1   2
ATOM      2  C   UNL     1       4.784   1.344   2.057  1.00  0.00     0.021 C 
BRANCH   2   3
ATOM      3  C   UNL     1       3.739   2.158   2.800  1.00  0.00     0.116 C 
BRANCH   3   4
ATOM      4  N   UNL     1       4.177   2.908   3.935  1.00  0.00    -0.352 N 
ATOM      5  C   UNL     1       3.622   4.010   4.532  1.00  0.00     0.253 C 
ATOM      6  O   UNL     1       4.083   4.237   5.657  1.00  0.00    -0.269 OA
ATOM      7  H   UNL     1       5.006   2.582   4.354  1.00  0.00     0.163 HD
BRANCH   5   8
ATOM      8  C   UNL     1       2.664   4.971   3.915  1.00  0.00     0.074 A 
ATOM      9  C   UNL     1       1.585   4.824   3.009  1.00  0.00     0.148 A 
ATOM     10  S   UNL     1       0.835   6.357   2.687  1.00  0.00    -0.120 S 
ATOM     11  C   UNL     1       1.836   7.213   3.700  1.00  0.00     0.064 A 
ATOM     12  C   UNL     1       2.732   6.399   4.352  1.00  0.00    -0.009 A 
ATOM     13  C   UNL     1       1.657   8.688   3.888  1.00  0.00     0.308 C 
ATOM     14  C   UNL     1       3.654   7.041   5.370  1.00  0.00     0.099 C 
ATOM     15  N   UNL     1       2.807   9.286   4.584  1.00  0.00    -0.342 N 
ATOM     16  C   UNL     1       3.169   8.464   5.753  1.00  0.00     0.265 C 
ATOM     17  H   UNL     1       3.601   9.335   3.946  1.00  0.00     0.346 HD
ATOM     18  H   UNL     1       2.558  10.224   4.898  1.00  0.00     0.346 HD
BRANCH   9  19
ATOM     19  S   UNL     1       0.640   3.542   2.093  1.00  0.00     0.254 S 
ATOM     20  O   UNL     1      -0.765   3.901   2.245  1.00  0.00    -0.206 OA
ATOM     21  O   UNL     1       1.067   2.268   2.595  1.00  0.00    -0.206 OA
BRANCH  19  22
ATOM     22  N   UNL     1       1.030   3.647   0.421  1.00  0.00    -0.186 NA
ATOM     23  C   UNL     1       0.615   2.463  -0.422  1.00  0.00     0.096 C 
ATOM     24  C   UNL     1      -0.398   3.043  -1.357  1.00  0.00    -0.010 C 
ATOM     25  C   UNL     1      -0.392   4.373  -1.317  1.00  0.00    -0.013 C 
ATOM     26  C   UNL     1       0.539   4.877  -0.279  1.00  0.00     0.130 C 
BRANCH  23  27
ATOM     27  C   UNL     1       1.860   1.892  -1.145  1.00  0.00     0.021 C 
ATOM     28  C   UNL     1       1.856   1.976  -2.673  1.00  0.00     0.006 C 
ENDBRANCH  23  27
ENDBRANCH  19  22
ENDBRANCH   9  19
ENDBRANCH   5   8
ENDBRANCH   3   4
ENDBRANCH   2   3
ENDBRANCH   1   2
BRANCH   1  29
ATOM     29  C   UNL     1       4.198  -0.932   3.270  1.00  0.00     0.002 C 
BRANCH  29  30
ATOM     30  C   UNL     1       3.011  -1.320   2.376  1.00  0.00     0.021 C 
BRANCH  30  31
ATOM     31  C   UNL     1       3.380  -1.920   1.031  1.00  0.00     0.116 C 
BRANCH  31  32
ATOM     32  N   UNL     1       4.089  -3.198   1.126  1.00  0.00    -0.352 N 
ATOM     33  C   UNL     1       4.559  -3.990   0.089  1.00  0.00     0.251 C 
ATOM     34  H   UNL     1       4.252  -3.536   2.036  1.00  0.00     0.163 HD
ATOM     35  O   UNL     1       4.787  -5.181   0.266  1.00  0.00    -0.269 OA
BRANCH  33  36
ATOM     36  C   UNL     1       4.785  -3.368  -1.231  1.00  0.00     0.039 A 
ATOM     37  C   UNL     1       4.529  -4.038  -2.430  1.00  0.00     0.014 A 
ATOM     38  C   UNL     1       5.243  -2.055  -1.246  1.00  0.00     0.014 A 
ATOM     39  C   UNL     1       4.672  -3.337  -3.629  1.00  0.00     0.010 A 
ATOM     40  C   UNL     1       5.159  -1.312  -2.390  1.00  0.00     0.010 A 
ATOM     41  C   UNL     1       4.966  -1.962  -3.596  1.00  0.00    -0.014 A 
BRANCH  41  42
ATOM     42  C   UNL     1       4.979  -1.147  -4.805  1.00  0.00     0.031 A 
ATOM     43  C   UNL     1       3.736  -1.268  -5.609  1.00  0.00     0.074 A 
ATOM     44  C   UNL     1       5.936  -0.225  -5.070  1.00  0.00     0.049 A 
ATOM     45  N   UNL     1       3.595  -1.866  -6.741  1.00  0.00    -0.248 NA
ATOM     46  C   UNL     1       2.461  -0.840  -5.012  1.00  0.00     0.031 C 
ATOM     47  C   UNL     1       7.061   0.200  -4.222  1.00  0.00     0.029 A 
ATOM     48  N   UNL     1       6.065   0.599  -6.147  1.00  0.00    -0.354 N 
ATOM     49  C   UNL     1       2.274  -1.661  -7.125  1.00  0.00     0.074 A 
ATOM     50  C   UNL     1       1.583  -1.186  -5.957  1.00  0.00     0.031 C 
ATOM     51  C   UNL     1       7.612   1.334  -4.713  1.00  0.00     0.029 A 
ATOM     52  C   UNL     1       7.011   1.616  -6.002  1.00  0.00     0.049 A 
ATOM     53  H   UNL     1       5.531   0.486  -6.966  1.00  0.00     0.167 HD
ATOM     54  C   UNL     1       1.930  -1.671  -8.441  1.00  0.00     0.037 A 
ATOM     55  C   UNL     1       7.298   2.603  -6.891  1.00  0.00     0.037 A 
ATOM     56  C   UNL     1       2.999  -2.221  -9.238  1.00  0.00     0.049 A 
ATOM     57  C   UNL     1       6.832   2.119  -8.212  1.00  0.00     0.074 A 
ATOM     58  C   UNL     1       3.616  -3.451  -9.331  1.00  0.00     0.029 A 
ATOM     59  N   UNL     1       3.860  -1.306  -9.792  1.00  0.00    -0.354 N 
ATOM     60  N   UNL     1       7.354   1.097  -8.834  1.00  0.00    -0.248 NA
ATOM     61  C   UNL     1       5.493   2.490  -8.639  1.00  0.00     0.031 C 
ATOM     62  C   UNL     1       4.993  -3.160  -9.562  1.00  0.00     0.029 A 
ATOM     63  C   UNL     1       5.142  -1.776  -9.678  1.00  0.00     0.049 A 
ATOM     64  H   UNL     1       3.599  -0.452 -10.205  1.00  0.00     0.167 HD
ATOM     65  C   UNL     1       6.274   0.435  -9.395  1.00  0.00     0.074 A 
ATOM     66  C   UNL     1       5.176   1.400  -9.343  1.00  0.00     0.031 C 
ATOM     67  C   UNL     1       6.306  -0.918  -9.581  1.00  0.00     0.037 A 
BRANCH  54  68
ATOM     68  C   UNL     1       0.844  -0.823  -9.056  1.00  0.00     0.058 A 
ATOM     69  C   UNL     1       0.485  -1.044 -10.402  1.00  0.00     0.135 A 
ATOM     70  C   UNL     1       0.361   0.375  -8.485  1.00  0.00     0.135 A 
ATOM     71  F   UNL     1       0.900  -2.147 -11.047  1.00  0.00    -0.206 F 
ATOM     72  C   UNL     1      -0.241  -0.114 -11.145  1.00  0.00     0.059 A 
ATOM     73  C   UNL     1      -0.407   1.293  -9.193  1.00  0.00     0.059 A 
ATOM     74  F   UNL     1       0.690   0.758  -7.245  1.00  0.00    -0.206 F 
ATOM     75  C   UNL     1      -0.673   1.058 -10.532  1.00  0.00     0.060 A 
BRANCH  75  76
ATOM     76  S   UNL     1      -1.550   2.289 -11.511  1.00  0.00     0.124 S 
ATOM     77  O   UNL     1      -0.500   2.751 -12.410  1.00  0.00    -0.237 OA
ATOM     78  O   UNL     1      -2.610   1.490 -12.119  1.00  0.00    -0.237 OA
ATOM     79  O   UNL     1      -1.997   3.255 -10.511  1.00  0.00    -0.744 OA
ENDBRANCH  75  76
ENDBRANCH  54  68
BRANCH  55  80
ATOM     80  C   UNL     1       7.647   4.030  -6.652  1.00  0.00     0.058 A 
ATOM     81  C   UNL     1       8.147   4.848  -7.686  1.00  0.00     0.135 A 
ATOM     82  C   UNL     1       7.196   4.702  -5.500  1.00  0.00     0.135 A 
ATOM     83  F   UNL     1       8.583   4.296  -8.829  1.00  0.00    -0.206 F 
ATOM     84  C   UNL     1       8.142   6.247  -7.608  1.00  0.00     0.059 A 
ATOM     85  C   UNL     1       7.183   6.095  -5.398  1.00  0.00     0.059 A 
ATOM     86  F   UNL     1       6.660   4.021  -4.476  1.00  0.00    -0.206 F 
ATOM     87  C   UNL     1       7.632   6.864  -6.466  1.00  0.00     0.060 A 
BRANCH  87  88
ATOM     88  S   UNL     1       7.445   8.666  -6.433  1.00  0.00     0.124 S 
ATOM     89  O   UNL     1       8.831   9.114  -6.372  1.00  0.00    -0.237 OA
ATOM     90  O   UNL     1       6.744   8.928  -7.686  1.00  0.00    -0.237 OA
ATOM     91  O   UNL     1       6.659   8.901  -5.224  1.00  0.00    -0.744 OA
ENDBRANCH  87  88
ENDBRANCH  55  80
BRANCH  67  92
ATOM     92  C   UNL     1       7.650  -1.603  -9.523  1.00  0.00     0.058 A 
ATOM     93  C   UNL     1       8.462  -1.712  -8.379  1.00  0.00     0.135 A 
ATOM     94  C   UNL     1       8.070  -2.293 -10.670  1.00  0.00     0.135 A 
ATOM     95  F   UNL     1       8.094  -1.160  -7.215  1.00  0.00    -0.206 F 
ATOM     96  C   UNL     1       9.654  -2.442  -8.390  1.00  0.00     0.059 A 
ATOM     97  C   UNL     1       9.235  -3.052 -10.695  1.00  0.00     0.059 A 
ATOM     98  F   UNL     1       7.312  -2.274 -11.779  1.00  0.00    -0.206 F 
ATOM     99  C   UNL     1      10.032  -3.110  -9.555  1.00  0.00     0.060 A 
BRANCH  99 100
ATOM    100  S   UNL     1      11.541  -4.103  -9.560  1.00  0.00     0.124 S 
ATOM    101  O   UNL     1      12.581  -3.081  -9.504  1.00  0.00    -0.237 OA
ATOM    102  O   UNL     1      11.389  -4.918  -8.358  1.00  0.00    -0.237 OA
ATOM    103  O   UNL     1      11.460  -4.842 -10.818  1.00  0.00    -0.744 OA
ENDBRANCH  99 100
ENDBRANCH  67  92
ENDBRANCH  41  42
ENDBRANCH  33  36
ENDBRANCH  31  32
ENDBRANCH  30  31
ENDBRANCH  29  30
ENDBRANCH   1  29
TORSDOF 19
