REMARK SMILES O=C(NCCCCCCNC(=O)c1cc(Cl)c2c(c1)[C@H]1C=CC[C@H]1[C@H](c1ccc(S(=O)(=O)N3CCOCC3)cc1)N2)c1ccc(-c2c3nc(c(-c4c(F)cc(S(=O)(=O)[O-])cc4F)c4ccc([nH]4)c(-c4c(F)cc(S(=O)(=O)[O-])cc4F)c4nc(c(-c5c(F)cc(S(=O)(=O)[O-])cc5F)c5ccc2[nH]5)C=C4)C=C3)cc1
REMARK SMILES IDX 6 1 5 2 4 3 3 4 1 5 2 6 42 8 43 9 107 10 44 11 106 12 45 13
REMARK SMILES IDX 46 14 47 15 100 16 48 17 105 18 99 19 101 20 49 21 104 22
REMARK SMILES IDX 98 23 97 24 50 26 84 27 63 28 83 29 64 30 67 31 82 32 102 33
REMARK SMILES IDX 65 34 66 35 81 37 103 38 68 39 51 40 52 41 61 42 53 43 54 44
REMARK SMILES IDX 60 45 62 46 55 47 56 48 57 49 58 50 59 51 85 52 86 53 95 54
REMARK SMILES IDX 87 55 88 56 94 57 96 58 89 59 90 60 91 61 92 62 93 63 69 64
REMARK SMILES IDX 70 65 79 66 71 67 72 68 78 69 80 70 73 71 74 72 75 73 76 74
REMARK SMILES IDX 77 75 7 76 8 77 9 78 10 79 11 80 12 82 13 83 14 84 19 85
REMARK SMILES IDX 15 86 18 87 16 88 17 89 20 90 41 91 21 92 24 93 25 94 22 96
REMARK SMILES IDX 23 97 26 98 27 99 40 100 28 101 39 102 29 103 30 104 31 105
REMARK SMILES IDX 32 106 33 107 34 108 38 109 35 110 37 111 36 112
REMARK H PARENT 3 7 101 25 67 36 10 81 41 95
REMARK Flexibility Score: inf
ROOT
ATOM      1  C   UNL     1       4.234   3.739  -0.671  1.00  0.00     0.002 C 
ENDROOT
BRANCH   1   2
ATOM      2  C   UNL     1       4.746   2.345  -1.041  1.00  0.00     0.021 C 
BRANCH   2   3
ATOM      3  C   UNL     1       4.468   1.260  -0.004  1.00  0.00     0.116 C 
BRANCH   3   4
ATOM      4  N   UNL     1       3.044   1.083   0.228  1.00  0.00    -0.352 N 
ATOM      5  O   UNL     1       1.069  -0.003   0.185  1.00  0.00    -0.269 OA
ATOM      6  C   UNL     1       2.294  -0.062   0.149  1.00  0.00     0.251 C 
ATOM      7  H   UNL     1       2.550   1.898   0.475  1.00  0.00     0.163 HD
BRANCH   6   8
ATOM      8  C   UNL     1       2.972  -1.366   0.005  1.00  0.00     0.039 A 
ATOM      9  C   UNL     1       4.011  -1.724   0.870  1.00  0.00     0.014 A 
ATOM     10  C   UNL     1       2.549  -2.244  -0.996  1.00  0.00     0.014 A 
ATOM     11  C   UNL     1       4.688  -2.925   0.675  1.00  0.00     0.010 A 
ATOM     12  C   UNL     1       3.201  -3.467  -1.163  1.00  0.00     0.010 A 
ATOM     13  C   UNL     1       4.289  -3.805  -0.344  1.00  0.00    -0.014 A 
BRANCH  13  14
ATOM     14  C   UNL     1       4.997  -5.095  -0.516  1.00  0.00     0.031 A 
ATOM     15  C   UNL     1       5.920  -5.313  -1.679  1.00  0.00     0.074 A 
ATOM     16  C   UNL     1       4.821  -6.061   0.404  1.00  0.00     0.049 A 
ATOM     17  N   UNL     1       6.656  -6.357  -1.960  1.00  0.00    -0.248 NA
ATOM     18  C   UNL     1       6.036  -4.215  -2.650  1.00  0.00     0.031 C 
ATOM     19  C   UNL     1       3.953  -5.954   1.579  1.00  0.00     0.029 A 
ATOM     20  N   UNL     1       5.370  -7.313   0.506  1.00  0.00    -0.354 N 
ATOM     21  C   UNL     1       7.333  -6.042  -3.131  1.00  0.00     0.074 A 
ATOM     22  C   UNL     1       6.887  -4.723  -3.532  1.00  0.00     0.031 C 
ATOM     23  C   UNL     1       4.053  -7.081   2.300  1.00  0.00     0.029 A 
ATOM     24  C   UNL     1       4.961  -8.002   1.621  1.00  0.00     0.049 A 
ATOM     25  H   UNL     1       5.998  -7.682  -0.156  1.00  0.00     0.167 HD
ATOM     26  C   UNL     1       8.254  -6.777  -3.799  1.00  0.00     0.037 A 
ATOM     27  C   UNL     1       5.278  -9.239   2.049  1.00  0.00     0.037 A 
ATOM     28  C   UNL     1       8.676  -8.097  -3.405  1.00  0.00     0.049 A 
ATOM     29  C   UNL     1       6.243 -10.066   1.250  1.00  0.00     0.074 A 
ATOM     30  C   UNL     1       9.606  -8.922  -4.014  1.00  0.00     0.029 A 
ATOM     31  N   UNL     1       8.189  -8.790  -2.305  1.00  0.00    -0.354 N 
ATOM     32  N   UNL     1       6.892  -9.744   0.156  1.00  0.00    -0.248 NA
ATOM     33  C   UNL     1       6.517 -11.424   1.738  1.00  0.00     0.031 C 
ATOM     34  C   UNL     1       9.650 -10.129  -3.306  1.00  0.00     0.029 A 
ATOM     35  C   UNL     1       8.780 -10.041  -2.231  1.00  0.00     0.049 A 
ATOM     36  H   UNL     1       7.520  -8.443  -1.671  1.00  0.00     0.167 HD
ATOM     37  C   UNL     1       7.662 -10.854  -0.169  1.00  0.00     0.074 A 
ATOM     38  C   UNL     1       7.407 -11.852   0.852  1.00  0.00     0.031 C 
ATOM     39  C   UNL     1       8.506 -11.028  -1.216  1.00  0.00     0.037 A 
BRANCH  26  40
ATOM     40  C   UNL     1       8.859  -6.169  -5.033  1.00  0.00     0.058 A 
ATOM     41  C   UNL     1       9.782  -5.114  -4.950  1.00  0.00     0.135 A 
ATOM     42  C   UNL     1       8.532  -6.653  -6.310  1.00  0.00     0.135 A 
ATOM     43  F   UNL     1      10.119  -4.603  -3.755  1.00  0.00    -0.206 F 
ATOM     44  C   UNL     1      10.336  -4.540  -6.090  1.00  0.00     0.059 A 
ATOM     45  C   UNL     1       9.091  -6.109  -7.463  1.00  0.00     0.059 A 
ATOM     46  F   UNL     1       7.655  -7.660  -6.446  1.00  0.00    -0.206 F 
ATOM     47  C   UNL     1       9.979  -5.042  -7.343  1.00  0.00     0.060 A 
BRANCH  47  48
ATOM     48  S   UNL     1      10.689  -4.269  -8.812  1.00  0.00     0.124 S 
ATOM     49  O   UNL     1       9.975  -2.997  -8.844  1.00  0.00    -0.237 OA
ATOM     50  O   UNL     1      12.106  -4.191  -8.470  1.00  0.00    -0.237 OA
ATOM     51  O   UNL     1      10.355  -5.203  -9.883  1.00  0.00    -0.744 OA
ENDBRANCH  47  48
ENDBRANCH  26  40
BRANCH  27  52
ATOM     52  C   UNL     1       4.691  -9.742   3.316  1.00  0.00     0.058 A 
ATOM     53  C   UNL     1       5.468  -9.833   4.478  1.00  0.00     0.135 A 
ATOM     54  C   UNL     1       3.330 -10.072   3.407  1.00  0.00     0.135 A 
ATOM     55  F   UNL     1       6.776  -9.533   4.436  1.00  0.00    -0.206 F 
ATOM     56  C   UNL     1       4.916 -10.225   5.692  1.00  0.00     0.059 A 
ATOM     57  C   UNL     1       2.750 -10.447   4.614  1.00  0.00     0.059 A 
ATOM     58  F   UNL     1       2.543  -9.987   2.323  1.00  0.00    -0.206 F 
ATOM     59  C   UNL     1       3.552 -10.519   5.753  1.00  0.00     0.060 A 
BRANCH  59  60
ATOM     60  S   UNL     1       2.830 -10.936   7.355  1.00  0.00     0.124 S 
ATOM     61  O   UNL     1       3.379 -12.266   7.588  1.00  0.00    -0.237 OA
ATOM     62  O   UNL     1       3.350  -9.872   8.208  1.00  0.00    -0.237 OA
ATOM     63  O   UNL     1       1.394 -10.880   7.101  1.00  0.00    -0.744 OA
ENDBRANCH  59  60
ENDBRANCH  27  52
BRANCH  39  64
ATOM     64  C   UNL     1       9.223 -12.346  -1.313  1.00  0.00     0.058 A 
ATOM     65  C   UNL     1       8.562 -13.508  -1.737  1.00  0.00     0.135 A 
ATOM     66  C   UNL     1      10.597 -12.432  -1.040  1.00  0.00     0.135 A 
ATOM     67  F   UNL     1       7.246 -13.480  -2.002  1.00  0.00    -0.206 F 
ATOM     68  C   UNL     1       9.237 -14.716  -1.877  1.00  0.00     0.059 A 
ATOM     69  C   UNL     1      11.297 -13.625  -1.194  1.00  0.00     0.059 A 
ATOM     70  F   UNL     1      11.276 -11.347  -0.637  1.00  0.00    -0.206 F 
ATOM     71  C   UNL     1      10.607 -14.764  -1.607  1.00  0.00     0.060 A 
BRANCH  71  72
ATOM     72  S   UNL     1      11.479 -16.328  -1.837  1.00  0.00     0.124 S 
ATOM     73  O   UNL     1      11.007 -17.099  -0.692  1.00  0.00    -0.237 OA
ATOM     74  O   UNL     1      10.994 -16.767  -3.142  1.00  0.00    -0.237 OA
ATOM     75  O   UNL     1      12.886 -15.941  -1.796  1.00  0.00    -0.744 OA
ENDBRANCH  71  72
ENDBRANCH  39  64
ENDBRANCH  13  14
ENDBRANCH   6   8
ENDBRANCH   3   4
ENDBRANCH   2   3
ENDBRANCH   1   2
BRANCH   1  76
ATOM     76  C   UNL     1       4.731   4.284   0.671  1.00  0.00     0.002 C 
BRANCH  76  77
ATOM     77  C   UNL     1       6.253   4.330   0.833  1.00  0.00     0.021 C 
BRANCH  77  78
ATOM     78  C   UNL     1       6.992   5.077  -0.273  1.00  0.00     0.116 C 
BRANCH  78  79
ATOM     79  N   UNL     1       6.591   6.473  -0.356  1.00  0.00    -0.352 N 
ATOM     80  C   UNL     1       7.389   7.586  -0.398  1.00  0.00     0.251 C 
ATOM     81  H   UNL     1       5.621   6.640  -0.387  1.00  0.00     0.163 HD
ATOM     82  O   UNL     1       6.919   8.715  -0.324  1.00  0.00    -0.269 OA
BRANCH  80  83
ATOM     83  C   UNL     1       8.845   7.400  -0.496  1.00  0.00     0.041 A 
ATOM     84  C   UNL     1       9.399   6.691  -1.560  1.00  0.00     0.036 A 
ATOM     85  C   UNL     1       9.652   7.923   0.511  1.00  0.00     0.020 A 
ATOM     86  C   UNL     1      10.765   6.430  -1.556  1.00  0.00     0.065 A 
ATOM     87  C   UNL     1      11.033   7.678   0.501  1.00  0.00    -0.015 A 
ATOM     88  Cl  UNL     1      11.418   5.496  -2.858  1.00  0.00    -0.082 Cl
ATOM     89  C   UNL     1      11.594   6.880  -0.509  1.00  0.00     0.057 A 
ATOM     90  C   UNL     1      11.893   8.311   1.556  1.00  0.00     0.049 C 
ATOM     91  N   UNL     1      12.956   6.612  -0.517  1.00  0.00    -0.376 N 
ATOM     92  C   UNL     1      11.754   7.721   2.936  1.00  0.00    -0.023 C 
ATOM     93  C   UNL     1      13.414   8.203   1.313  1.00  0.00     0.031 C 
ATOM     94  C   UNL     1      13.757   6.830   0.677  1.00  0.00     0.114 C 
ATOM     95  H   UNL     1      13.383   6.271  -1.336  1.00  0.00     0.161 HD
ATOM     96  C   UNL     1      12.916   7.786   3.597  1.00  0.00    -0.030 C 
ATOM     97  C   UNL     1      13.973   8.407   2.738  1.00  0.00     0.034 C 
BRANCH  94  98
ATOM     98  C   UNL     1      15.233   6.706   0.316  1.00  0.00    -0.025 A 
ATOM     99  C   UNL     1      15.750   6.971  -0.968  1.00  0.00     0.007 A 
ATOM    100  C   UNL     1      16.128   6.321   1.317  1.00  0.00     0.007 A 
ATOM    101  C   UNL     1      17.124   6.879  -1.228  1.00  0.00     0.022 A 
ATOM    102  C   UNL     1      17.492   6.279   1.072  1.00  0.00     0.022 A 
ATOM    103  C   UNL     1      17.998   6.552  -0.192  1.00  0.00     0.082 A 
BRANCH 103 104
ATOM    104  S   UNL     1      19.750   6.513  -0.501  1.00  0.00     0.243 S 
ATOM    105  O   UNL     1      20.027   5.254  -1.151  1.00  0.00    -0.207 OA
ATOM    106  O   UNL     1      20.083   7.782  -1.117  1.00  0.00    -0.207 OA
BRANCH 104 107
ATOM    107  N   UNL     1      20.464   6.487   1.018  1.00  0.00    -0.193 NA
ATOM    108  C   UNL     1      20.742   5.226   1.739  1.00  0.00     0.131 C 
ATOM    109  C   UNL     1      20.798   7.723   1.744  1.00  0.00     0.131 C 
ATOM    110  C   UNL     1      20.302   5.298   3.213  1.00  0.00     0.177 C 
ATOM    111  C   UNL     1      20.240   7.669   3.167  1.00  0.00     0.177 C 
ATOM    112  O   UNL     1      20.713   6.508   3.864  1.00  0.00    -0.379 OA
ENDBRANCH 104 107
ENDBRANCH 103 104
ENDBRANCH  94  98
ENDBRANCH  80  83
ENDBRANCH  78  79
ENDBRANCH  77  78
ENDBRANCH  76  77
ENDBRANCH   1  76
TORSDOF 19
