REMARK SMILES Cc1cccc(C(=O)NCCCCCCNC(=O)c2ccc(-c3c4nc(c(-c5c(F)cc(S(=O)(=O)[O-])cc5F)c5ccc([nH]5)c(-c5c(F)cc(S(=O)(=O)[O-])cc5F)c5nc(c(-c6c(F)cc(S(=O)(=O)[O-])cc6F)c6ccc3[nH]6)C=C5)C=C4)cc2)c1OC[C@@H]1C[C@H]2CC[C@@H]1C2
REMARK SMILES IDX 12 1 11 2 10 3 9 4 7 5 8 6 6 8 1 9 2 10 3 11 85 12 4 13 5 14
REMARK SMILES IDX 86 15 87 16 88 17 89 18 93 19 90 20 92 21 94 22 91 23 13 24
REMARK SMILES IDX 14 25 15 26 16 27 17 28 18 30 19 31 20 32 84 33 21 34 83 35
REMARK SMILES IDX 22 36 23 37 24 38 77 39 25 40 82 41 76 42 78 43 26 44 81 45
REMARK SMILES IDX 75 46 74 47 27 49 61 50 40 51 60 52 41 53 44 54 59 55 79 56
REMARK SMILES IDX 42 57 43 58 58 60 80 61 45 62 28 63 29 64 38 65 30 66 31 67
REMARK SMILES IDX 37 68 39 69 32 70 33 71 34 72 35 73 36 74 62 75 63 76 72 77
REMARK SMILES IDX 64 78 65 79 71 80 73 81 66 82 67 83 68 84 69 85 70 86 46 87
REMARK SMILES IDX 47 88 56 89 48 90 49 91 55 92 57 93 50 94 51 95 52 96 53 97
REMARK SMILES IDX 54 98
REMARK H PARENT 9 7 16 29 78 48 44 59
REMARK Flexibility Score: inf
ROOT
ATOM      1  C   UNL     1       0.206   6.265  -0.954  1.00  0.00     0.002 C 
ENDROOT
BRANCH   1   2
ATOM      2  C   UNL     1       0.612   4.796  -0.771  1.00  0.00     0.021 C 
BRANCH   2   3
ATOM      3  C   UNL     1       0.011   4.112   0.461  1.00  0.00     0.116 C 
BRANCH   3   4
ATOM      4  N   UNL     1      -1.273   3.545   0.142  1.00  0.00    -0.352 N 
ATOM      5  C   UNL     1      -1.700   2.272  -0.091  1.00  0.00     0.255 C 
ATOM      6  O   UNL     1      -2.904   2.168  -0.365  1.00  0.00    -0.269 OA
ATOM      7  H   UNL     1      -1.992   4.216   0.080  1.00  0.00     0.163 HD
BRANCH   5   8
ATOM      8  C   UNL     1      -0.902   1.003   0.007  1.00  0.00     0.082 A 
ATOM      9  C   UNL     1       1.929  -1.046  -1.555  1.00  0.00     0.048 C 
ATOM     10  C   UNL     1       0.789  -0.613  -0.668  1.00  0.00    -0.008 A 
ATOM     11  C   UNL     1      -0.042  -1.660  -0.221  1.00  0.00     0.007 A 
ATOM     12  C   UNL     1       0.413   0.734  -0.446  1.00  0.00     0.134 A 
ATOM     13  C   UNL     1      -1.271  -1.397   0.356  1.00  0.00     0.001 A 
ATOM     14  C   UNL     1      -1.707  -0.082   0.433  1.00  0.00     0.018 A 
BRANCH  12  15
ATOM     15  O   UNL     1       1.239   1.767  -0.777  1.00  0.00    -0.492 OA
BRANCH  15  16
ATOM     16  C   UNL     1       2.586   1.830  -0.241  1.00  0.00     0.233 C 
BRANCH  16  17
ATOM     17  C   UNL     1       2.841   1.347   1.211  1.00  0.00     0.030 C 
ATOM     18  C   UNL     1       3.748   2.329   2.013  1.00  0.00     0.011 C 
ATOM     19  C   UNL     1       3.706   0.054   1.270  1.00  0.00    -0.004 C 
ATOM     20  C   UNL     1       4.938   1.461   2.465  1.00  0.00    -0.010 C 
ATOM     21  C   UNL     1       3.627  -0.537   2.689  1.00  0.00     0.004 C 
ATOM     22  C   UNL     1       5.143   0.579   1.241  1.00  0.00     0.007 C 
ATOM     23  C   UNL     1       4.465   0.445   3.516  1.00  0.00     0.004 C 
ENDBRANCH  16  17
ENDBRANCH  15  16
ENDBRANCH  12  15
ENDBRANCH   5   8
ENDBRANCH   3   4
ENDBRANCH   2   3
ENDBRANCH   1   2
BRANCH   1  24
ATOM     24  C   UNL     1       0.487   7.195   0.237  1.00  0.00     0.002 C 
BRANCH  24  25
ATOM     25  C   UNL     1       1.853   7.035   0.909  1.00  0.00     0.021 C 
BRANCH  25  26
ATOM     26  C   UNL     1       3.012   7.537   0.053  1.00  0.00     0.116 C 
BRANCH  26  27
ATOM     27  N   UNL     1       3.720   8.636   0.683  1.00  0.00    -0.352 N 
ATOM     28  C   UNL     1       4.924   9.205   0.287  1.00  0.00     0.251 C 
ATOM     29  H   UNL     1       3.298   9.022   1.485  1.00  0.00     0.163 HD
ATOM     30  O   UNL     1       5.583   9.940   1.006  1.00  0.00    -0.269 OA
BRANCH  28  31
ATOM     31  C   UNL     1       5.302   8.989  -1.119  1.00  0.00     0.039 A 
ATOM     32  C   UNL     1       5.088  10.058  -1.998  1.00  0.00     0.014 A 
ATOM     33  C   UNL     1       5.549   7.702  -1.579  1.00  0.00     0.014 A 
ATOM     34  C   UNL     1       4.958   9.799  -3.360  1.00  0.00     0.010 A 
ATOM     35  C   UNL     1       5.348   7.438  -2.920  1.00  0.00     0.010 A 
ATOM     36  C   UNL     1       5.005   8.476  -3.800  1.00  0.00    -0.014 A 
BRANCH  36  37
ATOM     37  C   UNL     1       4.600   8.066  -5.139  1.00  0.00     0.031 A 
ATOM     38  C   UNL     1       5.608   7.638  -6.133  1.00  0.00     0.074 A 
ATOM     39  C   UNL     1       3.286   7.986  -5.448  1.00  0.00     0.049 A 
ATOM     40  N   UNL     1       5.393   7.601  -7.404  1.00  0.00    -0.248 NA
ATOM     41  C   UNL     1       6.963   7.238  -5.767  1.00  0.00     0.031 C 
ATOM     42  C   UNL     1       2.688   7.317  -6.598  1.00  0.00     0.029 A 
ATOM     43  N   UNL     1       2.226   8.683  -4.863  1.00  0.00    -0.354 N 
ATOM     44  C   UNL     1       6.449   6.950  -7.991  1.00  0.00     0.074 A 
ATOM     45  C   UNL     1       7.424   6.781  -6.936  1.00  0.00     0.031 C 
ATOM     46  C   UNL     1       1.460   7.816  -6.801  1.00  0.00     0.029 A 
ATOM     47  C   UNL     1       1.281   8.925  -5.883  1.00  0.00     0.049 A 
ATOM     48  H   UNL     1       2.152   8.953  -3.919  1.00  0.00     0.167 HD
ATOM     49  C   UNL     1       6.348   6.521  -9.280  1.00  0.00     0.037 A 
ATOM     50  C   UNL     1       0.982  10.206  -6.253  1.00  0.00     0.037 A 
ATOM     51  C   UNL     1       5.081   6.912  -9.890  1.00  0.00     0.049 A 
ATOM     52  C   UNL     1       1.403  10.569  -7.667  1.00  0.00     0.074 A 
ATOM     53  C   UNL     1       3.867   6.282 -10.111  1.00  0.00     0.029 A 
ATOM     54  N   UNL     1       4.850   8.256 -10.110  1.00  0.00    -0.354 N 
ATOM     55  N   UNL     1       1.968   9.748  -8.511  1.00  0.00    -0.248 NA
ATOM     56  C   UNL     1       1.288  11.924  -8.215  1.00  0.00     0.031 C 
ATOM     57  C   UNL     1       2.901   7.276 -10.446  1.00  0.00     0.029 A 
ATOM     58  C   UNL     1       3.532   8.505 -10.436  1.00  0.00     0.049 A 
ATOM     59  H   UNL     1       5.543   8.953 -10.042  1.00  0.00     0.167 HD
ATOM     60  C   UNL     1       2.369  10.441  -9.625  1.00  0.00     0.074 A 
ATOM     61  C   UNL     1       1.892  11.793  -9.408  1.00  0.00     0.031 C 
ATOM     62  C   UNL     1       3.114   9.884 -10.623  1.00  0.00     0.037 A 
BRANCH  49  63
ATOM     63  C   UNL     1       7.330   5.561  -9.894  1.00  0.00     0.058 A 
ATOM     64  C   UNL     1       6.892   4.523 -10.740  1.00  0.00     0.135 A 
ATOM     65  C   UNL     1       8.717   5.590  -9.644  1.00  0.00     0.135 A 
ATOM     66  F   UNL     1       5.608   4.415 -11.107  1.00  0.00    -0.206 F 
ATOM     67  C   UNL     1       7.745   3.531 -11.221  1.00  0.00     0.059 A 
ATOM     68  C   UNL     1       9.583   4.577 -10.068  1.00  0.00     0.059 A 
ATOM     69  F   UNL     1       9.277   6.616  -8.985  1.00  0.00    -0.206 F 
ATOM     70  C   UNL     1       9.083   3.543 -10.850  1.00  0.00     0.060 A 
BRANCH  70  71
ATOM     71  S   UNL     1      10.135   2.176 -11.375  1.00  0.00     0.124 S 
ATOM     72  O   UNL     1       9.345   1.011 -10.985  1.00  0.00    -0.237 OA
ATOM     73  O   UNL     1      10.247   2.414 -12.809  1.00  0.00    -0.237 OA
ATOM     74  O   UNL     1      11.360   2.375 -10.605  1.00  0.00    -0.744 OA
ENDBRANCH  70  71
ENDBRANCH  49  63
BRANCH  50  75
ATOM     75  C   UNL     1       0.944  11.133  -5.086  1.00  0.00     0.058 A 
ATOM     76  C   UNL     1      -0.049  10.917  -4.107  1.00  0.00     0.135 A 
ATOM     77  C   UNL     1       2.060  11.893  -4.717  1.00  0.00     0.135 A 
ATOM     78  F   UNL     1      -1.148  10.207  -4.411  1.00  0.00    -0.206 F 
ATOM     79  C   UNL     1       0.133  11.296  -2.781  1.00  0.00     0.059 A 
ATOM     80  C   UNL     1       2.257  12.296  -3.394  1.00  0.00     0.059 A 
ATOM     81  F   UNL     1       3.038  12.134  -5.603  1.00  0.00    -0.206 F 
ATOM     82  C   UNL     1       1.320  11.932  -2.425  1.00  0.00     0.060 A 
BRANCH  82  83
ATOM     83  S   UNL     1       1.686  12.126  -0.664  1.00  0.00     0.124 S 
ATOM     84  O   UNL     1       0.603  12.998  -0.225  1.00  0.00    -0.237 OA
ATOM     85  O   UNL     1       1.620  10.747  -0.182  1.00  0.00    -0.237 OA
ATOM     86  O   UNL     1       3.017  12.721  -0.664  1.00  0.00    -0.744 OA
ENDBRANCH  82  83
ENDBRANCH  50  75
BRANCH  62  87
ATOM     87  C   UNL     1       3.532  10.625 -11.864  1.00  0.00     0.058 A 
ATOM     88  C   UNL     1       2.619  11.363 -12.635  1.00  0.00     0.135 A 
ATOM     89  C   UNL     1       4.835  10.504 -12.394  1.00  0.00     0.135 A 
ATOM     90  F   UNL     1       1.342  11.496 -12.241  1.00  0.00    -0.206 F 
ATOM     91  C   UNL     1       2.983  11.970 -13.838  1.00  0.00     0.059 A 
ATOM     92  C   UNL     1       5.208  11.057 -13.615  1.00  0.00     0.059 A 
ATOM     93  F   UNL     1       5.805   9.864 -11.723  1.00  0.00    -0.206 F 
ATOM     94  C   UNL     1       4.281  11.809 -14.322  1.00  0.00     0.060 A 
BRANCH  94  95
ATOM     95  S   UNL     1       4.751  12.568 -15.888  1.00  0.00     0.124 S 
ATOM     96  O   UNL     1       3.533  12.440 -16.684  1.00  0.00    -0.237 OA
ATOM     97  O   UNL     1       5.088  13.922 -15.463  1.00  0.00    -0.237 OA
ATOM     98  O   UNL     1       5.873  11.749 -16.337  1.00  0.00    -0.744 OA
ENDBRANCH  94  95
ENDBRANCH  62  87
ENDBRANCH  36  37
ENDBRANCH  28  31
ENDBRANCH  26  27
ENDBRANCH  25  26
ENDBRANCH  24  25
ENDBRANCH   1  24
TORSDOF 19
