REMARK SMILES O=C(CSc1nc2cccnc2n1CC(F)(F)F)NCCCCCCNC(=O)c1ccc(-c2c3nc(c(-c4c(F)cc(S(=O)(=O)[O-])cc4F)c4ccc([nH]4)c(-c4c(F)cc(S(=O)(=O)[O-])cc4F)c4nc(c(-c5c(F)cc(S(=O)(=O)[O-])cc5F)c5ccc2[nH]5)C=C4)C=C3)cc1
REMARK SMILES IDX 22 1 21 2 20 3 19 4 1 5 2 6 3 8 4 9 5 10 6 11 13 12 7 13
REMARK SMILES IDX 12 14 8 15 11 16 9 17 10 18 14 19 15 20 16 21 17 22 18 23
REMARK SMILES IDX 23 24 24 25 25 26 26 27 27 28 28 30 29 31 30 32 94 33 31 34
REMARK SMILES IDX 93 35 32 36 33 37 34 38 87 39 35 40 92 41 86 42 88 43 36 44
REMARK SMILES IDX 91 45 85 46 84 47 37 49 71 50 50 51 70 52 51 53 54 54 69 55
REMARK SMILES IDX 89 56 52 57 53 58 68 60 90 61 55 62 38 63 39 64 48 65 40 66
REMARK SMILES IDX 41 67 47 68 49 69 42 70 43 71 44 72 45 73 46 74 72 75 73 76
REMARK SMILES IDX 82 77 74 78 75 79 81 80 83 81 76 82 77 83 78 84 79 85 80 86
REMARK SMILES IDX 56 87 57 88 66 89 58 90 59 91 65 92 67 93 60 94 61 95 62 96
REMARK SMILES IDX 63 97 64 98
REMARK H PARENT 19 7 26 29 88 48 54 59
REMARK Flexibility Score: inf
ROOT
ATOM      1  C   UNL     1       4.300   2.434  -2.811  1.00  0.00     0.002 C 
ENDROOT
BRANCH   1   2
ATOM      2  C   UNL     1       2.820   2.477  -2.416  1.00  0.00     0.021 C 
BRANCH   2   3
ATOM      3  C   UNL     1       2.239   1.126  -2.035  1.00  0.00     0.116 C 
BRANCH   3   4
ATOM      4  N   UNL     1       3.014   0.463  -1.008  1.00  0.00    -0.355 N 
ATOM      5  O   UNL     1       1.629   0.946   0.745  1.00  0.00    -0.274 OA
ATOM      6  C   UNL     1       2.604   0.349   0.302  1.00  0.00     0.230 C 
ATOM      7  H   UNL     1       3.882   0.072  -1.259  1.00  0.00     0.163 HD
BRANCH   6   8
ATOM      8  C   UNL     1       3.414  -0.616   1.155  1.00  0.00     0.178 C 
BRANCH   8   9
ATOM      9  S   UNL     1       4.108  -1.967   0.167  1.00  0.00    -0.078 SA
BRANCH   9  10
ATOM     10  C   UNL     1       2.946  -3.258   0.122  1.00  0.00     0.171 A 
ATOM     11  N   UNL     1       3.349  -4.497   0.344  1.00  0.00    -0.221 NA
ATOM     12  N   UNL     1       1.688  -3.239  -0.438  1.00  0.00    -0.294 N 
ATOM     13  C   UNL     1       2.396  -5.301  -0.218  1.00  0.00     0.109 A 
ATOM     14  C   UNL     1       1.361  -4.540  -0.732  1.00  0.00     0.160 A 
ATOM     15  C   UNL     1       2.330  -6.687  -0.390  1.00  0.00     0.034 A 
ATOM     16  N   UNL     1       0.275  -4.965  -1.404  1.00  0.00    -0.237 NA
ATOM     17  C   UNL     1       1.233  -7.189  -1.098  1.00  0.00     0.022 A 
ATOM     18  C   UNL     1       0.265  -6.307  -1.571  1.00  0.00     0.113 A 
BRANCH  12  19
ATOM     19  C   UNL     1       0.790  -2.156  -0.759  1.00  0.00     0.241 C 
BRANCH  19  20
ATOM     20  C   UNL     1      -0.127  -1.815   0.392  1.00  0.00     0.406 C 
ATOM     21  F   UNL     1       0.562  -1.569   1.527  1.00  0.00    -0.169 F 
ATOM     22  F   UNL     1      -0.861  -0.718   0.103  1.00  0.00    -0.169 F 
ATOM     23  F   UNL     1      -0.995  -2.816   0.659  1.00  0.00    -0.169 F 
ENDBRANCH  19  20
ENDBRANCH  12  19
ENDBRANCH   9  10
ENDBRANCH   8   9
ENDBRANCH   6   8
ENDBRANCH   3   4
ENDBRANCH   2   3
ENDBRANCH   1   2
BRANCH   1  24
ATOM     24  C   UNL     1       4.681   1.416  -3.897  1.00  0.00     0.002 C 
BRANCH  24  25
ATOM     25  C   UNL     1       3.940   1.536  -5.235  1.00  0.00     0.021 C 
BRANCH  25  26
ATOM     26  C   UNL     1       4.169   2.861  -5.944  1.00  0.00     0.116 C 
BRANCH  26  27
ATOM     27  N   UNL     1       5.567   3.046  -6.320  1.00  0.00    -0.352 N 
ATOM     28  C   UNL     1       6.153   4.120  -6.959  1.00  0.00     0.251 C 
ATOM     29  H   UNL     1       6.173   2.306  -6.086  1.00  0.00     0.163 HD
ATOM     30  O   UNL     1       7.219   3.986  -7.538  1.00  0.00    -0.269 OA
BRANCH  28  31
ATOM     31  C   UNL     1       5.481   5.432  -6.912  1.00  0.00     0.039 A 
ATOM     32  C   UNL     1       5.544   6.314  -7.995  1.00  0.00     0.014 A 
ATOM     33  C   UNL     1       4.820   5.792  -5.739  1.00  0.00     0.014 A 
ATOM     34  C   UNL     1       4.905   7.546  -7.895  1.00  0.00     0.010 A 
ATOM     35  C   UNL     1       4.067   6.933  -5.694  1.00  0.00     0.010 A 
ATOM     36  C   UNL     1       4.174   7.842  -6.736  1.00  0.00    -0.014 A 
BRANCH  36  37
ATOM     37  C   UNL     1       3.461   9.097  -6.591  1.00  0.00     0.031 A 
ATOM     38  C   UNL     1       2.314   9.264  -7.517  1.00  0.00     0.074 A 
ATOM     39  C   UNL     1       3.668   9.912  -5.535  1.00  0.00     0.049 A 
ATOM     40  N   UNL     1       2.227  10.052  -8.536  1.00  0.00    -0.248 NA
ATOM     41  C   UNL     1       1.188   8.324  -7.394  1.00  0.00     0.031 C 
ATOM     42  C   UNL     1       4.513   9.689  -4.355  1.00  0.00     0.029 A 
ATOM     43  N   UNL     1       3.071  11.096  -5.251  1.00  0.00    -0.354 N 
ATOM     44  C   UNL     1       0.938   9.882  -9.035  1.00  0.00     0.074 A 
ATOM     45  C   UNL     1       0.442   8.665  -8.447  1.00  0.00     0.031 C 
ATOM     46  C   UNL     1       4.205  10.595  -3.400  1.00  0.00     0.029 A 
ATOM     47  C   UNL     1       3.270  11.556  -3.954  1.00  0.00     0.049 A 
ATOM     48  H   UNL     1       2.537  11.593  -5.913  1.00  0.00     0.167 HD
ATOM     49  C   UNL     1       0.292  10.889  -9.686  1.00  0.00     0.037 A 
ATOM     50  C   UNL     1       2.670  12.633  -3.386  1.00  0.00     0.037 A 
ATOM     51  C   UNL     1       1.212  11.941 -10.050  1.00  0.00     0.049 A 
ATOM     52  C   UNL     1       2.182  13.484  -4.508  1.00  0.00     0.074 A 
ATOM     53  C   UNL     1       2.350  12.006 -10.831  1.00  0.00     0.029 A 
ATOM     54  N   UNL     1       1.243  13.061  -9.252  1.00  0.00    -0.354 N 
ATOM     55  N   UNL     1       2.968  14.083  -5.362  1.00  0.00    -0.248 NA
ATOM     56  C   UNL     1       0.814  13.278  -4.961  1.00  0.00     0.031 C 
ATOM     57  C   UNL     1       3.232  12.877 -10.125  1.00  0.00     0.029 A 
ATOM     58  C   UNL     1       2.560  13.352  -8.997  1.00  0.00     0.049 A 
ATOM     59  H   UNL     1       0.463  13.563  -8.924  1.00  0.00     0.167 HD
ATOM     60  C   UNL     1       2.332  13.953  -6.589  1.00  0.00     0.074 A 
ATOM     61  C   UNL     1       0.974  13.520  -6.266  1.00  0.00     0.031 C 
ATOM     62  C   UNL     1       3.040  13.930  -7.758  1.00  0.00     0.037 A 
BRANCH  49  63
ATOM     63  C   UNL     1      -1.205  11.103  -9.676  1.00  0.00     0.058 A 
ATOM     64  C   UNL     1      -1.766  12.078 -10.526  1.00  0.00     0.135 A 
ATOM     65  C   UNL     1      -2.076  10.586  -8.690  1.00  0.00     0.135 A 
ATOM     66  F   UNL     1      -1.031  12.645 -11.497  1.00  0.00    -0.206 F 
ATOM     67  C   UNL     1      -3.067  12.556 -10.362  1.00  0.00     0.059 A 
ATOM     68  C   UNL     1      -3.393  11.005  -8.547  1.00  0.00     0.059 A 
ATOM     69  F   UNL     1      -1.669   9.724  -7.752  1.00  0.00    -0.206 F 
ATOM     70  C   UNL     1      -3.869  12.021  -9.359  1.00  0.00     0.060 A 
BRANCH  70  71
ATOM     71  S   UNL     1      -5.508  12.707  -9.075  1.00  0.00     0.124 S 
ATOM     72  O   UNL     1      -5.184  14.043  -8.589  1.00  0.00    -0.237 OA
ATOM     73  O   UNL     1      -6.099  12.636 -10.407  1.00  0.00    -0.237 OA
ATOM     74  O   UNL     1      -6.087  11.798  -8.089  1.00  0.00    -0.744 OA
ENDBRANCH  70  71
ENDBRANCH  49  63
BRANCH  50  75
ATOM     75  C   UNL     1       2.167  12.782  -1.993  1.00  0.00     0.058 A 
ATOM     76  C   UNL     1       1.730  14.031  -1.513  1.00  0.00     0.135 A 
ATOM     77  C   UNL     1       1.821  11.663  -1.209  1.00  0.00     0.135 A 
ATOM     78  F   UNL     1       2.004  15.150  -2.201  1.00  0.00    -0.206 F 
ATOM     79  C   UNL     1       0.937  14.156  -0.366  1.00  0.00     0.059 A 
ATOM     80  C   UNL     1       1.040  11.764  -0.057  1.00  0.00     0.059 A 
ATOM     81  F   UNL     1       2.151  10.420  -1.592  1.00  0.00    -0.206 F 
ATOM     82  C   UNL     1       0.574  13.011   0.341  1.00  0.00     0.060 A 
BRANCH  82  83
ATOM     83  S   UNL     1      -0.608  13.148   1.705  1.00  0.00     0.124 S 
ATOM     84  O   UNL     1       0.159  13.894   2.696  1.00  0.00    -0.237 OA
ATOM     85  O   UNL     1      -1.714  13.866   1.081  1.00  0.00    -0.237 OA
ATOM     86  O   UNL     1      -0.889  11.757   2.050  1.00  0.00    -0.744 OA
ENDBRANCH  82  83
ENDBRANCH  50  75
BRANCH  62  87
ATOM     87  C   UNL     1       4.498  14.327  -7.721  1.00  0.00     0.058 A 
ATOM     88  C   UNL     1       5.505  13.609  -7.050  1.00  0.00     0.135 A 
ATOM     89  C   UNL     1       4.913  15.385  -8.543  1.00  0.00     0.135 A 
ATOM     90  F   UNL     1       5.210  12.525  -6.321  1.00  0.00    -0.206 F 
ATOM     91  C   UNL     1       6.856  13.947  -7.165  1.00  0.00     0.059 A 
ATOM     92  C   UNL     1       6.256  15.721  -8.698  1.00  0.00     0.059 A 
ATOM     93  F   UNL     1       4.009  16.073  -9.258  1.00  0.00    -0.206 F 
ATOM     94  C   UNL     1       7.223  15.003  -7.998  1.00  0.00     0.060 A 
BRANCH  94  95
ATOM     95  S   UNL     1       8.975  15.389  -8.211  1.00  0.00     0.124 S 
ATOM     96  O   UNL     1       9.338  15.909  -6.897  1.00  0.00    -0.237 OA
ATOM     97  O   UNL     1       9.545  14.091  -8.560  1.00  0.00    -0.237 OA
ATOM     98  O   UNL     1       8.979  16.372  -9.293  1.00  0.00    -0.744 OA
ENDBRANCH  94  95
ENDBRANCH  62  87
ENDBRANCH  36  37
ENDBRANCH  28  31
ENDBRANCH  26  27
ENDBRANCH  25  26
ENDBRANCH  24  25
ENDBRANCH   1  24
TORSDOF 20
