REMARK SMILES O=C(NCCCCCCNC(=O)[C@H]1C[C@H]2CCCC[C@@H]2[N@@H+]1CC[C@@H]1CCCO1)c1ccc(-c2c3nc(c(-c4c(F)cc(S(=O)(=O)[O-])cc4F)c4ccc([nH]4)c(-c4c(F)cc(S(=O)(=O)[O-])cc4F)c4nc(c(-c5c(F)cc(S(=O)(=O)[O-])cc5F)c5ccc2[nH]5)C=C4)C=C3)cc1
REMARK SMILES IDX 6 1 5 2 4 3 3 4 1 5 2 6 29 8 30 9 94 10 31 11 93 12 32 13
REMARK SMILES IDX 33 14 34 15 87 16 35 17 92 18 86 19 88 20 36 21 91 22 85 23
REMARK SMILES IDX 84 24 37 26 71 27 50 28 70 29 51 30 54 31 69 32 89 33 52 34
REMARK SMILES IDX 53 35 68 37 90 38 55 39 38 40 39 41 48 42 40 43 41 44 47 45
REMARK SMILES IDX 49 46 42 47 43 48 44 49 45 50 46 51 72 52 73 53 82 54 74 55
REMARK SMILES IDX 75 56 81 57 83 58 76 59 77 60 78 61 79 62 80 63 56 64 57 65
REMARK SMILES IDX 66 66 58 67 59 68 65 69 67 70 60 71 61 72 62 73 63 74 64 75
REMARK SMILES IDX 7 76 8 77 9 78 10 79 11 80 12 82 13 83 14 84 21 85 15 86
REMARK SMILES IDX 20 87 16 89 19 90 17 91 18 92 22 93 23 94 24 95 25 96 28 97
REMARK SMILES IDX 26 98 27 99
REMARK H PARENT 3 7 88 25 54 36 10 81 21 88
REMARK Flexibility Score: inf
ROOT
ATOM      1  C   UNL     1      10.332  11.735  -5.599  1.00  0.00     0.002 C 
ENDROOT
BRANCH   1   2
ATOM      2  C   UNL     1       9.826  12.875  -4.715  1.00  0.00     0.021 C 
BRANCH   2   3
ATOM      3  C   UNL     1      10.926  13.718  -4.087  1.00  0.00     0.116 C 
BRANCH   3   4
ATOM      4  N   UNL     1      11.662  14.480  -5.081  1.00  0.00    -0.352 N 
ATOM      5  O   UNL     1      12.352  16.349  -6.138  1.00  0.00    -0.269 OA
ATOM      6  C   UNL     1      11.885  15.837  -5.133  1.00  0.00     0.251 C 
ATOM      7  H   UNL     1      12.055  13.956  -5.816  1.00  0.00     0.163 HD
BRANCH   6   8
ATOM      8  C   UNL     1      11.535  16.669  -3.958  1.00  0.00     0.039 A 
ATOM      9  C   UNL     1      11.881  16.250  -2.671  1.00  0.00     0.014 A 
ATOM     10  C   UNL     1      10.861  17.878  -4.149  1.00  0.00     0.014 A 
ATOM     11  C   UNL     1      11.445  16.975  -1.570  1.00  0.00     0.010 A 
ATOM     12  C   UNL     1      10.502  18.652  -3.042  1.00  0.00     0.010 A 
ATOM     13  C   UNL     1      10.776  18.198  -1.743  1.00  0.00    -0.014 A 
BRANCH  13  14
ATOM     14  C   UNL     1      10.470  19.024  -0.547  1.00  0.00     0.031 A 
ATOM     15  C   UNL     1       9.056  19.316  -0.134  1.00  0.00     0.074 A 
ATOM     16  C   UNL     1      11.505  19.485   0.184  1.00  0.00     0.049 A 
ATOM     17  N   UNL     1       8.628  20.001   0.895  1.00  0.00    -0.248 NA
ATOM     18  C   UNL     1       7.982  18.780  -0.985  1.00  0.00     0.031 C 
ATOM     19  C   UNL     1      12.921  19.276  -0.139  1.00  0.00     0.029 A 
ATOM     20  N   UNL     1      11.536  20.202   1.351  1.00  0.00    -0.354 N 
ATOM     21  C   UNL     1       7.240  19.992   0.813  1.00  0.00     0.074 A 
ATOM     22  C   UNL     1       6.897  19.252  -0.383  1.00  0.00     0.031 C 
ATOM     23  C   UNL     1      13.678  19.809   0.830  1.00  0.00     0.029 A 
ATOM     24  C   UNL     1      12.809  20.453   1.806  1.00  0.00     0.049 A 
ATOM     25  H   UNL     1      10.726  20.508   1.818  1.00  0.00     0.167 HD
ATOM     26  C   UNL     1       6.342  20.544   1.664  1.00  0.00     0.037 A 
ATOM     27  C   UNL     1      13.234  21.143   2.880  1.00  0.00     0.037 A 
ATOM     28  C   UNL     1       6.700  21.270   2.858  1.00  0.00     0.049 A 
ATOM     29  C   UNL     1      12.215  21.758   3.794  1.00  0.00     0.074 A 
ATOM     30  C   UNL     1       5.863  21.843   3.801  1.00  0.00     0.029 A 
ATOM     31  N   UNL     1       7.999  21.526   3.274  1.00  0.00    -0.354 N 
ATOM     32  N   UNL     1      10.906  21.712   3.715  1.00  0.00    -0.248 NA
ATOM     33  C   UNL     1      12.727  22.520   4.939  1.00  0.00     0.031 C 
ATOM     34  C   UNL     1       6.655  22.481   4.762  1.00  0.00     0.029 A 
ATOM     35  C   UNL     1       7.986  22.265   4.446  1.00  0.00     0.049 A 
ATOM     36  H   UNL     1       8.811  21.226   2.804  1.00  0.00     0.167 HD
ATOM     37  C   UNL     1      10.437  22.432   4.806  1.00  0.00     0.074 A 
ATOM     38  C   UNL     1      11.602  22.879   5.543  1.00  0.00     0.031 C 
ATOM     39  C   UNL     1       9.158  22.705   5.163  1.00  0.00     0.037 A 
BRANCH  26  40
ATOM     40  C   UNL     1       4.879  20.399   1.339  1.00  0.00     0.058 A 
ATOM     41  C   UNL     1       4.208  19.175   1.487  1.00  0.00     0.135 A 
ATOM     42  C   UNL     1       4.123  21.514   0.939  1.00  0.00     0.135 A 
ATOM     43  F   UNL     1       4.883  18.074   1.853  1.00  0.00    -0.206 F 
ATOM     44  C   UNL     1       2.844  19.058   1.238  1.00  0.00     0.059 A 
ATOM     45  C   UNL     1       2.753  21.425   0.706  1.00  0.00     0.059 A 
ATOM     46  F   UNL     1       4.714  22.709   0.781  1.00  0.00    -0.206 F 
ATOM     47  C   UNL     1       2.124  20.190   0.850  1.00  0.00     0.060 A 
BRANCH  47  48
ATOM     48  S   UNL     1       0.350  20.024   0.552  1.00  0.00     0.124 S 
ATOM     49  O   UNL     1       0.335  19.288  -0.709  1.00  0.00    -0.237 OA
ATOM     50  O   UNL     1      -0.096  19.279   1.725  1.00  0.00    -0.237 OA
ATOM     51  O   UNL     1      -0.114  21.406   0.477  1.00  0.00    -0.744 OA
ENDBRANCH  47  48
ENDBRANCH  26  40
BRANCH  27  52
ATOM     52  C   UNL     1      14.690  21.299   3.131  1.00  0.00     0.058 A 
ATOM     53  C   UNL     1      15.311  20.671   4.220  1.00  0.00     0.135 A 
ATOM     54  C   UNL     1      15.494  22.067   2.273  1.00  0.00     0.135 A 
ATOM     55  F   UNL     1      14.584  19.927   5.069  1.00  0.00    -0.206 F 
ATOM     56  C   UNL     1      16.673  20.814   4.463  1.00  0.00     0.059 A 
ATOM     57  C   UNL     1      16.863  22.200   2.478  1.00  0.00     0.059 A 
ATOM     58  F   UNL     1      14.952  22.671   1.204  1.00  0.00    -0.206 F 
ATOM     59  C   UNL     1      17.440  21.582   3.585  1.00  0.00     0.060 A 
BRANCH  59  60
ATOM     60  S   UNL     1      19.214  21.734   3.886  1.00  0.00     0.124 S 
ATOM     61  O   UNL     1      19.241  22.678   4.997  1.00  0.00    -0.237 OA
ATOM     62  O   UNL     1      19.592  20.360   4.204  1.00  0.00    -0.237 OA
ATOM     63  O   UNL     1      19.726  22.238   2.615  1.00  0.00    -0.744 OA
ENDBRANCH  59  60
ENDBRANCH  27  52
BRANCH  39  64
ATOM     64  C   UNL     1       8.959  23.509   6.417  1.00  0.00     0.058 A 
ATOM     65  C   UNL     1       9.247  24.882   6.463  1.00  0.00     0.135 A 
ATOM     66  C   UNL     1       8.457  22.902   7.579  1.00  0.00     0.135 A 
ATOM     67  F   UNL     1       9.739  25.506   5.380  1.00  0.00    -0.206 F 
ATOM     68  C   UNL     1       9.075  25.620   7.628  1.00  0.00     0.059 A 
ATOM     69  C   UNL     1       8.251  23.628   8.748  1.00  0.00     0.059 A 
ATOM     70  F   UNL     1       8.158  21.594   7.585  1.00  0.00    -0.206 F 
ATOM     71  C   UNL     1       8.578  24.983   8.767  1.00  0.00     0.060 A 
BRANCH  71  72
ATOM     72  S   UNL     1       8.344  25.955  10.270  1.00  0.00     0.124 S 
ATOM     73  O   UNL     1       9.717  26.105  10.739  1.00  0.00    -0.237 OA
ATOM     74  O   UNL     1       7.710  27.169   9.763  1.00  0.00    -0.237 OA
ATOM     75  O   UNL     1       7.488  25.106  11.092  1.00  0.00    -0.744 OA
ENDBRANCH  71  72
ENDBRANCH  39  64
ENDBRANCH  13  14
ENDBRANCH   6   8
ENDBRANCH   3   4
ENDBRANCH   2   3
ENDBRANCH   1   2
BRANCH   1  76
ATOM     76  C   UNL     1      11.251  10.727  -4.897  1.00  0.00     0.002 C 
BRANCH  76  77
ATOM     77  C   UNL     1      10.707  10.143  -3.585  1.00  0.00     0.021 C 
BRANCH  77  78
ATOM     78  C   UNL     1       9.320   9.514  -3.710  1.00  0.00     0.116 C 
BRANCH  78  79
ATOM     79  N   UNL     1       9.356   8.347  -4.562  1.00  0.00    -0.351 N 
ATOM     80  C   UNL     1       9.330   7.020  -4.295  1.00  0.00     0.278 C 
ATOM     81  H   UNL     1       9.411   8.558  -5.522  1.00  0.00     0.163 HD
ATOM     82  O   UNL     1       9.511   6.285  -5.278  1.00  0.00    -0.268 OA
BRANCH  80  83
ATOM     83  C   UNL     1       8.960   6.395  -2.930  1.00  0.00     0.274 C 
ATOM     84  C   UNL     1       9.730   5.053  -2.792  1.00  0.00     0.085 C 
ATOM     85  N   UNL     1       9.316   7.194  -1.720  1.00  0.00    -0.322 N 
ATOM     86  C   UNL     1      10.198   5.060  -1.353  1.00  0.00     0.054 C 
ATOM     87  C   UNL     1      10.480   6.537  -1.120  1.00  0.00     0.188 C 
ATOM     88  H   UNL     1       9.587   8.146  -1.968  1.00  0.00     0.349 HD
ATOM     89  C   UNL     1      11.370   4.188  -0.949  1.00  0.00     0.010 C 
ATOM     90  C   UNL     1      10.932   6.886   0.300  1.00  0.00     0.065 C 
ATOM     91  C   UNL     1      11.674   4.444   0.533  1.00  0.00     0.001 C 
ATOM     92  C   UNL     1      12.008   5.915   0.802  1.00  0.00     0.006 C 
BRANCH  85  93
ATOM     93  C   UNL     1       8.180   7.559  -0.842  1.00  0.00     0.265 C 
BRANCH  93  94
ATOM     94  C   UNL     1       7.135   6.532  -0.342  1.00  0.00     0.093 C 
BRANCH  94  95
ATOM     95  C   UNL     1       7.597   5.582   0.754  1.00  0.00     0.123 C 
ATOM     96  C   UNL     1       6.995   4.193   0.648  1.00  0.00     0.034 C 
ATOM     97  O   UNL     1       7.218   5.993   2.074  1.00  0.00    -0.378 OA
ATOM     98  C   UNL     1       7.354   3.613   1.996  1.00  0.00     0.031 C 
ATOM     99  C   UNL     1       7.426   4.834   2.907  1.00  0.00     0.160 C 
ENDBRANCH  94  95
ENDBRANCH  93  94
ENDBRANCH  85  93
ENDBRANCH  80  83
ENDBRANCH  78  79
ENDBRANCH  77  78
ENDBRANCH  76  77
ENDBRANCH   1  76
TORSDOF 19
