REMARK SMILES CC(C)(C(=O)NCCCCCCNC(=O)c1ccc(-c2c3nc(c(-c4c(F)cc(S(=O)(=O)[O-])cc4F)c4ccc([nH]4)c(-c4c(F)cc(S(=O)(=O)[O-])cc4F)c4nc(c(-c5c(F)cc(S(=O)(=O)[O-])cc5F)c5ccc2[nH]5)C=C4)C=C3)cc1)N1C(=O)/C(=C/c2ccc(C=O)cc2)SC1=S
REMARK SMILES IDX 9 1 8 2 7 3 6 4 4 5 5 6 2 8 1 9 3 10 82 11 83 12 96 13 84 14
REMARK SMILES IDX 85 15 95 16 97 17 86 18 87 19 88 20 94 21 89 22 93 23 90 24
REMARK SMILES IDX 91 25 92 26 10 27 11 28 12 29 13 30 14 31 15 33 16 34 17 35
REMARK SMILES IDX 81 36 18 37 80 38 19 39 20 40 21 41 74 42 22 43 79 44 73 45
REMARK SMILES IDX 75 46 23 47 78 48 72 49 71 50 24 52 58 53 37 54 57 55 38 56
REMARK SMILES IDX 41 57 56 58 76 59 39 60 40 61 55 63 77 64 42 65 25 66 26 67
REMARK SMILES IDX 35 68 27 69 28 70 34 71 36 72 29 73 30 74 31 75 32 76 33 77
REMARK SMILES IDX 59 78 60 79 69 80 61 81 62 82 68 83 70 84 63 85 64 86 65 87
REMARK SMILES IDX 66 88 67 89 43 90 44 91 53 92 45 93 46 94 52 95 54 96 47 97
REMARK SMILES IDX 48 98 49 99 50 100 51 101
REMARK H PARENT 6 7 13 32 75 51 41 62
REMARK Flexibility Score: inf
ROOT
ATOM      1  C   UNL     1      -3.214  -2.742   0.631  1.00  0.00     0.002 C 
ENDROOT
BRANCH   1   2
ATOM      2  C   UNL     1      -1.714  -2.437   0.673  1.00  0.00     0.021 C 
BRANCH   2   3
ATOM      3  C   UNL     1      -1.133  -2.008  -0.667  1.00  0.00     0.116 C 
BRANCH   3   4
ATOM      4  N   UNL     1      -1.564  -0.676  -1.060  1.00  0.00    -0.354 N 
ATOM      5  C   UNL     1      -0.856   0.405  -1.508  1.00  0.00     0.245 C 
ATOM      6  O   UNL     1      -1.506   1.254  -2.131  1.00  0.00    -0.272 OA
ATOM      7  H   UNL     1      -2.534  -0.527  -0.991  1.00  0.00     0.163 HD
BRANCH   5   8
ATOM      8  C   UNL     1       0.709   0.492  -1.388  1.00  0.00     0.122 C 
ATOM      9  C   UNL     1       1.236   0.161   0.020  1.00  0.00     0.046 C 
ATOM     10  C   UNL     1       1.189  -0.528  -2.450  1.00  0.00     0.046 C 
BRANCH   8  11
ATOM     11  N   UNL     1       1.149   1.911  -1.703  1.00  0.00    -0.278 N 
ATOM     12  C   UNL     1       0.489   2.959  -1.055  1.00  0.00     0.267 C 
ATOM     13  C   UNL     1       2.339   2.298  -2.299  1.00  0.00     0.149 C 
ATOM     14  O   UNL     1      -0.309   2.865  -0.131  1.00  0.00    -0.268 OA
ATOM     15  C   UNL     1       0.983   4.276  -1.540  1.00  0.00     0.081 C 
ATOM     16  S   UNL     1       2.389   4.044  -2.487  1.00  0.00    -0.054 SA
ATOM     17  S   UNL     1       3.673   1.419  -2.784  1.00  0.00    -0.052 S 
ATOM     18  C   UNL     1       0.405   5.446  -1.228  1.00  0.00     0.029 C 
BRANCH  18  19
ATOM     19  C   UNL     1       0.898   6.753  -1.684  1.00  0.00    -0.024 A 
ATOM     20  C   UNL     1       1.335   7.697  -0.747  1.00  0.00     0.009 A 
ATOM     21  C   UNL     1       0.991   7.050  -3.052  1.00  0.00     0.009 A 
ATOM     22  C   UNL     1       1.911   8.898  -1.175  1.00  0.00     0.012 A 
ATOM     23  C   UNL     1       1.581   8.239  -3.484  1.00  0.00     0.012 A 
ATOM     24  C   UNL     1       2.050   9.155  -2.542  1.00  0.00     0.014 A 
BRANCH  24  25
ATOM     25  C   UNL     1       2.714  10.388  -3.009  1.00  0.00     0.260 C 
ATOM     26  O   UNL     1       3.111  11.251  -2.236  1.00  0.00    -0.298 OA
ENDBRANCH  24  25
ENDBRANCH  18  19
ENDBRANCH   8  11
ENDBRANCH   5   8
ENDBRANCH   3   4
ENDBRANCH   2   3
ENDBRANCH   1   2
BRANCH   1  27
ATOM     27  C   UNL     1      -3.640  -3.785  -0.409  1.00  0.00     0.002 C 
BRANCH  27  28
ATOM     28  C   UNL     1      -2.888  -5.117  -0.346  1.00  0.00     0.021 C 
BRANCH  28  29
ATOM     29  C   UNL     1      -2.971  -5.832   0.998  1.00  0.00     0.116 C 
BRANCH  29  30
ATOM     30  N   UNL     1      -4.340  -6.170   1.351  1.00  0.00    -0.352 N 
ATOM     31  C   UNL     1      -4.870  -7.385   1.702  1.00  0.00     0.251 C 
ATOM     32  H   UNL     1      -4.977  -5.420   1.336  1.00  0.00     0.163 HD
ATOM     33  O   UNL     1      -6.090  -7.524   1.768  1.00  0.00    -0.269 OA
BRANCH  31  34
ATOM     34  C   UNL     1      -3.975  -8.527   1.982  1.00  0.00     0.039 A 
ATOM     35  C   UNL     1      -4.290  -9.780   1.450  1.00  0.00     0.014 A 
ATOM     36  C   UNL     1      -2.829  -8.365   2.766  1.00  0.00     0.014 A 
ATOM     37  C   UNL     1      -3.424 -10.855   1.657  1.00  0.00     0.010 A 
ATOM     38  C   UNL     1      -1.929  -9.418   2.905  1.00  0.00     0.010 A 
ATOM     39  C   UNL     1      -2.219 -10.676   2.356  1.00  0.00    -0.014 A 
BRANCH  39  40
ATOM     40  C   UNL     1      -1.249 -11.790   2.513  1.00  0.00     0.031 A 
ATOM     41  C   UNL     1      -0.911 -12.316   3.882  1.00  0.00     0.074 A 
ATOM     42  C   UNL     1      -0.630 -12.290   1.424  1.00  0.00     0.049 A 
ATOM     43  N   UNL     1      -0.054 -13.246   4.220  1.00  0.00    -0.248 NA
ATOM     44  C   UNL     1      -1.608 -11.701   5.023  1.00  0.00     0.031 C 
ATOM     45  C   UNL     1      -0.838 -11.829   0.049  1.00  0.00     0.029 A 
ATOM     46  N   UNL     1       0.304 -13.288   1.300  1.00  0.00    -0.354 N 
ATOM     47  C   UNL     1      -0.103 -13.320   5.607  1.00  0.00     0.074 A 
ATOM     48  C   UNL     1      -1.030 -12.303   6.052  1.00  0.00     0.031 C 
ATOM     49  C   UNL     1      -0.075 -12.560  -0.780  1.00  0.00     0.029 A 
ATOM     50  C   UNL     1       0.708 -13.509   0.004  1.00  0.00     0.049 A 
ATOM     51  H   UNL     1       0.652 -13.797   2.067  1.00  0.00     0.167 HD
ATOM     52  C   UNL     1       0.547 -14.175   6.433  1.00  0.00     0.037 A 
ATOM     53  C   UNL     1       1.613 -14.373  -0.496  1.00  0.00     0.037 A 
ATOM     54  C   UNL     1       1.456 -15.197   5.980  1.00  0.00     0.049 A 
ATOM     55  C   UNL     1       2.334 -15.302   0.443  1.00  0.00     0.074 A 
ATOM     56  C   UNL     1       2.123 -16.148   6.731  1.00  0.00     0.029 A 
ATOM     57  N   UNL     1       1.832 -15.396   4.659  1.00  0.00    -0.354 N 
ATOM     58  N   UNL     1       2.224 -15.405   1.746  1.00  0.00    -0.248 NA
ATOM     59  C   UNL     1       3.295 -16.238  -0.156  1.00  0.00     0.031 C 
ATOM     60  C   UNL     1       2.944 -16.887   5.873  1.00  0.00     0.029 A 
ATOM     61  C   UNL     1       2.742 -16.438   4.578  1.00  0.00     0.049 A 
ATOM     62  H   UNL     1       1.501 -14.875   3.893  1.00  0.00     0.167 HD
ATOM     63  C   UNL     1       3.081 -16.435   2.120  1.00  0.00     0.074 A 
ATOM     64  C   UNL     1       3.689 -16.932   0.903  1.00  0.00     0.031 C 
ATOM     65  C   UNL     1       3.338 -16.926   3.358  1.00  0.00     0.037 A 
BRANCH  52  66
ATOM     66  C   UNL     1       0.301 -14.044   7.913  1.00  0.00     0.058 A 
ATOM     67  C   UNL     1      -0.937 -14.374   8.489  1.00  0.00     0.135 A 
ATOM     68  C   UNL     1       1.328 -13.621   8.773  1.00  0.00     0.135 A 
ATOM     69  F   UNL     1      -1.959 -14.771   7.714  1.00  0.00    -0.206 F 
ATOM     70  C   UNL     1      -1.157 -14.261   9.858  1.00  0.00     0.059 A 
ATOM     71  C   UNL     1       1.140 -13.531  10.150  1.00  0.00     0.059 A 
ATOM     72  F   UNL     1       2.531 -13.291   8.279  1.00  0.00    -0.206 F 
ATOM     73  C   UNL     1      -0.112 -13.840  10.681  1.00  0.00     0.060 A 
BRANCH  73  74
ATOM     74  S   UNL     1      -0.414 -13.705  12.455  1.00  0.00     0.124 S 
ATOM     75  O   UNL     1      -1.287 -12.537  12.514  1.00  0.00    -0.237 OA
ATOM     76  O   UNL     1      -1.046 -14.985  12.761  1.00  0.00    -0.237 OA
ATOM     77  O   UNL     1       0.921 -13.519  13.015  1.00  0.00    -0.744 OA
ENDBRANCH  73  74
ENDBRANCH  52  66
BRANCH  53  78
ATOM     78  C   UNL     1       1.876 -14.408  -1.960  1.00  0.00     0.058 A 
ATOM     79  C   UNL     1       1.488 -15.509  -2.739  1.00  0.00     0.135 A 
ATOM     80  C   UNL     1       2.509 -13.339  -2.613  1.00  0.00     0.135 A 
ATOM     81  F   UNL     1       0.885 -16.559  -2.161  1.00  0.00    -0.206 F 
ATOM     82  C   UNL     1       1.732 -15.557  -4.107  1.00  0.00     0.059 A 
ATOM     83  C   UNL     1       2.738 -13.351  -3.985  1.00  0.00     0.059 A 
ATOM     84  F   UNL     1       2.886 -12.254  -1.918  1.00  0.00    -0.206 F 
ATOM     85  C   UNL     1       2.355 -14.470  -4.723  1.00  0.00     0.060 A 
BRANCH  85  86
ATOM     86  S   UNL     1       2.624 -14.523  -6.508  1.00  0.00     0.124 S 
ATOM     87  O   UNL     1       3.689 -15.513  -6.615  1.00  0.00    -0.237 OA
ATOM     88  O   UNL     1       1.314 -14.935  -7.001  1.00  0.00    -0.237 OA
ATOM     89  O   UNL     1       3.003 -13.150  -6.830  1.00  0.00    -0.744 OA
ENDBRANCH  85  86
ENDBRANCH  53  78
BRANCH  65  90
ATOM     90  C   UNL     1       4.293 -18.085   3.461  1.00  0.00     0.058 A 
ATOM     91  C   UNL     1       5.670 -17.932   3.242  1.00  0.00     0.135 A 
ATOM     92  C   UNL     1       3.827 -19.357   3.835  1.00  0.00     0.135 A 
ATOM     93  F   UNL     1       6.169 -16.740   2.876  1.00  0.00    -0.206 F 
ATOM     94  C   UNL     1       6.549 -19.003   3.365  1.00  0.00     0.059 A 
ATOM     95  C   UNL     1       4.691 -20.434   3.996  1.00  0.00     0.059 A 
ATOM     96  F   UNL     1       2.519 -19.557   4.067  1.00  0.00    -0.206 F 
ATOM     97  C   UNL     1       6.050 -20.250   3.747  1.00  0.00     0.060 A 
BRANCH  97  98
ATOM     98  S   UNL     1       7.207 -21.623   3.936  1.00  0.00     0.124 S 
ATOM     99  O   UNL     1       7.546 -21.916   2.547  1.00  0.00    -0.237 OA
ATOM    100  O   UNL     1       8.271 -21.025   4.737  1.00  0.00    -0.237 OA
ATOM    101  O   UNL     1       6.416 -22.644   4.617  1.00  0.00    -0.744 OA
ENDBRANCH  97  98
ENDBRANCH  65  90
ENDBRANCH  39  40
ENDBRANCH  31  34
ENDBRANCH  29  30
ENDBRANCH  28  29
ENDBRANCH  27  28
ENDBRANCH   1  27
TORSDOF 19
