REMARK SMILES C[C@H]1[C@@H](C(=O)NCCCCCCNC(=O)c2ccc(-c3c4nc(c(-c5c(F)cc(S(=O)(=O)[O-])cc5F)c5ccc([nH]5)c(-c5c(F)cc(S(=O)(=O)[O-])cc5F)c5nc(c(-c6c(F)cc(S(=O)(=O)[O-])cc6F)c6ccc3[nH]6)C=C5)C=C4)cc2)CCN1C(=O)N[C@@H]1CC[N@H+]2CCCC[C@H]12
REMARK SMILES IDX 10 1 9 2 8 3 7 4 6 5 4 6 5 7 3 9 1 10 2 11 84 12 82 13 83 14
REMARK SMILES IDX 85 15 86 16 87 17 88 19 89 20 96 21 90 22 91 23 95 24 92 25
REMARK SMILES IDX 94 27 93 28 11 29 12 30 13 31 14 32 15 34 16 35 17 36 81 37
REMARK SMILES IDX 18 38 80 39 19 40 20 41 21 42 74 43 22 44 79 45 73 46 75 47
REMARK SMILES IDX 23 48 78 49 72 50 71 51 24 53 58 54 37 55 57 56 38 57 41 58
REMARK SMILES IDX 56 59 76 60 39 61 40 62 55 64 77 65 42 66 25 67 26 68 35 69
REMARK SMILES IDX 27 70 28 71 34 72 36 73 29 74 30 75 31 76 32 77 33 78 59 79
REMARK SMILES IDX 60 80 69 81 61 82 62 83 68 84 70 85 63 86 64 87 65 88 66 89
REMARK SMILES IDX 67 90 43 91 44 92 53 93 45 94 46 95 52 96 54 97 47 98 48 99
REMARK SMILES IDX 49 100 50 101 51 102
REMARK H PARENT 6 8 87 18 91 26 13 33 75 52 41 63
REMARK Flexibility Score: inf
ROOT
ATOM      1  C   UNL     1      -4.784  -6.259  -2.983  1.00  0.00     0.002 C 
ENDROOT
BRANCH   1   2
ATOM      2  C   UNL     1      -4.513  -4.977  -2.189  1.00  0.00     0.002 C 
BRANCH   2   3
ATOM      3  C   UNL     1      -3.761  -5.173  -0.865  1.00  0.00     0.021 C 
BRANCH   3   4
ATOM      4  C   UNL     1      -2.498  -6.024  -0.975  1.00  0.00     0.116 C 
BRANCH   4   5
ATOM      5  N   UNL     1      -1.582  -5.498  -1.969  1.00  0.00    -0.356 N 
ATOM      6  C   UNL     1      -0.305  -5.047  -1.846  1.00  0.00     0.225 C 
ATOM      7  O   UNL     1       0.314  -4.821  -2.884  1.00  0.00    -0.275 OA
ATOM      8  H   UNL     1      -1.944  -5.461  -2.884  1.00  0.00     0.163 HD
BRANCH   6   9
ATOM      9  C   UNL     1       0.306  -4.939  -0.461  1.00  0.00     0.102 C 
ATOM     10  C   UNL     1       1.264  -2.643  -1.229  1.00  0.00     0.032 C 
ATOM     11  C   UNL     1       1.214  -3.725  -0.158  1.00  0.00     0.096 C 
ATOM     12  N   UNL     1       2.536  -4.273   0.136  1.00  0.00    -0.321 N 
ATOM     13  C   UNL     1       1.185  -6.166  -0.204  1.00  0.00     0.037 C 
ATOM     14  C   UNL     1       2.602  -5.641  -0.352  1.00  0.00     0.122 C 
BRANCH  12  15
ATOM     15  C   UNL     1       3.645  -3.708   0.686  1.00  0.00     0.318 C 
ATOM     16  O   UNL     1       4.729  -4.301   0.688  1.00  0.00    -0.249 OA
ATOM     17  N   UNL     1       3.653  -2.491   1.265  1.00  0.00    -0.329 N 
ATOM     18  H   UNL     1       4.566  -2.211   1.503  1.00  0.00     0.165 HD
BRANCH  17  19
ATOM     19  C   UNL     1       2.670  -1.477   1.636  1.00  0.00     0.147 C 
ATOM     20  C   UNL     1       2.737  -0.251   0.703  1.00  0.00     0.092 C 
ATOM     21  C   UNL     1       2.870  -0.859   3.037  1.00  0.00     0.207 C 
ATOM     22  C   UNL     1       2.838   0.966   1.610  1.00  0.00     0.264 C 
ATOM     23  N   UNL     1       3.532   0.429   2.771  1.00  0.00    -0.331 N 
ATOM     24  C   UNL     1       3.662  -1.632   4.084  1.00  0.00     0.067 C 
ATOM     25  C   UNL     1       3.481   1.296   3.943  1.00  0.00     0.262 C 
ATOM     26  H   UNL     1       4.530   0.336   2.578  1.00  0.00     0.348 HD
ATOM     27  C   UNL     1       3.714  -0.805   5.375  1.00  0.00     0.012 C 
ATOM     28  C   UNL     1       4.209   0.623   5.112  1.00  0.00     0.062 C 
ENDBRANCH  17  19
ENDBRANCH  12  15
ENDBRANCH   6   9
ENDBRANCH   4   5
ENDBRANCH   3   4
ENDBRANCH   2   3
ENDBRANCH   1   2
BRANCH   1  29
ATOM     29  C   UNL     1      -5.524  -7.352  -2.213  1.00  0.00     0.021 C 
BRANCH  29  30
ATOM     30  C   UNL     1      -6.880  -6.928  -1.666  1.00  0.00     0.116 C 
BRANCH  30  31
ATOM     31  N   UNL     1      -7.809  -6.579  -2.728  1.00  0.00    -0.352 N 
ATOM     32  C   UNL     1      -9.067  -7.072  -2.967  1.00  0.00     0.251 C 
ATOM     33  H   UNL     1      -7.492  -5.896  -3.363  1.00  0.00     0.163 HD
ATOM     34  O   UNL     1      -9.635  -6.821  -4.028  1.00  0.00    -0.269 OA
BRANCH  32  35
ATOM     35  C   UNL     1      -9.722  -7.921  -1.951  1.00  0.00     0.039 A 
ATOM     36  C   UNL     1     -10.362  -9.093  -2.358  1.00  0.00     0.014 A 
ATOM     37  C   UNL     1      -9.689  -7.568  -0.599  1.00  0.00     0.014 A 
ATOM     38  C   UNL     1     -10.921  -9.941  -1.399  1.00  0.00     0.010 A 
ATOM     39  C   UNL     1     -10.173  -8.453   0.359  1.00  0.00     0.010 A 
ATOM     40  C   UNL     1     -10.800  -9.646  -0.031  1.00  0.00    -0.014 A 
BRANCH  40  41
ATOM     41  C   UNL     1     -11.323 -10.573   1.004  1.00  0.00     0.031 A 
ATOM     42  C   UNL     1     -12.422 -10.128   1.932  1.00  0.00     0.074 A 
ATOM     43  C   UNL     1     -10.771 -11.795   1.144  1.00  0.00     0.049 A 
ATOM     44  N   UNL     1     -12.973 -10.774   2.928  1.00  0.00    -0.248 NA
ATOM     45  C   UNL     1     -12.953  -8.770   1.732  1.00  0.00     0.031 C 
ATOM     46  C   UNL     1      -9.669 -12.322   0.336  1.00  0.00     0.029 A 
ATOM     47  N   UNL     1     -11.055 -12.813   2.019  1.00  0.00    -0.354 N 
ATOM     48  C   UNL     1     -13.906  -9.901   3.476  1.00  0.00     0.074 A 
ATOM     49  C   UNL     1     -13.803  -8.659   2.742  1.00  0.00     0.031 C 
ATOM     50  C   UNL     1      -9.390 -13.573   0.734  1.00  0.00     0.029 A 
ATOM     51  C   UNL     1     -10.261 -13.923   1.853  1.00  0.00     0.049 A 
ATOM     52  H   UNL     1     -11.761 -12.754   2.703  1.00  0.00     0.167 HD
ATOM     53  C   UNL     1     -14.785 -10.123   4.482  1.00  0.00     0.037 A 
ATOM     54  C   UNL     1     -10.230 -15.088   2.529  1.00  0.00     0.037 A 
ATOM     55  C   UNL     1     -14.891 -11.369   5.196  1.00  0.00     0.049 A 
ATOM     56  C   UNL     1     -11.204 -15.305   3.656  1.00  0.00     0.074 A 
ATOM     57  C   UNL     1     -15.785 -11.715   6.194  1.00  0.00     0.029 A 
ATOM     58  N   UNL     1     -14.073 -12.472   4.995  1.00  0.00    -0.354 N 
ATOM     59  N   UNL     1     -12.126 -14.493   4.116  1.00  0.00    -0.248 NA
ATOM     60  C   UNL     1     -11.137 -16.596   4.353  1.00  0.00     0.031 C 
ATOM     61  C   UNL     1     -15.472 -13.004   6.635  1.00  0.00     0.029 A 
ATOM     62  C   UNL     1     -14.422 -13.488   5.870  1.00  0.00     0.049 A 
ATOM     63  H   UNL     1     -13.350 -12.525   4.328  1.00  0.00     0.167 HD
ATOM     64  C   UNL     1     -12.767 -15.186   5.138  1.00  0.00     0.074 A 
ATOM     65  C   UNL     1     -12.137 -16.487   5.217  1.00  0.00     0.031 C 
ATOM     66  C   UNL     1     -13.786 -14.781   5.937  1.00  0.00     0.037 A 
BRANCH  53  67
ATOM     67  C   UNL     1     -15.703  -8.995   4.869  1.00  0.00     0.058 A 
ATOM     68  C   UNL     1     -16.727  -8.548   4.017  1.00  0.00     0.135 A 
ATOM     69  C   UNL     1     -15.580  -8.371   6.122  1.00  0.00     0.135 A 
ATOM     70  F   UNL     1     -16.883  -9.096   2.802  1.00  0.00    -0.206 F 
ATOM     71  C   UNL     1     -17.571  -7.503   4.378  1.00  0.00     0.059 A 
ATOM     72  C   UNL     1     -16.434  -7.346   6.517  1.00  0.00     0.059 A 
ATOM     73  F   UNL     1     -14.620  -8.757   6.977  1.00  0.00    -0.206 F 
ATOM     74  C   UNL     1     -17.417  -6.908   5.631  1.00  0.00     0.060 A 
BRANCH  74  75
ATOM     75  S   UNL     1     -18.522  -5.554   6.082  1.00  0.00     0.124 S 
ATOM     76  O   UNL     1     -18.035  -4.482   5.218  1.00  0.00    -0.237 OA
ATOM     77  O   UNL     1     -19.833  -6.095   5.741  1.00  0.00    -0.237 OA
ATOM     78  O   UNL     1     -18.272  -5.371   7.508  1.00  0.00    -0.744 OA
ENDBRANCH  74  75
ENDBRANCH  53  67
BRANCH  54  79
ATOM     79  C   UNL     1      -9.255 -16.144   2.146  1.00  0.00     0.058 A 
ATOM     80  C   UNL     1      -9.683 -17.343   1.557  1.00  0.00     0.135 A 
ATOM     81  C   UNL     1      -7.876 -15.972   2.348  1.00  0.00     0.135 A 
ATOM     82  F   UNL     1     -10.991 -17.559   1.349  1.00  0.00    -0.206 F 
ATOM     83  C   UNL     1      -8.783 -18.341   1.196  1.00  0.00     0.059 A 
ATOM     84  C   UNL     1      -6.954 -16.943   1.969  1.00  0.00     0.059 A 
ATOM     85  F   UNL     1      -7.412 -14.837   2.893  1.00  0.00    -0.206 F 
ATOM     86  C   UNL     1      -7.419 -18.129   1.403  1.00  0.00     0.060 A 
BRANCH  86  87
ATOM     87  S   UNL     1      -6.256 -19.410   0.884  1.00  0.00     0.124 S 
ATOM     88  O   UNL     1      -6.503 -20.449   1.876  1.00  0.00    -0.237 OA
ATOM     89  O   UNL     1      -6.707 -19.700  -0.473  1.00  0.00    -0.237 OA
ATOM     90  O   UNL     1      -4.960 -18.743   0.977  1.00  0.00    -0.744 OA
ENDBRANCH  86  87
ENDBRANCH  54  79
BRANCH  66  91
ATOM     91  C   UNL     1     -14.306 -15.765   6.950  1.00  0.00     0.058 A 
ATOM     92  C   UNL     1     -13.563 -16.120   8.086  1.00  0.00     0.135 A 
ATOM     93  C   UNL     1     -15.590 -16.319   6.807  1.00  0.00     0.135 A 
ATOM     94  F   UNL     1     -12.328 -15.626   8.268  1.00  0.00    -0.206 F 
ATOM     95  C   UNL     1     -14.064 -17.008   9.033  1.00  0.00     0.059 A 
ATOM     96  C   UNL     1     -16.123 -17.183   7.758  1.00  0.00     0.059 A 
ATOM     97  F   UNL     1     -16.348 -16.005   5.745  1.00  0.00    -0.206 F 
ATOM     98  C   UNL     1     -15.347 -17.531   8.862  1.00  0.00     0.060 A 
BRANCH  98  99
ATOM     99  S   UNL     1     -15.996 -18.653  10.118  1.00  0.00     0.124 S 
ATOM    100  O   UNL     1     -15.210 -19.857   9.873  1.00  0.00    -0.237 OA
ATOM    101  O   UNL     1     -15.696 -17.941  11.357  1.00  0.00    -0.237 OA
ATOM    102  O   UNL     1     -17.415 -18.751   9.787  1.00  0.00    -0.744 OA
ENDBRANCH  98  99
ENDBRANCH  66  91
ENDBRANCH  40  41
ENDBRANCH  32  35
ENDBRANCH  30  31
ENDBRANCH  29  30
ENDBRANCH   1  29
TORSDOF 18
