REMARK SMILES O=C(C[C@@H]([NH2+]Cc1cccnc1)C(=O)NCCCCCCNC(=O)c1ccc(-c2c3nc(c(-c4c(F)cc(S(=O)(=O)[O-])cc4F)c4ccc([nH]4)c(-c4c(F)cc(S(=O)(=O)[O-])cc4F)c4nc(c(-c5c(F)cc(S(=O)(=O)[O-])cc5F)c5ccc2[nH]5)C=C4)C=C3)cc1)Nc1ccc2ccccc2c1
REMARK SMILES IDX 18 1 17 2 16 3 15 4 13 5 14 6 4 8 3 9 2 10 1 11 91 12 92 14
REMARK SMILES IDX 93 15 101 16 94 17 100 18 95 19 99 20 96 21 98 22 97 23 5 24
REMARK SMILES IDX 6 27 7 28 8 29 12 30 9 31 11 32 10 33 19 34 20 35 21 36
REMARK SMILES IDX 22 37 23 38 24 40 25 41 26 42 90 43 27 44 89 45 28 46 29 47
REMARK SMILES IDX 30 48 83 49 31 50 88 51 82 52 84 53 32 54 87 55 81 56 80 57
REMARK SMILES IDX 33 59 67 60 46 61 66 62 47 63 50 64 65 65 85 66 48 67 49 68
REMARK SMILES IDX 64 70 86 71 51 72 34 73 35 74 44 75 36 76 37 77 43 78 45 79
REMARK SMILES IDX 38 80 39 81 40 82 41 83 42 84 68 85 69 86 78 87 70 88 71 89
REMARK SMILES IDX 77 90 79 91 72 92 73 93 74 94 75 95 76 96 52 97 53 98 62 99
REMARK SMILES IDX 54 100 55 101 61 102 63 103 56 104 57 105 58 106 59 107
REMARK SMILES IDX 60 108
REMARK H PARENT 15 7 91 13 5 25 5 26 22 39 84 58 50 69
REMARK Flexibility Score: inf
ROOT
ATOM      1  C   UNL     1       6.253  -1.160   4.542  1.00  0.00     0.002 C 
ENDROOT
BRANCH   1   2
ATOM      2  C   UNL     1       5.402  -0.440   3.488  1.00  0.00     0.021 C 
BRANCH   2   3
ATOM      3  C   UNL     1       5.780  -0.806   2.053  1.00  0.00     0.116 C 
BRANCH   3   4
ATOM      4  N   UNL     1       5.354  -2.162   1.760  1.00  0.00    -0.351 N 
ATOM      5  C   UNL     1       4.378  -2.613   0.924  1.00  0.00     0.278 C 
ATOM      6  O   UNL     1       4.168  -3.829   0.893  1.00  0.00    -0.268 OA
ATOM      7  H   UNL     1       5.848  -2.865   2.240  1.00  0.00     0.163 HD
BRANCH   5   8
ATOM      8  C   UNL     1       3.608  -1.651  -0.003  1.00  0.00     0.282 C 
BRANCH   8   9
ATOM      9  C   UNL     1       2.721  -0.690   0.821  1.00  0.00     0.175 C 
BRANCH   9  10
ATOM     10  C   UNL     1       1.899   0.265  -0.026  1.00  0.00     0.230 C 
ATOM     11  O   UNL     1       0.677   0.177  -0.091  1.00  0.00    -0.274 OA
ATOM     12  N   UNL     1       2.685   1.169  -0.727  1.00  0.00    -0.326 N 
ATOM     13  H   UNL     1       3.612   1.323  -0.435  1.00  0.00     0.169 HD
BRANCH  12  14
ATOM     14  C   UNL     1       2.196   1.871  -1.841  1.00  0.00     0.041 A 
ATOM     15  C   UNL     1       2.764   1.590  -3.082  1.00  0.00     0.027 A 
ATOM     16  C   UNL     1       1.187   2.826  -1.736  1.00  0.00     0.034 A 
ATOM     17  C   UNL     1       2.223   2.138  -4.240  1.00  0.00     0.011 A 
ATOM     18  C   UNL     1       0.747   3.511  -2.886  1.00  0.00    -0.016 A 
ATOM     19  C   UNL     1       1.218   3.104  -4.157  1.00  0.00    -0.018 A 
ATOM     20  C   UNL     1      -0.125   4.610  -2.817  1.00  0.00     0.009 A 
ATOM     21  C   UNL     1       0.711   3.703  -5.318  1.00  0.00     0.009 A 
ATOM     22  C   UNL     1      -0.546   5.263  -3.979  1.00  0.00     0.001 A 
ATOM     23  C   UNL     1      -0.159   4.786  -5.229  1.00  0.00     0.001 A 
ENDBRANCH  12  14
ENDBRANCH   9  10
ENDBRANCH   8   9
BRANCH   8  24
ATOM     24  N   UNL     1       4.538  -0.954  -0.946  1.00  0.00    -0.332 N 
ATOM     25  H   UNL     1       5.103  -0.297  -0.409  1.00  0.00     0.347 HD
ATOM     26  H   UNL     1       3.953  -0.498  -1.647  1.00  0.00     0.347 HD
BRANCH  24  27
ATOM     27  C   UNL     1       5.450  -1.853  -1.681  1.00  0.00     0.299 C 
BRANCH  27  28
ATOM     28  C   UNL     1       4.759  -2.776  -2.649  1.00  0.00     0.024 A 
ATOM     29  C   UNL     1       4.895  -4.162  -2.554  1.00  0.00     0.013 A 
ATOM     30  C   UNL     1       3.964  -2.291  -3.684  1.00  0.00     0.120 A 
ATOM     31  C   UNL     1       4.220  -4.986  -3.450  1.00  0.00     0.021 A 
ATOM     32  N   UNL     1       3.290  -3.063  -4.564  1.00  0.00    -0.264 NA
ATOM     33  C   UNL     1       3.425  -4.396  -4.419  1.00  0.00     0.111 A 
ENDBRANCH  27  28
ENDBRANCH  24  27
ENDBRANCH   8  24
ENDBRANCH   5   8
ENDBRANCH   3   4
ENDBRANCH   2   3
ENDBRANCH   1   2
BRANCH   1  34
ATOM     34  C   UNL     1       7.757  -0.882   4.445  1.00  0.00     0.002 C 
BRANCH  34  35
ATOM     35  C   UNL     1       8.136   0.600   4.469  1.00  0.00     0.021 C 
BRANCH  35  36
ATOM     36  C   UNL     1       7.675   1.343   5.718  1.00  0.00     0.116 C 
BRANCH  36  37
ATOM     37  N   UNL     1       8.299   0.814   6.920  1.00  0.00    -0.352 N 
ATOM     38  C   UNL     1       9.032   1.472   7.877  1.00  0.00     0.251 C 
ATOM     39  H   UNL     1       8.180  -0.152   7.068  1.00  0.00     0.163 HD
ATOM     40  O   UNL     1       9.674   0.835   8.703  1.00  0.00    -0.269 OA
BRANCH  38  41
ATOM     41  C   UNL     1       9.052   2.950   7.891  1.00  0.00     0.039 A 
ATOM     42  C   UNL     1      10.270   3.609   8.072  1.00  0.00     0.014 A 
ATOM     43  C   UNL     1       7.872   3.682   7.724  1.00  0.00     0.014 A 
ATOM     44  C   UNL     1      10.311   5.004   8.030  1.00  0.00     0.010 A 
ATOM     45  C   UNL     1       7.928   5.067   7.604  1.00  0.00     0.010 A 
ATOM     46  C   UNL     1       9.147   5.744   7.761  1.00  0.00    -0.014 A 
BRANCH  46  47
ATOM     47  C   UNL     1       9.187   7.224   7.641  1.00  0.00     0.031 A 
ATOM     48  C   UNL     1       8.419   8.083   8.610  1.00  0.00     0.074 A 
ATOM     49  C   UNL     1       9.867   7.791   6.625  1.00  0.00     0.049 A 
ATOM     50  N   UNL     1       8.285   9.384   8.632  1.00  0.00    -0.248 NA
ATOM     51  C   UNL     1       7.684   7.387   9.679  1.00  0.00     0.031 C 
ATOM     52  C   UNL     1      10.611   7.062   5.595  1.00  0.00     0.029 A 
ATOM     53  N   UNL     1      10.037   9.109   6.283  1.00  0.00    -0.354 N 
ATOM     54  C   UNL     1       7.446   9.661   9.705  1.00  0.00     0.074 A 
ATOM     55  C   UNL     1       7.055   8.390  10.274  1.00  0.00     0.031 C 
ATOM     56  C   UNL     1      11.176   7.942   4.754  1.00  0.00     0.029 A 
ATOM     57  C   UNL     1      10.801   9.294   5.155  1.00  0.00     0.049 A 
ATOM     58  H   UNL     1       9.647   9.853   6.798  1.00  0.00     0.167 HD
ATOM     59  C   UNL     1       7.057  10.866  10.188  1.00  0.00     0.037 A 
ATOM     60  C   UNL     1      11.152  10.424   4.510  1.00  0.00     0.037 A 
ATOM     61  C   UNL     1       7.465  12.127   9.625  1.00  0.00     0.049 A 
ATOM     62  C   UNL     1      10.695  11.750   5.056  1.00  0.00     0.074 A 
ATOM     63  C   UNL     1       7.172  13.403  10.073  1.00  0.00     0.029 A 
ATOM     64  N   UNL     1       8.249  12.274   8.489  1.00  0.00    -0.354 N 
ATOM     65  N   UNL     1       9.958  11.996   6.113  1.00  0.00    -0.248 NA
ATOM     66  C   UNL     1      11.121  12.952   4.327  1.00  0.00     0.031 C 
ATOM     67  C   UNL     1       7.730  14.320   9.177  1.00  0.00     0.029 A 
ATOM     68  C   UNL     1       8.425  13.618   8.205  1.00  0.00     0.049 A 
ATOM     69  H   UNL     1       8.624  11.531   7.962  1.00  0.00     0.167 HD
ATOM     70  C   UNL     1       9.856  13.381   6.192  1.00  0.00     0.074 A 
ATOM     71  C   UNL     1      10.619  13.918   5.084  1.00  0.00     0.031 C 
ATOM     72  C   UNL     1       9.192  14.139   7.100  1.00  0.00     0.037 A 
BRANCH  59  73
ATOM     73  C   UNL     1       6.143  10.879  11.384  1.00  0.00     0.058 A 
ATOM     74  C   UNL     1       6.581  10.470  12.654  1.00  0.00     0.135 A 
ATOM     75  C   UNL     1       4.821  11.341  11.268  1.00  0.00     0.135 A 
ATOM     76  F   UNL     1       7.829  10.005  12.822  1.00  0.00    -0.206 F 
ATOM     77  C   UNL     1       5.735  10.491  13.758  1.00  0.00     0.059 A 
ATOM     78  C   UNL     1       3.967  11.400  12.365  1.00  0.00     0.059 A 
ATOM     79  F   UNL     1       4.348  11.744  10.078  1.00  0.00    -0.206 F 
ATOM     80  C   UNL     1       4.429  10.959  13.604  1.00  0.00     0.060 A 
BRANCH  80  81
ATOM     81  S   UNL     1       3.348  10.983  15.049  1.00  0.00     0.124 S 
ATOM     82  O   UNL     1       3.098   9.559  15.249  1.00  0.00    -0.237 OA
ATOM     83  O   UNL     1       4.187  11.627  16.055  1.00  0.00    -0.237 OA
ATOM     84  O   UNL     1       2.199  11.764  14.602  1.00  0.00    -0.744 OA
ENDBRANCH  80  81
ENDBRANCH  59  73
BRANCH  60  85
ATOM     85  C   UNL     1      11.994  10.350   3.285  1.00  0.00     0.058 A 
ATOM     86  C   UNL     1      13.318  10.815   3.288  1.00  0.00     0.135 A 
ATOM     87  C   UNL     1      11.498   9.803   2.092  1.00  0.00     0.135 A 
ATOM     88  F   UNL     1      13.838  11.352   4.402  1.00  0.00    -0.206 F 
ATOM     89  C   UNL     1      14.114  10.757   2.149  1.00  0.00     0.059 A 
ATOM     90  C   UNL     1      12.284   9.707   0.948  1.00  0.00     0.059 A 
ATOM     91  F   UNL     1      10.244   9.327   2.040  1.00  0.00    -0.206 F 
ATOM     92  C   UNL     1      13.588  10.197   0.983  1.00  0.00     0.060 A 
BRANCH  92  93
ATOM     93  S   UNL     1      14.646  10.081  -0.476  1.00  0.00     0.124 S 
ATOM     94  O   UNL     1      14.733  11.477  -0.888  1.00  0.00    -0.237 OA
ATOM     95  O   UNL     1      15.866   9.500   0.077  1.00  0.00    -0.237 OA
ATOM     96  O   UNL     1      13.893   9.205  -1.368  1.00  0.00    -0.744 OA
ENDBRANCH  92  93
ENDBRANCH  60  85
BRANCH  72  97
ATOM     97  C   UNL     1       9.287  15.634   6.958  1.00  0.00     0.058 A 
ATOM     98  C   UNL     1       8.641  16.323   5.919  1.00  0.00     0.135 A 
ATOM     99  C   UNL     1       9.992  16.393   7.907  1.00  0.00     0.135 A 
ATOM    100  F   UNL     1       7.959  15.646   4.981  1.00  0.00    -0.206 F 
ATOM    101  C   UNL     1       8.712  17.708   5.811  1.00  0.00     0.059 A 
ATOM    102  C   UNL     1      10.049  17.782   7.837  1.00  0.00     0.059 A 
ATOM    103  F   UNL     1      10.619  15.787   8.927  1.00  0.00    -0.206 F 
ATOM    104  C   UNL     1       9.416  18.429   6.777  1.00  0.00     0.060 A 
BRANCH 104 105
ATOM    105  S   UNL     1       9.471  20.229   6.643  1.00  0.00     0.124 S 
ATOM    106  O   UNL     1      10.368  20.412   5.507  1.00  0.00    -0.237 OA
ATOM    107  O   UNL     1       8.071  20.566   6.406  1.00  0.00    -0.237 OA
ATOM    108  O   UNL     1      10.002  20.651   7.936  1.00  0.00    -0.744 OA
ENDBRANCH 104 105
ENDBRANCH  72  97
ENDBRANCH  46  47
ENDBRANCH  38  41
ENDBRANCH  36  37
ENDBRANCH  35  36
ENDBRANCH  34  35
ENDBRANCH   1  34
TORSDOF 22
