REMARK SMILES Cc1oc2cc(OCC(=O)NCCCCCCNC(=O)c3ccc(-c4c5nc(c(-c6c(F)cc(S(=O)(=O)[O-])cc6F)c6ccc([nH]6)c(-c6c(F)cc(S(=O)(=O)[O-])cc6F)c6nc(c(-c7c(F)cc(S(=O)(=O)[O-])cc7F)c7ccc4[nH]7)C=C6)C=C5)cc3)ccc2c(=O)c1Oc1ccc(Cl)cc1Cl
REMARK SMILES IDX 14 1 13 2 12 3 11 4 9 5 10 6 8 8 7 9 6 10 1 11 2 12 3 13
REMARK SMILES IDX 92 14 4 15 90 16 5 17 89 18 91 19 88 20 87 21 93 22 94 23
REMARK SMILES IDX 95 24 100 25 96 26 99 27 101 28 97 29 98 30 15 31 16 32
REMARK SMILES IDX 17 33 18 34 19 35 20 37 21 38 22 39 86 40 23 41 85 42 24 43
REMARK SMILES IDX 25 44 26 45 79 46 27 47 84 48 78 49 80 50 28 51 83 52 77 53
REMARK SMILES IDX 76 54 29 56 63 57 42 58 62 59 43 60 46 61 61 62 81 63 44 64
REMARK SMILES IDX 45 65 60 67 82 68 47 69 30 70 31 71 40 72 32 73 33 74 39 75
REMARK SMILES IDX 41 76 34 77 35 78 36 79 37 80 38 81 64 82 65 83 74 84 66 85
REMARK SMILES IDX 67 86 73 87 75 88 68 89 69 90 70 91 71 92 72 93 48 94 49 95
REMARK SMILES IDX 58 96 50 97 51 98 57 99 59 100 52 101 53 102 54 103 55 104
REMARK SMILES IDX 56 105
REMARK H PARENT 11 7 18 36 80 55 46 66
REMARK Flexibility Score: inf
ROOT
ATOM      1  C   UNL     1       4.205   2.151  -4.638  1.00  0.00     0.002 C 
ENDROOT
BRANCH   1   2
ATOM      2  C   UNL     1       4.674   1.798  -3.220  1.00  0.00     0.021 C 
BRANCH   2   3
ATOM      3  C   UNL     1       5.034   3.004  -2.355  1.00  0.00     0.116 C 
BRANCH   3   4
ATOM      4  N   UNL     1       3.883   3.849  -2.107  1.00  0.00    -0.353 N 
ATOM      5  C   UNL     1       3.238   4.056  -0.924  1.00  0.00     0.257 C 
ATOM      6  O   UNL     1       2.277   4.828  -0.894  1.00  0.00    -0.271 OA
ATOM      7  H   UNL     1       3.524   4.331  -2.886  1.00  0.00     0.163 HD
BRANCH   5   8
ATOM      8  C   UNL     1       3.744   3.349   0.342  1.00  0.00     0.329 C 
BRANCH   8   9
ATOM      9  O   UNL     1       3.848   1.931   0.286  1.00  0.00    -0.484 OA
BRANCH   9  10
ATOM     10  C   UNL     1       2.688   1.212   0.216  1.00  0.00     0.123 A 
ATOM     11  C   UNL     1      -3.204   1.774   0.484  1.00  0.00     0.092 C 
ATOM     12  C   UNL     1      -2.071   0.818   0.245  1.00  0.00     0.148 A 
ATOM     13  O   UNL     1      -0.906   1.558   0.160  1.00  0.00    -0.457 OA
ATOM     14  C   UNL     1      -2.108  -0.536   0.139  1.00  0.00     0.213 A 
ATOM     15  C   UNL     1       0.296   0.927   0.140  1.00  0.00     0.142 A 
ATOM     16  C   UNL     1      -0.792  -1.254   0.002  1.00  0.00     0.235 A 
ATOM     17  C   UNL     1       1.410   1.756   0.224  1.00  0.00     0.094 A 
ATOM     18  C   UNL     1       0.432  -0.445   0.054  1.00  0.00     0.069 A 
ATOM     19  O   UNL     1      -0.725  -2.474  -0.108  1.00  0.00    -0.285 OA
ATOM     20  C   UNL     1       1.710  -1.010   0.046  1.00  0.00     0.020 A 
ATOM     21  C   UNL     1       2.834  -0.177   0.128  1.00  0.00     0.047 A 
BRANCH  14  22
ATOM     22  O   UNL     1      -3.202  -1.399   0.168  1.00  0.00    -0.448 OA
BRANCH  22  23
ATOM     23  C   UNL     1      -4.483  -0.921   0.132  1.00  0.00     0.146 A 
ATOM     24  C   UNL     1      -5.217  -1.008   1.319  1.00  0.00     0.050 A 
ATOM     25  C   UNL     1      -5.062  -0.373  -1.019  1.00  0.00     0.085 A 
ATOM     26  C   UNL     1      -6.488  -0.439   1.389  1.00  0.00     0.024 A 
ATOM     27  C   UNL     1      -6.330   0.205  -0.944  1.00  0.00     0.045 A 
ATOM     28  Cl  UNL     1      -4.232  -0.340  -2.530  1.00  0.00    -0.080 Cl
ATOM     29  C   UNL     1      -7.027   0.187   0.265  1.00  0.00     0.042 A 
ATOM     30  Cl  UNL     1      -8.560   0.959   0.377  1.00  0.00    -0.084 Cl
ENDBRANCH  22  23
ENDBRANCH  14  22
ENDBRANCH   9  10
ENDBRANCH   8   9
ENDBRANCH   5   8
ENDBRANCH   3   4
ENDBRANCH   2   3
ENDBRANCH   1   2
BRANCH   1  31
ATOM     31  C   UNL     1       5.152   3.055  -5.434  1.00  0.00     0.002 C 
BRANCH  31  32
ATOM     32  C   UNL     1       6.594   2.552  -5.542  1.00  0.00     0.021 C 
BRANCH  32  33
ATOM     33  C   UNL     1       6.743   1.184  -6.198  1.00  0.00     0.116 C 
BRANCH  33  34
ATOM     34  N   UNL     1       6.310   1.194  -7.586  1.00  0.00    -0.352 N 
ATOM     35  C   UNL     1       6.993   0.806  -8.711  1.00  0.00     0.251 C 
ATOM     36  H   UNL     1       5.396   1.525  -7.740  1.00  0.00     0.163 HD
ATOM     37  O   UNL     1       6.540   1.073  -9.823  1.00  0.00    -0.269 OA
BRANCH  35  38
ATOM     38  C   UNL     1       8.281   0.090  -8.586  1.00  0.00     0.039 A 
ATOM     39  C   UNL     1       9.346   0.465  -9.409  1.00  0.00     0.014 A 
ATOM     40  C   UNL     1       8.439  -0.948  -7.664  1.00  0.00     0.014 A 
ATOM     41  C   UNL     1      10.586  -0.160  -9.263  1.00  0.00     0.010 A 
ATOM     42  C   UNL     1       9.696  -1.516  -7.467  1.00  0.00     0.010 A 
ATOM     43  C   UNL     1      10.783  -1.131  -8.266  1.00  0.00    -0.014 A 
BRANCH  43  44
ATOM     44  C   UNL     1      12.119  -1.742  -8.041  1.00  0.00     0.031 A 
ATOM     45  C   UNL     1      12.321  -3.222  -8.237  1.00  0.00     0.074 A 
ATOM     46  C   UNL     1      13.136  -0.974  -7.599  1.00  0.00     0.049 A 
ATOM     47  N   UNL     1      13.395  -3.941  -8.034  1.00  0.00    -0.248 NA
ATOM     48  C   UNL     1      11.158  -3.999  -8.695  1.00  0.00     0.031 C 
ATOM     49  C   UNL     1      13.050   0.461  -7.319  1.00  0.00     0.029 A 
ATOM     50  N   UNL     1      14.436  -1.292  -7.293  1.00  0.00    -0.354 N 
ATOM     51  C   UNL     1      13.034  -5.253  -8.321  1.00  0.00     0.074 A 
ATOM     52  C   UNL     1      11.630  -5.238  -8.667  1.00  0.00     0.031 C 
ATOM     53  C   UNL     1      14.248   0.901  -6.901  1.00  0.00     0.029 A 
ATOM     54  C   UNL     1      15.175  -0.224  -6.841  1.00  0.00     0.049 A 
ATOM     55  H   UNL     1      14.805  -2.200  -7.389  1.00  0.00     0.167 HD
ATOM     56  C   UNL     1      13.807  -6.365  -8.313  1.00  0.00     0.037 A 
ATOM     57  C   UNL     1      16.451  -0.158  -6.412  1.00  0.00     0.037 A 
ATOM     58  C   UNL     1      15.212  -6.366  -7.995  1.00  0.00     0.049 A 
ATOM     59  C   UNL     1      17.291  -1.408  -6.420  1.00  0.00     0.074 A 
ATOM     60  C   UNL     1      16.101  -7.426  -8.038  1.00  0.00     0.029 A 
ATOM     61  N   UNL     1      15.932  -5.260  -7.568  1.00  0.00    -0.354 N 
ATOM     62  N   UNL     1      16.955  -2.624  -6.777  1.00  0.00    -0.248 NA
ATOM     63  C   UNL     1      18.686  -1.276  -5.975  1.00  0.00     0.031 C 
ATOM     64  C   UNL     1      17.342  -6.976  -7.578  1.00  0.00     0.029 A 
ATOM     65  C   UNL     1      17.245  -5.620  -7.312  1.00  0.00     0.049 A 
ATOM     66  H   UNL     1      15.564  -4.353  -7.463  1.00  0.00     0.167 HD
ATOM     67  C   UNL     1      18.103  -3.396  -6.628  1.00  0.00     0.074 A 
ATOM     68  C   UNL     1      19.145  -2.506  -6.162  1.00  0.00     0.031 C 
ATOM     69  C   UNL     1      18.277  -4.721  -6.855  1.00  0.00     0.037 A 
BRANCH  56  70
ATOM     70  C   UNL     1      13.159  -7.679  -8.656  1.00  0.00     0.058 A 
ATOM     71  C   UNL     1      12.727  -7.977  -9.958  1.00  0.00     0.135 A 
ATOM     72  C   UNL     1      13.027  -8.681  -7.680  1.00  0.00     0.135 A 
ATOM     73  F   UNL     1      12.815  -7.053 -10.928  1.00  0.00    -0.206 F 
ATOM     74  C   UNL     1      12.168  -9.211 -10.275  1.00  0.00     0.059 A 
ATOM     75  C   UNL     1      12.499  -9.933  -7.981  1.00  0.00     0.059 A 
ATOM     76  F   UNL     1      13.423  -8.451  -6.418  1.00  0.00    -0.206 F 
ATOM     77  C   UNL     1      12.063 -10.185  -9.280  1.00  0.00     0.060 A 
BRANCH  77  78
ATOM     78  S   UNL     1      11.359 -11.789  -9.716  1.00  0.00     0.124 S 
ATOM     79  O   UNL     1       9.953 -11.448  -9.907  1.00  0.00    -0.237 OA
ATOM     80  O   UNL     1      12.097 -12.133 -10.928  1.00  0.00    -0.237 OA
ATOM     81  O   UNL     1      11.651 -12.618  -8.551  1.00  0.00    -0.744 OA
ENDBRANCH  77  78
ENDBRANCH  56  70
BRANCH  57  82
ATOM     82  C   UNL     1      17.014   1.137  -5.940  1.00  0.00     0.058 A 
ATOM     83  C   UNL     1      18.017   1.800  -6.663  1.00  0.00     0.135 A 
ATOM     84  C   UNL     1      16.562   1.736  -4.754  1.00  0.00     0.135 A 
ATOM     85  F   UNL     1      18.488   1.267  -7.801  1.00  0.00    -0.206 F 
ATOM     86  C   UNL     1      18.568   2.997  -6.216  1.00  0.00     0.059 A 
ATOM     87  C   UNL     1      17.075   2.947  -4.303  1.00  0.00     0.059 A 
ATOM     88  F   UNL     1      15.591   1.153  -4.033  1.00  0.00    -0.206 F 
ATOM     89  C   UNL     1      18.089   3.564  -5.034  1.00  0.00     0.060 A 
BRANCH  89  90
ATOM     90  S   UNL     1      18.787   5.135  -4.480  1.00  0.00     0.124 S 
ATOM     91  O   UNL     1      20.111   4.725  -4.028  1.00  0.00    -0.237 OA
ATOM     92  O   UNL     1      18.746   5.935  -5.700  1.00  0.00    -0.237 OA
ATOM     93  O   UNL     1      17.865   5.559  -3.430  1.00  0.00    -0.744 OA
ENDBRANCH  89  90
ENDBRANCH  57  82
BRANCH  69  94
ATOM     94  C   UNL     1      19.655  -5.289  -6.643  1.00  0.00     0.058 A 
ATOM     95  C   UNL     1      20.204  -5.444  -5.361  1.00  0.00     0.135 A 
ATOM     96  C   UNL     1      20.414  -5.733  -7.739  1.00  0.00     0.135 A 
ATOM     97  F   UNL     1      19.524  -5.031  -4.280  1.00  0.00    -0.206 F 
ATOM     98  C   UNL     1      21.467  -5.996  -5.174  1.00  0.00     0.059 A 
ATOM     99  C   UNL     1      21.666  -6.318  -7.572  1.00  0.00     0.059 A 
ATOM    100  F   UNL     1      19.933  -5.619  -8.987  1.00  0.00    -0.206 F 
ATOM    101  C   UNL     1      22.189  -6.433  -6.286  1.00  0.00     0.060 A 
BRANCH 101 102
ATOM    102  S   UNL     1      23.813  -7.178  -6.025  1.00  0.00     0.124 S 
ATOM    103  O   UNL     1      24.616  -6.013  -5.665  1.00  0.00    -0.237 OA
ATOM    104  O   UNL     1      23.551  -8.126  -4.947  1.00  0.00    -0.237 OA
ATOM    105  O   UNL     1      24.124  -7.778  -7.319  1.00  0.00    -0.744 OA
ENDBRANCH 101 102
ENDBRANCH  69  94
ENDBRANCH  43  44
ENDBRANCH  35  38
ENDBRANCH  33  34
ENDBRANCH  32  33
ENDBRANCH  31  32
ENDBRANCH   1  31
TORSDOF 20
