REMARK SMILES O=C(Cn1ccc2ccc(CO)cc21)NCCCCCCNC(=O)c1ccc(-c2c3nc(c(-c4c(F)cc(S(=O)(=O)[O-])cc4F)c4ccc([nH]4)c(-c4c(F)cc(S(=O)(=O)[O-])cc4F)c4nc(c(-c5c(F)cc(S(=O)(=O)[O-])cc5F)c5ccc2[nH]5)C=C4)C=C3)cc1
REMARK SMILES IDX 18 1 17 2 16 3 15 4 1 5 2 6 3 8 4 9 5 10 14 11 6 12 7 13
REMARK SMILES IDX 13 14 8 15 10 16 9 17 11 18 12 19 19 21 20 22 21 23 22 24
REMARK SMILES IDX 23 25 24 27 25 28 26 29 90 30 27 31 89 32 28 33 29 34 30 35
REMARK SMILES IDX 83 36 31 37 88 38 82 39 84 40 32 41 87 42 81 43 80 44 33 46
REMARK SMILES IDX 67 47 46 48 66 49 47 50 50 51 65 52 85 53 48 54 49 55 64 57
REMARK SMILES IDX 86 58 51 59 34 60 35 61 44 62 36 63 37 64 43 65 45 66 38 67
REMARK SMILES IDX 39 68 40 69 41 70 42 71 68 72 69 73 78 74 70 75 71 76 77 77
REMARK SMILES IDX 79 78 72 79 73 80 74 81 75 82 76 83 52 84 53 85 62 86 54 87
REMARK SMILES IDX 55 88 61 89 63 90 56 91 57 92 58 93 59 94 60 95
REMARK H PARENT 15 7 12 20 22 26 84 45 50 56
REMARK Flexibility Score: inf
ROOT
ATOM      1  C   UNL     1       4.202  -2.183   2.795  1.00  0.00     0.002 C 
ENDROOT
BRANCH   1   2
ATOM      2  C   UNL     1       2.702  -2.113   2.477  1.00  0.00     0.021 C 
BRANCH   2   3
ATOM      3  C   UNL     1       2.187  -0.706   2.176  1.00  0.00     0.116 C 
BRANCH   3   4
ATOM      4  N   UNL     1       2.854  -0.141   1.022  1.00  0.00    -0.355 N 
ATOM      5  O   UNL     1       1.089  -0.342  -0.427  1.00  0.00    -0.273 OA
ATOM      6  C   UNL     1       2.255  -0.013  -0.211  1.00  0.00     0.239 C 
ATOM      7  H   UNL     1       3.783   0.168   1.124  1.00  0.00     0.163 HD
BRANCH   6   8
ATOM      8  C   UNL     1       3.163   0.432  -1.340  1.00  0.00     0.222 C 
BRANCH   8   9
ATOM      9  N   UNL     1       3.954   1.612  -1.026  1.00  0.00    -0.338 N 
ATOM     10  C   UNL     1       3.498   2.898  -1.162  1.00  0.00     0.087 A 
ATOM     11  C   UNL     1       5.263   1.614  -0.581  1.00  0.00     0.049 A 
ATOM     12  C   UNL     1       4.512   3.748  -0.785  1.00  0.00     0.028 A 
ATOM     13  C   UNL     1       5.629   2.952  -0.413  1.00  0.00    -0.000 A 
ATOM     14  C   UNL     1       6.152   0.564  -0.292  1.00  0.00     0.033 A 
ATOM     15  C   UNL     1       6.920   3.253   0.059  1.00  0.00     0.011 A 
ATOM     16  C   UNL     1       7.436   0.878   0.187  1.00  0.00    -0.021 A 
ATOM     17  C   UNL     1       7.810   2.214   0.356  1.00  0.00     0.007 A 
BRANCH  16  18
ATOM     18  C   UNL     1       8.398  -0.234   0.515  1.00  0.00     0.191 C 
BRANCH  18  19
ATOM     19  O   UNL     1       7.856  -1.052   1.542  1.00  0.00    -0.392 OA
ATOM     20  H   UNL     1       7.705  -0.517   2.337  1.00  0.00     0.211 HD
ENDBRANCH  18  19
ENDBRANCH  16  18
ENDBRANCH   8   9
ENDBRANCH   6   8
ENDBRANCH   3   4
ENDBRANCH   2   3
ENDBRANCH   1   2
BRANCH   1  21
ATOM     21  C   UNL     1       4.637  -1.446   4.065  1.00  0.00     0.002 C 
BRANCH  21  22
ATOM     22  C   UNL     1       3.933  -1.888   5.354  1.00  0.00     0.021 C 
BRANCH  22  23
ATOM     23  C   UNL     1       3.922  -3.400   5.587  1.00  0.00     0.116 C 
BRANCH  23  24
ATOM     24  N   UNL     1       5.240  -3.990   5.696  1.00  0.00    -0.352 N 
ATOM     25  C   UNL     1       6.136  -4.151   6.717  1.00  0.00     0.251 C 
ATOM     26  H   UNL     1       5.564  -4.360   4.843  1.00  0.00     0.163 HD
ATOM     27  O   UNL     1       7.135  -4.829   6.463  1.00  0.00    -0.269 OA
BRANCH  25  28
ATOM     28  C   UNL     1       6.018  -3.516   8.058  1.00  0.00     0.039 A 
ATOM     29  C   UNL     1       4.891  -2.851   8.544  1.00  0.00     0.014 A 
ATOM     30  C   UNL     1       7.174  -3.550   8.861  1.00  0.00     0.014 A 
ATOM     31  C   UNL     1       4.951  -2.129   9.729  1.00  0.00     0.010 A 
ATOM     32  C   UNL     1       7.229  -2.857  10.065  1.00  0.00     0.010 A 
ATOM     33  C   UNL     1       6.135  -2.092  10.461  1.00  0.00    -0.014 A 
BRANCH  33  34
ATOM     34  C   UNL     1       6.166  -1.234  11.643  1.00  0.00     0.031 A 
ATOM     35  C   UNL     1       5.237  -1.601  12.756  1.00  0.00     0.074 A 
ATOM     36  C   UNL     1       7.061  -0.233  11.763  1.00  0.00     0.049 A 
ATOM     37  N   UNL     1       4.348  -0.873  13.356  1.00  0.00    -0.248 NA
ATOM     38  C   UNL     1       5.260  -3.002  13.211  1.00  0.00     0.031 C 
ATOM     39  C   UNL     1       8.208   0.057  10.896  1.00  0.00     0.029 A 
ATOM     40  N   UNL     1       7.205   0.667  12.773  1.00  0.00    -0.354 N 
ATOM     41  C   UNL     1       3.816  -1.666  14.374  1.00  0.00     0.074 A 
ATOM     42  C   UNL     1       4.333  -2.995  14.167  1.00  0.00     0.031 C 
ATOM     43  C   UNL     1       9.057   0.880  11.550  1.00  0.00     0.029 A 
ATOM     44  C   UNL     1       8.453   1.271  12.812  1.00  0.00     0.049 A 
ATOM     45  H   UNL     1       6.489   0.871  13.417  1.00  0.00     0.167 HD
ATOM     46  C   UNL     1       3.105  -1.161  15.422  1.00  0.00     0.037 A 
ATOM     47  C   UNL     1       8.988   1.943  13.860  1.00  0.00     0.037 A 
ATOM     48  C   UNL     1       2.608   0.159  15.154  1.00  0.00     0.049 A 
ATOM     49  C   UNL     1       7.871   2.337  14.758  1.00  0.00     0.074 A 
ATOM     50  C   UNL     1       1.720   0.693  14.241  1.00  0.00     0.029 A 
ATOM     51  N   UNL     1       3.268   1.233  15.697  1.00  0.00    -0.354 N 
ATOM     52  N   UNL     1       6.948   3.207  14.451  1.00  0.00    -0.248 NA
ATOM     53  C   UNL     1       7.540   1.443  15.857  1.00  0.00     0.031 C 
ATOM     54  C   UNL     1       2.239   1.982  13.930  1.00  0.00     0.029 A 
ATOM     55  C   UNL     1       3.389   2.165  14.697  1.00  0.00     0.049 A 
ATOM     56  H   UNL     1       3.591   1.318  16.623  1.00  0.00     0.167 HD
ATOM     57  C   UNL     1       5.785   2.715  15.027  1.00  0.00     0.074 A 
ATOM     58  C   UNL     1       6.230   1.680  15.955  1.00  0.00     0.031 C 
ATOM     59  C   UNL     1       4.554   3.000  14.507  1.00  0.00     0.037 A 
BRANCH  46  60
ATOM     60  C   UNL     1       3.083  -1.769  16.803  1.00  0.00     0.058 A 
ATOM     61  C   UNL     1       2.114  -1.368  17.745  1.00  0.00     0.135 A 
ATOM     62  C   UNL     1       4.149  -2.542  17.315  1.00  0.00     0.135 A 
ATOM     63  F   UNL     1       1.067  -0.616  17.371  1.00  0.00    -0.206 F 
ATOM     64  C   UNL     1       2.225  -1.668  19.105  1.00  0.00     0.059 A 
ATOM     65  C   UNL     1       4.252  -2.896  18.656  1.00  0.00     0.059 A 
ATOM     66  F   UNL     1       5.188  -2.904  16.551  1.00  0.00    -0.206 F 
ATOM     67  C   UNL     1       3.309  -2.420  19.552  1.00  0.00     0.060 A 
BRANCH  67  68
ATOM     68  S   UNL     1       3.523  -2.702  21.320  1.00  0.00     0.124 S 
ATOM     69  O   UNL     1       3.850  -1.361  21.791  1.00  0.00    -0.237 OA
ATOM     70  O   UNL     1       2.213  -3.215  21.709  1.00  0.00    -0.237 OA
ATOM     71  O   UNL     1       4.612  -3.674  21.376  1.00  0.00    -0.744 OA
ENDBRANCH  67  68
ENDBRANCH  46  60
BRANCH  47  72
ATOM     72  C   UNL     1      10.403   1.898  14.317  1.00  0.00     0.058 A 
ATOM     73  C   UNL     1      10.888   2.822  15.259  1.00  0.00     0.135 A 
ATOM     74  C   UNL     1      11.229   0.785  14.055  1.00  0.00     0.135 A 
ATOM     75  F   UNL     1      10.155   3.897  15.588  1.00  0.00    -0.206 F 
ATOM     76  C   UNL     1      12.096   2.628  15.936  1.00  0.00     0.059 A 
ATOM     77  C   UNL     1      12.444   0.580  14.704  1.00  0.00     0.059 A 
ATOM     78  F   UNL     1      10.836  -0.195  13.228  1.00  0.00    -0.206 F 
ATOM     79  C   UNL     1      12.857   1.491  15.666  1.00  0.00     0.060 A 
BRANCH  79  80
ATOM     80  S   UNL     1      14.321   1.142  16.667  1.00  0.00     0.124 S 
ATOM     81  O   UNL     1      15.224   2.215  16.266  1.00  0.00    -0.237 OA
ATOM     82  O   UNL     1      13.791   1.227  18.023  1.00  0.00    -0.237 OA
ATOM     83  O   UNL     1      14.715  -0.198  16.238  1.00  0.00    -0.744 OA
ENDBRANCH  79  80
ENDBRANCH  47  72
BRANCH  59  84
ATOM     84  C   UNL     1       4.453   4.083  13.464  1.00  0.00     0.058 A 
ATOM     85  C   UNL     1       5.071   4.020  12.202  1.00  0.00     0.135 A 
ATOM     86  C   UNL     1       3.576   5.155  13.692  1.00  0.00     0.135 A 
ATOM     87  F   UNL     1       5.831   2.971  11.859  1.00  0.00    -0.206 F 
ATOM     88  C   UNL     1       4.868   5.003  11.233  1.00  0.00     0.059 A 
ATOM     89  C   UNL     1       3.333   6.130  12.726  1.00  0.00     0.059 A 
ATOM     90  F   UNL     1       2.900   5.237  14.850  1.00  0.00    -0.206 F 
ATOM     91  C   UNL     1       3.996   6.055  11.503  1.00  0.00     0.060 A 
BRANCH  91  92
ATOM     92  S   UNL     1       3.678   7.285  10.219  1.00  0.00     0.124 S 
ATOM     93  O   UNL     1       4.951   8.003  10.162  1.00  0.00    -0.237 OA
ATOM     94  O   UNL     1       3.373   6.453   9.054  1.00  0.00    -0.237 OA
ATOM     95  O   UNL     1       2.555   8.047  10.741  1.00  0.00    -0.744 OA
ENDBRANCH  91  92
ENDBRANCH  59  84
ENDBRANCH  33  34
ENDBRANCH  25  28
ENDBRANCH  23  24
ENDBRANCH  22  23
ENDBRANCH  21  22
ENDBRANCH   1  21
TORSDOF 19
