REMARK SMILES O=C(NCCCCCCNC(=O)[C@H](CO)NC(=O)[C@H](CS)NC(=O)c1ccc(F)cc1)c1ccc(-c2c3nc(c(-c4c(F)cc(S(=O)(=O)[O-])cc4F)c4ccc([nH]4)c(-c4c(F)cc(S(=O)(=O)[O-])cc4F)c4nc(c(-c5c(F)cc(S(=O)(=O)[O-])cc5F)c5ccc2[nH]5)C=C4)C=C3)cc1
REMARK SMILES IDX 7 1 6 2 5 3 4 4 3 5 1 6 2 7 32 9 33 10 97 11 34 12 96 13
REMARK SMILES IDX 35 14 36 15 37 16 90 17 38 18 95 19 89 20 91 21 39 22 94 23
REMARK SMILES IDX 88 24 87 25 40 27 74 28 53 29 73 30 54 31 57 32 72 33 92 34
REMARK SMILES IDX 55 35 56 36 71 38 93 39 58 40 41 41 42 42 51 43 43 44 44 45
REMARK SMILES IDX 50 46 52 47 45 48 46 49 47 50 48 51 49 52 75 53 76 54 85 55
REMARK SMILES IDX 77 56 78 57 84 58 86 59 79 60 80 61 81 62 82 63 83 64 59 65
REMARK SMILES IDX 60 66 69 67 61 68 62 69 68 70 70 71 63 72 64 73 65 74 66 75
REMARK SMILES IDX 67 76 8 77 9 78 10 79 11 80 12 82 13 83 16 84 17 85 18 87
REMARK SMILES IDX 19 88 22 89 23 90 24 92 25 93 26 94 31 95 27 96 30 97 28 98
REMARK SMILES IDX 29 99 20 100 21 101 14 103 15 104
REMARK H PARENT 3 8 91 26 57 37 10 81 16 86 22 91 21 102 15 105
REMARK Flexibility Score: inf
ROOT
ATOM      1  C   UNL     1       8.767  -5.260 -10.400  1.00  0.00     0.002 C 
ENDROOT
BRANCH   1   2
ATOM      2  C   UNL     1       7.926  -5.817 -11.555  1.00  0.00     0.002 C 
BRANCH   2   3
ATOM      3  C   UNL     1       6.478  -6.161 -11.205  1.00  0.00     0.021 C 
BRANCH   3   4
ATOM      4  C   UNL     1       5.678  -5.008 -10.618  1.00  0.00     0.116 C 
BRANCH   4   5
ATOM      5  N   UNL     1       5.448  -3.951 -11.587  1.00  0.00    -0.352 N 
ATOM      6  O   UNL     1       4.223  -2.657 -12.969  1.00  0.00    -0.269 OA
ATOM      7  C   UNL     1       4.254  -3.412 -12.009  1.00  0.00     0.251 C 
ATOM      8  H   UNL     1       6.257  -3.568 -11.998  1.00  0.00     0.163 HD
BRANCH   7   9
ATOM      9  C   UNL     1       3.006  -3.782 -11.302  1.00  0.00     0.039 A 
ATOM     10  C   UNL     1       2.962  -3.800  -9.906  1.00  0.00     0.014 A 
ATOM     11  C   UNL     1       1.876  -4.130 -12.046  1.00  0.00     0.014 A 
ATOM     12  C   UNL     1       1.842  -4.305  -9.259  1.00  0.00     0.010 A 
ATOM     13  C   UNL     1       0.716  -4.551 -11.389  1.00  0.00     0.010 A 
ATOM     14  C   UNL     1       0.700  -4.673  -9.991  1.00  0.00    -0.014 A 
BRANCH  14  15
ATOM     15  C   UNL     1      -0.509  -5.131  -9.259  1.00  0.00     0.031 A 
ATOM     16  C   UNL     1      -1.028  -6.533  -9.408  1.00  0.00     0.074 A 
ATOM     17  C   UNL     1      -1.107  -4.273  -8.409  1.00  0.00     0.049 A 
ATOM     18  N   UNL     1      -2.044  -7.101  -8.807  1.00  0.00    -0.248 NA
ATOM     19  C   UNL     1      -0.327  -7.413 -10.355  1.00  0.00     0.031 C 
ATOM     20  C   UNL     1      -0.692  -2.884  -8.190  1.00  0.00     0.029 A 
ATOM     21  N   UNL     1      -2.161  -4.442  -7.550  1.00  0.00    -0.354 N 
ATOM     22  C   UNL     1      -2.113  -8.395  -9.309  1.00  0.00     0.074 A 
ATOM     23  C   UNL     1      -1.054  -8.521 -10.288  1.00  0.00     0.031 C 
ATOM     24  C   UNL     1      -1.437  -2.352  -7.212  1.00  0.00     0.029 A 
ATOM     25  C   UNL     1      -2.424  -3.335  -6.779  1.00  0.00     0.049 A 
ATOM     26  H   UNL     1      -2.681  -5.277  -7.492  1.00  0.00     0.167 HD
ATOM     27  C   UNL     1      -2.974  -9.386  -8.976  1.00  0.00     0.037 A 
ATOM     28  C   UNL     1      -3.356  -3.127  -5.831  1.00  0.00     0.037 A 
ATOM     29  C   UNL     1      -4.018  -9.253  -7.991  1.00  0.00     0.049 A 
ATOM     30  C   UNL     1      -4.304  -4.237  -5.487  1.00  0.00     0.074 A 
ATOM     31  C   UNL     1      -4.941 -10.200  -7.580  1.00  0.00     0.029 A 
ATOM     32  N   UNL     1      -4.278  -8.102  -7.260  1.00  0.00    -0.354 N 
ATOM     33  N   UNL     1      -4.358  -5.452  -5.978  1.00  0.00    -0.248 NA
ATOM     34  C   UNL     1      -5.322  -3.949  -4.469  1.00  0.00     0.031 C 
ATOM     35  C   UNL     1      -5.778  -9.612  -6.625  1.00  0.00     0.029 A 
ATOM     36  C   UNL     1      -5.351  -8.312  -6.409  1.00  0.00     0.049 A 
ATOM     37  H   UNL     1      -3.773  -7.260  -7.334  1.00  0.00     0.167 HD
ATOM     38  C   UNL     1      -5.411  -6.078  -5.324  1.00  0.00     0.074 A 
ATOM     39  C   UNL     1      -5.954  -5.113  -4.388  1.00  0.00     0.031 C 
ATOM     40  C   UNL     1      -5.885  -7.338  -5.488  1.00  0.00     0.037 A 
BRANCH  27  41
ATOM     41  C   UNL     1      -2.832 -10.705  -9.687  1.00  0.00     0.058 A 
ATOM     42  C   UNL     1      -3.793 -11.121 -10.622  1.00  0.00     0.135 A 
ATOM     43  C   UNL     1      -1.766 -11.578  -9.414  1.00  0.00     0.135 A 
ATOM     44  F   UNL     1      -4.831 -10.325 -10.925  1.00  0.00    -0.206 F 
ATOM     45  C   UNL     1      -3.706 -12.356 -11.258  1.00  0.00     0.059 A 
ATOM     46  C   UNL     1      -1.646 -12.808 -10.055  1.00  0.00     0.059 A 
ATOM     47  F   UNL     1      -0.807 -11.222  -8.544  1.00  0.00    -0.206 F 
ATOM     48  C   UNL     1      -2.627 -13.193 -10.969  1.00  0.00     0.060 A 
BRANCH  48  49
ATOM     49  S   UNL     1      -2.494 -14.767 -11.845  1.00  0.00     0.124 S 
ATOM     50  O   UNL     1      -3.541 -15.556 -11.207  1.00  0.00    -0.237 OA
ATOM     51  O   UNL     1      -2.746 -14.372 -13.228  1.00  0.00    -0.237 OA
ATOM     52  O   UNL     1      -1.124 -15.191 -11.566  1.00  0.00    -0.744 OA
ENDBRANCH  48  49
ENDBRANCH  27  41
BRANCH  28  53
ATOM     53  C   UNL     1      -3.405  -1.814  -5.139  1.00  0.00     0.058 A 
ATOM     54  C   UNL     1      -3.804  -0.652  -5.818  1.00  0.00     0.135 A 
ATOM     55  C   UNL     1      -2.969  -1.682  -3.813  1.00  0.00     0.135 A 
ATOM     56  F   UNL     1      -4.217  -0.725  -7.093  1.00  0.00    -0.206 F 
ATOM     57  C   UNL     1      -3.729   0.601  -5.221  1.00  0.00     0.059 A 
ATOM     58  C   UNL     1      -2.909  -0.442  -3.185  1.00  0.00     0.059 A 
ATOM     59  F   UNL     1      -2.587  -2.767  -3.122  1.00  0.00    -0.206 F 
ATOM     60  C   UNL     1      -3.269   0.697  -3.907  1.00  0.00     0.060 A 
BRANCH  60  61
ATOM     61  S   UNL     1      -3.136   2.336  -3.164  1.00  0.00     0.124 S 
ATOM     62  O   UNL     1      -1.997   2.891  -3.887  1.00  0.00    -0.237 OA
ATOM     63  O   UNL     1      -4.435   2.922  -3.478  1.00  0.00    -0.237 OA
ATOM     64  O   UNL     1      -2.905   2.049  -1.752  1.00  0.00    -0.744 OA
ENDBRANCH  60  61
ENDBRANCH  28  53
BRANCH  40  65
ATOM     65  C   UNL     1      -7.047  -7.751  -4.631  1.00  0.00     0.058 A 
ATOM     66  C   UNL     1      -6.867  -8.661  -3.578  1.00  0.00     0.135 A 
ATOM     67  C   UNL     1      -8.348  -7.288  -4.885  1.00  0.00     0.135 A 
ATOM     68  F   UNL     1      -5.643  -9.136  -3.296  1.00  0.00    -0.206 F 
ATOM     69  C   UNL     1      -7.938  -9.107  -2.813  1.00  0.00     0.059 A 
ATOM     70  C   UNL     1      -9.431  -7.703  -4.117  1.00  0.00     0.059 A 
ATOM     71  F   UNL     1      -8.569  -6.406  -5.873  1.00  0.00    -0.206 F 
ATOM     72  C   UNL     1      -9.218  -8.625  -3.092  1.00  0.00     0.060 A 
BRANCH  72  73
ATOM     73  S   UNL     1     -10.595  -9.195  -2.074  1.00  0.00     0.124 S 
ATOM     74  O   UNL     1     -10.780 -10.559  -2.558  1.00  0.00    -0.237 OA
ATOM     75  O   UNL     1     -10.056  -9.068  -0.723  1.00  0.00    -0.237 OA
ATOM     76  O   UNL     1     -11.668  -8.261  -2.402  1.00  0.00    -0.744 OA
ENDBRANCH  72  73
ENDBRANCH  40  65
ENDBRANCH  14  15
ENDBRANCH   7   9
ENDBRANCH   4   5
ENDBRANCH   3   4
ENDBRANCH   2   3
ENDBRANCH   1   2
BRANCH   1  77
ATOM     77  C   UNL     1       8.707  -6.061  -9.092  1.00  0.00     0.021 C 
BRANCH  77  78
ATOM     78  C   UNL     1       9.020  -7.545  -9.257  1.00  0.00     0.116 C 
BRANCH  78  79
ATOM     79  N   UNL     1      10.411  -7.742  -9.602  1.00  0.00    -0.354 N 
ATOM     80  C   UNL     1      11.478  -8.191  -8.902  1.00  0.00     0.244 C 
ATOM     81  H   UNL     1      10.623  -7.501 -10.532  1.00  0.00     0.163 HD
ATOM     82  O   UNL     1      12.574  -8.125  -9.474  1.00  0.00    -0.273 OA
BRANCH  80  83
ATOM     83  C   UNL     1      11.386  -8.911  -7.543  1.00  0.00     0.197 C 
BRANCH  83  84
ATOM     84  N   UNL     1      10.176  -8.822  -6.719  1.00  0.00    -0.340 N 
ATOM     85  C   UNL     1       9.839  -8.105  -5.611  1.00  0.00     0.244 C 
ATOM     86  H   UNL     1       9.451  -9.408  -7.035  1.00  0.00     0.164 HD
ATOM     87  O   UNL     1       8.695  -8.311  -5.193  1.00  0.00    -0.273 OA
BRANCH  85  88
ATOM     88  C   UNL     1      10.867  -7.316  -4.761  1.00  0.00     0.181 C 
BRANCH  88  89
ATOM     89  N   UNL     1      11.883  -6.593  -5.526  1.00  0.00    -0.339 N 
ATOM     90  C   UNL     1      13.250  -6.581  -5.464  1.00  0.00     0.251 C 
ATOM     91  H   UNL     1      11.511  -6.000  -6.219  1.00  0.00     0.164 HD
ATOM     92  O   UNL     1      13.824  -5.615  -5.968  1.00  0.00    -0.269 OA
BRANCH  90  93
ATOM     93  C   UNL     1      14.073  -7.679  -4.873  1.00  0.00     0.040 A 
ATOM     94  C   UNL     1      13.661  -9.016  -4.772  1.00  0.00     0.017 A 
ATOM     95  C   UNL     1      15.404  -7.367  -4.543  1.00  0.00     0.017 A 
ATOM     96  C   UNL     1      14.550 -10.012  -4.356  1.00  0.00     0.040 A 
ATOM     97  C   UNL     1      16.293  -8.362  -4.125  1.00  0.00     0.040 A 
ATOM     98  C   UNL     1      15.858  -9.677  -4.040  1.00  0.00     0.123 A 
ATOM     99  F   UNL     1      16.714 -10.637  -3.670  1.00  0.00    -0.207 F 
ENDBRANCH  90  93
ENDBRANCH  88  89
BRANCH  88 100
ATOM    100  C   UNL     1      10.153  -6.368  -3.768  1.00  0.00     0.101 C 
BRANCH 100 101
ATOM    101  S   UNL     1       9.520  -4.835  -4.538  1.00  0.00    -0.177 SA
ATOM    102  H   UNL     1      10.560  -4.119  -5.043  1.00  0.00     0.102 HD
ENDBRANCH 100 101
ENDBRANCH  88 100
ENDBRANCH  85  88
ENDBRANCH  83  84
BRANCH  83 103
ATOM    103  C   UNL     1      11.745 -10.394  -7.803  1.00  0.00     0.191 C 
BRANCH 103 104
ATOM    104  O   UNL     1      11.070 -11.298  -6.924  1.00  0.00    -0.394 OA
ATOM    105  H   UNL     1      11.331 -11.113  -6.008  1.00  0.00     0.210 HD
ENDBRANCH 103 104
ENDBRANCH  83 103
ENDBRANCH  80  83
ENDBRANCH  78  79
ENDBRANCH  77  78
ENDBRANCH   1  77
TORSDOF 24
