REMARK SMILES CC(C)[C@@H]1C(=O)Nc2ccccc2N1C(=O)N[C@H](Cc1ccccc1)C(=O)NCCCCCCNC(=O)c1ccc(-c2c3nc(c(-c4c(F)cc(S(=O)(=O)[O-])cc4F)c4ccc([nH]4)c(-c4c(F)cc(S(=O)(=O)[O-])cc4F)c4nc(c(-c5c(F)cc(S(=O)(=O)[O-])cc5F)c5ccc2[nH]5)C=C4)C=C3)cc1
REMARK SMILES IDX 31 1 30 2 29 3 28 4 26 5 27 6 18 8 17 9 15 10 16 11 14 13
REMARK SMILES IDX 4 14 5 15 6 16 7 17 13 18 8 19 12 21 9 22 11 23 10 24 2 25
REMARK SMILES IDX 1 26 3 27 19 28 20 29 21 30 25 31 22 32 24 33 23 34 32 35
REMARK SMILES IDX 33 36 34 37 35 38 36 39 37 41 38 42 39 43 103 44 40 45
REMARK SMILES IDX 102 46 41 47 42 48 43 49 96 50 44 51 101 52 95 53 97 54
REMARK SMILES IDX 45 55 100 56 94 57 93 58 46 60 80 61 59 62 79 63 60 64 63 65
REMARK SMILES IDX 78 66 98 67 61 68 62 69 77 71 99 72 64 73 47 74 48 75 57 76
REMARK SMILES IDX 49 77 50 78 56 79 58 80 51 81 52 82 53 83 54 84 55 85 81 86
REMARK SMILES IDX 82 87 91 88 83 89 84 90 90 91 92 92 85 93 86 94 87 95 88 96
REMARK SMILES IDX 89 97 65 98 66 99 75 100 67 101 68 102 74 103 76 104 69 105
REMARK SMILES IDX 70 106 71 107 72 108 73 109
REMARK H PARENT 28 7 17 12 7 20 35 40 97 59 63 70
REMARK Flexibility Score: inf
ROOT
ATOM      1  C   UNL     1       4.382   6.025  -1.228  1.00  0.00     0.002 C 
ENDROOT
BRANCH   1   2
ATOM      2  C   UNL     1       3.731   4.938  -2.067  1.00  0.00     0.021 C 
BRANCH   2   3
ATOM      3  C   UNL     1       4.103   3.350  -2.151  1.00  0.00     0.116 C 
BRANCH   3   4
ATOM      4  N   UNL     1       3.916   1.754  -0.880  1.00  0.00    -0.354 N 
ATOM      5  C   UNL     1       3.291   0.369  -0.659  1.00  0.00     0.242 C 
ATOM      6  O   UNL     1       3.593  -0.170   0.418  1.00  0.00    -0.273 OA
ATOM      7  H   UNL     1       4.447   1.962  -0.077  1.00  0.00     0.163 HD
BRANCH   5   8
ATOM      8  C   UNL     1       2.102  -0.448  -1.708  1.00  0.00     0.177 C 
BRANCH   8   9
ATOM      9  N   UNL     1       2.822  -0.741  -2.887  1.00  0.00    -0.326 N 
ATOM     10  C   UNL     1       3.263   0.345  -3.584  1.00  0.00     0.323 C 
ATOM     11  O   UNL     1       3.707   0.195  -4.716  1.00  0.00    -0.248 OA
ATOM     12  H   UNL     1       2.994  -1.663  -3.185  1.00  0.00     0.166 HD
BRANCH  10  13
ATOM     13  N   UNL     1       3.431   1.484  -2.788  1.00  0.00    -0.280 N 
ATOM     14  C   UNL     1       2.304   2.542  -1.534  1.00  0.00     0.184 C 
ATOM     15  C   UNL     1       3.246   3.483  -0.096  1.00  0.00     0.247 C 
ATOM     16  O   UNL     1       2.690   4.155   0.774  1.00  0.00    -0.272 OA
ATOM     17  N   UNL     1       4.952   3.362  -0.096  1.00  0.00    -0.322 N 
ATOM     18  C   UNL     1       5.255   1.471  -2.422  1.00  0.00     0.070 A 
ATOM     19  C   UNL     1       5.937   2.449  -1.203  1.00  0.00     0.065 A 
ATOM     20  H   UNL     1       5.428   3.863   0.605  1.00  0.00     0.170 HD
ATOM     21  C   UNL     1       6.165   0.697  -3.118  1.00  0.00     0.028 A 
ATOM     22  C   UNL     1       7.301   2.638  -1.105  1.00  0.00     0.028 A 
ATOM     23  C   UNL     1       7.549   0.923  -2.884  1.00  0.00     0.002 A 
ATOM     24  C   UNL     1       8.088   1.892  -1.982  1.00  0.00     0.002 A 
BRANCH  14  25
ATOM     25  C   UNL     1       0.812   3.134  -1.665  1.00  0.00     0.015 C 
ATOM     26  C   UNL     1       0.026   2.819  -0.328  1.00  0.00     0.010 C 
ATOM     27  C   UNL     1       0.504   4.603  -1.915  1.00  0.00     0.010 C 
ENDBRANCH  14  25
ENDBRANCH  10  13
ENDBRANCH   8   9
BRANCH   8  28
ATOM     28  C   UNL     1       0.749   0.209  -2.221  1.00  0.00     0.070 C 
BRANCH  28  29
ATOM     29  C   UNL     1      -0.428  -0.086  -3.164  1.00  0.00    -0.045 A 
ATOM     30  C   UNL     1      -0.971   1.021  -3.894  1.00  0.00     0.004 A 
ATOM     31  C   UNL     1      -1.205  -1.232  -3.112  1.00  0.00     0.004 A 
ATOM     32  C   UNL     1      -2.283   1.058  -4.365  1.00  0.00     0.000 A 
ATOM     33  C   UNL     1      -2.509  -1.221  -3.653  1.00  0.00     0.000 A 
ATOM     34  C   UNL     1      -3.065  -0.069  -4.223  1.00  0.00     0.000 A 
ENDBRANCH  28  29
ENDBRANCH   8  28
ENDBRANCH   5   8
ENDBRANCH   3   4
ENDBRANCH   2   3
ENDBRANCH   1   2
BRANCH   1  35
ATOM     35  C   UNL     1       5.896   6.085  -1.212  1.00  0.00     0.002 C 
BRANCH  35  36
ATOM     36  C   UNL     1       6.531   6.088  -2.592  1.00  0.00     0.021 C 
BRANCH  36  37
ATOM     37  C   UNL     1       6.303   7.416  -3.283  1.00  0.00     0.116 C 
BRANCH  37  38
ATOM     38  N   UNL     1       7.029   8.461  -2.562  1.00  0.00    -0.352 N 
ATOM     39  C   UNL     1       8.299   8.902  -2.848  1.00  0.00     0.251 C 
ATOM     40  H   UNL     1       6.566   8.888  -1.805  1.00  0.00     0.163 HD
ATOM     41  O   UNL     1       9.053   9.293  -1.966  1.00  0.00    -0.269 OA
BRANCH  39  42
ATOM     42  C   UNL     1       8.694   8.902  -4.267  1.00  0.00     0.039 A 
ATOM     43  C   UNL     1       9.999   8.617  -4.657  1.00  0.00     0.014 A 
ATOM     44  C   UNL     1       7.697   9.151  -5.214  1.00  0.00     0.014 A 
ATOM     45  C   UNL     1      10.289   8.568  -6.019  1.00  0.00     0.010 A 
ATOM     46  C   UNL     1       7.942   8.900  -6.542  1.00  0.00     0.010 A 
ATOM     47  C   UNL     1       9.255   8.690  -6.965  1.00  0.00    -0.014 A 
BRANCH  47  48
ATOM     48  C   UNL     1       9.502   8.710  -8.419  1.00  0.00     0.031 A 
ATOM     49  C   UNL     1       9.046   9.909  -9.214  1.00  0.00     0.074 A 
ATOM     50  C   UNL     1      10.041   7.631  -9.013  1.00  0.00     0.049 A 
ATOM     51  N   UNL     1       9.047  10.090 -10.506  1.00  0.00    -0.248 NA
ATOM     52  C   UNL     1       8.446  11.030  -8.461  1.00  0.00     0.031 C 
ATOM     53  C   UNL     1      10.436   6.395  -8.331  1.00  0.00     0.029 A 
ATOM     54  N   UNL     1      10.345   7.398 -10.325  1.00  0.00    -0.354 N 
ATOM     55  C   UNL     1       8.426  11.317 -10.712  1.00  0.00     0.074 A 
ATOM     56  C   UNL     1       7.969  11.791  -9.431  1.00  0.00     0.031 C 
ATOM     57  C   UNL     1      10.978   5.554  -9.226  1.00  0.00     0.029 A 
ATOM     58  C   UNL     1      10.916   6.169 -10.546  1.00  0.00     0.049 A 
ATOM     59  H   UNL     1      10.170   8.049 -11.043  1.00  0.00     0.167 HD
ATOM     60  C   UNL     1       8.294  12.009 -11.866  1.00  0.00     0.037 A 
ATOM     61  C   UNL     1      11.336   5.608 -11.695  1.00  0.00     0.037 A 
ATOM     62  C   UNL     1       8.812  11.536 -13.118  1.00  0.00     0.049 A 
ATOM     63  C   UNL     1      11.203   6.406 -12.963  1.00  0.00     0.074 A 
ATOM     64  C   UNL     1       8.816  12.173 -14.343  1.00  0.00     0.029 A 
ATOM     65  N   UNL     1       9.424  10.303 -13.299  1.00  0.00    -0.354 N 
ATOM     66  N   UNL     1      10.688   7.602 -13.133  1.00  0.00    -0.248 NA
ATOM     67  C   UNL     1      11.713   5.787 -14.191  1.00  0.00     0.031 C 
ATOM     68  C   UNL     1       9.374  11.298 -15.279  1.00  0.00     0.029 A 
ATOM     69  C   UNL     1       9.784  10.146 -14.624  1.00  0.00     0.049 A 
ATOM     70  H   UNL     1       9.578   9.638 -12.589  1.00  0.00     0.167 HD
ATOM     71  C   UNL     1      10.838   7.892 -14.484  1.00  0.00     0.074 A 
ATOM     72  C   UNL     1      11.507   6.751 -15.078  1.00  0.00     0.031 C 
ATOM     73  C   UNL     1      10.459   8.996 -15.175  1.00  0.00     0.037 A 
BRANCH  60  74
ATOM     74  C   UNL     1       7.585  13.336 -11.817  1.00  0.00     0.058 A 
ATOM     75  C   UNL     1       8.116  14.440 -11.128  1.00  0.00     0.135 A 
ATOM     76  C   UNL     1       6.366  13.515 -12.490  1.00  0.00     0.135 A 
ATOM     77  F   UNL     1       9.266  14.325 -10.445  1.00  0.00    -0.206 F 
ATOM     78  C   UNL     1       7.452  15.662 -11.085  1.00  0.00     0.059 A 
ATOM     79  C   UNL     1       5.703  14.738 -12.492  1.00  0.00     0.059 A 
ATOM     80  F   UNL     1       5.804  12.493 -13.155  1.00  0.00    -0.206 F 
ATOM     81  C   UNL     1       6.248  15.803 -11.777  1.00  0.00     0.060 A 
BRANCH  81  82
ATOM     82  S   UNL     1       5.416  17.404 -11.734  1.00  0.00     0.124 S 
ATOM     83  O   UNL     1       4.964  17.461 -10.347  1.00  0.00    -0.237 OA
ATOM     84  O   UNL     1       6.494  18.322 -12.087  1.00  0.00    -0.237 OA
ATOM     85  O   UNL     1       4.361  17.266 -12.732  1.00  0.00    -0.744 OA
ENDBRANCH  81  82
ENDBRANCH  60  74
BRANCH  61  86
ATOM     86  C   UNL     1      11.944   4.252 -11.680  1.00  0.00     0.058 A 
ATOM     87  C   UNL     1      13.307   4.067 -11.951  1.00  0.00     0.135 A 
ATOM     88  C   UNL     1      11.182   3.116 -11.361  1.00  0.00     0.135 A 
ATOM     89  F   UNL     1      14.080   5.120 -12.256  1.00  0.00    -0.206 F 
ATOM     90  C   UNL     1      13.890   2.804 -11.930  1.00  0.00     0.059 A 
ATOM     91  C   UNL     1      11.749   1.847 -11.302  1.00  0.00     0.059 A 
ATOM     92  F   UNL     1       9.879   3.241 -11.067  1.00  0.00    -0.206 F 
ATOM     93  C   UNL     1      13.102   1.700 -11.601  1.00  0.00     0.060 A 
BRANCH  93  94
ATOM     94  S   UNL     1      13.880   0.072 -11.539  1.00  0.00     0.124 S 
ATOM     95  O   UNL     1      14.151  -0.178 -12.950  1.00  0.00    -0.237 OA
ATOM     96  O   UNL     1      15.046   0.324 -10.699  1.00  0.00    -0.237 OA
ATOM     97  O   UNL     1      12.851  -0.770 -10.936  1.00  0.00    -0.744 OA
ENDBRANCH  93  94
ENDBRANCH  61  86
BRANCH  73  98
ATOM     98  C   UNL     1      10.794   9.040 -16.638  1.00  0.00     0.058 A 
ATOM     99  C   UNL     1      10.133   8.228 -17.571  1.00  0.00     0.135 A 
ATOM    100  C   UNL     1      11.741   9.960 -17.115  1.00  0.00     0.135 A 
ATOM    101  F   UNL     1       9.223   7.329 -17.163  1.00  0.00    -0.206 F 
ATOM    102  C   UNL     1      10.420   8.308 -18.928  1.00  0.00     0.059 A 
ATOM    103  C   UNL     1      12.014  10.085 -18.471  1.00  0.00     0.059 A 
ATOM    104  F   UNL     1      12.389  10.770 -16.263  1.00  0.00    -0.206 F 
ATOM    105  C   UNL     1      11.357   9.245 -19.369  1.00  0.00     0.060 A 
BRANCH 105 106
ATOM    106  S   UNL     1      11.686   9.367 -21.138  1.00  0.00     0.124 S 
ATOM    107  O   UNL     1      12.407   8.123 -21.388  1.00  0.00    -0.237 OA
ATOM    108  O   UNL     1      10.340   9.444 -21.698  1.00  0.00    -0.237 OA
ATOM    109  O   UNL     1      12.479  10.587 -21.254  1.00  0.00    -0.744 OA
ENDBRANCH 105 106
ENDBRANCH  73  98
ENDBRANCH  47  48
ENDBRANCH  39  42
ENDBRANCH  37  38
ENDBRANCH  36  37
ENDBRANCH  35  36
ENDBRANCH   1  35
TORSDOF 21
