REMARK SMILES O=C(NCCCCCCNC(=O)[C@@H]1[C@H](C(=O)Nc2ccc(Cn3cncn3)cc2)[C@@H]2C=C[C@H]1CC2)c1ccc(-c2c3nc(c(-c4c(F)cc(S(=O)(=O)[O-])cc4F)c4ccc([nH]4)c(-c4c(F)cc(S(=O)(=O)[O-])cc4F)c4nc(c(-c5c(F)cc(S(=O)(=O)[O-])cc5F)c5ccc2[nH]5)C=C4)C=C3)cc1
REMARK SMILES IDX 7 1 6 2 5 3 4 4 3 5 1 6 2 7 36 9 37 10 101 11 38 12 100 13
REMARK SMILES IDX 39 14 40 15 41 16 94 17 42 18 99 19 93 20 95 21 43 22 98 23
REMARK SMILES IDX 92 24 91 25 44 27 78 28 57 29 77 30 58 31 61 32 76 33 96 34
REMARK SMILES IDX 59 35 60 36 75 38 97 39 62 40 45 41 46 42 55 43 47 44 48 45
REMARK SMILES IDX 54 46 56 47 49 48 50 49 51 50 52 51 53 52 79 53 80 54 89 55
REMARK SMILES IDX 81 56 82 57 88 58 90 59 83 60 84 61 85 62 86 63 87 64 63 65
REMARK SMILES IDX 64 66 73 67 65 68 66 69 72 70 74 71 67 72 68 73 69 74 70 75
REMARK SMILES IDX 71 76 8 77 9 78 10 79 11 80 12 82 13 83 14 84 33 85 30 86
REMARK SMILES IDX 32 87 34 88 31 89 35 90 15 91 16 92 17 93 18 95 19 96 29 97
REMARK SMILES IDX 20 98 28 99 21 100 22 101 23 102 24 103 27 104 25 105 26 106
REMARK H PARENT 3 8 95 26 61 37 10 81 17 94
REMARK Flexibility Score: inf
ROOT
ATOM      1  C   UNL     1       5.182   1.855  -2.978  1.00  0.00     0.002 C 
ENDROOT
BRANCH   1   2
ATOM      2  C   UNL     1       4.611   0.459  -3.113  1.00  0.00     0.002 C 
BRANCH   2   3
ATOM      3  C   UNL     1       4.798  -0.415  -1.889  1.00  0.00     0.021 C 
BRANCH   3   4
ATOM      4  C   UNL     1       4.599   0.280  -0.532  1.00  0.00     0.116 C 
BRANCH   4   5
ATOM      5  N   UNL     1       3.240   0.627  -0.191  1.00  0.00    -0.352 N 
ATOM      6  O   UNL     1       1.234   0.476   0.753  1.00  0.00    -0.269 OA
ATOM      7  C   UNL     1       2.212  -0.125   0.310  1.00  0.00     0.251 C 
ATOM      8  H   UNL     1       3.013   1.572  -0.346  1.00  0.00     0.163 HD
BRANCH   7   9
ATOM      9  C   UNL     1       2.185  -1.606   0.207  1.00  0.00     0.039 A 
ATOM     10  C   UNL     1       3.300  -2.409  -0.027  1.00  0.00     0.014 A 
ATOM     11  C   UNL     1       0.916  -2.199   0.228  1.00  0.00     0.014 A 
ATOM     12  C   UNL     1       3.143  -3.696  -0.499  1.00  0.00     0.010 A 
ATOM     13  C   UNL     1       0.757  -3.525  -0.138  1.00  0.00     0.010 A 
ATOM     14  C   UNL     1       1.864  -4.244  -0.578  1.00  0.00    -0.014 A 
BRANCH  14  15
ATOM     15  C   UNL     1       1.774  -5.674  -0.838  1.00  0.00     0.031 A 
ATOM     16  C   UNL     1       2.548  -6.455   0.174  1.00  0.00     0.074 A 
ATOM     17  C   UNL     1       0.983  -6.209  -1.791  1.00  0.00     0.049 A 
ATOM     18  N   UNL     1       3.611  -7.165  -0.020  1.00  0.00    -0.248 NA
ATOM     19  C   UNL     1       2.264  -6.205   1.602  1.00  0.00     0.031 C 
ATOM     20  C   UNL     1       0.047  -5.520  -2.682  1.00  0.00     0.029 A 
ATOM     21  N   UNL     1       0.778  -7.521  -2.102  1.00  0.00    -0.354 N 
ATOM     22  C   UNL     1       3.951  -7.679   1.231  1.00  0.00     0.074 A 
ATOM     23  C   UNL     1       3.249  -6.881   2.195  1.00  0.00     0.031 C 
ATOM     24  C   UNL     1      -0.793  -6.423  -3.240  1.00  0.00     0.029 A 
ATOM     25  C   UNL     1      -0.372  -7.759  -2.862  1.00  0.00     0.049 A 
ATOM     26  H   UNL     1       1.387  -8.239  -1.815  1.00  0.00     0.167 HD
ATOM     27  C   UNL     1       4.539  -8.903   1.337  1.00  0.00     0.037 A 
ATOM     28  C   UNL     1      -0.948  -8.973  -3.094  1.00  0.00     0.037 A 
ATOM     29  C   UNL     1       5.159  -9.271   0.087  1.00  0.00     0.049 A 
ATOM     30  C   UNL     1       0.110  -9.995  -2.857  1.00  0.00     0.074 A 
ATOM     31  C   UNL     1       6.161  -8.736  -0.700  1.00  0.00     0.029 A 
ATOM     32  N   UNL     1       4.465 -10.135  -0.725  1.00  0.00    -0.354 N 
ATOM     33  N   UNL     1       1.181 -10.095  -3.598  1.00  0.00    -0.248 NA
ATOM     34  C   UNL     1       0.228 -10.522  -1.506  1.00  0.00     0.031 C 
ATOM     35  C   UNL     1       5.718  -8.930  -2.041  1.00  0.00     0.029 A 
ATOM     36  C   UNL     1       4.527  -9.655  -2.005  1.00  0.00     0.049 A 
ATOM     37  H   UNL     1       4.005 -10.956  -0.436  1.00  0.00     0.167 HD
ATOM     38  C   UNL     1       2.217 -10.278  -2.693  1.00  0.00     0.074 A 
ATOM     39  C   UNL     1       1.560 -10.569  -1.418  1.00  0.00     0.031 C 
ATOM     40  C   UNL     1       3.492  -9.884  -2.988  1.00  0.00     0.037 A 
BRANCH  27  41
ATOM     41  C   UNL     1       4.138  -9.940   2.372  1.00  0.00     0.058 A 
ATOM     42  C   UNL     1       4.770 -11.202   2.336  1.00  0.00     0.135 A 
ATOM     43  C   UNL     1       2.971  -9.877   3.168  1.00  0.00     0.135 A 
ATOM     44  F   UNL     1       5.904 -11.381   1.640  1.00  0.00    -0.206 F 
ATOM     45  C   UNL     1       4.217 -12.336   2.932  1.00  0.00     0.059 A 
ATOM     46  C   UNL     1       2.426 -10.986   3.805  1.00  0.00     0.059 A 
ATOM     47  F   UNL     1       2.246  -8.764   3.313  1.00  0.00    -0.206 F 
ATOM     48  C   UNL     1       3.030 -12.220   3.644  1.00  0.00     0.060 A 
BRANCH  48  49
ATOM     49  S   UNL     1       2.263 -13.692   4.339  1.00  0.00     0.124 S 
ATOM     50  O   UNL     1       1.877 -14.415   3.118  1.00  0.00    -0.237 OA
ATOM     51  O   UNL     1       3.361 -14.270   5.097  1.00  0.00    -0.237 OA
ATOM     52  O   UNL     1       1.164 -13.161   5.127  1.00  0.00    -0.744 OA
ENDBRANCH  48  49
ENDBRANCH  27  41
BRANCH  28  53
ATOM     53  C   UNL     1      -2.402  -9.318  -3.075  1.00  0.00     0.058 A 
ATOM     54  C   UNL     1      -2.879 -10.572  -3.512  1.00  0.00     0.135 A 
ATOM     55  C   UNL     1      -3.325  -8.534  -2.353  1.00  0.00     0.135 A 
ATOM     56  F   UNL     1      -2.067 -11.403  -4.183  1.00  0.00    -0.206 F 
ATOM     57  C   UNL     1      -4.173 -11.032  -3.217  1.00  0.00     0.059 A 
ATOM     58  C   UNL     1      -4.617  -8.969  -2.051  1.00  0.00     0.059 A 
ATOM     59  F   UNL     1      -2.966  -7.351  -1.835  1.00  0.00    -0.206 F 
ATOM     60  C   UNL     1      -5.030 -10.228  -2.467  1.00  0.00     0.060 A 
BRANCH  60  61
ATOM     61  S   UNL     1      -6.642 -10.867  -1.938  1.00  0.00     0.124 S 
ATOM     62  O   UNL     1      -7.371 -10.934  -3.200  1.00  0.00    -0.237 OA
ATOM     63  O   UNL     1      -6.288 -12.149  -1.338  1.00  0.00    -0.237 OA
ATOM     64  O   UNL     1      -7.117  -9.854  -0.999  1.00  0.00    -0.744 OA
ENDBRANCH  60  61
ENDBRANCH  28  53
BRANCH  40  65
ATOM     65  C   UNL     1       3.817  -9.495  -4.407  1.00  0.00     0.058 A 
ATOM     66  C   UNL     1       3.292  -8.375  -5.078  1.00  0.00     0.135 A 
ATOM     67  C   UNL     1       4.840 -10.204  -5.050  1.00  0.00     0.135 A 
ATOM     68  F   UNL     1       2.382  -7.583  -4.492  1.00  0.00    -0.206 F 
ATOM     69  C   UNL     1       3.744  -8.002  -6.348  1.00  0.00     0.059 A 
ATOM     70  C   UNL     1       5.328  -9.834  -6.297  1.00  0.00     0.059 A 
ATOM     71  F   UNL     1       5.426 -11.245  -4.433  1.00  0.00    -0.206 F 
ATOM     72  C   UNL     1       4.766  -8.739  -6.949  1.00  0.00     0.060 A 
BRANCH  72  73
ATOM     73  S   UNL     1       5.403  -8.230  -8.560  1.00  0.00     0.124 S 
ATOM     74  O   UNL     1       4.282  -8.533  -9.443  1.00  0.00    -0.237 OA
ATOM     75  O   UNL     1       5.686  -6.813  -8.355  1.00  0.00    -0.237 OA
ATOM     76  O   UNL     1       6.584  -9.072  -8.743  1.00  0.00    -0.744 OA
ENDBRANCH  72  73
ENDBRANCH  40  65
ENDBRANCH  14  15
ENDBRANCH   7   9
ENDBRANCH   4   5
ENDBRANCH   3   4
ENDBRANCH   2   3
ENDBRANCH   1   2
BRANCH   1  77
ATOM     77  C   UNL     1       6.551   2.082  -2.323  1.00  0.00     0.021 C 
BRANCH  77  78
ATOM     78  C   UNL     1       7.681   2.644  -3.179  1.00  0.00     0.116 C 
BRANCH  78  79
ATOM     79  N   UNL     1       7.856   4.191  -3.270  1.00  0.00    -0.356 N 
ATOM     80  C   UNL     1       8.457   5.180  -4.105  1.00  0.00     0.224 C 
ATOM     81  H   UNL     1       7.410   4.623  -2.507  1.00  0.00     0.163 HD
ATOM     82  O   UNL     1       8.376   6.397  -3.902  1.00  0.00    -0.275 OA
BRANCH  80  83
ATOM     83  C   UNL     1       9.478   4.876  -5.132  1.00  0.00     0.098 C 
ATOM     84  C   UNL     1       9.182   3.459  -5.399  1.00  0.00     0.098 C 
ATOM     85  C   UNL     1      10.752   5.299  -4.322  1.00  0.00     0.025 C 
ATOM     86  C   UNL     1      10.316   2.761  -4.320  1.00  0.00     0.025 C 
ATOM     87  C   UNL     1      10.651   4.750  -2.905  1.00  0.00    -0.027 C 
ATOM     88  C   UNL     1      12.018   4.643  -4.830  1.00  0.00     0.009 C 
ATOM     89  C   UNL     1      10.459   3.420  -2.897  1.00  0.00    -0.027 C 
ATOM     90  C   UNL     1      11.788   3.107  -4.812  1.00  0.00     0.009 C 
BRANCH  84  91
ATOM     91  C   UNL     1       7.396   3.416  -5.806  1.00  0.00     0.228 C 
ATOM     92  O   UNL     1       7.111   2.487  -6.599  1.00  0.00    -0.274 OA
ATOM     93  N   UNL     1       6.182   4.133  -5.398  1.00  0.00    -0.326 N 
ATOM     94  H   UNL     1       5.434   3.842  -5.968  1.00  0.00     0.169 HD
BRANCH  93  95
ATOM     95  C   UNL     1       5.675   5.158  -4.414  1.00  0.00     0.041 A 
ATOM     96  C   UNL     1       4.985   4.804  -3.242  1.00  0.00     0.026 A 
ATOM     97  C   UNL     1       5.951   6.514  -4.434  1.00  0.00     0.026 A 
ATOM     98  C   UNL     1       5.247   5.432  -1.992  1.00  0.00     0.008 A 
ATOM     99  C   UNL     1       6.114   7.242  -3.201  1.00  0.00     0.008 A 
ATOM    100  C   UNL     1       5.961   6.621  -1.957  1.00  0.00    -0.026 A 
BRANCH 100 101
ATOM    101  C   UNL     1       6.509   7.215  -0.670  1.00  0.00     0.181 C 
BRANCH 101 102
ATOM    102  N   UNL     1       5.413   7.704   0.137  1.00  0.00    -0.249 N 
ATOM    103  C   UNL     1       4.623   6.970   0.970  1.00  0.00     0.220 A 
ATOM    104  N   UNL     1       4.861   8.904  -0.123  1.00  0.00    -0.160 NA
ATOM    105  N   UNL     1       3.496   7.611   1.172  1.00  0.00    -0.224 NA
ATOM    106  C   UNL     1       3.670   8.765   0.461  1.00  0.00     0.246 A 
ENDBRANCH 101 102
ENDBRANCH 100 101
ENDBRANCH  93  95
ENDBRANCH  84  91
ENDBRANCH  80  83
ENDBRANCH  78  79
ENDBRANCH  77  78
ENDBRANCH   1  77
TORSDOF 20
