REMARK SMILES O=C(NCCCCCCNC(=O)c1cccc(-c2cc(NCc3ccccn3)nc3[nH]ccc23)c1)c1ccc(-c2c3nc(c(-c4c(F)cc(S(=O)(=O)[O-])cc4F)c4ccc([nH]4)c(-c4c(F)cc(S(=O)(=O)[O-])cc4F)c4nc(c(-c5c(F)cc(S(=O)(=O)[O-])cc5F)c5ccc2[nH]5)C=C4)C=C3)cc1
REMARK SMILES IDX 7 1 6 2 5 3 4 4 3 5 1 6 2 7 36 9 37 10 101 11 38 12 100 13
REMARK SMILES IDX 39 14 40 15 41 16 94 17 42 18 99 19 93 20 95 21 43 22 98 23
REMARK SMILES IDX 92 24 91 25 44 27 78 28 57 29 77 30 58 31 61 32 76 33 96 34
REMARK SMILES IDX 59 35 60 36 75 38 97 39 62 40 45 41 46 42 55 43 47 44 48 45
REMARK SMILES IDX 54 46 56 47 49 48 50 49 51 50 52 51 53 52 79 53 80 54 89 55
REMARK SMILES IDX 81 56 82 57 88 58 90 59 83 60 84 61 85 62 86 63 87 64 63 65
REMARK SMILES IDX 64 66 73 67 65 68 66 69 72 70 74 71 67 72 68 73 69 74 70 75
REMARK SMILES IDX 71 76 8 77 9 78 10 79 11 80 12 82 13 83 14 84 35 85 15 86
REMARK SMILES IDX 17 87 16 88 18 89 19 90 34 91 20 92 30 93 33 94 29 95 31 96
REMARK SMILES IDX 32 97 21 99 22 101 23 102 24 103 28 104 25 105 27 106 26 107
REMARK H PARENT 3 8 95 26 61 37 10 81 31 98 21 100
REMARK Flexibility Score: inf
ROOT
ATOM      1  C   UNL     1       4.768   3.136  -3.016  1.00  0.00     0.002 C 
ENDROOT
BRANCH   1   2
ATOM      2  C   UNL     1       4.187   1.808  -3.507  1.00  0.00     0.002 C 
BRANCH   2   3
ATOM      3  C   UNL     1       4.637   0.561  -2.747  1.00  0.00     0.021 C 
BRANCH   3   4
ATOM      4  C   UNL     1       4.421   0.598  -1.241  1.00  0.00     0.116 C 
BRANCH   4   5
ATOM      5  N   UNL     1       3.017   0.620  -0.863  1.00  0.00    -0.352 N 
ATOM      6  O   UNL     1       1.152  -0.072   0.205  1.00  0.00    -0.269 OA
ATOM      7  C   UNL     1       2.374  -0.130   0.096  1.00  0.00     0.251 C 
ATOM      8  H   UNL     1       2.452   1.256  -1.358  1.00  0.00     0.163 HD
BRANCH   7   9
ATOM      9  C   UNL     1       3.159  -1.030   0.973  1.00  0.00     0.039 A 
ATOM     10  C   UNL     1       4.349  -0.592   1.556  1.00  0.00     0.014 A 
ATOM     11  C   UNL     1       2.705  -2.332   1.204  1.00  0.00     0.014 A 
ATOM     12  C   UNL     1       5.155  -1.494   2.241  1.00  0.00     0.010 A 
ATOM     13  C   UNL     1       3.475  -3.215   1.971  1.00  0.00     0.010 A 
ATOM     14  C   UNL     1       4.722  -2.812   2.471  1.00  0.00    -0.014 A 
BRANCH  14  15
ATOM     15  C   UNL     1       5.574  -3.705   3.300  1.00  0.00     0.031 A 
ATOM     16  C   UNL     1       6.225  -4.933   2.725  1.00  0.00     0.074 A 
ATOM     17  C   UNL     1       5.809  -3.349   4.579  1.00  0.00     0.049 A 
ATOM     18  N   UNL     1       7.059  -5.764   3.299  1.00  0.00    -0.248 NA
ATOM     19  C   UNL     1       5.897  -5.282   1.334  1.00  0.00     0.031 C 
ATOM     20  C   UNL     1       5.204  -2.196   5.254  1.00  0.00     0.029 A 
ATOM     21  N   UNL     1       6.637  -3.890   5.527  1.00  0.00    -0.354 N 
ATOM     22  C   UNL     1       7.351  -6.735   2.349  1.00  0.00     0.074 A 
ATOM     23  C   UNL     1       6.581  -6.407   1.167  1.00  0.00     0.031 C 
ATOM     24  C   UNL     1       5.726  -2.081   6.483  1.00  0.00     0.029 A 
ATOM     25  C   UNL     1       6.660  -3.179   6.704  1.00  0.00     0.049 A 
ATOM     26  H   UNL     1       7.164  -4.708   5.381  1.00  0.00     0.167 HD
ATOM     27  C   UNL     1       8.191  -7.794   2.451  1.00  0.00     0.037 A 
ATOM     28  C   UNL     1       7.351  -3.386   7.840  1.00  0.00     0.037 A 
ATOM     29  C   UNL     1       8.961  -8.108   3.629  1.00  0.00     0.049 A 
ATOM     30  C   UNL     1       8.292  -4.552   7.915  1.00  0.00     0.074 A 
ATOM     31  C   UNL     1       9.841  -9.159   3.830  1.00  0.00     0.029 A 
ATOM     32  N   UNL     1       8.950  -7.371   4.805  1.00  0.00    -0.354 N 
ATOM     33  N   UNL     1       8.560  -5.452   6.999  1.00  0.00    -0.248 NA
ATOM     34  C   UNL     1       9.023  -4.732   9.175  1.00  0.00     0.031 C 
ATOM     35  C   UNL     1      10.342  -9.071   5.135  1.00  0.00     0.029 A 
ATOM     36  C   UNL     1       9.802  -7.945   5.735  1.00  0.00     0.049 A 
ATOM     37  H   UNL     1       8.414  -6.559   4.956  1.00  0.00     0.167 HD
ATOM     38  C   UNL     1       9.487  -6.310   7.575  1.00  0.00     0.074 A 
ATOM     39  C   UNL     1       9.762  -5.799   8.903  1.00  0.00     0.031 C 
ATOM     40  C   UNL     1      10.050  -7.430   7.057  1.00  0.00     0.037 A 
BRANCH  27  41
ATOM     41  C   UNL     1       8.330  -8.698   1.256  1.00  0.00     0.058 A 
ATOM     42  C   UNL     1       9.055  -8.304   0.120  1.00  0.00     0.135 A 
ATOM     43  C   UNL     1       7.789  -9.994   1.268  1.00  0.00     0.135 A 
ATOM     44  F   UNL     1       9.582  -7.071   0.049  1.00  0.00    -0.206 F 
ATOM     45  C   UNL     1       9.227  -9.156  -0.966  1.00  0.00     0.059 A 
ATOM     46  C   UNL     1       7.966 -10.872   0.200  1.00  0.00     0.059 A 
ATOM     47  F   UNL     1       7.087 -10.423   2.329  1.00  0.00    -0.206 F 
ATOM     48  C   UNL     1       8.679 -10.439  -0.917  1.00  0.00     0.060 A 
BRANCH  48  49
ATOM     49  S   UNL     1       8.929 -11.539  -2.328  1.00  0.00     0.124 S 
ATOM     50  O   UNL     1       8.016 -10.963  -3.312  1.00  0.00    -0.237 OA
ATOM     51  O   UNL     1      10.350 -11.369  -2.611  1.00  0.00    -0.237 OA
ATOM     52  O   UNL     1       8.548 -12.849  -1.810  1.00  0.00    -0.744 OA
ENDBRANCH  48  49
ENDBRANCH  27  41
BRANCH  28  53
ATOM     53  C   UNL     1       7.163  -2.470   8.993  1.00  0.00     0.058 A 
ATOM     54  C   UNL     1       8.171  -1.578   9.386  1.00  0.00     0.135 A 
ATOM     55  C   UNL     1       5.956  -2.452   9.709  1.00  0.00     0.135 A 
ATOM     56  F   UNL     1       9.343  -1.559   8.733  1.00  0.00    -0.206 F 
ATOM     57  C   UNL     1       7.995  -0.710  10.459  1.00  0.00     0.059 A 
ATOM     58  C   UNL     1       5.746  -1.576  10.766  1.00  0.00     0.059 A 
ATOM     59  F   UNL     1       4.954  -3.273   9.357  1.00  0.00    -0.206 F 
ATOM     60  C   UNL     1       6.778  -0.717  11.143  1.00  0.00     0.060 A 
BRANCH  60  61
ATOM     61  S   UNL     1       6.532   0.446  12.502  1.00  0.00     0.124 S 
ATOM     62  O   UNL     1       7.230  -0.227  13.590  1.00  0.00    -0.237 OA
ATOM     63  O   UNL     1       7.161   1.660  11.992  1.00  0.00    -0.237 OA
ATOM     64  O   UNL     1       5.078   0.509  12.625  1.00  0.00    -0.744 OA
ENDBRANCH  60  61
ENDBRANCH  28  53
BRANCH  40  65
ATOM     65  C   UNL     1      11.015  -8.168   7.940  1.00  0.00     0.058 A 
ATOM     66  C   UNL     1      10.568  -8.928   9.032  1.00  0.00     0.135 A 
ATOM     67  C   UNL     1      12.395  -8.111   7.697  1.00  0.00     0.135 A 
ATOM     68  F   UNL     1       9.257  -9.007   9.310  1.00  0.00    -0.206 F 
ATOM     69  C   UNL     1      11.461  -9.579   9.877  1.00  0.00     0.059 A 
ATOM     70  C   UNL     1      13.305  -8.773   8.515  1.00  0.00     0.059 A 
ATOM     71  F   UNL     1      12.871  -7.404   6.660  1.00  0.00    -0.206 F 
ATOM     72  C   UNL     1      12.829  -9.488   9.614  1.00  0.00     0.060 A 
BRANCH  72  73
ATOM     73  S   UNL     1      13.983 -10.329  10.719  1.00  0.00     0.124 S 
ATOM     74  O   UNL     1      14.025  -9.411  11.851  1.00  0.00    -0.237 OA
ATOM     75  O   UNL     1      13.316 -11.605  10.961  1.00  0.00    -0.237 OA
ATOM     76  O   UNL     1      15.207 -10.410   9.928  1.00  0.00    -0.744 OA
ENDBRANCH  72  73
ENDBRANCH  40  65
ENDBRANCH  14  15
ENDBRANCH   7   9
ENDBRANCH   4   5
ENDBRANCH   3   4
ENDBRANCH   2   3
ENDBRANCH   1   2
BRANCH   1  77
ATOM     77  C   UNL     1       6.294   3.199  -2.885  1.00  0.00     0.021 C 
BRANCH  77  78
ATOM     78  C   UNL     1       7.081   2.823  -4.139  1.00  0.00     0.116 C 
BRANCH  78  79
ATOM     79  N   UNL     1       6.790   3.708  -5.255  1.00  0.00    -0.352 N 
ATOM     80  C   UNL     1       7.656   4.411  -6.052  1.00  0.00     0.251 C 
ATOM     81  H   UNL     1       5.835   3.817  -5.469  1.00  0.00     0.163 HD
ATOM     82  O   UNL     1       7.229   5.241  -6.850  1.00  0.00    -0.269 OA
BRANCH  80  83
ATOM     83  C   UNL     1       9.112   4.182  -5.946  1.00  0.00     0.040 A 
ATOM     84  C   UNL     1       9.960   5.282  -5.812  1.00  0.00     0.014 A 
ATOM     85  C   UNL     1       9.639   2.888  -6.015  1.00  0.00     0.022 A 
ATOM     86  C   UNL     1      11.333   5.081  -5.700  1.00  0.00     0.001 A 
ATOM     87  C   UNL     1      11.018   2.665  -5.879  1.00  0.00    -0.017 A 
ATOM     88  C   UNL     1      11.855   3.783  -5.727  1.00  0.00     0.009 A 
BRANCH  87  89
ATOM     89  C   UNL     1      11.547   1.298  -5.889  1.00  0.00    -0.004 A 
ATOM     90  C   UNL     1      11.260   0.386  -6.921  1.00  0.00     0.056 A 
ATOM     91  C   UNL     1      12.323   0.806  -4.820  1.00  0.00     0.027 A 
ATOM     92  C   UNL     1      11.723  -0.931  -6.879  1.00  0.00     0.129 A 
ATOM     93  C   UNL     1      12.749  -0.513  -4.906  1.00  0.00     0.140 A 
ATOM     94  C   UNL     1      12.807   1.303  -3.573  1.00  0.00     0.030 A 
ATOM     95  N   UNL     1      12.509  -1.392  -5.891  1.00  0.00    -0.213 NA
ATOM     96  N   UNL     1      13.463  -0.808  -3.777  1.00  0.00    -0.346 N 
ATOM     97  C   UNL     1      13.507   0.288  -2.955  1.00  0.00     0.085 A 
ATOM     98  H   UNL     1      13.882  -1.678  -3.583  1.00  0.00     0.167 HD
BRANCH  92  99
ATOM     99  N   UNL     1      11.374  -1.765  -7.936  1.00  0.00    -0.364 N 
ATOM    100  H   UNL     1      10.832  -1.414  -8.679  1.00  0.00     0.162 HD
BRANCH  99 101
ATOM    101  C   UNL     1      11.808  -3.156  -7.947  1.00  0.00     0.170 C 
BRANCH 101 102
ATOM    102  C   UNL     1      10.606  -4.092  -8.000  1.00  0.00     0.059 A 
ATOM    103  C   UNL     1      10.807  -5.466  -7.875  1.00  0.00     0.026 A 
ATOM    104  N   UNL     1       9.367  -3.547  -8.181  1.00  0.00    -0.259 NA
ATOM    105  C   UNL     1       9.703  -6.313  -7.904  1.00  0.00     0.004 A 
ATOM    106  C   UNL     1       8.317  -4.399  -8.187  1.00  0.00     0.111 A 
ATOM    107  C   UNL     1       8.433  -5.772  -8.055  1.00  0.00     0.020 A 
ENDBRANCH 101 102
ENDBRANCH  99 101
ENDBRANCH  92  99
ENDBRANCH  87  89
ENDBRANCH  80  83
ENDBRANCH  78  79
ENDBRANCH  77  78
ENDBRANCH   1  77
TORSDOF 20
