REMARK SMILES CC(C)CCn1nc(C(=O)NCCCCCCNC(=O)c2ccc(-c3c4nc(c(-c5c(F)cc(S(=O)(=O)[O-])cc5F)c5ccc([nH]5)c(-c5c(F)cc(S(=O)(=O)[O-])cc5F)c5nc(c(-c6c(F)cc(S(=O)(=O)[O-])cc6F)c6ccc3[nH]6)C=C5)C=C4)cc2)c2c1CCN(C(=O)[C@@H]1CCc3nn(C)c(=O)n3C1)C2
REMARK SMILES IDX 14 1 13 2 12 3 11 4 9 5 10 6 8 8 6 9 7 10 88 11 87 12 89 13
REMARK SMILES IDX 105 14 90 15 91 16 5 17 4 18 2 19 1 20 3 21 92 22 93 23
REMARK SMILES IDX 94 24 95 25 104 26 96 27 103 28 97 29 101 30 98 31 99 32
REMARK SMILES IDX 102 33 100 34 15 35 16 36 17 37 18 38 19 39 20 41 21 42
REMARK SMILES IDX 22 43 86 44 23 45 85 46 24 47 25 48 26 49 79 50 27 51 84 52
REMARK SMILES IDX 78 53 80 54 28 55 83 56 77 57 76 58 29 60 63 61 42 62 62 63
REMARK SMILES IDX 43 64 46 65 61 66 81 67 44 68 45 69 60 71 82 72 47 73 30 74
REMARK SMILES IDX 31 75 40 76 32 77 33 78 39 79 41 80 34 81 35 82 36 83 37 84
REMARK SMILES IDX 38 85 64 86 65 87 74 88 66 89 67 90 73 91 75 92 68 93 69 94
REMARK SMILES IDX 70 95 71 96 72 97 48 98 49 99 58 100 50 101 51 102 57 103
REMARK SMILES IDX 59 104 52 105 53 106 54 107 55 108 56 109
REMARK H PARENT 11 7 18 40 80 59 46 70
REMARK Flexibility Score: inf
ROOT
ATOM      1  C   UNL     1       0.420   9.675  -4.273  1.00  0.00     0.002 C 
ENDROOT
BRANCH   1   2
ATOM      2  C   UNL     1       0.097   8.259  -3.808  1.00  0.00     0.021 C 
BRANCH   2   3
ATOM      3  C   UNL     1       0.414   7.966  -2.330  1.00  0.00     0.116 C 
BRANCH   3   4
ATOM      4  N   UNL     1      -0.783   7.644  -1.572  1.00  0.00    -0.351 N 
ATOM      5  C   UNL     1      -1.339   6.491  -1.063  1.00  0.00     0.272 C 
ATOM      6  O   UNL     1      -2.255   6.687  -0.255  1.00  0.00    -0.267 OA
ATOM      7  H   UNL     1      -1.327   8.441  -1.375  1.00  0.00     0.163 HD
BRANCH   5   8
ATOM      8  C   UNL     1      -0.889   5.118  -1.404  1.00  0.00     0.155 A 
ATOM      9  N   UNL     1      -0.719   2.975  -1.111  1.00  0.00    -0.268 N 
ATOM     10  N   UNL     1      -1.129   4.119  -0.519  1.00  0.00    -0.167 NA
ATOM     11  C   UNL     1      -0.015   3.243  -2.241  1.00  0.00     0.046 A 
ATOM     12  C   UNL     1      -0.268   4.566  -2.558  1.00  0.00     0.026 A 
ATOM     13  C   UNL     1       0.839   2.377  -3.085  1.00  0.00     0.078 C 
ATOM     14  C   UNL     1       0.150   5.166  -3.855  1.00  0.00     0.159 C 
ATOM     15  C   UNL     1       1.696   3.302  -3.950  1.00  0.00     0.126 C 
ATOM     16  N   UNL     1       0.883   4.229  -4.713  1.00  0.00    -0.338 N 
BRANCH   9  17
ATOM     17  C   UNL     1      -1.193   1.730  -0.523  1.00  0.00     0.145 C 
BRANCH  17  18
ATOM     18  C   UNL     1      -0.806   0.389  -1.159  1.00  0.00     0.027 C 
BRANCH  18  19
ATOM     19  C   UNL     1       0.648  -0.047  -0.901  1.00  0.00    -0.016 C 
ATOM     20  C   UNL     1       0.877  -0.610   0.497  1.00  0.00     0.007 C 
ATOM     21  C   UNL     1       1.091  -1.053  -1.968  1.00  0.00     0.007 C 
ENDBRANCH  18  19
ENDBRANCH  17  18
ENDBRANCH   9  17
BRANCH  16  22
ATOM     22  C   UNL     1       1.016   4.570  -6.046  1.00  0.00     0.227 C 
ATOM     23  O   UNL     1       0.573   5.663  -6.430  1.00  0.00    -0.274 OA
BRANCH  22  24
ATOM     24  C   UNL     1       1.688   3.675  -7.112  1.00  0.00     0.099 C 
ATOM     25  C   UNL     1       0.953   2.382  -7.474  1.00  0.00     0.023 C 
ATOM     26  C   UNL     1       3.193   3.475  -6.982  1.00  0.00     0.142 C 
ATOM     27  C   UNL     1       1.320   1.166  -6.635  1.00  0.00     0.078 C 
ATOM     28  N   UNL     1       3.552   2.216  -6.367  1.00  0.00    -0.278 N 
ATOM     29  C   UNL     1       2.737   1.165  -6.141  1.00  0.00     0.133 A 
ATOM     30  C   UNL     1       4.658   2.021  -5.577  1.00  0.00     0.345 A 
ATOM     31  N   UNL     1       3.203   0.286  -5.300  1.00  0.00    -0.155 NA
ATOM     32  N   UNL     1       4.424   0.806  -4.926  1.00  0.00    -0.216 N 
ATOM     33  O   UNL     1       5.564   2.813  -5.365  1.00  0.00    -0.246 OA
ATOM     34  C   UNL     1       5.141   0.339  -3.771  1.00  0.00     0.179 C 
ENDBRANCH  22  24
ENDBRANCH  16  22
ENDBRANCH   5   8
ENDBRANCH   3   4
ENDBRANCH   2   3
ENDBRANCH   1   2
BRANCH   1  35
ATOM     35  C   UNL     1       1.916  10.028  -4.245  1.00  0.00     0.002 C 
BRANCH  35  36
ATOM     36  C   UNL     1       2.852   9.177  -5.121  1.00  0.00     0.021 C 
BRANCH  36  37
ATOM     37  C   UNL     1       2.558   9.262  -6.612  1.00  0.00     0.116 C 
BRANCH  37  38
ATOM     38  N   UNL     1       2.747  10.611  -7.143  1.00  0.00    -0.352 N 
ATOM     39  C   UNL     1       2.710  11.035  -8.459  1.00  0.00     0.251 C 
ATOM     40  H   UNL     1       2.923  11.312  -6.474  1.00  0.00     0.163 HD
ATOM     41  O   UNL     1       3.190  12.110  -8.776  1.00  0.00    -0.269 OA
BRANCH  39  42
ATOM     42  C   UNL     1       2.091  10.155  -9.471  1.00  0.00     0.039 A 
ATOM     43  C   UNL     1       2.640  10.030 -10.748  1.00  0.00     0.014 A 
ATOM     44  C   UNL     1       0.955   9.432  -9.117  1.00  0.00     0.014 A 
ATOM     45  C   UNL     1       2.083   9.105 -11.629  1.00  0.00     0.010 A 
ATOM     46  C   UNL     1       0.511   8.412  -9.921  1.00  0.00     0.010 A 
ATOM     47  C   UNL     1       1.034   8.272 -11.198  1.00  0.00    -0.014 A 
BRANCH  47  48
ATOM     48  C   UNL     1       0.572   7.164 -12.034  1.00  0.00     0.031 A 
ATOM     49  C   UNL     1       1.673   6.322 -12.568  1.00  0.00     0.074 A 
ATOM     50  C   UNL     1      -0.726   6.816 -12.189  1.00  0.00     0.049 A 
ATOM     51  N   UNL     1       2.107   6.295 -13.783  1.00  0.00    -0.248 NA
ATOM     52  C   UNL     1       2.510   5.559 -11.626  1.00  0.00     0.031 C 
ATOM     53  C   UNL     1      -1.903   7.391 -11.521  1.00  0.00     0.029 A 
ATOM     54  N   UNL     1      -1.273   5.809 -12.932  1.00  0.00    -0.354 N 
ATOM     55  C   UNL     1       3.097   5.318 -13.815  1.00  0.00     0.074 A 
ATOM     56  C   UNL     1       3.437   5.049 -12.443  1.00  0.00     0.031 C 
ATOM     57  C   UNL     1      -2.976   6.592 -11.708  1.00  0.00     0.029 A 
ATOM     58  C   UNL     1      -2.616   5.561 -12.663  1.00  0.00     0.049 A 
ATOM     59  H   UNL     1      -0.760   5.301 -13.602  1.00  0.00     0.167 HD
ATOM     60  C   UNL     1       3.338   4.625 -14.962  1.00  0.00     0.037 A 
ATOM     61  C   UNL     1      -3.411   4.612 -13.216  1.00  0.00     0.037 A 
ATOM     62  C   UNL     1       2.671   5.248 -16.079  1.00  0.00     0.049 A 
ATOM     63  C   UNL     1      -2.828   4.286 -14.536  1.00  0.00     0.074 A 
ATOM     64  C   UNL     1       2.850   6.379 -16.845  1.00  0.00     0.029 A 
ATOM     65  N   UNL     1       1.372   4.840 -16.247  1.00  0.00    -0.354 N 
ATOM     66  N   UNL     1      -2.763   5.147 -15.516  1.00  0.00    -0.248 NA
ATOM     67  C   UNL     1      -1.961   3.123 -14.671  1.00  0.00     0.031 C 
ATOM     68  C   UNL     1       1.551   6.757 -17.299  1.00  0.00     0.029 A 
ATOM     69  C   UNL     1       0.624   5.823 -16.839  1.00  0.00     0.049 A 
ATOM     70  H   UNL     1       1.025   3.959 -15.979  1.00  0.00     0.167 HD
ATOM     71  C   UNL     1      -1.565   4.865 -16.143  1.00  0.00     0.074 A 
ATOM     72  C   UNL     1      -1.211   3.521 -15.703  1.00  0.00     0.031 C 
ATOM     73  C   UNL     1      -0.819   5.860 -16.705  1.00  0.00     0.037 A 
BRANCH  60  74
ATOM     74  C   UNL     1       3.742   3.167 -15.028  1.00  0.00     0.058 A 
ATOM     75  C   UNL     1       4.085   2.605 -16.278  1.00  0.00     0.135 A 
ATOM     76  C   UNL     1       3.502   2.240 -13.991  1.00  0.00     0.135 A 
ATOM     77  F   UNL     1       4.329   3.393 -17.337  1.00  0.00    -0.206 F 
ATOM     78  C   UNL     1       4.116   1.226 -16.496  1.00  0.00     0.059 A 
ATOM     79  C   UNL     1       3.574   0.863 -14.175  1.00  0.00     0.059 A 
ATOM     80  F   UNL     1       3.085   2.617 -12.777  1.00  0.00    -0.206 F 
ATOM     81  C   UNL     1       3.843   0.363 -15.439  1.00  0.00     0.060 A 
BRANCH  81  82
ATOM     82  S   UNL     1       3.790  -1.414 -15.732  1.00  0.00     0.124 S 
ATOM     83  O   UNL     1       2.604  -1.537 -16.571  1.00  0.00    -0.237 OA
ATOM     84  O   UNL     1       5.071  -1.649 -16.391  1.00  0.00    -0.237 OA
ATOM     85  O   UNL     1       3.672  -1.971 -14.387  1.00  0.00    -0.744 OA
ENDBRANCH  81  82
ENDBRANCH  60  74
BRANCH  61  86
ATOM     86  C   UNL     1      -4.499   3.824 -12.585  1.00  0.00     0.058 A 
ATOM     87  C   UNL     1      -5.456   3.129 -13.345  1.00  0.00     0.135 A 
ATOM     88  C   UNL     1      -4.442   3.505 -11.214  1.00  0.00     0.135 A 
ATOM     89  F   UNL     1      -5.563   3.354 -14.664  1.00  0.00    -0.206 F 
ATOM     90  C   UNL     1      -6.278   2.141 -12.788  1.00  0.00     0.059 A 
ATOM     91  C   UNL     1      -5.252   2.527 -10.636  1.00  0.00     0.059 A 
ATOM     92  F   UNL     1      -3.526   4.074 -10.415  1.00  0.00    -0.206 F 
ATOM     93  C   UNL     1      -6.153   1.831 -11.434  1.00  0.00     0.060 A 
BRANCH  93  94
ATOM     94  S   UNL     1      -7.088   0.442 -10.745  1.00  0.00     0.124 S 
ATOM     95  O   UNL     1      -8.455   0.949 -10.783  1.00  0.00    -0.237 OA
ATOM     96  O   UNL     1      -6.780  -0.633 -11.682  1.00  0.00    -0.237 OA
ATOM     97  O   UNL     1      -6.519   0.280  -9.409  1.00  0.00    -0.744 OA
ENDBRANCH  93  94
ENDBRANCH  61  86
BRANCH  73  98
ATOM     98  C   UNL     1      -1.526   7.136 -17.067  1.00  0.00     0.058 A 
ATOM     99  C   UNL     1      -2.017   8.072 -16.142  1.00  0.00     0.135 A 
ATOM    100  C   UNL     1      -1.625   7.464 -18.426  1.00  0.00     0.135 A 
ATOM    101  F   UNL     1      -1.891   7.869 -14.824  1.00  0.00    -0.206 F 
ATOM    102  C   UNL     1      -2.608   9.268 -16.552  1.00  0.00     0.059 A 
ATOM    103  C   UNL     1      -2.184   8.662 -18.858  1.00  0.00     0.059 A 
ATOM    104  F   UNL     1      -1.129   6.630 -19.356  1.00  0.00    -0.206 F 
ATOM    105  C   UNL     1      -2.685   9.556 -17.914  1.00  0.00     0.060 A 
BRANCH 105 106
ATOM    106  S   UNL     1      -3.381  11.135 -18.445  1.00  0.00     0.124 S 
ATOM    107  O   UNL     1      -4.803  10.950 -18.178  1.00  0.00    -0.237 OA
ATOM    108  O   UNL     1      -2.693  12.091 -17.582  1.00  0.00    -0.237 OA
ATOM    109  O   UNL     1      -3.016  11.211 -19.858  1.00  0.00    -0.744 OA
ENDBRANCH 105 106
ENDBRANCH  73  98
ENDBRANCH  47  48
ENDBRANCH  39  42
ENDBRANCH  37  38
ENDBRANCH  36  37
ENDBRANCH  35  36
ENDBRANCH   1  35
TORSDOF 21
