REMARK SMILES Cc1cc(C)c2c(=O)n(CCCC(=O)NCCCCCCNC(=O)c3ccc(-c4c5nc(c(-c6c(F)cc(S(=O)(=O)[O-])cc6F)c6ccc([nH]6)c(-c6c(F)cc(S(=O)(=O)[O-])cc6F)c6nc(c(-c7c(F)cc(S(=O)(=O)[O-])cc7F)c7ccc4[nH]7)C=C6)C=C5)cc3)sc2n1
REMARK SMILES IDX 18 1 17 2 16 3 15 4 13 5 14 6 12 8 11 9 10 10 9 11 1 12 2 13
REMARK SMILES IDX 3 14 93 15 4 16 92 17 5 18 6 19 91 20 7 21 8 22 19 23 20 24
REMARK SMILES IDX 21 25 22 26 23 27 24 29 25 30 26 31 90 32 27 33 89 34 28 35
REMARK SMILES IDX 29 36 30 37 83 38 31 39 88 40 82 41 84 42 32 43 87 44 81 45
REMARK SMILES IDX 80 46 33 48 67 49 46 50 66 51 47 52 50 53 65 54 85 55 48 56
REMARK SMILES IDX 49 57 64 59 86 60 51 61 34 62 35 63 44 64 36 65 37 66 43 67
REMARK SMILES IDX 45 68 38 69 39 70 40 71 41 72 42 73 68 74 69 75 78 76 70 77
REMARK SMILES IDX 71 78 77 79 79 80 72 81 73 82 74 83 75 84 76 85 52 86 53 87
REMARK SMILES IDX 62 88 54 89 55 90 61 91 63 92 56 93 57 94 58 95 59 96 60 97
REMARK H PARENT 15 7 22 28 84 47 50 58
REMARK Flexibility Score: inf
ROOT
ATOM      1  C   UNL     1       4.344   6.966  -3.619  1.00  0.00     0.002 C 
ENDROOT
BRANCH   1   2
ATOM      2  C   UNL     1       2.882   6.883  -3.171  1.00  0.00     0.021 C 
BRANCH   2   3
ATOM      3  C   UNL     1       2.727   6.500  -1.700  1.00  0.00     0.116 C 
BRANCH   3   4
ATOM      4  N   UNL     1       2.918   7.652  -0.852  1.00  0.00    -0.356 N 
ATOM      5  C   UNL     1       2.045   8.339  -0.074  1.00  0.00     0.220 C 
ATOM      6  O   UNL     1       2.478   9.338   0.509  1.00  0.00    -0.275 OA
ATOM      7  H   UNL     1       3.839   7.999  -0.836  1.00  0.00     0.163 HD
BRANCH   5   8
ATOM      8  C   UNL     1       0.639   7.839   0.206  1.00  0.00     0.102 C 
BRANCH   8   9
ATOM      9  C   UNL     1      -0.463   7.920  -0.858  1.00  0.00     0.033 C 
BRANCH   9  10
ATOM     10  C   UNL     1      -0.598   6.885  -1.988  1.00  0.00     0.139 C 
BRANCH  10  11
ATOM     11  N   UNL     1      -0.719   5.459  -1.699  1.00  0.00    -0.262 N 
ATOM     12  C   UNL     1       0.807  -0.275  -0.211  1.00  0.00     0.067 C 
ATOM     13  C   UNL     1       0.230   0.909  -0.926  1.00  0.00     0.039 A 
ATOM     14  C   UNL     1      -0.295   0.792  -2.221  1.00  0.00     0.027 A 
ATOM     15  N   UNL     1       0.266   2.083  -0.256  1.00  0.00    -0.241 NA
ATOM     16  C   UNL     1      -0.770   1.931  -2.894  1.00  0.00    -0.033 A 
ATOM     17  C   UNL     1      -0.193   3.153  -0.930  1.00  0.00     0.146 A 
ATOM     18  C   UNL     1      -1.424   1.817  -4.236  1.00  0.00     0.045 C 
ATOM     19  C   UNL     1      -0.643   3.147  -2.235  1.00  0.00     0.081 A 
ATOM     20  S   UNL     1      -0.359   4.747  -0.188  1.00  0.00    -0.035 S 
ATOM     21  C   UNL     1      -0.877   4.525  -2.732  1.00  0.00     0.270 A 
ATOM     22  O   UNL     1      -1.069   4.772  -3.905  1.00  0.00    -0.268 OA
ENDBRANCH  10  11
ENDBRANCH   9  10
ENDBRANCH   8   9
ENDBRANCH   5   8
ENDBRANCH   3   4
ENDBRANCH   2   3
ENDBRANCH   1   2
BRANCH   1  23
ATOM     23  C   UNL     1       5.143   5.659  -3.482  1.00  0.00     0.002 C 
BRANCH  23  24
ATOM     24  C   UNL     1       4.546   4.422  -4.171  1.00  0.00     0.021 C 
BRANCH  24  25
ATOM     25  C   UNL     1       4.443   4.573  -5.677  1.00  0.00     0.116 C 
BRANCH  25  26
ATOM     26  N   UNL     1       5.754   4.738  -6.316  1.00  0.00    -0.352 N 
ATOM     27  C   UNL     1       6.058   4.830  -7.661  1.00  0.00     0.251 C 
ATOM     28  H   UNL     1       6.522   4.790  -5.702  1.00  0.00     0.163 HD
ATOM     29  O   UNL     1       7.199   4.623  -8.058  1.00  0.00    -0.269 OA
BRANCH  27  30
ATOM     30  C   UNL     1       4.986   5.196  -8.602  1.00  0.00     0.039 A 
ATOM     31  C   UNL     1       4.920   4.703  -9.908  1.00  0.00     0.014 A 
ATOM     32  C   UNL     1       4.009   6.064  -8.130  1.00  0.00     0.014 A 
ATOM     33  C   UNL     1       3.843   5.086 -10.703  1.00  0.00     0.010 A 
ATOM     34  C   UNL     1       2.831   6.195  -8.796  1.00  0.00     0.010 A 
ATOM     35  C   UNL     1       2.806   5.840 -10.129  1.00  0.00    -0.014 A 
BRANCH  35  36
ATOM     36  C   UNL     1       1.626   6.250 -10.869  1.00  0.00     0.031 A 
ATOM     37  C   UNL     1       0.863   5.106 -11.413  1.00  0.00     0.074 A 
ATOM     38  C   UNL     1       1.168   7.524 -10.852  1.00  0.00     0.049 A 
ATOM     39  N   UNL     1       0.832   4.700 -12.637  1.00  0.00    -0.248 NA
ATOM     40  C   UNL     1       0.241   4.169 -10.462  1.00  0.00     0.031 C 
ATOM     41  C   UNL     1       1.655   8.673 -10.070  1.00  0.00     0.029 A 
ATOM     42  N   UNL     1       0.093   8.051 -11.497  1.00  0.00    -0.354 N 
ATOM     43  C   UNL     1      -0.034   3.612 -12.649  1.00  0.00     0.074 A 
ATOM     44  C   UNL     1      -0.170   3.197 -11.279  1.00  0.00     0.031 C 
ATOM     45  C   UNL     1       0.757   9.683 -10.121  1.00  0.00     0.029 A 
ATOM     46  C   UNL     1      -0.270   9.332 -11.082  1.00  0.00     0.049 A 
ATOM     47  H   UNL     1      -0.392   7.565 -12.203  1.00  0.00     0.167 HD
ATOM     48  C   UNL     1      -0.778   3.331 -13.755  1.00  0.00     0.037 A 
ATOM     49  C   UNL     1      -1.338  10.046 -11.522  1.00  0.00     0.037 A 
ATOM     50  C   UNL     1      -0.312   4.108 -14.880  1.00  0.00     0.049 A 
ATOM     51  C   UNL     1      -1.699   9.464 -12.839  1.00  0.00     0.074 A 
ATOM     52  C   UNL     1       0.808   4.111 -15.684  1.00  0.00     0.029 A 
ATOM     53  N   UNL     1      -0.894   5.346 -14.994  1.00  0.00    -0.354 N 
ATOM     54  N   UNL     1      -0.917   9.497 -13.884  1.00  0.00    -0.248 NA
ATOM     55  C   UNL     1      -2.755   8.464 -12.885  1.00  0.00     0.031 C 
ATOM     56  C   UNL     1       1.034   5.481 -16.022  1.00  0.00     0.029 A 
ATOM     57  C   UNL     1       0.012   6.258 -15.473  1.00  0.00     0.049 A 
ATOM     58  H   UNL     1      -1.829   5.551 -14.764  1.00  0.00     0.167 HD
ATOM     59  C   UNL     1      -1.110   8.278 -14.514  1.00  0.00     0.074 A 
ATOM     60  C   UNL     1      -2.347   7.753 -13.940  1.00  0.00     0.031 C 
ATOM     61  C   UNL     1      -0.099   7.685 -15.218  1.00  0.00     0.037 A 
BRANCH  48  62
ATOM     62  C   UNL     1      -2.164   2.722 -13.734  1.00  0.00     0.058 A 
ATOM     63  C   UNL     1      -2.773   2.358 -14.954  1.00  0.00     0.135 A 
ATOM     64  C   UNL     1      -3.022   2.725 -12.611  1.00  0.00     0.135 A 
ATOM     65  F   UNL     1      -2.063   2.336 -16.093  1.00  0.00    -0.206 F 
ATOM     66  C   UNL     1      -4.136   2.068 -15.056  1.00  0.00     0.059 A 
ATOM     67  C   UNL     1      -4.370   2.388 -12.681  1.00  0.00     0.059 A 
ATOM     68  F   UNL     1      -2.623   3.143 -11.404  1.00  0.00    -0.206 F 
ATOM     69  C   UNL     1      -4.928   2.092 -13.912  1.00  0.00     0.060 A 
BRANCH  69  70
ATOM     70  S   UNL     1      -6.696   1.780 -14.050  1.00  0.00     0.124 S 
ATOM     71  O   UNL     1      -7.139   2.929 -14.831  1.00  0.00    -0.237 OA
ATOM     72  O   UNL     1      -6.720   0.492 -14.735  1.00  0.00    -0.237 OA
ATOM     73  O   UNL     1      -7.143   1.752 -12.660  1.00  0.00    -0.744 OA
ENDBRANCH  69  70
ENDBRANCH  48  62
BRANCH  49  74
ATOM     74  C   UNL     1      -2.295  10.870 -10.729  1.00  0.00     0.058 A 
ATOM     75  C   UNL     1      -3.248  11.690 -11.364  1.00  0.00     0.135 A 
ATOM     76  C   UNL     1      -2.510  10.620  -9.359  1.00  0.00     0.135 A 
ATOM     77  F   UNL     1      -3.128  11.972 -12.671  1.00  0.00    -0.206 F 
ATOM     78  C   UNL     1      -4.383  12.173 -10.701  1.00  0.00     0.059 A 
ATOM     79  C   UNL     1      -3.634  11.091  -8.677  1.00  0.00     0.059 A 
ATOM     80  F   UNL     1      -1.680   9.825  -8.667  1.00  0.00    -0.206 F 
ATOM     81  C   UNL     1      -4.583  11.843  -9.361  1.00  0.00     0.060 A 
BRANCH  81  82
ATOM     82  S   UNL     1      -6.137  12.304  -8.553  1.00  0.00     0.124 S 
ATOM     83  O   UNL     1      -6.042  13.759  -8.521  1.00  0.00    -0.237 OA
ATOM     84  O   UNL     1      -7.133  11.750  -9.464  1.00  0.00    -0.237 OA
ATOM     85  O   UNL     1      -6.051  11.646  -7.252  1.00  0.00    -0.744 OA
ENDBRANCH  81  82
ENDBRANCH  49  74
BRANCH  61  86
ATOM     86  C   UNL     1       1.061   8.556 -15.646  1.00  0.00     0.058 A 
ATOM     87  C   UNL     1       1.994   9.156 -14.780  1.00  0.00     0.135 A 
ATOM     88  C   UNL     1       1.290   8.702 -17.022  1.00  0.00     0.135 A 
ATOM     89  F   UNL     1       1.903   9.000 -13.453  1.00  0.00    -0.206 F 
ATOM     90  C   UNL     1       3.079   9.897 -15.262  1.00  0.00     0.059 A 
ATOM     91  C   UNL     1       2.380   9.407 -17.525  1.00  0.00     0.059 A 
ATOM     92  F   UNL     1       0.466   8.113 -17.905  1.00  0.00    -0.206 F 
ATOM     93  C   UNL     1       3.264  10.016 -16.639  1.00  0.00     0.060 A 
BRANCH  93  94
ATOM     94  S   UNL     1       4.686  10.937 -17.267  1.00  0.00     0.124 S 
ATOM     95  O   UNL     1       4.375  12.303 -16.859  1.00  0.00    -0.237 OA
ATOM     96  O   UNL     1       5.804  10.306 -16.572  1.00  0.00    -0.237 OA
ATOM     97  O   UNL     1       4.641  10.694 -18.708  1.00  0.00    -0.744 OA
ENDBRANCH  93  94
ENDBRANCH  61  86
ENDBRANCH  35  36
ENDBRANCH  27  30
ENDBRANCH  25  26
ENDBRANCH  24  25
ENDBRANCH  23  24
ENDBRANCH   1  23
TORSDOF 19
