REMARK SMILES C/C(=N\Nc1nc(-c2ccc(Cl)cc2)cs1)c1nnn(-c2ccc(C(=O)NCCCCCCNC(=O)c3ccc(-c4c5nc(c(-c6c(F)cc(S(=O)(=O)[O-])cc6F)c6ccc([nH]6)c(-c6c(F)cc(S(=O)(=O)[O-])cc6F)c6nc(c(-c7c(F)cc(S(=O)(=O)[O-])cc7F)c7ccc4[nH]7)C=C6)C=C5)cc3)cc2)c1C
REMARK SMILES IDX 29 1 28 2 27 3 25 4 26 5 24 7 21 8 22 9 104 10 23 11 103 12
REMARK SMILES IDX 20 13 17 14 18 15 105 16 19 17 106 18 2 19 1 20 3 21 4 22
REMARK SMILES IDX 5 24 6 25 16 26 7 27 15 28 8 29 9 30 14 31 10 32 13 33 11 34
REMARK SMILES IDX 12 35 30 36 31 37 32 38 33 39 34 40 35 41 36 43 37 44 38 45
REMARK SMILES IDX 102 46 39 47 101 48 40 49 41 50 42 51 95 52 43 53 100 54
REMARK SMILES IDX 94 55 96 56 44 57 99 58 93 59 92 60 45 62 79 63 58 64 78 65
REMARK SMILES IDX 59 66 62 67 77 68 97 69 60 70 61 71 76 73 98 74 63 75 46 76
REMARK SMILES IDX 47 77 56 78 48 79 49 80 55 81 57 82 50 83 51 84 52 85 53 86
REMARK SMILES IDX 54 87 80 88 81 89 90 90 82 91 83 92 89 93 91 94 84 95 85 96
REMARK SMILES IDX 86 97 87 98 88 99 64 100 65 101 74 102 66 103 67 104 73 105
REMARK SMILES IDX 75 106 68 107 69 108 70 109 71 110 72 111
REMARK H PARENT 27 6 4 23 34 42 96 61 62 72
REMARK Flexibility Score: inf
ROOT
ATOM      1  C   UNL     1       8.226   5.974   4.758  1.00  0.00     0.021 C 
ENDROOT
BRANCH   1   2
ATOM      2  C   UNL     1       8.073   4.453   4.679  1.00  0.00     0.116 C 
BRANCH   2   3
ATOM      3  N   UNL     1       7.724   3.911   5.981  1.00  0.00    -0.352 N 
ATOM      4  C   UNL     1       6.543   3.471   6.526  1.00  0.00     0.251 C 
ATOM      5  O   UNL     1       6.582   3.024   7.673  1.00  0.00    -0.269 OA
ATOM      6  H   UNL     1       8.489   3.846   6.597  1.00  0.00     0.163 HD
BRANCH   4   7
ATOM      7  C   UNL     1       5.257   3.427   5.772  1.00  0.00     0.039 A 
ATOM      8  C   UNL     1       2.950   2.983   4.260  1.00  0.00     0.067 A 
ATOM      9  C   UNL     1       3.129   2.271   5.446  1.00  0.00     0.029 A 
ATOM     10  C   UNL     1       3.839   3.995   3.894  1.00  0.00     0.029 A 
ATOM     11  C   UNL     1       4.301   2.477   6.181  1.00  0.00     0.016 A 
ATOM     12  C   UNL     1       4.958   4.250   4.684  1.00  0.00     0.016 A 
BRANCH   8  13
ATOM     13  N   UNL     1       1.942   2.601   3.358  1.00  0.00    -0.217 N 
ATOM     14  C   UNL     1       0.867   1.784   1.651  1.00  0.00     0.132 A 
ATOM     15  N   UNL     1      -0.021   1.986   2.672  1.00  0.00    -0.128 NA
ATOM     16  C   UNL     1       2.138   2.153   2.064  1.00  0.00     0.071 A 
ATOM     17  N   UNL     1       0.665   2.387   3.737  1.00  0.00    -0.061 NA
ATOM     18  C   UNL     1       3.469   1.942   1.435  1.00  0.00     0.069 C 
BRANCH  14  19
ATOM     19  C   UNL     1       0.555   1.052   0.434  1.00  0.00     0.087 C 
ATOM     20  C   UNL     1       1.302  -0.253   0.288  1.00  0.00     0.071 C 
ATOM     21  N   UNL     1      -0.273   1.616  -0.402  1.00  0.00    -0.176 NA
BRANCH  21  22
ATOM     22  N   UNL     1      -0.554   1.088  -1.643  1.00  0.00    -0.252 N 
ATOM     23  H   UNL     1      -0.831   1.743  -2.323  1.00  0.00     0.193 HD
BRANCH  22  24
ATOM     24  C   UNL     1      -0.508  -0.200  -2.069  1.00  0.00     0.203 A 
ATOM     25  N   UNL     1      -0.733  -1.260  -1.329  1.00  0.00    -0.219 NA
ATOM     26  S   UNL     1       0.035  -0.575  -3.668  1.00  0.00    -0.103 S 
ATOM     27  C   UNL     1      -0.145  -2.373  -1.890  1.00  0.00     0.084 A 
ATOM     28  C   UNL     1       0.341  -2.194  -3.167  1.00  0.00     0.097 A 
BRANCH  27  29
ATOM     29  C   UNL     1       0.015  -3.570  -1.086  1.00  0.00     0.001 A 
ATOM     30  C   UNL     1      -1.091  -4.078  -0.393  1.00  0.00     0.012 A 
ATOM     31  C   UNL     1       1.280  -4.136  -0.875  1.00  0.00     0.012 A 
ATOM     32  C   UNL     1      -0.944  -5.162   0.476  1.00  0.00     0.021 A 
ATOM     33  C   UNL     1       1.429  -5.213   0.005  1.00  0.00     0.021 A 
ATOM     34  C   UNL     1       0.315  -5.725   0.670  1.00  0.00     0.041 A 
ATOM     35  Cl  UNL     1       0.500  -7.050   1.752  1.00  0.00    -0.084 Cl
ENDBRANCH  27  29
ENDBRANCH  22  24
ENDBRANCH  21  22
ENDBRANCH  14  19
ENDBRANCH   8  13
ENDBRANCH   4   7
ENDBRANCH   2   3
ENDBRANCH   1   2
BRANCH   1  36
ATOM     36  C   UNL     1       9.593   6.416   5.298  1.00  0.00     0.002 C 
BRANCH  36  37
ATOM     37  C   UNL     1      10.803   5.965   4.463  1.00  0.00     0.002 C 
BRANCH  37  38
ATOM     38  C   UNL     1      10.740   6.303   2.967  1.00  0.00     0.021 C 
BRANCH  38  39
ATOM     39  C   UNL     1      10.787   7.800   2.685  1.00  0.00     0.116 C 
BRANCH  39  40
ATOM     40  N   UNL     1      12.096   8.359   2.999  1.00  0.00    -0.352 N 
ATOM     41  C   UNL     1      12.552   9.635   2.782  1.00  0.00     0.251 C 
ATOM     42  H   UNL     1      12.736   7.742   3.422  1.00  0.00     0.163 HD
ATOM     43  O   UNL     1      13.769   9.846   2.724  1.00  0.00    -0.269 OA
BRANCH  41  44
ATOM     44  C   UNL     1      11.598  10.746   2.624  1.00  0.00     0.039 A 
ATOM     45  C   UNL     1      11.866  11.778   1.721  1.00  0.00     0.014 A 
ATOM     46  C   UNL     1      10.443  10.778   3.411  1.00  0.00     0.014 A 
ATOM     47  C   UNL     1      10.937  12.803   1.568  1.00  0.00     0.010 A 
ATOM     48  C   UNL     1       9.483  11.746   3.200  1.00  0.00     0.010 A 
ATOM     49  C   UNL     1       9.734  12.773   2.295  1.00  0.00    -0.014 A 
BRANCH  49  50
ATOM     50  C   UNL     1       8.645  13.684   1.936  1.00  0.00     0.031 A 
ATOM     51  C   UNL     1       8.246  13.545   0.505  1.00  0.00     0.074 A 
ATOM     52  C   UNL     1       7.924  14.403   2.827  1.00  0.00     0.049 A 
ATOM     53  N   UNL     1       8.445  14.389  -0.452  1.00  0.00    -0.248 NA
ATOM     54  C   UNL     1       7.767  12.231   0.036  1.00  0.00     0.031 C 
ATOM     55  C   UNL     1       8.028  14.371   4.289  1.00  0.00     0.029 A 
ATOM     56  N   UNL     1       6.871  15.250   2.629  1.00  0.00    -0.354 N 
ATOM     57  C   UNL     1       7.854  13.825  -1.581  1.00  0.00     0.074 A 
ATOM     58  C   UNL     1       7.686  12.430  -1.281  1.00  0.00     0.031 C 
ATOM     59  C   UNL     1       6.946  14.969   4.838  1.00  0.00     0.029 A 
ATOM     60  C   UNL     1       6.146  15.562   3.782  1.00  0.00     0.049 A 
ATOM     61  H   UNL     1       6.641  15.613   1.743  1.00  0.00     0.167 HD
ATOM     62  C   UNL     1       7.278  14.620  -2.527  1.00  0.00     0.037 A 
ATOM     63  C   UNL     1       4.968  16.241   3.862  1.00  0.00     0.037 A 
ATOM     64  C   UNL     1       7.724  15.984  -2.363  1.00  0.00     0.049 A 
ATOM     65  C   UNL     1       4.829  17.002   2.598  1.00  0.00     0.074 A 
ATOM     66  C   UNL     1       8.940  16.635  -2.394  1.00  0.00     0.029 A 
ATOM     67  N   UNL     1       6.849  16.823  -1.720  1.00  0.00    -0.354 N 
ATOM     68  N   UNL     1       5.604  17.993   2.257  1.00  0.00    -0.248 NA
ATOM     69  C   UNL     1       4.094  16.381   1.509  1.00  0.00     0.031 C 
ATOM     70  C   UNL     1       8.842  17.657  -1.404  1.00  0.00     0.029 A 
ATOM     71  C   UNL     1       7.548  17.642  -0.879  1.00  0.00     0.049 A 
ATOM     72  H   UNL     1       5.873  16.834  -1.845  1.00  0.00     0.167 HD
ATOM     73  C   UNL     1       5.808  17.824   0.898  1.00  0.00     0.074 A 
ATOM     74  C   UNL     1       4.763  16.893   0.474  1.00  0.00     0.031 C 
ATOM     75  C   UNL     1       6.981  18.219   0.321  1.00  0.00     0.037 A 
BRANCH  62  76
ATOM     76  C   UNL     1       5.987  14.295  -3.266  1.00  0.00     0.058 A 
ATOM     77  C   UNL     1       5.483  15.240  -4.190  1.00  0.00     0.135 A 
ATOM     78  C   UNL     1       5.079  13.275  -2.904  1.00  0.00     0.135 A 
ATOM     79  F   UNL     1       6.251  16.253  -4.623  1.00  0.00    -0.206 F 
ATOM     80  C   UNL     1       4.159  15.232  -4.632  1.00  0.00     0.059 A 
ATOM     81  C   UNL     1       3.769  13.221  -3.371  1.00  0.00     0.059 A 
ATOM     82  F   UNL     1       5.374  12.319  -2.018  1.00  0.00    -0.206 F 
ATOM     83  C   UNL     1       3.305  14.224  -4.204  1.00  0.00     0.060 A 
BRANCH  83  84
ATOM     84  S   UNL     1       1.583  14.239  -4.724  1.00  0.00     0.124 S 
ATOM     85  O   UNL     1       1.075  15.406  -4.014  1.00  0.00    -0.237 OA
ATOM     86  O   UNL     1       1.710  14.371  -6.172  1.00  0.00    -0.237 OA
ATOM     87  O   UNL     1       1.083  12.948  -4.261  1.00  0.00    -0.744 OA
ENDBRANCH  83  84
ENDBRANCH  62  76
BRANCH  63  88
ATOM     88  C   UNL     1       3.816  16.072   4.798  1.00  0.00     0.058 A 
ATOM     89  C   UNL     1       2.755  17.003   4.832  1.00  0.00     0.135 A 
ATOM     90  C   UNL     1       3.573  14.847   5.447  1.00  0.00     0.135 A 
ATOM     91  F   UNL     1       2.884  18.196   4.231  1.00  0.00    -0.206 F 
ATOM     92  C   UNL     1       1.512  16.711   5.412  1.00  0.00     0.059 A 
ATOM     93  C   UNL     1       2.346  14.536   6.038  1.00  0.00     0.059 A 
ATOM     94  F   UNL     1       4.493  13.870   5.441  1.00  0.00    -0.206 F 
ATOM     95  C   UNL     1       1.308  15.460   5.991  1.00  0.00     0.060 A 
BRANCH  95  96
ATOM     96  S   UNL     1      -0.347  14.998   6.564  1.00  0.00     0.124 S 
ATOM     97  O   UNL     1      -0.508  15.844   7.741  1.00  0.00    -0.237 OA
ATOM     98  O   UNL     1      -1.180  15.339   5.416  1.00  0.00    -0.237 OA
ATOM     99  O   UNL     1      -0.223  13.568   6.835  1.00  0.00    -0.744 OA
ENDBRANCH  95  96
ENDBRANCH  63  88
BRANCH  75 100
ATOM    100  C   UNL     1       7.840  19.214   1.057  1.00  0.00     0.058 A 
ATOM    101  C   UNL     1       8.477  18.994   2.291  1.00  0.00     0.135 A 
ATOM    102  C   UNL     1       8.135  20.411   0.386  1.00  0.00     0.135 A 
ATOM    103  F   UNL     1       8.323  17.839   2.955  1.00  0.00    -0.206 F 
ATOM    104  C   UNL     1       9.344  19.941   2.844  1.00  0.00     0.059 A 
ATOM    105  C   UNL     1       9.021  21.349   0.899  1.00  0.00     0.059 A 
ATOM    106  F   UNL     1       7.596  20.657  -0.820  1.00  0.00    -0.206 F 
ATOM    107  C   UNL     1       9.613  21.115   2.137  1.00  0.00     0.060 A 
BRANCH 107 108
ATOM    108  S   UNL     1      10.785  22.311   2.810  1.00  0.00     0.124 S 
ATOM    109  O   UNL     1      10.049  22.857   3.946  1.00  0.00    -0.237 OA
ATOM    110  O   UNL     1      11.936  21.476   3.141  1.00  0.00    -0.237 OA
ATOM    111  O   UNL     1      11.000  23.240   1.703  1.00  0.00    -0.744 OA
ENDBRANCH 107 108
ENDBRANCH  75 100
ENDBRANCH  49  50
ENDBRANCH  41  44
ENDBRANCH  39  40
ENDBRANCH  38  39
ENDBRANCH  37  38
ENDBRANCH  36  37
ENDBRANCH   1  36
TORSDOF 21
