REMARK SMILES Nc1cc(Br)ccc1C(=O)NC1(C(=O)NCCCCCCNC(=O)c2ccc(-c3c4nc(c(-c5c(F)cc(S(=O)(=O)[O-])cc5F)c5ccc([nH]5)c(-c5c(F)cc(S(=O)(=O)[O-])cc5F)c5nc(c(-c6c(F)cc(S(=O)(=O)[O-])cc6F)c6ccc3[nH]6)C=C5)C=C4)cc2)CC1
REMARK SMILES IDX 18 1 17 2 16 3 15 4 13 5 14 6 12 8 91 9 92 10 11 11 9 12
REMARK SMILES IDX 10 13 8 15 2 16 3 17 4 18 7 19 5 20 6 21 1 22 19 25 20 26
REMARK SMILES IDX 21 27 22 28 23 29 24 31 25 32 26 33 90 34 27 35 89 36 28 37
REMARK SMILES IDX 29 38 30 39 83 40 31 41 88 42 82 43 84 44 32 45 87 46 81 47
REMARK SMILES IDX 80 48 33 50 67 51 46 52 66 53 47 54 50 55 65 56 85 57 48 58
REMARK SMILES IDX 49 59 64 61 86 62 51 63 34 64 35 65 44 66 36 67 37 68 43 69
REMARK SMILES IDX 45 70 38 71 39 72 40 73 41 74 42 75 68 76 69 77 78 78 70 79
REMARK SMILES IDX 71 80 77 81 79 82 72 83 73 84 74 85 75 86 76 87 52 88 53 89
REMARK SMILES IDX 62 90 54 91 55 92 61 93 63 94 56 95 57 96 58 97 59 98 60 99
REMARK H PARENT 15 7 11 14 1 23 1 24 22 30 84 49 50 60
REMARK Flexibility Score: inf
ROOT
ATOM      1  C   UNL     1       4.904   1.231   3.859  1.00  0.00     0.002 C 
ENDROOT
BRANCH   1   2
ATOM      2  C   UNL     1       4.404   0.456   2.629  1.00  0.00     0.021 C 
BRANCH   2   3
ATOM      3  C   UNL     1       3.084  -0.294   2.817  1.00  0.00     0.116 C 
BRANCH   3   4
ATOM      4  N   UNL     1       2.015   0.624   3.133  1.00  0.00    -0.354 N 
ATOM      5  C   UNL     1       0.759   0.846   2.660  1.00  0.00     0.245 C 
ATOM      6  O   UNL     1       0.137   1.745   3.237  1.00  0.00    -0.272 OA
ATOM      7  H   UNL     1       2.252   1.236   3.866  1.00  0.00     0.163 HD
BRANCH   5   8
ATOM      8  C   UNL     1       0.033   0.088   1.546  1.00  0.00     0.119 C 
ATOM      9  C   UNL     1      -0.157  -1.402   1.870  1.00  0.00     0.041 C 
ATOM     10  C   UNL     1       0.554  -0.997   0.629  1.00  0.00     0.041 C 
BRANCH   8  11
ATOM     11  N   UNL     1      -1.157   0.827   1.151  1.00  0.00    -0.338 N 
ATOM     12  C   UNL     1      -1.425   1.642   0.079  1.00  0.00     0.254 C 
ATOM     13  O   UNL     1      -2.343   2.460   0.184  1.00  0.00    -0.269 OA
ATOM     14  H   UNL     1      -1.915   0.722   1.771  1.00  0.00     0.164 HD
BRANCH  12  15
ATOM     15  C   UNL     1      -0.790   1.484  -1.252  1.00  0.00     0.062 A 
ATOM     16  C   UNL     1       0.586   1.464  -1.535  1.00  0.00     0.045 A 
ATOM     17  C   UNL     1       0.983   1.194  -2.858  1.00  0.00     0.042 A 
ATOM     18  C   UNL     1       0.047   1.093  -3.891  1.00  0.00     0.020 A 
ATOM     19  C   UNL     1      -1.721   1.419  -2.313  1.00  0.00     0.017 A 
ATOM     20  Br  UNL     1       0.624   0.782  -5.665  1.00  0.00    -0.051 Br
ATOM     21  C   UNL     1      -1.307   1.238  -3.629  1.00  0.00     0.016 A 
BRANCH  16  22
ATOM     22  N   UNL     1       1.582   1.629  -0.577  1.00  0.00    -0.398 N 
ATOM     23  H   UNL     1       2.529   1.605  -0.843  1.00  0.00     0.156 HD
ATOM     24  H   UNL     1       1.338   1.771   0.366  1.00  0.00     0.156 HD
ENDBRANCH  16  22
ENDBRANCH  12  15
ENDBRANCH   8  11
ENDBRANCH   5   8
ENDBRANCH   3   4
ENDBRANCH   2   3
ENDBRANCH   1   2
BRANCH   1  25
ATOM     25  C   UNL     1       5.097   0.409   5.138  1.00  0.00     0.002 C 
BRANCH  25  26
ATOM     26  C   UNL     1       5.947  -0.851   4.987  1.00  0.00     0.021 C 
BRANCH  26  27
ATOM     27  C   UNL     1       7.336  -0.625   4.404  1.00  0.00     0.116 C 
BRANCH  27  28
ATOM     28  N   UNL     1       8.216   0.101   5.305  1.00  0.00    -0.352 N 
ATOM     29  C   UNL     1       9.473  -0.252   5.743  1.00  0.00     0.251 C 
ATOM     30  H   UNL     1       7.869   0.957   5.647  1.00  0.00     0.163 HD
ATOM     31  O   UNL     1      10.037   0.405   6.613  1.00  0.00    -0.269 OA
BRANCH  29  32
ATOM     32  C   UNL     1      10.117  -1.457   5.178  1.00  0.00     0.039 A 
ATOM     33  C   UNL     1      10.174  -1.644   3.795  1.00  0.00     0.014 A 
ATOM     34  C   UNL     1      10.615  -2.433   6.045  1.00  0.00     0.014 A 
ATOM     35  C   UNL     1      10.583  -2.871   3.284  1.00  0.00     0.010 A 
ATOM     36  C   UNL     1      11.095  -3.638   5.523  1.00  0.00     0.010 A 
ATOM     37  C   UNL     1      11.043  -3.883   4.142  1.00  0.00    -0.014 A 
BRANCH  37  38
ATOM     38  C   UNL     1      11.466  -5.192   3.579  1.00  0.00     0.031 A 
ATOM     39  C   UNL     1      10.696  -6.448   3.891  1.00  0.00     0.074 A 
ATOM     40  C   UNL     1      12.524  -5.238   2.747  1.00  0.00     0.049 A 
ATOM     41  N   UNL     1      10.947  -7.680   3.527  1.00  0.00    -0.248 NA
ATOM     42  C   UNL     1       9.486  -6.304   4.717  1.00  0.00     0.031 C 
ATOM     43  C   UNL     1      13.329  -4.082   2.342  1.00  0.00     0.029 A 
ATOM     44  N   UNL     1      13.094  -6.289   2.075  1.00  0.00    -0.354 N 
ATOM     45  C   UNL     1       9.939  -8.458   4.087  1.00  0.00     0.074 A 
ATOM     46  C   UNL     1       9.084  -7.563   4.835  1.00  0.00     0.031 C 
ATOM     47  C   UNL     1      14.257  -4.479   1.459  1.00  0.00     0.029 A 
ATOM     48  C   UNL     1      14.159  -5.924   1.286  1.00  0.00     0.049 A 
ATOM     49  H   UNL     1      12.771  -7.216   2.151  1.00  0.00     0.167 HD
ATOM     50  C   UNL     1       9.743  -9.795   3.977  1.00  0.00     0.037 A 
ATOM     51  C   UNL     1      14.978  -6.671   0.522  1.00  0.00     0.037 A 
ATOM     52  C   UNL     1      10.593 -10.679   3.221  1.00  0.00     0.049 A 
ATOM     53  C   UNL     1      14.771  -8.157   0.464  1.00  0.00     0.074 A 
ATOM     54  C   UNL     1      10.495 -12.052   3.074  1.00  0.00     0.029 A 
ATOM     55  N   UNL     1      11.691 -10.277   2.474  1.00  0.00    -0.354 N 
ATOM     56  N   UNL     1      13.845  -8.882   1.044  1.00  0.00    -0.248 NA
ATOM     57  C   UNL     1      15.727  -8.928  -0.341  1.00  0.00     0.031 C 
ATOM     58  C   UNL     1      11.547 -12.483   2.259  1.00  0.00     0.029 A 
ATOM     59  C   UNL     1      12.278 -11.374   1.865  1.00  0.00     0.049 A 
ATOM     60  H   UNL     1      12.006  -9.348   2.389  1.00  0.00     0.167 HD
ATOM     61  C   UNL     1      14.094 -10.193   0.657  1.00  0.00     0.074 A 
ATOM     62  C   UNL     1      15.251 -10.160  -0.214  1.00  0.00     0.031 C 
ATOM     63  C   UNL     1      13.425 -11.322   0.995  1.00  0.00     0.037 A 
BRANCH  50  64
ATOM     64  C   UNL     1       8.565 -10.394   4.695  1.00  0.00     0.058 A 
ATOM     65  C   UNL     1       7.255 -10.229   4.218  1.00  0.00     0.135 A 
ATOM     66  C   UNL     1       8.752 -11.198   5.831  1.00  0.00     0.135 A 
ATOM     67  F   UNL     1       7.018  -9.455   3.147  1.00  0.00    -0.206 F 
ATOM     68  C   UNL     1       6.171 -10.833   4.848  1.00  0.00     0.059 A 
ATOM     69  C   UNL     1       7.684 -11.829   6.465  1.00  0.00     0.059 A 
ATOM     70  F   UNL     1       9.984 -11.386   6.330  1.00  0.00    -0.206 F 
ATOM     71  C   UNL     1       6.396 -11.634   5.969  1.00  0.00     0.060 A 
BRANCH  71  72
ATOM     72  S   UNL     1       4.979 -12.426   6.760  1.00  0.00     0.124 S 
ATOM     73  O   UNL     1       4.319 -11.283   7.384  1.00  0.00    -0.237 OA
ATOM     74  O   UNL     1       4.279 -13.018   5.624  1.00  0.00    -0.237 OA
ATOM     75  O   UNL     1       5.590 -13.378   7.681  1.00  0.00    -0.744 OA
ENDBRANCH  71  72
ENDBRANCH  50  64
BRANCH  51  76
ATOM     76  C   UNL     1      16.070  -6.018  -0.245  1.00  0.00     0.058 A 
ATOM     77  C   UNL     1      16.009  -5.924  -1.642  1.00  0.00     0.135 A 
ATOM     78  C   UNL     1      17.178  -5.451   0.403  1.00  0.00     0.135 A 
ATOM     79  F   UNL     1      14.971  -6.458  -2.306  1.00  0.00    -0.206 F 
ATOM     80  C   UNL     1      17.011  -5.296  -2.373  1.00  0.00     0.059 A 
ATOM     81  C   UNL     1      18.180  -4.795  -0.303  1.00  0.00     0.059 A 
ATOM     82  F   UNL     1      17.274  -5.503   1.741  1.00  0.00    -0.206 F 
ATOM     83  C   UNL     1      18.091  -4.730  -1.693  1.00  0.00     0.060 A 
BRANCH  83  84
ATOM     84  S   UNL     1      19.356  -3.863  -2.646  1.00  0.00     0.124 S 
ATOM     85  O   UNL     1      20.077  -4.974  -3.254  1.00  0.00    -0.237 OA
ATOM     86  O   UNL     1      18.553  -3.048  -3.552  1.00  0.00    -0.237 OA
ATOM     87  O   UNL     1      20.088  -3.115  -1.627  1.00  0.00    -0.744 OA
ENDBRANCH  83  84
ENDBRANCH  51  76
BRANCH  63  88
ATOM     88  C   UNL     1      13.904 -12.610   0.390  1.00  0.00     0.058 A 
ATOM     89  C   UNL     1      15.070 -13.246   0.842  1.00  0.00     0.135 A 
ATOM     90  C   UNL     1      13.165 -13.234  -0.627  1.00  0.00     0.135 A 
ATOM     91  F   UNL     1      15.815 -12.685   1.807  1.00  0.00    -0.206 F 
ATOM     92  C   UNL     1      15.501 -14.446   0.288  1.00  0.00     0.059 A 
ATOM     93  C   UNL     1      13.565 -14.446  -1.180  1.00  0.00     0.059 A 
ATOM     94  F   UNL     1      12.037 -12.669  -1.087  1.00  0.00    -0.206 F 
ATOM     95  C   UNL     1      14.742 -15.038  -0.724  1.00  0.00     0.060 A 
BRANCH  95  96
ATOM     96  S   UNL     1      15.300 -16.608  -1.419  1.00  0.00     0.124 S 
ATOM     97  O   UNL     1      16.421 -16.180  -2.249  1.00  0.00    -0.237 OA
ATOM     98  O   UNL     1      15.649 -17.372  -0.225  1.00  0.00    -0.237 OA
ATOM     99  O   UNL     1      14.129 -17.093  -2.145  1.00  0.00    -0.744 OA
ENDBRANCH  95  96
ENDBRANCH  63  88
ENDBRANCH  37  38
ENDBRANCH  29  32
ENDBRANCH  27  28
ENDBRANCH  26  27
ENDBRANCH  25  26
ENDBRANCH   1  25
TORSDOF 19
