REMARK SMILES O=C(C/C(=C/c1ccc(N2CCOCC2)c(F)c1)c1nc2ccccc2s1)NCCCCCCNC(=O)c1ccc(-c2c3nc(c(-c4c(F)cc(S(=O)(=O)[O-])cc4F)c4ccc([nH]4)c(-c4c(F)cc(S(=O)(=O)[O-])cc4F)c4nc(c(-c5c(F)cc(S(=O)(=O)[O-])cc5F)c5ccc2[nH]5)C=C4)C=C3)cc1
REMARK SMILES IDX 31 1 30 2 29 3 28 4 1 5 2 6 3 8 4 9 5 10 19 11 20 12 27 13
REMARK SMILES IDX 21 14 26 15 22 16 25 17 23 18 24 19 6 20 7 21 18 22 8 23
REMARK SMILES IDX 16 24 9 25 17 26 10 27 11 28 15 29 12 30 14 31 13 32 32 33
REMARK SMILES IDX 33 34 34 35 35 36 36 37 37 39 38 40 39 41 103 42 40 43
REMARK SMILES IDX 102 44 41 45 42 46 43 47 96 48 44 49 101 50 95 51 97 52
REMARK SMILES IDX 45 53 100 54 94 55 93 56 46 58 80 59 59 60 79 61 60 62 63 63
REMARK SMILES IDX 78 64 98 65 61 66 62 67 77 69 99 70 64 71 47 72 48 73 57 74
REMARK SMILES IDX 49 75 50 76 56 77 58 78 51 79 52 80 53 81 54 82 55 83 81 84
REMARK SMILES IDX 82 85 91 86 83 87 84 88 90 89 92 90 85 91 86 92 87 93 88 94
REMARK SMILES IDX 89 95 65 96 66 97 75 98 67 99 68 100 74 101 76 102 69 103
REMARK SMILES IDX 70 104 71 105 72 106 73 107
REMARK H PARENT 28 7 35 38 97 57 63 68
REMARK Flexibility Score: inf
ROOT
ATOM      1  C   UNL     1       4.246  -1.412  -3.501  1.00  0.00     0.002 C 
ENDROOT
BRANCH   1   2
ATOM      2  C   UNL     1       2.745  -1.142  -3.329  1.00  0.00     0.021 C 
BRANCH   2   3
ATOM      3  C   UNL     1       2.191  -1.485  -1.949  1.00  0.00     0.116 C 
BRANCH   3   4
ATOM      4  N   UNL     1       2.851  -0.735  -0.899  1.00  0.00    -0.356 N 
ATOM      5  O   UNL     1       1.052   0.593  -0.383  1.00  0.00    -0.275 OA
ATOM      6  C   UNL     1       2.199   0.220  -0.151  1.00  0.00     0.224 C 
ATOM      7  H   UNL     1       3.801  -0.916  -0.713  1.00  0.00     0.163 HD
BRANCH   6   8
ATOM      8  C   UNL     1       3.025   0.849   0.965  1.00  0.00     0.138 C 
BRANCH   8   9
ATOM      9  C   UNL     1       3.802  -0.139   1.828  1.00  0.00    -0.002 C 
ATOM     10  C   UNL     1       5.156  -0.038   1.825  1.00  0.00     0.015 C 
BRANCH   9  11
ATOM     11  C   UNL     1       3.172  -1.107   2.697  1.00  0.00     0.121 A 
ATOM     12  N   UNL     1       3.483  -1.339   3.958  1.00  0.00    -0.236 NA
ATOM     13  S   UNL     1       1.924  -2.144   2.091  1.00  0.00    -0.114 S 
ATOM     14  C   UNL     1       2.817  -2.454   4.439  1.00  0.00     0.082 A 
ATOM     15  C   UNL     1       1.917  -3.037   3.552  1.00  0.00     0.055 A 
ATOM     16  C   UNL     1       2.989  -3.038   5.710  1.00  0.00     0.030 A 
ATOM     17  C   UNL     1       1.173  -4.180   3.886  1.00  0.00     0.021 A 
ATOM     18  C   UNL     1       2.264  -4.185   6.051  1.00  0.00     0.002 A 
ATOM     19  C   UNL     1       1.367  -4.747   5.148  1.00  0.00     0.002 A 
ENDBRANCH   9  11
BRANCH  10  20
ATOM     20  C   UNL     1       6.135  -0.814   2.605  1.00  0.00    -0.022 A 
ATOM     21  C   UNL     1       6.206  -2.208   2.545  1.00  0.00     0.010 A 
ATOM     22  C   UNL     1       7.030  -0.132   3.429  1.00  0.00     0.049 A 
ATOM     23  C   UNL     1       7.122  -2.910   3.342  1.00  0.00     0.029 A 
ATOM     24  C   UNL     1       7.931  -0.843   4.222  1.00  0.00     0.147 A 
ATOM     25  C   UNL     1       7.995  -2.247   4.216  1.00  0.00     0.073 A 
ATOM     26  F   UNL     1       8.780  -0.134   4.987  1.00  0.00    -0.205 F 
BRANCH  25  27
ATOM     27  N   UNL     1       8.851  -2.962   5.028  1.00  0.00    -0.365 N 
ATOM     28  C   UNL     1       9.111  -2.582   6.420  1.00  0.00     0.145 C 
ATOM     29  C   UNL     1       9.678  -4.058   4.516  1.00  0.00     0.145 C 
ATOM     30  C   UNL     1      10.613  -2.345   6.626  1.00  0.00     0.181 C 
ATOM     31  C   UNL     1      11.159  -3.750   4.807  1.00  0.00     0.181 C 
ATOM     32  O   UNL     1      11.388  -3.483   6.203  1.00  0.00    -0.378 OA
ENDBRANCH  25  27
ENDBRANCH  10  20
ENDBRANCH   8   9
ENDBRANCH   6   8
ENDBRANCH   3   4
ENDBRANCH   2   3
ENDBRANCH   1   2
BRANCH   1  33
ATOM     33  C   UNL     1       4.695  -2.853  -3.238  1.00  0.00     0.002 C 
BRANCH  33  34
ATOM     34  C   UNL     1       4.000  -3.924  -4.082  1.00  0.00     0.021 C 
BRANCH  34  35
ATOM     35  C   UNL     1       4.122  -3.743  -5.592  1.00  0.00     0.116 C 
BRANCH  35  36
ATOM     36  N   UNL     1       5.496  -3.844  -6.060  1.00  0.00    -0.352 N 
ATOM     37  C   UNL     1       5.998  -4.571  -7.114  1.00  0.00     0.251 C 
ATOM     38  H   UNL     1       6.157  -3.320  -5.553  1.00  0.00     0.163 HD
ATOM     39  O   UNL     1       7.213  -4.657  -7.278  1.00  0.00    -0.269 OA
BRANCH  37  40
ATOM     40  C   UNL     1       5.072  -5.271  -8.031  1.00  0.00     0.039 A 
ATOM     41  C   UNL     1       5.320  -6.608  -8.355  1.00  0.00     0.014 A 
ATOM     42  C   UNL     1       3.957  -4.616  -8.558  1.00  0.00     0.014 A 
ATOM     43  C   UNL     1       4.409  -7.309  -9.151  1.00  0.00     0.010 A 
ATOM     44  C   UNL     1       3.020  -5.332  -9.300  1.00  0.00     0.010 A 
ATOM     45  C   UNL     1       3.232  -6.687  -9.599  1.00  0.00    -0.014 A 
BRANCH  45  46
ATOM     46  C   UNL     1       2.204  -7.428 -10.376  1.00  0.00     0.031 A 
ATOM     47  C   UNL     1       1.892  -7.016 -11.790  1.00  0.00     0.074 A 
ATOM     48  C   UNL     1       1.496  -8.413  -9.787  1.00  0.00     0.049 A 
ATOM     49  N   UNL     1       0.936  -7.434 -12.578  1.00  0.00    -0.248 NA
ATOM     50  C   UNL     1       2.752  -5.981 -12.388  1.00  0.00     0.031 C 
ATOM     51  C   UNL     1       1.682  -8.884  -8.412  1.00  0.00     0.029 A 
ATOM     52  N   UNL     1       0.464  -9.185 -10.261  1.00  0.00    -0.354 N 
ATOM     53  C   UNL     1       1.066  -6.703 -13.752  1.00  0.00     0.074 A 
ATOM     54  C   UNL     1       2.171  -5.789 -13.564  1.00  0.00     0.031 C 
ATOM     55  C   UNL     1       0.801  -9.866  -8.159  1.00  0.00     0.029 A 
ATOM     56  C   UNL     1      -0.042 -10.067  -9.334  1.00  0.00     0.049 A 
ATOM     57  H   UNL     1       0.117  -9.114 -11.180  1.00  0.00     0.167 HD
ATOM     58  C   UNL     1       0.343  -6.802 -14.892  1.00  0.00     0.037 A 
ATOM     59  C   UNL     1      -1.078 -10.926  -9.412  1.00  0.00     0.037 A 
ATOM     60  C   UNL     1      -0.725  -7.746 -15.091  1.00  0.00     0.049 A 
ATOM     61  C   UNL     1      -1.867 -11.014 -10.692  1.00  0.00     0.074 A 
ATOM     62  C   UNL     1      -1.480  -7.955 -16.233  1.00  0.00     0.029 A 
ATOM     63  N   UNL     1      -1.182  -8.643 -14.139  1.00  0.00    -0.354 N 
ATOM     64  N   UNL     1      -1.704 -10.340 -11.805  1.00  0.00    -0.248 NA
ATOM     65  C   UNL     1      -2.977 -11.978 -10.731  1.00  0.00     0.031 C 
ATOM     66  C   UNL     1      -2.416  -8.956 -15.960  1.00  0.00     0.029 A 
ATOM     67  C   UNL     1      -2.215  -9.400 -14.663  1.00  0.00     0.049 A 
ATOM     68  H   UNL     1      -0.825  -8.730 -13.226  1.00  0.00     0.167 HD
ATOM     69  C   UNL     1      -2.672 -10.817 -12.682  1.00  0.00     0.074 A 
ATOM     70  C   UNL     1      -3.411 -11.841 -11.977  1.00  0.00     0.031 C 
ATOM     71  C   UNL     1      -2.924 -10.437 -13.958  1.00  0.00     0.037 A 
BRANCH  58  72
ATOM     72  C   UNL     1       0.686  -5.893 -16.037  1.00  0.00     0.058 A 
ATOM     73  C   UNL     1      -0.195  -4.872 -16.426  1.00  0.00     0.135 A 
ATOM     74  C   UNL     1       1.829  -6.109 -16.822  1.00  0.00     0.135 A 
ATOM     75  F   UNL     1      -1.298  -4.618 -15.704  1.00  0.00    -0.206 F 
ATOM     76  C   UNL     1       0.027  -4.119 -17.574  1.00  0.00     0.059 A 
ATOM     77  C   UNL     1       2.084  -5.353 -17.961  1.00  0.00     0.059 A 
ATOM     78  F   UNL     1       2.714  -7.059 -16.478  1.00  0.00    -0.206 F 
ATOM     79  C   UNL     1       1.165  -4.375 -18.341  1.00  0.00     0.060 A 
BRANCH  79  80
ATOM     80  S   UNL     1       1.428  -3.405 -19.841  1.00  0.00     0.124 S 
ATOM     81  O   UNL     1       0.361  -3.894 -20.706  1.00  0.00    -0.237 OA
ATOM     82  O   UNL     1       1.275  -2.038 -19.351  1.00  0.00    -0.237 OA
ATOM     83  O   UNL     1       2.783  -3.768 -20.245  1.00  0.00    -0.744 OA
ENDBRANCH  79  80
ENDBRANCH  58  72
BRANCH  59  84
ATOM     84  C   UNL     1      -1.433 -11.776  -8.243  1.00  0.00     0.058 A 
ATOM     85  C   UNL     1      -1.994 -11.222  -7.082  1.00  0.00     0.135 A 
ATOM     86  C   UNL     1      -1.220 -13.162  -8.268  1.00  0.00     0.135 A 
ATOM     87  F   UNL     1      -2.209  -9.900  -7.002  1.00  0.00    -0.206 F 
ATOM     88  C   UNL     1      -2.321 -12.010  -5.984  1.00  0.00     0.059 A 
ATOM     89  C   UNL     1      -1.563 -13.976  -7.191  1.00  0.00     0.059 A 
ATOM     90  F   UNL     1      -0.697 -13.739  -9.361  1.00  0.00    -0.206 F 
ATOM     91  C   UNL     1      -2.103 -13.387  -6.048  1.00  0.00     0.060 A 
BRANCH  91  92
ATOM     92  S   UNL     1      -2.557 -14.397  -4.622  1.00  0.00     0.124 S 
ATOM     93  O   UNL     1      -1.517 -14.032  -3.665  1.00  0.00    -0.237 OA
ATOM     94  O   UNL     1      -3.899 -13.912  -4.317  1.00  0.00    -0.237 OA
ATOM     95  O   UNL     1      -2.488 -15.760  -5.138  1.00  0.00    -0.744 OA
ENDBRANCH  91  92
ENDBRANCH  59  84
BRANCH  71  96
ATOM     96  C   UNL     1      -4.017 -11.148 -14.705  1.00  0.00     0.058 A 
ATOM     97  C   UNL     1      -3.700 -12.024 -15.755  1.00  0.00     0.135 A 
ATOM     98  C   UNL     1      -5.371 -10.874 -14.461  1.00  0.00     0.135 A 
ATOM     99  F   UNL     1      -2.419 -12.315 -16.032  1.00  0.00    -0.206 F 
ATOM    100  C   UNL     1      -4.689 -12.581 -16.559  1.00  0.00     0.059 A 
ATOM    101  C   UNL     1      -6.378 -11.439 -15.237  1.00  0.00     0.059 A 
ATOM    102  F   UNL     1      -5.723 -10.051 -13.460  1.00  0.00    -0.206 F 
ATOM    103  C   UNL     1      -6.025 -12.274 -16.298  1.00  0.00     0.060 A 
BRANCH 103 104
ATOM    104  S   UNL     1      -7.294 -12.986 -17.366  1.00  0.00     0.124 S 
ATOM    105  O   UNL     1      -7.088 -12.250 -18.608  1.00  0.00    -0.237 OA
ATOM    106  O   UNL     1      -6.918 -14.396 -17.394  1.00  0.00    -0.237 OA
ATOM    107  O   UNL     1      -8.537 -12.690 -16.659  1.00  0.00    -0.744 OA
ENDBRANCH 103 104
ENDBRANCH  71  96
ENDBRANCH  45  46
ENDBRANCH  37  40
ENDBRANCH  35  36
ENDBRANCH  34  35
ENDBRANCH  33  34
ENDBRANCH   1  33
TORSDOF 20
