REMARK SMILES Cc1cc(C)c2c(C(=O)NCCCCCCNC(=O)c3ccc(-c4c5nc(c(-c6c(F)cc(S(=O)(=O)[O-])cc6F)c6ccc([nH]6)c(-c6c(F)cc(S(=O)(=O)[O-])cc6F)c6nc(c(-c7c(F)cc(S(=O)(=O)[O-])cc7F)c7ccc4[nH]7)C=C6)C=C5)cc3)cc(-c3ccco3)nc2c1
REMARK SMILES IDX 14 1 13 2 12 3 11 4 10 5 8 6 9 7 7 9 1 10 2 11 3 12 95 13
REMARK SMILES IDX 4 14 94 15 5 16 6 17 93 18 87 19 86 20 88 21 89 22 92 23
REMARK SMILES IDX 90 24 91 25 15 26 16 27 17 28 18 29 19 31 20 32 21 33 85 34
REMARK SMILES IDX 22 35 84 36 23 37 24 38 25 39 78 40 26 41 83 42 77 43 79 44
REMARK SMILES IDX 27 45 82 46 76 47 75 48 28 50 62 51 41 52 61 53 42 54 45 55
REMARK SMILES IDX 60 56 80 57 43 58 44 59 59 61 81 62 46 63 29 64 30 65 39 66
REMARK SMILES IDX 31 67 32 68 38 69 40 70 33 71 34 72 35 73 36 74 37 75 63 76
REMARK SMILES IDX 64 77 73 78 65 79 66 80 72 81 74 82 67 83 68 84 69 85 70 86
REMARK SMILES IDX 71 87 47 88 48 89 57 90 49 91 50 92 56 93 58 94 51 95 52 96
REMARK SMILES IDX 53 97 54 98 55 99
REMARK H PARENT 10 8 17 30 79 49 45 60
REMARK Flexibility Score: inf
ROOT
ATOM      1  C   UNL     1      -5.738  -2.097   1.004  1.00  0.00     0.002 C 
ENDROOT
BRANCH   1   2
ATOM      2  C   UNL     1      -5.787  -2.810  -0.351  1.00  0.00     0.002 C 
BRANCH   2   3
ATOM      3  C   UNL     1      -4.487  -2.911  -1.161  1.00  0.00     0.021 C 
BRANCH   3   4
ATOM      4  C   UNL     1      -3.247  -3.393  -0.414  1.00  0.00     0.116 C 
BRANCH   4   5
ATOM      5  N   UNL     1      -3.369  -4.710   0.187  1.00  0.00    -0.352 N 
ATOM      6  C   UNL     1      -2.402  -5.559   0.683  1.00  0.00     0.252 C 
ATOM      7  O   UNL     1      -2.760  -6.629   1.176  1.00  0.00    -0.269 OA
ATOM      8  H   UNL     1      -4.290  -5.052   0.249  1.00  0.00     0.163 HD
BRANCH   6   9
ATOM      9  C   UNL     1      -0.942  -5.286   0.546  1.00  0.00     0.051 A 
ATOM     10  C   UNL     1       1.425  -0.128   0.133  1.00  0.00     0.044 C 
ATOM     11  C   UNL     1       0.893  -1.488   0.473  1.00  0.00    -0.049 A 
ATOM     12  C   UNL     1      -0.218  -1.639   1.295  1.00  0.00     0.007 A 
ATOM     13  C   UNL     1       1.498  -2.638  -0.040  1.00  0.00     0.032 A 
ATOM     14  C   UNL     1      -0.793  -2.905   1.489  1.00  0.00    -0.041 A 
ATOM     15  C   UNL     1       0.950  -3.901   0.129  1.00  0.00     0.072 A 
ATOM     16  C   UNL     1      -1.780  -3.037   2.626  1.00  0.00     0.045 C 
ATOM     17  C   UNL     1      -0.312  -4.027   0.745  1.00  0.00     0.016 A 
ATOM     18  N   UNL     1       1.661  -4.949  -0.315  1.00  0.00    -0.244 NA
ATOM     19  C   UNL     1       1.127  -6.181  -0.223  1.00  0.00     0.107 A 
ATOM     20  C   UNL     1      -0.193  -6.386   0.109  1.00  0.00     0.046 A 
BRANCH  19  21
ATOM     21  C   UNL     1       2.038  -7.286  -0.465  1.00  0.00     0.152 A 
ATOM     22  C   UNL     1       2.036  -8.392  -1.291  1.00  0.00     0.052 A 
ATOM     23  O   UNL     1       3.138  -7.327   0.349  1.00  0.00    -0.463 OA
ATOM     24  C   UNL     1       3.197  -9.141  -0.969  1.00  0.00     0.043 A 
ATOM     25  C   UNL     1       3.829  -8.454   0.040  1.00  0.00     0.196 A 
ENDBRANCH  19  21
ENDBRANCH   6   9
ENDBRANCH   4   5
ENDBRANCH   3   4
ENDBRANCH   2   3
ENDBRANCH   1   2
BRANCH   1  26
ATOM     26  C   UNL     1      -5.148  -0.686   1.039  1.00  0.00     0.021 C 
BRANCH  26  27
ATOM     27  C   UNL     1      -5.700   0.306   0.022  1.00  0.00     0.116 C 
BRANCH  27  28
ATOM     28  N   UNL     1      -7.127   0.535   0.160  1.00  0.00    -0.352 N 
ATOM     29  C   UNL     1      -7.811   1.724   0.261  1.00  0.00     0.251 C 
ATOM     30  H   UNL     1      -7.684  -0.276   0.183  1.00  0.00     0.163 HD
ATOM     31  O   UNL     1      -9.017   1.723   0.473  1.00  0.00    -0.269 OA
BRANCH  29  32
ATOM     32  C   UNL     1      -7.079   3.006   0.144  1.00  0.00     0.039 A 
ATOM     33  C   UNL     1      -7.279   3.985   1.121  1.00  0.00     0.014 A 
ATOM     34  C   UNL     1      -6.207   3.243  -0.923  1.00  0.00     0.014 A 
ATOM     35  C   UNL     1      -6.562   5.182   1.060  1.00  0.00     0.010 A 
ATOM     36  C   UNL     1      -5.454   4.415  -0.955  1.00  0.00     0.010 A 
ATOM     37  C   UNL     1      -5.631   5.397   0.032  1.00  0.00    -0.014 A 
BRANCH  37  38
ATOM     38  C   UNL     1      -4.867   6.666  -0.052  1.00  0.00     0.031 A 
ATOM     39  C   UNL     1      -5.170   7.644  -1.153  1.00  0.00     0.074 A 
ATOM     40  C   UNL     1      -3.884   6.921   0.832  1.00  0.00     0.049 A 
ATOM     41  N   UNL     1      -4.597   8.788  -1.421  1.00  0.00    -0.248 NA
ATOM     42  C   UNL     1      -6.249   7.277  -2.083  1.00  0.00     0.031 C 
ATOM     43  C   UNL     1      -3.485   6.038   1.929  1.00  0.00     0.029 A 
ATOM     44  N   UNL     1      -3.038   7.996   0.945  1.00  0.00    -0.354 N 
ATOM     45  C   UNL     1      -5.247   9.280  -2.546  1.00  0.00     0.074 A 
ATOM     46  C   UNL     1      -6.216   8.283  -2.945  1.00  0.00     0.031 C 
ATOM     47  C   UNL     1      -2.482   6.615   2.614  1.00  0.00     0.029 A 
ATOM     48  C   UNL     1      -2.150   7.894   1.990  1.00  0.00     0.049 A 
ATOM     49  H   UNL     1      -3.064   8.768   0.335  1.00  0.00     0.167 HD
ATOM     50  C   UNL     1      -5.071  10.467  -3.174  1.00  0.00     0.037 A 
ATOM     51  C   UNL     1      -1.179   8.735   2.397  1.00  0.00     0.037 A 
ATOM     52  C   UNL     1      -4.111  11.458  -2.767  1.00  0.00     0.049 A 
ATOM     53  C   UNL     1      -0.974  10.032   1.660  1.00  0.00     0.074 A 
ATOM     54  C   UNL     1      -3.881  12.708  -3.313  1.00  0.00     0.029 A 
ATOM     55  N   UNL     1      -3.219  11.311  -1.715  1.00  0.00    -0.354 N 
ATOM     56  N   UNL     1      -1.629  10.504   0.626  1.00  0.00    -0.248 NA
ATOM     57  C   UNL     1       0.100  10.911   2.144  1.00  0.00     0.031 C 
ATOM     58  C   UNL     1      -2.821  13.299  -2.619  1.00  0.00     0.029 A 
ATOM     59  C   UNL     1      -2.420  12.437  -1.611  1.00  0.00     0.049 A 
ATOM     60  H   UNL     1      -3.162  10.522  -1.129  1.00  0.00     0.167 HD
ATOM     61  C   UNL     1      -1.062  11.743   0.349  1.00  0.00     0.074 A 
ATOM     62  C   UNL     1      -0.017  11.952   1.330  1.00  0.00     0.031 C 
ATOM     63  C   UNL     1      -1.380  12.627  -0.629  1.00  0.00     0.037 A 
BRANCH  50  64
ATOM     64  C   UNL     1      -5.946  10.757  -4.361  1.00  0.00     0.058 A 
ATOM     65  C   UNL     1      -7.317  11.024  -4.213  1.00  0.00     0.135 A 
ATOM     66  C   UNL     1      -5.408  10.793  -5.658  1.00  0.00     0.135 A 
ATOM     67  F   UNL     1      -7.885  10.985  -2.998  1.00  0.00    -0.206 F 
ATOM     68  C   UNL     1      -8.130  11.285  -5.310  1.00  0.00     0.059 A 
ATOM     69  C   UNL     1      -6.198  11.079  -6.768  1.00  0.00     0.059 A 
ATOM     70  F   UNL     1      -4.104  10.543  -5.856  1.00  0.00    -0.206 F 
ATOM     71  C   UNL     1      -7.561  11.310  -6.585  1.00  0.00     0.060 A 
BRANCH  71  72
ATOM     72  S   UNL     1      -8.632  11.648  -7.997  1.00  0.00     0.124 S 
ATOM     73  O   UNL     1      -9.407  10.414  -8.076  1.00  0.00    -0.237 OA
ATOM     74  O   UNL     1      -9.366  12.829  -7.555  1.00  0.00    -0.237 OA
ATOM     75  O   UNL     1      -7.693  11.870  -9.092  1.00  0.00    -0.744 OA
ENDBRANCH  71  72
ENDBRANCH  50  64
BRANCH  51  76
ATOM     76  C   UNL     1      -0.353   8.388   3.583  1.00  0.00     0.058 A 
ATOM     77  C   UNL     1      -0.525   9.064   4.800  1.00  0.00     0.135 A 
ATOM     78  C   UNL     1       0.595   7.354   3.537  1.00  0.00     0.135 A 
ATOM     79  F   UNL     1      -1.411  10.067   4.890  1.00  0.00    -0.206 F 
ATOM     80  C   UNL     1       0.210   8.726   5.931  1.00  0.00     0.059 A 
ATOM     81  C   UNL     1       1.328   6.984   4.661  1.00  0.00     0.059 A 
ATOM     82  F   UNL     1       0.789   6.669   2.399  1.00  0.00    -0.206 F 
ATOM     83  C   UNL     1       1.129   7.678   5.854  1.00  0.00     0.060 A 
BRANCH  83  84
ATOM     84  S   UNL     1       2.020   7.199   7.351  1.00  0.00     0.124 S 
ATOM     85  O   UNL     1       2.918   8.333   7.535  1.00  0.00    -0.237 OA
ATOM     86  O   UNL     1       0.937   7.076   8.322  1.00  0.00    -0.237 OA
ATOM     87  O   UNL     1       2.659   5.941   6.973  1.00  0.00    -0.744 OA
ENDBRANCH  83  84
ENDBRANCH  51  76
BRANCH  63  88
ATOM     88  C   UNL     1      -0.598  13.910  -0.690  1.00  0.00     0.058 A 
ATOM     89  C   UNL     1       0.721  13.941  -1.167  1.00  0.00     0.135 A 
ATOM     90  C   UNL     1      -1.201  15.130  -0.344  1.00  0.00     0.135 A 
ATOM     91  F   UNL     1       1.345  12.801  -1.504  1.00  0.00    -0.206 F 
ATOM     92  C   UNL     1       1.420  15.137  -1.291  1.00  0.00     0.059 A 
ATOM     93  C   UNL     1      -0.530  16.341  -0.484  1.00  0.00     0.059 A 
ATOM     94  F   UNL     1      -2.464  15.156   0.108  1.00  0.00    -0.206 F 
ATOM     95  C   UNL     1       0.783  16.333  -0.953  1.00  0.00     0.060 A 
BRANCH  95  96
ATOM     96  S   UNL     1       1.686  17.882  -1.170  1.00  0.00     0.124 S 
ATOM     97  O   UNL     1       2.660  17.809  -0.086  1.00  0.00    -0.237 OA
ATOM     98  O   UNL     1       2.227  17.740  -2.518  1.00  0.00    -0.237 OA
ATOM     99  O   UNL     1       0.653  18.902  -1.019  1.00  0.00    -0.744 OA
ENDBRANCH  95  96
ENDBRANCH  63  88
ENDBRANCH  37  38
ENDBRANCH  29  32
ENDBRANCH  27  28
ENDBRANCH  26  27
ENDBRANCH   1  26
TORSDOF 17
