REMARK SMILES C[C@@H](Oc1ccc(-c2ccccc2)cc1)C(=O)N1CCC[C@H](C(=O)NCCCCCCNC(=O)c2ccc(-c3c4nc(c(-c5c(F)cc(S(=O)(=O)[O-])cc5F)c5ccc([nH]5)c(-c5c(F)cc(S(=O)(=O)[O-])cc5F)c5nc(c(-c6c(F)cc(S(=O)(=O)[O-])cc6F)c6ccc3[nH]6)C=C5)C=C4)cc2)C1
REMARK SMILES IDX 27 1 26 2 25 3 23 4 24 5 22 7 18 8 19 9 101 10 20 11 21 12
REMARK SMILES IDX 16 13 17 14 2 15 1 16 3 17 4 18 5 19 15 20 6 21 14 22 7 23
REMARK SMILES IDX 8 24 9 25 13 26 10 27 12 28 11 29 28 30 29 31 30 32 31 33
REMARK SMILES IDX 32 34 33 35 34 37 35 38 36 39 100 40 37 41 99 42 38 43 39 44
REMARK SMILES IDX 40 45 93 46 41 47 98 48 92 49 94 50 42 51 97 52 91 53 90 54
REMARK SMILES IDX 43 56 77 57 56 58 76 59 57 60 60 61 75 62 95 63 58 64 59 65
REMARK SMILES IDX 74 67 96 68 61 69 44 70 45 71 54 72 46 73 47 74 53 75 55 76
REMARK SMILES IDX 48 77 49 78 50 79 51 80 52 81 78 82 79 83 88 84 80 85 81 86
REMARK SMILES IDX 87 87 89 88 82 89 83 90 84 91 85 92 86 93 62 94 63 95 72 96
REMARK SMILES IDX 64 97 65 98 71 99 73 100 66 101 67 102 68 103 69 104 70 105
REMARK H PARENT 25 6 32 36 94 55 60 66
REMARK Flexibility Score: inf
ROOT
ATOM      1  C   UNL     1      -4.859  -0.008   1.552  1.00  0.00     0.021 C 
ENDROOT
BRANCH   1   2
ATOM      2  C   UNL     1      -3.471  -0.172   0.940  1.00  0.00     0.116 C 
BRANCH   2   3
ATOM      3  N   UNL     1      -3.372  -1.266   0.002  1.00  0.00    -0.356 N 
ATOM      4  C   UNL     1      -2.914  -1.312  -1.275  1.00  0.00     0.224 C 
ATOM      5  O   UNL     1      -2.740  -2.444  -1.747  1.00  0.00    -0.275 OA
ATOM      6  H   UNL     1      -3.693  -2.130   0.349  1.00  0.00     0.163 HD
BRANCH   4   7
ATOM      7  C   UNL     1      -2.613  -0.087  -2.153  1.00  0.00     0.098 C 
ATOM      8  N   UNL     1      -1.576   1.739  -0.825  1.00  0.00    -0.339 N 
ATOM      9  C   UNL     1      -2.617   2.701  -1.188  1.00  0.00     0.119 C 
ATOM     10  C   UNL     1      -1.340   0.681  -1.794  1.00  0.00     0.133 C 
ATOM     11  C   UNL     1      -3.945   2.062  -1.597  1.00  0.00     0.022 C 
ATOM     12  C   UNL     1      -3.808   0.815  -2.466  1.00  0.00     0.017 C 
BRANCH   8  13
ATOM     13  C   UNL     1      -0.876   1.919   0.367  1.00  0.00     0.263 C 
ATOM     14  O   UNL     1      -1.421   2.467   1.333  1.00  0.00    -0.271 OA
BRANCH  13  15
ATOM     15  C   UNL     1       0.607   1.502   0.479  1.00  0.00     0.259 C 
ATOM     16  C   UNL     1       0.876  -0.000   0.468  1.00  0.00     0.064 C 
BRANCH  15  17
ATOM     17  O   UNL     1       1.266   2.170  -0.606  1.00  0.00    -0.481 OA
BRANCH  17  18
ATOM     18  C   UNL     1       2.575   2.456  -0.345  1.00  0.00     0.120 A 
ATOM     19  C   UNL     1       2.947   3.684   0.197  1.00  0.00     0.047 A 
ATOM     20  C   UNL     1       3.538   1.565  -0.800  1.00  0.00     0.047 A 
ATOM     21  C   UNL     1       4.305   4.033   0.254  1.00  0.00     0.012 A 
ATOM     22  C   UNL     1       4.885   1.910  -0.731  1.00  0.00     0.012 A 
ATOM     23  C   UNL     1       5.292   3.164  -0.242  1.00  0.00    -0.018 A 
BRANCH  23  24
ATOM     24  C   UNL     1       6.709   3.554  -0.344  1.00  0.00    -0.018 A 
ATOM     25  C   UNL     1       7.436   4.038   0.752  1.00  0.00     0.009 A 
ATOM     26  C   UNL     1       7.380   3.428  -1.577  1.00  0.00     0.009 A 
ATOM     27  C   UNL     1       8.792   4.359   0.624  1.00  0.00     0.001 A 
ATOM     28  C   UNL     1       8.732   3.746  -1.706  1.00  0.00     0.001 A 
ATOM     29  C   UNL     1       9.440   4.208  -0.602  1.00  0.00     0.000 A 
ENDBRANCH  23  24
ENDBRANCH  17  18
ENDBRANCH  15  17
ENDBRANCH  13  15
ENDBRANCH   8  13
ENDBRANCH   4   7
ENDBRANCH   2   3
ENDBRANCH   1   2
BRANCH   1  30
ATOM     30  C   UNL     1      -4.989  -0.579   2.964  1.00  0.00     0.002 C 
BRANCH  30  31
ATOM     31  C   UNL     1      -4.008  -0.011   4.000  1.00  0.00     0.002 C 
BRANCH  31  32
ATOM     32  C   UNL     1      -3.985   1.514   4.136  1.00  0.00     0.021 C 
BRANCH  32  33
ATOM     33  C   UNL     1      -5.330   2.155   4.470  1.00  0.00     0.116 C 
BRANCH  33  34
ATOM     34  N   UNL     1      -5.925   1.586   5.669  1.00  0.00    -0.352 N 
ATOM     35  C   UNL     1      -6.288   2.191   6.846  1.00  0.00     0.251 C 
ATOM     36  H   UNL     1      -6.094   0.617   5.630  1.00  0.00     0.163 HD
ATOM     37  O   UNL     1      -6.573   1.504   7.822  1.00  0.00    -0.269 OA
BRANCH  35  38
ATOM     38  C   UNL     1      -6.328   3.665   6.938  1.00  0.00     0.039 A 
ATOM     39  C   UNL     1      -5.800   4.287   8.072  1.00  0.00     0.014 A 
ATOM     40  C   UNL     1      -6.906   4.430   5.921  1.00  0.00     0.014 A 
ATOM     41  C   UNL     1      -5.800   5.681   8.159  1.00  0.00     0.010 A 
ATOM     42  C   UNL     1      -6.840   5.819   5.977  1.00  0.00     0.010 A 
ATOM     43  C   UNL     1      -6.290   6.459   7.098  1.00  0.00    -0.014 A 
BRANCH  43  44
ATOM     44  C   UNL     1      -6.230   7.942   7.141  1.00  0.00     0.031 A 
ATOM     45  C   UNL     1      -7.498   8.752   7.144  1.00  0.00     0.074 A 
ATOM     46  C   UNL     1      -5.032   8.558   7.112  1.00  0.00     0.049 A 
ATOM     47  N   UNL     1      -7.649  10.051   7.116  1.00  0.00    -0.248 NA
ATOM     48  C   UNL     1      -8.765   8.002   7.153  1.00  0.00     0.031 C 
ATOM     49  C   UNL     1      -3.734   7.880   7.057  1.00  0.00     0.029 A 
ATOM     50  N   UNL     1      -4.707   9.891   7.114  1.00  0.00    -0.354 N 
ATOM     51  C   UNL     1      -9.020  10.274   7.093  1.00  0.00     0.074 A 
ATOM     52  C   UNL     1      -9.658   8.977   7.055  1.00  0.00     0.031 C 
ATOM     53  C   UNL     1      -2.756   8.799   7.053  1.00  0.00     0.029 A 
ATOM     54  C   UNL     1      -3.353  10.130   7.064  1.00  0.00     0.049 A 
ATOM     55  H   UNL     1      -5.379  10.609   7.147  1.00  0.00     0.167 HD
ATOM     56  C   UNL     1      -9.686  11.453   7.123  1.00  0.00     0.037 A 
ATOM     57  C   UNL     1      -2.670  11.291   7.022  1.00  0.00     0.037 A 
ATOM     58  C   UNL     1      -9.041  12.739   7.181  1.00  0.00     0.049 A 
ATOM     59  C   UNL     1      -3.433  12.588   7.053  1.00  0.00     0.074 A 
ATOM     60  C   UNL     1      -9.624  13.991   7.270  1.00  0.00     0.029 A 
ATOM     61  N   UNL     1      -7.668  12.940   7.152  1.00  0.00    -0.354 N 
ATOM     62  N   UNL     1      -4.730  12.781   7.097  1.00  0.00    -0.248 NA
ATOM     63  C   UNL     1      -2.641  13.826   7.038  1.00  0.00     0.031 C 
ATOM     64  C   UNL     1      -8.607  14.950   7.247  1.00  0.00     0.029 A 
ATOM     65  C   UNL     1      -7.386  14.295   7.201  1.00  0.00     0.049 A 
ATOM     66  H   UNL     1      -6.994  12.224   7.104  1.00  0.00     0.167 HD
ATOM     67  C   UNL     1      -4.909  14.159   7.148  1.00  0.00     0.074 A 
ATOM     68  C   UNL     1      -3.587  14.751   7.136  1.00  0.00     0.031 C 
ATOM     69  C   UNL     1      -6.063  14.869   7.202  1.00  0.00     0.037 A 
BRANCH  56  70
ATOM     70  C   UNL     1     -11.191  11.409   7.097  1.00  0.00     0.058 A 
ATOM     71  C   UNL     1     -11.934  10.930   8.188  1.00  0.00     0.135 A 
ATOM     72  C   UNL     1     -11.901  11.886   5.983  1.00  0.00     0.135 A 
ATOM     73  F   UNL     1     -11.308  10.449   9.274  1.00  0.00    -0.206 F 
ATOM     74  C   UNL     1     -13.325  10.896   8.164  1.00  0.00     0.059 A 
ATOM     75  C   UNL     1     -13.293  11.890   5.949  1.00  0.00     0.059 A 
ATOM     76  F   UNL     1     -11.243  12.355   4.912  1.00  0.00    -0.206 F 
ATOM     77  C   UNL     1     -13.995  11.379   7.040  1.00  0.00     0.060 A 
BRANCH  77  78
ATOM     78  S   UNL     1     -15.800  11.333   7.028  1.00  0.00     0.124 S 
ATOM     79  O   UNL     1     -16.054   9.905   6.870  1.00  0.00    -0.237 OA
ATOM     80  O   UNL     1     -16.135  11.895   8.332  1.00  0.00    -0.237 OA
ATOM     81  O   UNL     1     -16.154  12.164   5.881  1.00  0.00    -0.744 OA
ENDBRANCH  77  78
ENDBRANCH  56  70
BRANCH  57  82
ATOM     82  C   UNL     1      -1.183  11.277   6.970  1.00  0.00     0.058 A 
ATOM     83  C   UNL     1      -0.418  11.696   8.069  1.00  0.00     0.135 A 
ATOM     84  C   UNL     1      -0.497  10.830   5.830  1.00  0.00     0.135 A 
ATOM     85  F   UNL     1      -1.027  12.137   9.180  1.00  0.00    -0.206 F 
ATOM     86  C   UNL     1       0.972  11.690   8.034  1.00  0.00     0.059 A 
ATOM     87  C   UNL     1       0.893  10.789   5.781  1.00  0.00     0.059 A 
ATOM     88  F   UNL     1      -1.182  10.402   4.758  1.00  0.00    -0.206 F 
ATOM     89  C   UNL     1       1.619  11.232   6.886  1.00  0.00     0.060 A 
BRANCH  89  90
ATOM     90  S   UNL     1       3.425  11.188   6.868  1.00  0.00     0.124 S 
ATOM     91  O   UNL     1       3.752  12.605   6.766  1.00  0.00    -0.237 OA
ATOM     92  O   UNL     1       3.728  10.552   8.146  1.00  0.00    -0.237 OA
ATOM     93  O   UNL     1       3.729  10.384   5.688  1.00  0.00    -0.744 OA
ENDBRANCH  89  90
ENDBRANCH  57  82
BRANCH  69  94
ATOM     94  C   UNL     1      -5.955  16.366   7.300  1.00  0.00     0.058 A 
ATOM     95  C   UNL     1      -5.561  17.154   6.208  1.00  0.00     0.135 A 
ATOM     96  C   UNL     1      -6.314  17.024   8.488  1.00  0.00     0.135 A 
ATOM     97  F   UNL     1      -5.201  16.575   5.052  1.00  0.00    -0.206 F 
ATOM     98  C   UNL     1      -5.510  18.541   6.295  1.00  0.00     0.059 A 
ATOM     99  C   UNL     1      -6.298  18.411   8.589  1.00  0.00     0.059 A 
ATOM    100  F   UNL     1      -6.707  16.318   9.560  1.00  0.00    -0.206 F 
ATOM    101  C   UNL     1      -5.885  19.161   7.489  1.00  0.00     0.060 A 
BRANCH 101 102
ATOM    102  S   UNL     1      -5.858  20.964   7.574  1.00  0.00     0.124 S 
ATOM    103  O   UNL     1      -4.425  21.235   7.629  1.00  0.00    -0.237 OA
ATOM    104  O   UNL     1      -6.528  21.345   6.334  1.00  0.00    -0.237 OA
ATOM    105  O   UNL     1      -6.600  21.259   8.796  1.00  0.00    -0.744 OA
ENDBRANCH 101 102
ENDBRANCH  69  94
ENDBRANCH  43  44
ENDBRANCH  35  38
ENDBRANCH  33  34
ENDBRANCH  32  33
ENDBRANCH  31  32
ENDBRANCH  30  31
ENDBRANCH   1  30
TORSDOF 21
