REMARK SMILES CC(C)C[C@H](NC(=O)[C@@H](NC(=O)[C@H](C)NC(=O)CNC(=O)OCc1ccccc1)C(C)C)C(=O)NCCCCCCNC(=O)c1ccc(-c2c3nc(c(-c4c(F)cc(S(=O)(=O)[O-])cc4F)c4ccc([nH]4)c(-c4c(F)cc(S(=O)(=O)[O-])cc4F)c4nc(c(-c5c(F)cc(S(=O)(=O)[O-])cc5F)c5ccc2[nH]5)C=C4)C=C3)cc1
REMARK SMILES IDX 33 1 34 2 35 3 5 5 4 6 2 7 1 8 3 9 6 10 7 11 8 13 9 14 10 15
REMARK SMILES IDX 11 16 12 18 13 19 14 20 15 21 16 22 17 24 18 25 19 26 20 27
REMARK SMILES IDX 21 29 22 30 23 31 24 32 25 33 29 34 26 35 28 36 27 37 30 38
REMARK SMILES IDX 31 39 32 40 36 41 37 42 38 43 39 44 40 45 41 46 42 47 43 48
REMARK SMILES IDX 44 50 45 51 46 52 110 53 47 54 109 55 48 56 49 57 50 58
REMARK SMILES IDX 103 59 51 60 108 61 102 62 104 63 52 64 107 65 101 66 100 67
REMARK SMILES IDX 53 69 87 70 66 71 86 72 67 73 70 74 85 75 105 76 68 77 69 78
REMARK SMILES IDX 84 80 106 81 71 82 54 83 55 84 64 85 56 86 57 87 63 88 65 89
REMARK SMILES IDX 58 90 59 91 60 92 61 93 62 94 88 95 89 96 98 97 90 98 91 99
REMARK SMILES IDX 97 100 99 101 92 102 93 103 94 104 95 105 96 106 72 107
REMARK SMILES IDX 73 108 82 109 74 110 75 111 81 112 83 113 76 114 77 115
REMARK SMILES IDX 78 116 79 117 80 118
REMARK H PARENT 35 4 6 12 10 17 15 23 19 28 42 49 104 68 70 79
REMARK Flexibility Score: inf
ROOT
ATOM      1  C   UNL     1      -4.041  -0.224   0.840  1.00  0.00     0.242 C 
ATOM      2  O   UNL     1      -4.855   0.257   0.048  1.00  0.00    -0.273 OA
ATOM      3  N   UNL     1      -2.752   0.237   0.800  1.00  0.00    -0.354 N 
ATOM      4  H   UNL     1      -2.559   0.882   0.082  1.00  0.00     0.163 HD
ENDROOT
BRANCH   1   5
ATOM      5  C   UNL     1      -4.508  -1.188   1.965  1.00  0.00     0.171 C 
BRANCH   5   6
ATOM      6  C   UNL     1      -5.220  -0.418   3.074  1.00  0.00     0.038 C 
BRANCH   6   7
ATOM      7  C   UNL     1      -4.657   0.947   3.517  1.00  0.00    -0.015 C 
ATOM      8  C   UNL     1      -5.595   2.075   3.079  1.00  0.00     0.007 C 
ATOM      9  C   UNL     1      -4.456   1.026   5.029  1.00  0.00     0.007 C 
ENDBRANCH   6   7
ENDBRANCH   5   6
BRANCH   5  10
ATOM     10  N   UNL     1      -3.475  -2.185   2.240  1.00  0.00    -0.343 N 
ATOM     11  C   UNL     1      -2.905  -2.997   3.129  1.00  0.00     0.243 C 
ATOM     12  H   UNL     1      -2.985  -2.313   1.395  1.00  0.00     0.164 HD
ATOM     13  O   UNL     1      -1.995  -3.656   2.593  1.00  0.00    -0.273 OA
BRANCH  11  14
ATOM     14  C   UNL     1      -3.167  -3.220   4.639  1.00  0.00     0.174 C 
BRANCH  14  15
ATOM     15  N   UNL     1      -3.960  -2.298   5.467  1.00  0.00    -0.342 N 
ATOM     16  C   UNL     1      -5.242  -2.266   5.932  1.00  0.00     0.242 C 
ATOM     17  H   UNL     1      -3.439  -1.514   5.755  1.00  0.00     0.164 HD
ATOM     18  O   UNL     1      -5.431  -1.581   6.943  1.00  0.00    -0.273 OA
BRANCH  16  19
ATOM     19  C   UNL     1      -6.407  -3.021   5.253  1.00  0.00     0.168 C 
ATOM     20  C   UNL     1      -7.721  -2.283   5.544  1.00  0.00     0.041 C 
BRANCH  19  21
ATOM     21  N   UNL     1      -6.530  -4.395   5.725  1.00  0.00    -0.343 N 
ATOM     22  C   UNL     1      -6.723  -5.523   4.968  1.00  0.00     0.240 C 
ATOM     23  H   UNL     1      -6.467  -4.529   6.698  1.00  0.00     0.164 HD
ATOM     24  O   UNL     1      -6.776  -6.620   5.522  1.00  0.00    -0.273 OA
BRANCH  22  25
ATOM     25  C   UNL     1      -6.888  -5.384   3.446  1.00  0.00     0.219 C 
BRANCH  25  26
ATOM     26  N   UNL     1      -8.201  -4.813   3.235  1.00  0.00    -0.312 N 
ATOM     27  C   UNL     1      -8.532  -3.705   2.526  1.00  0.00     0.407 C 
ATOM     28  H   UNL     1      -8.950  -5.290   3.661  1.00  0.00     0.167 HD
ATOM     29  O   UNL     1      -9.635  -3.196   2.655  1.00  0.00    -0.225 OA
BRANCH  27  30
ATOM     30  O   UNL     1      -7.569  -3.289   1.667  1.00  0.00    -0.445 OA
BRANCH  30  31
ATOM     31  C   UNL     1      -7.993  -2.245   0.768  1.00  0.00     0.270 C 
BRANCH  31  32
ATOM     32  C   UNL     1      -8.593  -2.782  -0.513  1.00  0.00    -0.011 A 
ATOM     33  C   UNL     1      -9.459  -3.885  -0.521  1.00  0.00     0.007 A 
ATOM     34  C   UNL     1      -8.350  -2.117  -1.724  1.00  0.00     0.007 A 
ATOM     35  C   UNL     1     -10.051  -4.327  -1.702  1.00  0.00     0.000 A 
ATOM     36  C   UNL     1      -8.947  -2.558  -2.908  1.00  0.00     0.000 A 
ATOM     37  C   UNL     1      -9.796  -3.663  -2.896  1.00  0.00     0.000 A 
ENDBRANCH  31  32
ENDBRANCH  30  31
ENDBRANCH  27  30
ENDBRANCH  25  26
ENDBRANCH  22  25
ENDBRANCH  19  21
ENDBRANCH  16  19
ENDBRANCH  14  15
BRANCH  14  38
ATOM     38  C   UNL     1      -3.449  -4.705   4.999  1.00  0.00     0.015 C 
ATOM     39  C   UNL     1      -2.655  -5.789   4.267  1.00  0.00     0.010 C 
ATOM     40  C   UNL     1      -3.308  -4.954   6.510  1.00  0.00     0.010 C 
ENDBRANCH  14  38
ENDBRANCH  11  14
ENDBRANCH   5  10
ENDBRANCH   1   5
BRANCH   3  41
ATOM     41  C   UNL     1      -1.625  -0.087   1.663  1.00  0.00     0.116 C 
BRANCH  41  42
ATOM     42  C   UNL     1      -0.336   0.597   1.244  1.00  0.00     0.021 C 
BRANCH  42  43
ATOM     43  C   UNL     1      -0.346   2.122   1.325  1.00  0.00     0.002 C 
BRANCH  43  44
ATOM     44  C   UNL     1      -0.715   2.724   2.683  1.00  0.00     0.002 C 
BRANCH  44  45
ATOM     45  C   UNL     1       0.083   2.212   3.884  1.00  0.00     0.021 C 
BRANCH  45  46
ATOM     46  C   UNL     1       1.594   2.186   3.699  1.00  0.00     0.116 C 
BRANCH  46  47
ATOM     47  N   UNL     1       2.136   3.468   3.284  1.00  0.00    -0.352 N 
ATOM     48  C   UNL     1       3.308   4.062   3.677  1.00  0.00     0.251 C 
ATOM     49  H   UNL     1       1.593   3.974   2.637  1.00  0.00     0.163 HD
ATOM     50  O   UNL     1       3.575   5.207   3.327  1.00  0.00    -0.269 OA
BRANCH  48  51
ATOM     51  C   UNL     1       4.223   3.311   4.558  1.00  0.00     0.039 A 
ATOM     52  C   UNL     1       4.676   3.916   5.731  1.00  0.00     0.014 A 
ATOM     53  C   UNL     1       4.584   1.997   4.246  1.00  0.00     0.014 A 
ATOM     54  C   UNL     1       5.455   3.180   6.623  1.00  0.00     0.010 A 
ATOM     55  C   UNL     1       5.293   1.243   5.172  1.00  0.00     0.010 A 
ATOM     56  C   UNL     1       5.743   1.829   6.365  1.00  0.00    -0.014 A 
BRANCH  56  57
ATOM     57  C   UNL     1       6.531   1.014   7.322  1.00  0.00     0.031 A 
ATOM     58  C   UNL     1       7.861   0.451   6.898  1.00  0.00     0.074 A 
ATOM     59  C   UNL     1       6.019   0.728   8.536  1.00  0.00     0.049 A 
ATOM     60  N   UNL     1       8.659  -0.354   7.548  1.00  0.00    -0.248 NA
ATOM     61  C   UNL     1       8.346   0.818   5.556  1.00  0.00     0.031 C 
ATOM     62  C   UNL     1       4.721   1.185   9.039  1.00  0.00     0.029 A 
ATOM     63  N   UNL     1       6.522  -0.028   9.565  1.00  0.00    -0.354 N 
ATOM     64  C   UNL     1       9.721  -0.610   6.689  1.00  0.00     0.074 A 
ATOM     65  C   UNL     1       9.449   0.091   5.455  1.00  0.00     0.031 C 
ATOM     66  C   UNL     1       4.540   0.718  10.285  1.00  0.00     0.029 A 
ATOM     67  C   UNL     1       5.684  -0.110  10.654  1.00  0.00     0.049 A 
ATOM     68  H   UNL     1       7.400  -0.471   9.528  1.00  0.00     0.167 HD
ATOM     69  C   UNL     1      10.830  -1.350   6.918  1.00  0.00     0.037 A 
ATOM     70  C   UNL     1       5.817  -0.790  11.810  1.00  0.00     0.037 A 
ATOM     71  C   UNL     1      11.111  -2.004   8.168  1.00  0.00     0.049 A 
ATOM     72  C   UNL     1       7.064  -1.608  12.033  1.00  0.00     0.074 A 
ATOM     73  C   UNL     1      12.248  -2.704   8.531  1.00  0.00     0.029 A 
ATOM     74  N   UNL     1      10.251  -2.044   9.254  1.00  0.00    -0.354 N 
ATOM     75  N   UNL     1       8.098  -1.768  11.240  1.00  0.00    -0.248 NA
ATOM     76  C   UNL     1       7.167  -2.334  13.306  1.00  0.00     0.031 C 
ATOM     77  C   UNL     1      12.049  -3.221   9.813  1.00  0.00     0.029 A 
ATOM     78  C   UNL     1      10.817  -2.787  10.276  1.00  0.00     0.049 A 
ATOM     79  H   UNL     1       9.368  -1.610   9.293  1.00  0.00     0.167 HD
ATOM     80  C   UNL     1       8.989  -2.578  11.938  1.00  0.00     0.074 A 
ATOM     81  C   UNL     1       8.377  -2.867  13.217  1.00  0.00     0.031 C 
ATOM     82  C   UNL     1      10.204  -3.039  11.555  1.00  0.00     0.037 A 
BRANCH  69  83
ATOM     83  C   UNL     1      11.831  -1.500   5.806  1.00  0.00     0.058 A 
ATOM     84  C   UNL     1      12.652  -0.438   5.398  1.00  0.00     0.135 A 
ATOM     85  C   UNL     1      12.033  -2.754   5.205  1.00  0.00     0.135 A 
ATOM     86  F   UNL     1      12.488   0.786   5.925  1.00  0.00    -0.206 F 
ATOM     87  C   UNL     1      13.637  -0.612   4.431  1.00  0.00     0.059 A 
ATOM     88  C   UNL     1      13.031  -2.957   4.258  1.00  0.00     0.059 A 
ATOM     89  F   UNL     1      11.270  -3.801   5.554  1.00  0.00    -0.206 F 
ATOM     90  C   UNL     1      13.826  -1.879   3.875  1.00  0.00     0.060 A 
BRANCH  90  91
ATOM     91  S   UNL     1      15.148  -2.098   2.666  1.00  0.00     0.124 S 
ATOM     92  O   UNL     1      14.616  -1.372   1.517  1.00  0.00    -0.237 OA
ATOM     93  O   UNL     1      16.287  -1.478   3.336  1.00  0.00    -0.237 OA
ATOM     94  O   UNL     1      15.229  -3.547   2.508  1.00  0.00    -0.744 OA
ENDBRANCH  90  91
ENDBRANCH  69  83
BRANCH  70  95
ATOM     95  C   UNL     1       4.753  -0.737  12.850  1.00  0.00     0.058 A 
ATOM     96  C   UNL     1       4.992  -0.143  14.099  1.00  0.00     0.135 A 
ATOM     97  C   UNL     1       3.492  -1.316  12.636  1.00  0.00     0.135 A 
ATOM     98  F   UNL     1       6.181   0.423  14.355  1.00  0.00    -0.206 F 
ATOM     99  C   UNL     1       4.039  -0.165  15.113  1.00  0.00     0.059 A 
ATOM    100  C   UNL     1       2.511  -1.321  13.622  1.00  0.00     0.059 A 
ATOM    101  F   UNL     1       3.201  -1.879  11.452  1.00  0.00    -0.206 F 
ATOM    102  C   UNL     1       2.803  -0.763  14.866  1.00  0.00     0.060 A 
BRANCH 102 103
ATOM    103  S   UNL     1       1.577  -0.796  16.191  1.00  0.00     0.124 S 
ATOM    104  O   UNL     1       2.147  -1.792  17.091  1.00  0.00    -0.237 OA
ATOM    105  O   UNL     1       1.601   0.584  16.665  1.00  0.00    -0.237 OA
ATOM    106  O   UNL     1       0.352  -1.194  15.503  1.00  0.00    -0.744 OA
ENDBRANCH 102 103
ENDBRANCH  70  95
BRANCH  82 107
ATOM    107  C   UNL     1      10.988  -3.854  12.547  1.00  0.00     0.058 A 
ATOM    108  C   UNL     1      10.625  -5.167  12.880  1.00  0.00     0.135 A 
ATOM    109  C   UNL     1      12.163  -3.333  13.113  1.00  0.00     0.135 A 
ATOM    110  F   UNL     1       9.507  -5.710  12.372  1.00  0.00    -0.206 F 
ATOM    111  C   UNL     1      11.390  -5.931  13.755  1.00  0.00     0.059 A 
ATOM    112  C   UNL     1      12.961  -4.090  13.964  1.00  0.00     0.059 A 
ATOM    113  F   UNL     1      12.561  -2.085  12.819  1.00  0.00    -0.206 F 
ATOM    114  C   UNL     1      12.562  -5.385  14.286  1.00  0.00     0.060 A 
BRANCH 114 115
ATOM    115  S   UNL     1      13.573  -6.407  15.377  1.00  0.00     0.124 S 
ATOM    116  O   UNL     1      12.757  -6.443  16.586  1.00  0.00    -0.237 OA
ATOM    117  O   UNL     1      13.663  -7.660  14.635  1.00  0.00    -0.237 OA
ATOM    118  O   UNL     1      14.821  -5.657  15.485  1.00  0.00    -0.744 OA
ENDBRANCH 114 115
ENDBRANCH  82 107
ENDBRANCH  56  57
ENDBRANCH  48  51
ENDBRANCH  46  47
ENDBRANCH  45  46
ENDBRANCH  44  45
ENDBRANCH  43  44
ENDBRANCH  42  43
ENDBRANCH  41  42
ENDBRANCH   3  41
TORSDOF 29
