REMARK SMILES CC1=C(C(=O)NCCCCCCNC(=O)c2ccc(-c3c4nc(c(-c5c(F)cc(S(=O)(=O)[O-])cc5F)c5ccc([nH]5)c(-c5c(F)cc(S(=O)(=O)[O-])cc5F)c5nc(c(-c6c(F)cc(S(=O)(=O)[O-])cc6F)c6ccc3[nH]6)C=C5)C=C4)cc2)N2C(=O)[C@H](NC(=O)c3cc(C(F)(F)F)nn3C)[C@@H]2SC1
REMARK SMILES IDX 9 1 8 2 7 3 6 4 4 5 5 6 3 8 1 9 2 10 101 11 82 12 100 13
REMARK SMILES IDX 83 14 99 15 84 16 85 17 86 18 87 19 88 21 89 22 90 23 97 24
REMARK SMILES IDX 91 25 96 26 98 27 92 28 93 29 94 30 95 31 10 32 11 33 12 34
REMARK SMILES IDX 13 35 14 36 15 38 16 39 17 40 81 41 18 42 80 43 19 44 20 45
REMARK SMILES IDX 21 46 74 47 22 48 79 49 73 50 75 51 23 52 78 53 72 54 71 55
REMARK SMILES IDX 24 57 58 58 37 59 57 60 38 61 41 62 56 63 76 64 39 65 40 66
REMARK SMILES IDX 55 68 77 69 42 70 25 71 26 72 35 73 27 74 28 75 34 76 36 77
REMARK SMILES IDX 29 78 30 79 31 80 32 81 33 82 59 83 60 84 69 85 61 86 62 87
REMARK SMILES IDX 68 88 70 89 63 90 64 91 65 92 66 93 67 94 43 95 44 96 53 97
REMARK SMILES IDX 45 98 46 99 52 100 54 101 47 102 48 103 49 104 50 105 51 106
REMARK H PARENT 6 7 86 20 13 37 75 56 41 67
REMARK Flexibility Score: inf
ROOT
ATOM      1  C   UNL     1       0.971  -1.103   3.919  1.00  0.00     0.002 C 
ENDROOT
BRANCH   1   2
ATOM      2  C   UNL     1       0.689  -0.668   2.479  1.00  0.00     0.021 C 
BRANCH   2   3
ATOM      3  C   UNL     1       1.660  -1.248   1.438  1.00  0.00     0.116 C 
BRANCH   3   4
ATOM      4  N   UNL     1       1.053  -2.416   0.839  1.00  0.00    -0.351 N 
ATOM      5  C   UNL     1       0.331  -2.611  -0.289  1.00  0.00     0.268 C 
ATOM      6  O   UNL     1      -0.328  -3.657  -0.348  1.00  0.00    -0.268 OA
ATOM      7  H   UNL     1       1.194  -3.240   1.359  1.00  0.00     0.163 HD
BRANCH   5   8
ATOM      8  C   UNL     1       0.319  -1.702  -1.502  1.00  0.00     0.110 C 
ATOM      9  C   UNL     1      -0.256   0.538  -0.441  1.00  0.00     0.043 C 
ATOM     10  C   UNL     1       0.057  -0.373  -1.594  1.00  0.00    -0.034 C 
ATOM     11  C   UNL     1      -0.015   0.410  -2.906  1.00  0.00     0.104 C 
ATOM     12  N   UNL     1       0.413  -2.403  -2.668  1.00  0.00    -0.290 N 
ATOM     13  S   UNL     1       0.405  -0.486  -4.423  1.00  0.00    -0.129 SA
ATOM     14  C   UNL     1       0.909  -3.576  -3.101  1.00  0.00     0.253 C 
ATOM     15  C   UNL     1      -0.312  -2.046  -3.858  1.00  0.00     0.181 C 
ATOM     16  O   UNL     1       1.644  -4.404  -2.607  1.00  0.00    -0.272 OA
ATOM     17  C   UNL     1       0.238  -3.360  -4.491  1.00  0.00     0.206 C 
BRANCH  17  18
ATOM     18  N   UNL     1       1.149  -3.205  -5.651  1.00  0.00    -0.336 N 
ATOM     19  C   UNL     1       0.935  -3.548  -6.961  1.00  0.00     0.270 C 
ATOM     20  H   UNL     1       2.025  -2.803  -5.454  1.00  0.00     0.164 HD
ATOM     21  O   UNL     1       1.848  -3.392  -7.767  1.00  0.00    -0.268 OA
BRANCH  19  22
ATOM     22  C   UNL     1      -0.335  -4.124  -7.321  1.00  0.00     0.126 A 
ATOM     23  C   UNL     1      -1.628  -3.709  -7.053  1.00  0.00     0.069 A 
ATOM     24  N   UNL     1      -0.482  -5.249  -8.092  1.00  0.00    -0.262 N 
ATOM     25  C   UNL     1      -2.486  -4.692  -7.612  1.00  0.00     0.167 A 
ATOM     26  N   UNL     1      -1.766  -5.635  -8.248  1.00  0.00    -0.168 NA
ATOM     27  C   UNL     1       0.551  -6.086  -8.659  1.00  0.00     0.174 C 
BRANCH  25  28
ATOM     28  C   UNL     1      -3.989  -4.736  -7.521  1.00  0.00     0.435 C 
ATOM     29  F   UNL     1      -4.594  -4.660  -8.735  1.00  0.00    -0.164 F 
ATOM     30  F   UNL     1      -4.440  -5.870  -6.920  1.00  0.00    -0.164 F 
ATOM     31  F   UNL     1      -4.475  -3.698  -6.783  1.00  0.00    -0.164 F 
ENDBRANCH  25  28
ENDBRANCH  19  22
ENDBRANCH  17  18
ENDBRANCH   5   8
ENDBRANCH   3   4
ENDBRANCH   2   3
ENDBRANCH   1   2
BRANCH   1  32
ATOM     32  C   UNL     1       2.203  -0.447   4.548  1.00  0.00     0.002 C 
BRANCH  32  33
ATOM     33  C   UNL     1       2.194   1.086   4.564  1.00  0.00     0.021 C 
BRANCH  33  34
ATOM     34  C   UNL     1       0.999   1.720   5.275  1.00  0.00     0.116 C 
BRANCH  34  35
ATOM     35  N   UNL     1       0.974   1.386   6.690  1.00  0.00    -0.352 N 
ATOM     36  C   UNL     1       1.081   2.210   7.783  1.00  0.00     0.251 C 
ATOM     37  H   UNL     1       0.865   0.429   6.894  1.00  0.00     0.163 HD
ATOM     38  O   UNL     1       1.291   1.728   8.892  1.00  0.00    -0.269 OA
BRANCH  36  39
ATOM     39  C   UNL     1       0.951   3.675   7.625  1.00  0.00     0.039 A 
ATOM     40  C   UNL     1       1.855   4.513   8.284  1.00  0.00     0.014 A 
ATOM     41  C   UNL     1      -0.080   4.223   6.855  1.00  0.00     0.014 A 
ATOM     42  C   UNL     1       1.761   5.898   8.124  1.00  0.00     0.010 A 
ATOM     43  C   UNL     1      -0.137   5.600   6.649  1.00  0.00     0.010 A 
ATOM     44  C   UNL     1       0.782   6.451   7.282  1.00  0.00    -0.014 A 
BRANCH  44  45
ATOM     45  C   UNL     1       0.709   7.915   7.041  1.00  0.00     0.031 A 
ATOM     46  C   UNL     1      -0.490   8.699   7.500  1.00  0.00     0.074 A 
ATOM     47  C   UNL     1       1.689   8.522   6.343  1.00  0.00     0.049 A 
ATOM     48  N   UNL     1      -0.777   9.960   7.302  1.00  0.00    -0.248 NA
ATOM     49  C   UNL     1      -1.514   7.963   8.258  1.00  0.00     0.031 C 
ATOM     50  C   UNL     1       2.880   7.860   5.807  1.00  0.00     0.029 A 
ATOM     51  N   UNL     1       1.832   9.829   5.951  1.00  0.00    -0.354 N 
ATOM     52  C   UNL     1      -2.017  10.166   7.895  1.00  0.00     0.074 A 
ATOM     53  C   UNL     1      -2.448   8.889   8.422  1.00  0.00     0.031 C 
ATOM     54  C   UNL     1       3.637   8.766   5.167  1.00  0.00     0.029 A 
ATOM     55  C   UNL     1       2.971  10.064   5.217  1.00  0.00     0.049 A 
ATOM     56  H   UNL     1       1.181  10.533   6.174  1.00  0.00     0.167 HD
ATOM     57  C   UNL     1      -2.722  11.317   8.007  1.00  0.00     0.037 A 
ATOM     58  C   UNL     1       3.422  11.194   4.639  1.00  0.00     0.037 A 
ATOM     59  C   UNL     1      -2.274  12.590   7.505  1.00  0.00     0.049 A 
ATOM     60  C   UNL     1       2.625  12.460   4.781  1.00  0.00     0.074 A 
ATOM     61  C   UNL     1      -2.886  13.826   7.623  1.00  0.00     0.029 A 
ATOM     62  N   UNL     1      -1.103  12.792   6.788  1.00  0.00    -0.354 N 
ATOM     63  N   UNL     1       1.481  12.648   5.395  1.00  0.00    -0.248 NA
ATOM     64  C   UNL     1       3.179  13.669   4.157  1.00  0.00     0.031 C 
ATOM     65  C   UNL     1      -2.104  14.768   6.945  1.00  0.00     0.029 A 
ATOM     66  C   UNL     1      -0.984  14.127   6.440  1.00  0.00     0.049 A 
ATOM     67  H   UNL     1      -0.453  12.089   6.560  1.00  0.00     0.167 HD
ATOM     68  C   UNL     1       1.188  13.999   5.248  1.00  0.00     0.074 A 
ATOM     69  C   UNL     1       2.282  14.584   4.499  1.00  0.00     0.031 C 
ATOM     70  C   UNL     1       0.112  14.693   5.693  1.00  0.00     0.037 A 
BRANCH  57  71
ATOM     71  C   UNL     1      -4.053  11.254   8.705  1.00  0.00     0.058 A 
ATOM     72  C   UNL     1      -4.147  11.062  10.093  1.00  0.00     0.135 A 
ATOM     73  C   UNL     1      -5.247  11.419   7.985  1.00  0.00     0.135 A 
ATOM     74  F   UNL     1      -3.038  10.885  10.828  1.00  0.00    -0.206 F 
ATOM     75  C   UNL     1      -5.379  11.006  10.738  1.00  0.00     0.059 A 
ATOM     76  C   UNL     1      -6.489  11.392   8.613  1.00  0.00     0.059 A 
ATOM     77  F   UNL     1      -5.214  11.606   6.656  1.00  0.00    -0.206 F 
ATOM     78  C   UNL     1      -6.545  11.169   9.988  1.00  0.00     0.060 A 
BRANCH  78  79
ATOM     79  S   UNL     1      -8.136  11.093  10.838  1.00  0.00     0.124 S 
ATOM     80  O   UNL     1      -8.262   9.660  11.088  1.00  0.00    -0.237 OA
ATOM     81  O   UNL     1      -7.902  11.922  12.016  1.00  0.00    -0.237 OA
ATOM     82  O   UNL     1      -9.070  11.644   9.862  1.00  0.00    -0.744 OA
ENDBRANCH  78  79
ENDBRANCH  57  71
BRANCH  58  83
ATOM     83  C   UNL     1       4.704  11.178   3.886  1.00  0.00     0.058 A 
ATOM     84  C   UNL     1       5.851  11.795   4.406  1.00  0.00     0.135 A 
ATOM     85  C   UNL     1       4.814  10.530   2.647  1.00  0.00     0.135 A 
ATOM     86  F   UNL     1       5.793  12.433   5.585  1.00  0.00    -0.206 F 
ATOM     87  C   UNL     1       7.060  11.782   3.719  1.00  0.00     0.059 A 
ATOM     88  C   UNL     1       6.018  10.483   1.951  1.00  0.00     0.059 A 
ATOM     89  F   UNL     1       3.749   9.909   2.115  1.00  0.00    -0.206 F 
ATOM     90  C   UNL     1       7.134  11.120   2.492  1.00  0.00     0.060 A 
BRANCH  90  91
ATOM     91  S   UNL     1       8.722  11.057   1.634  1.00  0.00     0.124 S 
ATOM     92  O   UNL     1       8.823  12.412   1.105  1.00  0.00    -0.237 OA
ATOM     93  O   UNL     1       9.643  10.723   2.716  1.00  0.00    -0.237 OA
ATOM     94  O   UNL     1       8.524  10.003   0.643  1.00  0.00    -0.744 OA
ENDBRANCH  90  91
ENDBRANCH  58  83
BRANCH  70  95
ATOM     95  C   UNL     1       0.073  16.166   5.400  1.00  0.00     0.058 A 
ATOM     96  C   UNL     1      -0.206  16.651   4.113  1.00  0.00     0.135 A 
ATOM     97  C   UNL     1       0.272  17.102   6.427  1.00  0.00     0.135 A 
ATOM     98  F   UNL     1      -0.396  15.797   3.095  1.00  0.00    -0.206 F 
ATOM     99  C   UNL     1      -0.266  18.016   3.849  1.00  0.00     0.059 A 
ATOM    100  C   UNL     1       0.192  18.471   6.191  1.00  0.00     0.059 A 
ATOM    101  F   UNL     1       0.532  16.689   7.677  1.00  0.00    -0.206 F 
ATOM    102  C   UNL     1      -0.066  18.918   4.896  1.00  0.00     0.060 A 
BRANCH 102 103
ATOM    103  S   UNL     1      -0.177  20.686   4.548  1.00  0.00     0.124 S 
ATOM    104  O   UNL     1       1.091  20.933   3.872  1.00  0.00    -0.237 OA
ATOM    105  O   UNL     1      -1.369  20.767   3.710  1.00  0.00    -0.237 OA
ATOM    106  O   UNL     1      -0.310  21.284   5.874  1.00  0.00    -0.744 OA
ENDBRANCH 102 103
ENDBRANCH  70  95
ENDBRANCH  44  45
ENDBRANCH  36  39
ENDBRANCH  34  35
ENDBRANCH  33  34
ENDBRANCH  32  33
ENDBRANCH   1  32
TORSDOF 19
