REMARK SMILES Cc1ccc(C[C@@H](Cc2cc(F)cc(Br)c2)C(=O)NCCCCCCNC(=O)c2ccc(-c3c4nc(c(-c5c(F)cc(S(=O)(=O)[O-])cc5F)c5ccc([nH]5)c(-c5c(F)cc(S(=O)(=O)[O-])cc5F)c5nc(c(-c6c(F)cc(S(=O)(=O)[O-])cc6F)c6ccc3[nH]6)C=C5)C=C4)cc2)cc1
REMARK SMILES IDX 23 1 22 2 21 3 20 4 19 5 17 6 18 7 7 9 6 10 5 11 1 12 2 13
REMARK SMILES IDX 3 14 96 15 4 16 95 17 8 18 9 19 10 20 16 21 11 22 14 23
REMARK SMILES IDX 12 24 13 25 15 26 24 27 25 28 26 29 27 30 28 32 29 33 30 34
REMARK SMILES IDX 94 35 31 36 93 37 32 38 33 39 34 40 87 41 35 42 92 43 86 44
REMARK SMILES IDX 88 45 36 46 91 47 85 48 84 49 37 51 71 52 50 53 70 54 51 55
REMARK SMILES IDX 54 56 69 57 89 58 52 59 53 60 68 62 90 63 55 64 38 65 39 66
REMARK SMILES IDX 48 67 40 68 41 69 47 70 49 71 42 72 43 73 44 74 45 75 46 76
REMARK SMILES IDX 72 77 73 78 82 79 74 80 75 81 81 82 83 83 76 84 77 85 78 86
REMARK SMILES IDX 79 87 80 88 56 89 57 90 66 91 58 92 59 93 65 94 67 95 60 96
REMARK SMILES IDX 61 97 62 98 63 99 64 100
REMARK H PARENT 19 8 26 31 88 50 54 61
REMARK Flexibility Score: inf
ROOT
ATOM      1  C   UNL     1      -8.266  -2.998   2.221  1.00  0.00     0.002 C 
ENDROOT
BRANCH   1   2
ATOM      2  C   UNL     1      -7.753  -1.577   2.525  1.00  0.00     0.002 C 
BRANCH   2   3
ATOM      3  C   UNL     1      -6.247  -1.329   2.369  1.00  0.00     0.021 C 
BRANCH   3   4
ATOM      4  C   UNL     1      -5.685  -1.671   0.996  1.00  0.00     0.116 C 
BRANCH   4   5
ATOM      5  N   UNL     1      -5.992  -0.658   0.003  1.00  0.00    -0.356 N 
ATOM      6  C   UNL     1      -5.267  -0.232  -1.065  1.00  0.00     0.223 C 
ATOM      7  O   UNL     1      -5.809   0.540  -1.863  1.00  0.00    -0.275 OA
ATOM      8  H   UNL     1      -6.861  -0.209   0.122  1.00  0.00     0.163 HD
BRANCH   6   9
ATOM      9  C   UNL     1      -3.816  -0.651  -1.285  1.00  0.00     0.087 C 
BRANCH   9  10
ATOM     10  C   UNL     1      -2.975   0.057  -0.186  1.00  0.00     0.049 C 
BRANCH  10  11
ATOM     11  C   UNL     1      -1.464   0.042  -0.277  1.00  0.00    -0.047 A 
ATOM     12  C   UNL     1       2.856   0.152  -0.019  1.00  0.00     0.044 C 
ATOM     13  C   UNL     1       1.361   0.124  -0.128  1.00  0.00    -0.051 A 
ATOM     14  C   UNL     1       0.674  -1.081   0.041  1.00  0.00     0.004 A 
ATOM     15  C   UNL     1       0.629   1.285  -0.391  1.00  0.00     0.004 A 
ATOM     16  C   UNL     1      -0.721  -1.116  -0.015  1.00  0.00     0.004 A 
ATOM     17  C   UNL     1      -0.767   1.244  -0.468  1.00  0.00     0.004 A 
ENDBRANCH  10  11
ENDBRANCH   9  10
BRANCH   9  18
ATOM     18  C   UNL     1      -3.546  -2.166  -1.447  1.00  0.00     0.049 C 
BRANCH  18  19
ATOM     19  C   UNL     1      -4.620  -3.199  -1.730  1.00  0.00    -0.043 A 
ATOM     20  C   UNL     1      -4.365  -4.519  -1.308  1.00  0.00     0.043 A 
ATOM     21  C   UNL     1      -5.856  -2.937  -2.335  1.00  0.00     0.019 A 
ATOM     22  C   UNL     1      -5.348  -5.500  -1.389  1.00  0.00     0.124 A 
ATOM     23  C   UNL     1      -6.850  -3.926  -2.371  1.00  0.00     0.021 A 
ATOM     24  F   UNL     1      -5.078  -6.736  -0.953  1.00  0.00    -0.207 F 
ATOM     25  C   UNL     1      -6.606  -5.208  -1.889  1.00  0.00     0.055 A 
ATOM     26  Br  UNL     1      -8.569  -3.498  -3.033  1.00  0.00    -0.051 Br
ENDBRANCH  18  19
ENDBRANCH   9  18
ENDBRANCH   6   9
ENDBRANCH   4   5
ENDBRANCH   3   4
ENDBRANCH   2   3
ENDBRANCH   1   2
BRANCH   1  27
ATOM     27  C   UNL     1      -7.459  -4.174   2.782  1.00  0.00     0.021 C 
BRANCH  27  28
ATOM     28  C   UNL     1      -7.278  -4.162   4.288  1.00  0.00     0.116 C 
BRANCH  28  29
ATOM     29  N   UNL     1      -8.356  -4.733   5.074  1.00  0.00    -0.352 N 
ATOM     30  C   UNL     1      -8.017  -5.206   6.343  1.00  0.00     0.251 C 
ATOM     31  H   UNL     1      -9.277  -4.784   4.730  1.00  0.00     0.163 HD
ATOM     32  O   UNL     1      -7.551  -6.304   6.584  1.00  0.00    -0.269 OA
BRANCH  30  33
ATOM     33  C   UNL     1      -7.911  -4.108   7.331  1.00  0.00     0.039 A 
ATOM     34  C   UNL     1      -8.975  -3.731   8.146  1.00  0.00     0.014 A 
ATOM     35  C   UNL     1      -6.771  -3.309   7.207  1.00  0.00     0.014 A 
ATOM     36  C   UNL     1      -8.945  -2.470   8.751  1.00  0.00     0.010 A 
ATOM     37  C   UNL     1      -6.791  -2.033   7.718  1.00  0.00     0.010 A 
ATOM     38  C   UNL     1      -7.887  -1.601   8.473  1.00  0.00    -0.014 A 
BRANCH  38  39
ATOM     39  C   UNL     1      -7.832  -0.197   8.862  1.00  0.00     0.031 A 
ATOM     40  C   UNL     1      -6.904   0.247   9.929  1.00  0.00     0.074 A 
ATOM     41  C   UNL     1      -8.489   0.720   8.120  1.00  0.00     0.049 A 
ATOM     42  N   UNL     1      -6.986   1.381  10.540  1.00  0.00    -0.248 NA
ATOM     43  C   UNL     1      -5.802  -0.581  10.412  1.00  0.00     0.031 C 
ATOM     44  C   UNL     1      -8.246   2.159   8.077  1.00  0.00     0.029 A 
ATOM     45  N   UNL     1      -9.651   0.545   7.370  1.00  0.00    -0.354 N 
ATOM     46  C   UNL     1      -5.835   1.550  11.278  1.00  0.00     0.074 A 
ATOM     47  C   UNL     1      -5.151   0.280  11.200  1.00  0.00     0.031 C 
ATOM     48  C   UNL     1      -9.323   2.770   7.561  1.00  0.00     0.029 A 
ATOM     49  C   UNL     1     -10.357   1.762   7.405  1.00  0.00     0.049 A 
ATOM     50  H   UNL     1      -9.926  -0.276   6.902  1.00  0.00     0.167 HD
ATOM     51  C   UNL     1      -5.524   2.785  11.768  1.00  0.00     0.037 A 
ATOM     52  C   UNL     1     -11.596   1.836   7.977  1.00  0.00     0.037 A 
ATOM     53  C   UNL     1      -6.565   3.757  11.445  1.00  0.00     0.049 A 
ATOM     54  C   UNL     1     -11.665   2.748   9.181  1.00  0.00     0.074 A 
ATOM     55  C   UNL     1      -6.694   4.681  10.420  1.00  0.00     0.029 A 
ATOM     56  N   UNL     1      -7.817   3.651  12.040  1.00  0.00    -0.354 N 
ATOM     57  N   UNL     1     -10.621   3.168   9.842  1.00  0.00    -0.248 NA
ATOM     58  C   UNL     1     -12.914   3.260   9.738  1.00  0.00     0.031 C 
ATOM     59  C   UNL     1      -8.048   5.088  10.362  1.00  0.00     0.029 A 
ATOM     60  C   UNL     1      -8.739   4.426  11.362  1.00  0.00     0.049 A 
ATOM     61  H   UNL     1      -8.019   3.102  12.832  1.00  0.00     0.167 HD
ATOM     62  C   UNL     1     -11.023   3.948  10.897  1.00  0.00     0.074 A 
ATOM     63  C   UNL     1     -12.467   3.999  10.769  1.00  0.00     0.031 C 
ATOM     64  C   UNL     1     -10.131   4.479  11.787  1.00  0.00     0.037 A 
BRANCH  51  65
ATOM     65  C   UNL     1      -4.149   3.163  12.279  1.00  0.00     0.058 A 
ATOM     66  C   UNL     1      -3.627   4.460  12.069  1.00  0.00     0.135 A 
ATOM     67  C   UNL     1      -3.275   2.279  12.942  1.00  0.00     0.135 A 
ATOM     68  F   UNL     1      -4.368   5.438  11.534  1.00  0.00    -0.206 F 
ATOM     69  C   UNL     1      -2.313   4.812  12.382  1.00  0.00     0.059 A 
ATOM     70  C   UNL     1      -1.938   2.590  13.217  1.00  0.00     0.059 A 
ATOM     71  F   UNL     1      -3.702   1.087  13.384  1.00  0.00    -0.206 F 
ATOM     72  C   UNL     1      -1.461   3.859  12.920  1.00  0.00     0.060 A 
BRANCH  72  73
ATOM     73  S   UNL     1       0.261   4.306  13.214  1.00  0.00     0.124 S 
ATOM     74  O   UNL     1       0.671   4.828  11.913  1.00  0.00    -0.237 OA
ATOM     75  O   UNL     1       0.142   5.290  14.284  1.00  0.00    -0.237 OA
ATOM     76  O   UNL     1       0.881   3.039  13.593  1.00  0.00    -0.744 OA
ENDBRANCH  72  73
ENDBRANCH  51  65
BRANCH  52  77
ATOM     77  C   UNL     1     -12.397   0.595   7.772  1.00  0.00     0.058 A 
ATOM     78  C   UNL     1     -12.808   0.311   6.455  1.00  0.00     0.135 A 
ATOM     79  C   UNL     1     -12.301  -0.480   8.667  1.00  0.00     0.135 A 
ATOM     80  F   UNL     1     -12.949   1.310   5.568  1.00  0.00    -0.206 F 
ATOM     81  C   UNL     1     -12.908  -0.995   5.987  1.00  0.00     0.059 A 
ATOM     82  C   UNL     1     -12.412  -1.800   8.221  1.00  0.00     0.059 A 
ATOM     83  F   UNL     1     -11.930  -0.271   9.939  1.00  0.00    -0.206 F 
ATOM     84  C   UNL     1     -12.617  -2.040   6.861  1.00  0.00     0.060 A 
BRANCH  84  85
ATOM     85  S   UNL     1     -12.325  -3.682   6.157  1.00  0.00     0.124 S 
ATOM     86  O   UNL     1     -13.496  -3.866   5.307  1.00  0.00    -0.237 OA
ATOM     87  O   UNL     1     -11.053  -3.489   5.455  1.00  0.00    -0.237 OA
ATOM     88  O   UNL     1     -12.258  -4.544   7.332  1.00  0.00    -0.744 OA
ENDBRANCH  84  85
ENDBRANCH  52  77
BRANCH  64  89
ATOM     89  C   UNL     1     -10.466   5.179  13.086  1.00  0.00     0.058 A 
ATOM     90  C   UNL     1     -11.617   4.921  13.848  1.00  0.00     0.135 A 
ATOM     91  C   UNL     1      -9.529   6.061  13.684  1.00  0.00     0.135 A 
ATOM     92  F   UNL     1     -12.527   4.019  13.455  1.00  0.00    -0.206 F 
ATOM     93  C   UNL     1     -11.859   5.542  15.076  1.00  0.00     0.059 A 
ATOM     94  C   UNL     1      -9.724   6.646  14.933  1.00  0.00     0.059 A 
ATOM     95  F   UNL     1      -8.375   6.376  13.077  1.00  0.00    -0.206 F 
ATOM     96  C   UNL     1     -10.907   6.403  15.612  1.00  0.00     0.060 A 
BRANCH  96  97
ATOM     97  S   UNL     1     -11.178   7.158  17.226  1.00  0.00     0.124 S 
ATOM     98  O   UNL     1     -11.802   8.424  16.854  1.00  0.00    -0.237 OA
ATOM     99  O   UNL     1     -12.053   6.197  17.893  1.00  0.00    -0.237 OA
ATOM    100  O   UNL     1      -9.831   7.252  17.778  1.00  0.00    -0.744 OA
ENDBRANCH  96  97
ENDBRANCH  64  89
ENDBRANCH  38  39
ENDBRANCH  30  33
ENDBRANCH  28  29
ENDBRANCH  27  28
ENDBRANCH   1  27
TORSDOF 20
