REMARK SMILES CC[C@@](C)(NC(=O)Nc1cccc(C[NH2+]C)c1)C(=O)NCCCCCCNC(=O)c1ccc(-c2c3nc(c(-c4c(F)cc(S(=O)(=O)[O-])cc4F)c4ccc([nH]4)c(-c4c(F)cc(S(=O)(=O)[O-])cc4F)c4nc(c(-c5c(F)cc(S(=O)(=O)[O-])cc5F)c5ccc2[nH]5)C=C4)C=C3)cc1
REMARK SMILES IDX 23 1 22 2 21 3 20 4 18 5 19 6 3 8 4 9 2 10 1 11 5 12 6 13
REMARK SMILES IDX 7 15 8 16 9 18 10 19 17 20 11 21 13 22 12 23 14 24 15 25
REMARK SMILES IDX 16 26 24 29 25 30 26 31 27 32 28 33 29 35 30 36 31 37 95 38
REMARK SMILES IDX 32 39 94 40 33 41 34 42 35 43 88 44 36 45 93 46 87 47 89 48
REMARK SMILES IDX 37 49 92 50 86 51 85 52 38 54 72 55 51 56 71 57 52 58 55 59
REMARK SMILES IDX 70 60 90 61 53 62 54 63 69 65 91 66 56 67 39 68 40 69 49 70
REMARK SMILES IDX 41 71 42 72 48 73 50 74 43 75 44 76 45 77 46 78 47 79 73 80
REMARK SMILES IDX 74 81 83 82 75 83 76 84 82 85 84 86 77 87 78 88 79 89 80 90
REMARK SMILES IDX 81 91 57 92 58 93 67 94 59 95 60 96 66 97 68 98 61 99 62 100
REMARK SMILES IDX 63 101 64 102 65 103
REMARK H PARENT 20 7 5 14 8 17 15 27 15 28 27 34 89 53 55 64
REMARK Flexibility Score: inf
ROOT
ATOM      1  C   UNL     1       3.872   5.749  -2.571  1.00  0.00     0.002 C 
ENDROOT
BRANCH   1   2
ATOM      2  C   UNL     1       2.335   5.859  -2.650  1.00  0.00     0.021 C 
BRANCH   2   3
ATOM      3  C   UNL     1       1.579   4.617  -3.175  1.00  0.00     0.116 C 
BRANCH   3   4
ATOM      4  N   UNL     1       1.967   3.475  -2.388  1.00  0.00    -0.354 N 
ATOM      5  C   UNL     1       1.247   2.340  -2.065  1.00  0.00     0.245 C 
ATOM      6  O   UNL     1       1.067   1.402  -2.829  1.00  0.00    -0.272 OA
ATOM      7  H   UNL     1       2.882   3.508  -2.025  1.00  0.00     0.163 HD
BRANCH   5   8
ATOM      8  C   UNL     1       0.543   2.513  -0.694  1.00  0.00     0.117 C 
ATOM      9  C   UNL     1      -0.908   2.765  -1.221  1.00  0.00     0.045 C 
BRANCH   8  10
ATOM     10  C   UNL     1       0.436   1.411   0.378  1.00  0.00     0.035 C 
ATOM     11  C   UNL     1       0.590  -0.033  -0.043  1.00  0.00     0.007 C 
ENDBRANCH   8  10
BRANCH   8  12
ATOM     12  N   UNL     1       1.087   3.740  -0.030  1.00  0.00    -0.324 N 
ATOM     13  C   UNL     1       2.212   4.109   0.599  1.00  0.00     0.320 C 
ATOM     14  H   UNL     1       0.440   4.481  -0.066  1.00  0.00     0.166 HD
ATOM     15  O   UNL     1       2.129   5.166   1.237  1.00  0.00    -0.248 OA
ATOM     16  N   UNL     1       3.397   3.477   0.656  1.00  0.00    -0.308 N 
ATOM     17  H   UNL     1       3.938   3.902   1.360  1.00  0.00     0.171 HD
BRANCH  16  18
ATOM     18  C   UNL     1       4.159   2.429   0.086  1.00  0.00     0.043 A 
ATOM     19  C   UNL     1       5.074   1.798   0.932  1.00  0.00     0.026 A 
ATOM     20  C   UNL     1       4.178   1.998  -1.234  1.00  0.00     0.035 A 
ATOM     21  C   UNL     1       5.819   0.686   0.506  1.00  0.00     0.003 A 
ATOM     22  C   UNL     1       4.764   0.787  -1.647  1.00  0.00     0.008 A 
ATOM     23  C   UNL     1       5.624   0.145  -0.767  1.00  0.00     0.010 A 
BRANCH  22  24
ATOM     24  C   UNL     1       4.222   0.135  -2.904  1.00  0.00     0.297 C 
BRANCH  24  25
ATOM     25  N   UNL     1       5.056   0.148  -4.104  1.00  0.00    -0.345 N 
ATOM     26  C   UNL     1       4.215  -0.336  -5.216  1.00  0.00     0.331 C 
ATOM     27  H   UNL     1       5.860  -0.467  -3.979  1.00  0.00     0.346 HD
ATOM     28  H   UNL     1       5.407   1.087  -4.295  1.00  0.00     0.346 HD
ENDBRANCH  24  25
ENDBRANCH  22  24
ENDBRANCH  16  18
ENDBRANCH   8  12
ENDBRANCH   5   8
ENDBRANCH   3   4
ENDBRANCH   2   3
ENDBRANCH   1   2
BRANCH   1  29
ATOM     29  C   UNL     1       4.577   5.373  -3.873  1.00  0.00     0.002 C 
BRANCH  29  30
ATOM     30  C   UNL     1       4.191   6.238  -5.068  1.00  0.00     0.021 C 
BRANCH  30  31
ATOM     31  C   UNL     1       4.375   7.736  -4.856  1.00  0.00     0.116 C 
BRANCH  31  32
ATOM     32  N   UNL     1       5.771   8.136  -4.837  1.00  0.00    -0.352 N 
ATOM     33  C   UNL     1       6.378   9.151  -5.551  1.00  0.00     0.251 C 
ATOM     34  H   UNL     1       6.358   7.620  -4.239  1.00  0.00     0.163 HD
ATOM     35  O   UNL     1       7.584   9.288  -5.539  1.00  0.00    -0.269 OA
BRANCH  33  36
ATOM     36  C   UNL     1       5.522  10.046  -6.369  1.00  0.00     0.039 A 
ATOM     37  C   UNL     1       5.831  10.221  -7.719  1.00  0.00     0.014 A 
ATOM     38  C   UNL     1       4.384  10.642  -5.819  1.00  0.00     0.014 A 
ATOM     39  C   UNL     1       4.948  10.928  -8.539  1.00  0.00     0.010 A 
ATOM     40  C   UNL     1       3.469  11.278  -6.653  1.00  0.00     0.010 A 
ATOM     41  C   UNL     1       3.736  11.419  -8.024  1.00  0.00    -0.014 A 
BRANCH  41  42
ATOM     42  C   UNL     1       2.722  12.049  -8.910  1.00  0.00     0.031 A 
ATOM     43  C   UNL     1       2.323  13.484  -8.710  1.00  0.00     0.074 A 
ATOM     44  C   UNL     1       2.104  11.302  -9.848  1.00  0.00     0.049 A 
ATOM     45  N   UNL     1       1.411  14.182  -9.336  1.00  0.00    -0.248 NA
ATOM     46  C   UNL     1       3.023  14.223  -7.648  1.00  0.00     0.031 C 
ATOM     47  C   UNL     1       2.359   9.882 -10.100  1.00  0.00     0.029 A 
ATOM     48  N   UNL     1       1.121  11.627 -10.750  1.00  0.00    -0.354 N 
ATOM     49  C   UNL     1       1.424  15.440  -8.744  1.00  0.00     0.074 A 
ATOM     50  C   UNL     1       2.389  15.387  -7.667  1.00  0.00     0.031 C 
ATOM     51  C   UNL     1       1.563   9.462 -11.095  1.00  0.00     0.029 A 
ATOM     52  C   UNL     1       0.712  10.568 -11.526  1.00  0.00     0.049 A 
ATOM     53  H   UNL     1       0.745  12.533 -10.835  1.00  0.00     0.167 HD
ATOM     54  C   UNL     1       0.716  16.544  -9.082  1.00  0.00     0.037 A 
ATOM     55  C   UNL     1      -0.252  10.486 -12.464  1.00  0.00     0.037 A 
ATOM     56  C   UNL     1      -0.244  16.588 -10.155  1.00  0.00     0.049 A 
ATOM     57  C   UNL     1      -1.042  11.716 -12.814  1.00  0.00     0.074 A 
ATOM     58  C   UNL     1      -0.976  17.671 -10.612  1.00  0.00     0.029 A 
ATOM     59  N   UNL     1      -0.618  15.500 -10.932  1.00  0.00    -0.354 N 
ATOM     60  N   UNL     1      -0.961  12.920 -12.298  1.00  0.00    -0.248 NA
ATOM     61  C   UNL     1      -2.048  11.584 -13.877  1.00  0.00     0.031 C 
ATOM     62  C   UNL     1      -1.831  17.225 -11.626  1.00  0.00     0.029 A 
ATOM     63  C   UNL     1      -1.592  15.877 -11.843  1.00  0.00     0.049 A 
ATOM     64  H   UNL     1      -0.245  14.592 -10.848  1.00  0.00     0.167 HD
ATOM     65  C   UNL     1      -1.896  13.691 -12.979  1.00  0.00     0.074 A 
ATOM     66  C   UNL     1      -2.516  12.822 -13.960  1.00  0.00     0.031 C 
ATOM     67  C   UNL     1      -2.211  14.999 -12.808  1.00  0.00     0.037 A 
BRANCH  54  68
ATOM     68  C   UNL     1       0.955  17.792  -8.274  1.00  0.00     0.058 A 
ATOM     69  C   UNL     1       2.177  18.483  -8.326  1.00  0.00     0.135 A 
ATOM     70  C   UNL     1      -0.049  18.308  -7.437  1.00  0.00     0.135 A 
ATOM     71  F   UNL     1       3.177  18.030  -9.100  1.00  0.00    -0.206 F 
ATOM     72  C   UNL     1       2.414  19.607  -7.543  1.00  0.00     0.059 A 
ATOM     73  C   UNL     1       0.154  19.451  -6.669  1.00  0.00     0.059 A 
ATOM     74  F   UNL     1      -1.239  17.694  -7.350  1.00  0.00    -0.206 F 
ATOM     75  C   UNL     1       1.398  20.080  -6.712  1.00  0.00     0.060 A 
BRANCH  75  76
ATOM     76  S   UNL     1       1.732  21.522  -5.679  1.00  0.00     0.124 S 
ATOM     77  O   UNL     1       2.624  20.956  -4.671  1.00  0.00    -0.237 OA
ATOM     78  O   UNL     1       2.349  22.448  -6.623  1.00  0.00    -0.237 OA
ATOM     79  O   UNL     1       0.410  21.910  -5.198  1.00  0.00    -0.744 OA
ENDBRANCH  75  76
ENDBRANCH  54  68
BRANCH  55  80
ATOM     80  C   UNL     1      -0.513   9.183 -13.133  1.00  0.00     0.058 A 
ATOM     81  C   UNL     1      -0.157   8.967 -14.472  1.00  0.00     0.135 A 
ATOM     82  C   UNL     1      -1.080   8.109 -12.427  1.00  0.00     0.135 A 
ATOM     83  F   UNL     1       0.379   9.965 -15.192  1.00  0.00    -0.206 F 
ATOM     84  C   UNL     1      -0.351   7.735 -15.089  1.00  0.00     0.059 A 
ATOM     85  C   UNL     1      -1.260   6.861 -13.014  1.00  0.00     0.059 A 
ATOM     86  F   UNL     1      -1.425   8.259 -11.139  1.00  0.00    -0.206 F 
ATOM     87  C   UNL     1      -0.895   6.684 -14.347  1.00  0.00     0.060 A 
BRANCH  87  88
ATOM     88  S   UNL     1      -1.066   5.067 -15.132  1.00  0.00     0.124 S 
ATOM     89  O   UNL     1      -2.172   5.302 -16.053  1.00  0.00    -0.237 OA
ATOM     90  O   UNL     1       0.247   4.884 -15.743  1.00  0.00    -0.237 OA
ATOM     91  O   UNL     1      -1.356   4.178 -14.011  1.00  0.00    -0.744 OA
ENDBRANCH  87  88
ENDBRANCH  55  80
BRANCH  67  92
ATOM     92  C   UNL     1      -3.270  15.582 -13.704  1.00  0.00     0.058 A 
ATOM     93  C   UNL     1      -4.627  15.255 -13.550  1.00  0.00     0.135 A 
ATOM     94  C   UNL     1      -2.933  16.526 -14.688  1.00  0.00     0.135 A 
ATOM     95  F   UNL     1      -5.004  14.352 -12.631  1.00  0.00    -0.206 F 
ATOM     96  C   UNL     1      -5.609  15.831 -14.349  1.00  0.00     0.059 A 
ATOM     97  C   UNL     1      -3.901  17.136 -15.479  1.00  0.00     0.059 A 
ATOM     98  F   UNL     1      -1.651  16.881 -14.873  1.00  0.00    -0.206 F 
ATOM     99  C   UNL     1      -5.237  16.775 -15.308  1.00  0.00     0.060 A 
BRANCH  99 100
ATOM    100  S   UNL     1      -6.527  17.548 -16.306  1.00  0.00     0.124 S 
ATOM    101  O   UNL     1      -6.915  16.451 -17.187  1.00  0.00    -0.237 OA
ATOM    102  O   UNL     1      -7.512  17.931 -15.299  1.00  0.00    -0.237 OA
ATOM    103  O   UNL     1      -5.837  18.659 -16.955  1.00  0.00    -0.744 OA
ENDBRANCH  99 100
ENDBRANCH  67  92
ENDBRANCH  41  42
ENDBRANCH  33  36
ENDBRANCH  31  32
ENDBRANCH  30  31
ENDBRANCH  29  30
ENDBRANCH   1  29
TORSDOF 21
