REMARK SMILES Cc1ccc(NC(=O)C[C@H]([NH2+]Cc2cccnc2)C(=O)NCCCCCCNC(=O)c2ccc(-c3c4nc(c(-c5c(F)cc(S(=O)(=O)[O-])cc5F)c5ccc([nH]5)c(-c5c(F)cc(S(=O)(=O)[O-])cc5F)c5nc(c(-c6c(F)cc(S(=O)(=O)[O-])cc6F)c6ccc3[nH]6)C=C5)C=C4)cc2)cc1Cl
REMARK SMILES IDX 24 1 23 2 22 3 21 4 19 5 20 6 10 8 9 9 7 10 6 11 8 13 5 14
REMARK SMILES IDX 1 15 2 16 3 17 98 18 4 19 97 20 99 21 11 22 12 25 13 26
REMARK SMILES IDX 14 27 18 28 15 29 17 30 16 31 25 32 26 33 27 34 28 35 29 36
REMARK SMILES IDX 30 38 31 39 32 40 96 41 33 42 95 43 34 44 35 45 36 46 89 47
REMARK SMILES IDX 37 48 94 49 88 50 90 51 38 52 93 53 87 54 86 55 39 57 73 58
REMARK SMILES IDX 52 59 72 60 53 61 56 62 71 63 91 64 54 65 55 66 70 68 92 69
REMARK SMILES IDX 57 70 40 71 41 72 50 73 42 74 43 75 49 76 51 77 44 78 45 79
REMARK SMILES IDX 46 80 47 81 48 82 74 83 75 84 84 85 76 86 77 87 83 88 85 89
REMARK SMILES IDX 78 90 79 91 80 92 81 93 82 94 58 95 59 96 68 97 60 98 61 99
REMARK SMILES IDX 67 100 69 101 62 102 63 103 64 104 65 105 66 106
REMARK H PARENT 21 7 6 12 11 23 11 24 28 37 90 56 56 67
REMARK Flexibility Score: inf
ROOT
ATOM      1  C   UNL     1       4.428  -2.459   1.999  1.00  0.00     0.002 C 
ENDROOT
BRANCH   1   2
ATOM      2  C   UNL     1       3.064  -2.837   1.421  1.00  0.00     0.021 C 
BRANCH   2   3
ATOM      3  C   UNL     1       2.653  -2.139   0.114  1.00  0.00     0.116 C 
BRANCH   3   4
ATOM      4  N   UNL     1       2.208  -3.089  -0.915  1.00  0.00    -0.351 N 
ATOM      5  C   UNL     1       1.055  -3.400  -1.566  1.00  0.00     0.278 C 
ATOM      6  O   UNL     1       1.161  -4.309  -2.408  1.00  0.00    -0.268 OA
ATOM      7  H   UNL     1       2.952  -3.659  -1.218  1.00  0.00     0.163 HD
BRANCH   5   8
ATOM      8  C   UNL     1      -0.373  -2.807  -1.311  1.00  0.00     0.282 C 
BRANCH   8   9
ATOM      9  C   UNL     1      -0.421  -1.403  -0.751  1.00  0.00     0.175 C 
BRANCH   9  10
ATOM     10  C   UNL     1      -0.648  -0.922   0.674  1.00  0.00     0.230 C 
ATOM     11  N   UNL     1      -0.584  -1.524   1.877  1.00  0.00    -0.326 N 
ATOM     12  H   UNL     1      -0.788  -0.871   2.585  1.00  0.00     0.169 HD
ATOM     13  O   UNL     1      -0.925   0.292   0.765  1.00  0.00    -0.274 OA
BRANCH  11  14
ATOM     14  C   UNL     1      -0.320  -2.777   2.452  1.00  0.00     0.042 A 
ATOM     15  C   UNL     1       0.240  -6.582   4.474  1.00  0.00     0.046 C 
ATOM     16  C   UNL     1       0.088  -5.262   3.781  1.00  0.00    -0.032 A 
ATOM     17  C   UNL     1      -0.323  -4.126   4.487  1.00  0.00     0.007 A 
ATOM     18  C   UNL     1       0.314  -5.131   2.415  1.00  0.00     0.046 A 
ATOM     19  C   UNL     1      -0.526  -2.902   3.829  1.00  0.00     0.026 A 
ATOM     20  C   UNL     1       0.140  -3.896   1.788  1.00  0.00     0.047 A 
ATOM     21  Cl  UNL     1       0.820  -6.463   1.433  1.00  0.00    -0.084 Cl
ENDBRANCH  11  14
ENDBRANCH   9  10
ENDBRANCH   8   9
BRANCH   8  22
ATOM     22  N   UNL     1      -1.242  -3.856  -0.750  1.00  0.00    -0.332 N 
ATOM     23  H   UNL     1      -0.852  -4.116   0.155  1.00  0.00     0.347 HD
ATOM     24  H   UNL     1      -1.248  -4.581  -1.467  1.00  0.00     0.347 HD
BRANCH  22  25
ATOM     25  C   UNL     1      -2.653  -3.560  -0.539  1.00  0.00     0.299 C 
BRANCH  25  26
ATOM     26  C   UNL     1      -3.137  -4.211   0.736  1.00  0.00     0.024 A 
ATOM     27  C   UNL     1      -3.087  -5.596   0.935  1.00  0.00     0.013 A 
ATOM     28  C   UNL     1      -3.596  -3.442   1.804  1.00  0.00     0.120 A 
ATOM     29  C   UNL     1      -3.447  -6.136   2.169  1.00  0.00     0.021 A 
ATOM     30  N   UNL     1      -3.966  -3.939   3.008  1.00  0.00    -0.264 NA
ATOM     31  C   UNL     1      -3.867  -5.274   3.167  1.00  0.00     0.111 A 
ENDBRANCH  25  26
ENDBRANCH  22  25
ENDBRANCH   8  22
ENDBRANCH   5   8
ENDBRANCH   3   4
ENDBRANCH   2   3
ENDBRANCH   1   2
BRANCH   1  32
ATOM     32  C   UNL     1       4.589  -1.000   2.433  1.00  0.00     0.002 C 
BRANCH  32  33
ATOM     33  C   UNL     1       3.630  -0.486   3.516  1.00  0.00     0.021 C 
BRANCH  33  34
ATOM     34  C   UNL     1       3.607  -1.254   4.841  1.00  0.00     0.116 C 
BRANCH  34  35
ATOM     35  N   UNL     1       4.922  -1.367   5.451  1.00  0.00    -0.352 N 
ATOM     36  C   UNL     1       5.434  -0.865   6.622  1.00  0.00     0.251 C 
ATOM     37  H   UNL     1       5.562  -1.901   4.929  1.00  0.00     0.163 HD
ATOM     38  O   UNL     1       6.645  -0.955   6.818  1.00  0.00    -0.269 OA
BRANCH  36  39
ATOM     39  C   UNL     1       4.580  -0.213   7.646  1.00  0.00     0.039 A 
ATOM     40  C   UNL     1       5.096   0.896   8.329  1.00  0.00     0.014 A 
ATOM     41  C   UNL     1       3.331  -0.721   8.012  1.00  0.00     0.014 A 
ATOM     42  C   UNL     1       4.346   1.520   9.331  1.00  0.00     0.010 A 
ATOM     43  C   UNL     1       2.557  -0.061   8.974  1.00  0.00     0.010 A 
ATOM     44  C   UNL     1       3.055   1.065   9.646  1.00  0.00    -0.014 A 
BRANCH  44  45
ATOM     45  C   UNL     1       2.225   1.779  10.657  1.00  0.00     0.031 A 
ATOM     46  C   UNL     1       1.837   1.116  11.953  1.00  0.00     0.074 A 
ATOM     47  C   UNL     1       1.787   3.026  10.389  1.00  0.00     0.049 A 
ATOM     48  N   UNL     1       1.122   1.591  12.942  1.00  0.00    -0.248 NA
ATOM     49  C   UNL     1       2.295  -0.267  12.157  1.00  0.00     0.031 C 
ATOM     50  C   UNL     1       2.048   3.764   9.151  1.00  0.00     0.029 A 
ATOM     51  N   UNL     1       1.030   3.894  11.137  1.00  0.00    -0.354 N 
ATOM     52  C   UNL     1       1.031   0.566  13.877  1.00  0.00     0.074 A 
ATOM     53  C   UNL     1       1.730  -0.572  13.317  1.00  0.00     0.031 C 
ATOM     54  C   UNL     1       1.488   4.981   9.237  1.00  0.00     0.029 A 
ATOM     55  C   UNL     1       0.803   5.102  10.520  1.00  0.00     0.049 A 
ATOM     56  H   UNL     1       0.683   3.673  12.031  1.00  0.00     0.167 HD
ATOM     57  C   UNL     1       0.436   0.575  15.096  1.00  0.00     0.037 A 
ATOM     58  C   UNL     1       0.122   6.187  10.937  1.00  0.00     0.037 A 
ATOM     59  C   UNL     1      -0.237   1.717  15.663  1.00  0.00     0.049 A 
ATOM     60  C   UNL     1      -0.513   6.179  12.301  1.00  0.00     0.074 A 
ATOM     61  C   UNL     1      -0.807   1.847  16.919  1.00  0.00     0.029 A 
ATOM     62  N   UNL     1      -0.438   2.925  15.011  1.00  0.00    -0.354 N 
ATOM     63  N   UNL     1      -0.524   5.224  13.200  1.00  0.00    -0.248 NA
ATOM     64  C   UNL     1      -1.219   7.401  12.709  1.00  0.00     0.031 C 
ATOM     65  C   UNL     1      -1.389   3.117  17.010  1.00  0.00     0.029 A 
ATOM     66  C   UNL     1      -1.142   3.796  15.828  1.00  0.00     0.049 A 
ATOM     67  H   UNL     1      -0.126   3.134  14.101  1.00  0.00     0.167 HD
ATOM     68  C   UNL     1      -1.219   5.738  14.290  1.00  0.00     0.074 A 
ATOM     69  C   UNL     1      -1.595   7.094  13.943  1.00  0.00     0.031 C 
ATOM     70  C   UNL     1      -1.518   5.142  15.471  1.00  0.00     0.037 A 
BRANCH  57  71
ATOM     71  C   UNL     1       0.484  -0.693  15.907  1.00  0.00     0.058 A 
ATOM     72  C   UNL     1       1.676  -1.154  16.489  1.00  0.00     0.135 A 
ATOM     73  C   UNL     1      -0.684  -1.437  16.139  1.00  0.00     0.135 A 
ATOM     74  F   UNL     1       2.825  -0.488  16.293  1.00  0.00    -0.206 F 
ATOM     75  C   UNL     1       1.715  -2.323  17.243  1.00  0.00     0.059 A 
ATOM     76  C   UNL     1      -0.674  -2.596  16.912  1.00  0.00     0.059 A 
ATOM     77  F   UNL     1      -1.854  -1.042  15.611  1.00  0.00    -0.206 F 
ATOM     78  C   UNL     1       0.535  -3.039  17.446  1.00  0.00     0.060 A 
BRANCH  78  79
ATOM     79  S   UNL     1       0.598  -4.557  18.422  1.00  0.00     0.124 S 
ATOM     80  O   UNL     1       1.242  -5.476  17.486  1.00  0.00    -0.237 OA
ATOM     81  O   UNL     1       1.410  -4.156  19.571  1.00  0.00    -0.237 OA
ATOM     82  O   UNL     1      -0.800  -4.836  18.714  1.00  0.00    -0.744 OA
ENDBRANCH  78  79
ENDBRANCH  57  71
BRANCH  58  83
ATOM     83  C   UNL     1       0.038   7.390  10.067  1.00  0.00     0.058 A 
ATOM     84  C   UNL     1       0.739   8.562  10.390  1.00  0.00     0.135 A 
ATOM     85  C   UNL     1      -0.731   7.391   8.894  1.00  0.00     0.135 A 
ATOM     86  F   UNL     1       1.482   8.612  11.506  1.00  0.00    -0.206 F 
ATOM     87  C   UNL     1       0.669   9.697   9.590  1.00  0.00     0.059 A 
ATOM     88  C   UNL     1      -0.797   8.505   8.064  1.00  0.00     0.059 A 
ATOM     89  F   UNL     1      -1.407   6.289   8.533  1.00  0.00    -0.206 F 
ATOM     90  C   UNL     1      -0.101   9.658   8.426  1.00  0.00     0.060 A 
BRANCH  90  91
ATOM     91  S   UNL     1      -0.143  11.120   7.366  1.00  0.00     0.124 S 
ATOM     92  O   UNL     1      -1.007  12.011   8.130  1.00  0.00    -0.237 OA
ATOM     93  O   UNL     1       1.266  11.494   7.302  1.00  0.00    -0.237 OA
ATOM     94  O   UNL     1      -0.704  10.611   6.118  1.00  0.00    -0.744 OA
ENDBRANCH  90  91
ENDBRANCH  58  83
BRANCH  70  95
ATOM     95  C   UNL     1      -2.270   5.964  16.481  1.00  0.00     0.058 A 
ATOM     96  C   UNL     1      -3.624   6.292  16.305  1.00  0.00     0.135 A 
ATOM     97  C   UNL     1      -1.631   6.426  17.643  1.00  0.00     0.135 A 
ATOM     98  F   UNL     1      -4.282   5.881  15.210  1.00  0.00    -0.206 F 
ATOM     99  C   UNL     1      -4.306   7.083  17.224  1.00  0.00     0.059 A 
ATOM    100  C   UNL     1      -2.301   7.195  18.589  1.00  0.00     0.059 A 
ATOM    101  F   UNL     1      -0.341   6.131  17.868  1.00  0.00    -0.206 F 
ATOM    102  C   UNL     1      -3.633   7.536  18.361  1.00  0.00     0.060 A 
BRANCH 102 103
ATOM    103  S   UNL     1      -4.525   8.567  19.545  1.00  0.00     0.124 S 
ATOM    104  O   UNL     1      -4.543   9.854  18.858  1.00  0.00    -0.237 OA
ATOM    105  O   UNL     1      -5.812   7.886  19.650  1.00  0.00    -0.237 OA
ATOM    106  O   UNL     1      -3.692   8.505  20.742  1.00  0.00    -0.744 OA
ENDBRANCH 102 103
ENDBRANCH  70  95
ENDBRANCH  44  45
ENDBRANCH  36  39
ENDBRANCH  34  35
ENDBRANCH  33  34
ENDBRANCH  32  33
ENDBRANCH   1  32
TORSDOF 22
