REMARK SMILES CC1C[NH+]([C@@H](C(=O)NCCCCCCNC(=O)c2ccc(-c3c4nc(c(-c5c(F)cc(S(=O)(=O)[O-])cc5F)c5ccc([nH]5)c(-c5c(F)cc(S(=O)(=O)[O-])cc5F)c5nc(c(-c6c(F)cc(S(=O)(=O)[O-])cc6F)c6ccc3[nH]6)C=C5)C=C4)cc2)C2CCCCC2)C1
REMARK SMILES IDX 12 1 11 2 10 3 9 4 8 5 6 6 7 7 5 9 4 10 1 11 2 12 3 13 90 14
REMARK SMILES IDX 84 16 85 17 89 18 86 19 88 20 87 21 13 22 14 23 15 24 16 25
REMARK SMILES IDX 17 27 18 28 19 29 83 30 20 31 82 32 21 33 22 34 23 35 76 36
REMARK SMILES IDX 24 37 81 38 75 39 77 40 25 41 80 42 74 43 73 44 26 46 60 47
REMARK SMILES IDX 39 48 59 49 40 50 43 51 58 52 78 53 41 54 42 55 57 57 79 58
REMARK SMILES IDX 44 59 27 60 28 61 37 62 29 63 30 64 36 65 38 66 31 67 32 68
REMARK SMILES IDX 33 69 34 70 35 71 61 72 62 73 71 74 63 75 64 76 70 77 72 78
REMARK SMILES IDX 65 79 66 80 67 81 68 82 69 83 45 84 46 85 55 86 47 87 48 88
REMARK SMILES IDX 54 89 56 90 49 91 50 92 51 93 52 94 53 95
REMARK H PARENT 8 8 4 15 15 26 77 45 43 56
REMARK Flexibility Score: inf
ROOT
ATOM      1  C   UNL     1       0.458   1.003   5.641  1.00  0.00     0.002 C 
ENDROOT
BRANCH   1   2
ATOM      2  C   UNL     1       0.400   0.760   4.133  1.00  0.00     0.002 C 
BRANCH   2   3
ATOM      3  C   UNL     1       1.121  -0.508   3.662  1.00  0.00     0.021 C 
BRANCH   3   4
ATOM      4  C   UNL     1       0.344  -1.817   3.861  1.00  0.00     0.116 C 
BRANCH   4   5
ATOM      5  N   UNL     1      -0.857  -1.862   3.043  1.00  0.00    -0.351 N 
ATOM      6  C   UNL     1      -1.188  -2.534   1.902  1.00  0.00     0.278 C 
ATOM      7  O   UNL     1      -2.295  -2.244   1.432  1.00  0.00    -0.268 OA
ATOM      8  H   UNL     1      -1.582  -1.289   3.383  1.00  0.00     0.163 HD
BRANCH   6   9
ATOM      9  C   UNL     1      -0.270  -3.609   1.253  1.00  0.00     0.277 C 
BRANCH   9  10
ATOM     10  N   UNL     1       0.713  -3.148   0.229  1.00  0.00    -0.324 N 
ATOM     11  C   UNL     1       1.615   0.109  -0.519  1.00  0.00     0.020 C 
ATOM     12  C   UNL     1       0.899  -1.033   0.167  1.00  0.00     0.096 C 
ATOM     13  C   UNL     1       0.235  -2.106  -0.707  1.00  0.00     0.271 C 
ATOM     14  C   UNL     1       1.741  -2.216   0.719  1.00  0.00     0.271 C 
ATOM     15  H   UNL     1       0.968  -4.072  -0.119  1.00  0.00     0.348 HD
ENDBRANCH   9  10
BRANCH   9  16
ATOM     16  C   UNL     1      -1.147  -4.782   0.648  1.00  0.00     0.057 C 
ATOM     17  C   UNL     1      -1.890  -4.417  -0.660  1.00  0.00     0.010 C 
ATOM     18  C   UNL     1      -0.297  -6.056   0.427  1.00  0.00     0.010 C 
ATOM     19  C   UNL     1      -2.685  -5.575  -1.246  1.00  0.00     0.001 C 
ATOM     20  C   UNL     1      -1.077  -7.197  -0.232  1.00  0.00     0.001 C 
ATOM     21  C   UNL     1      -1.766  -6.756  -1.517  1.00  0.00     0.000 C 
ENDBRANCH   9  16
ENDBRANCH   6   9
ENDBRANCH   4   5
ENDBRANCH   3   4
ENDBRANCH   2   3
ENDBRANCH   1   2
BRANCH   1  22
ATOM     22  C   UNL     1       1.867   1.018   6.245  1.00  0.00     0.021 C 
BRANCH  22  23
ATOM     23  C   UNL     1       2.860   1.952   5.555  1.00  0.00     0.116 C 
BRANCH  23  24
ATOM     24  N   UNL     1       2.495   3.349   5.719  1.00  0.00    -0.352 N 
ATOM     25  C   UNL     1       3.200   4.358   6.329  1.00  0.00     0.251 C 
ATOM     26  H   UNL     1       1.623   3.607   5.340  1.00  0.00     0.163 HD
ATOM     27  O   UNL     1       2.652   5.426   6.582  1.00  0.00    -0.269 OA
BRANCH  25  28
ATOM     28  C   UNL     1       4.618   4.144   6.693  1.00  0.00     0.039 A 
ATOM     29  C   UNL     1       5.051   4.494   7.974  1.00  0.00     0.014 A 
ATOM     30  C   UNL     1       5.518   3.606   5.768  1.00  0.00     0.014 A 
ATOM     31  C   UNL     1       6.377   4.255   8.345  1.00  0.00     0.010 A 
ATOM     32  C   UNL     1       6.823   3.313   6.160  1.00  0.00     0.010 A 
ATOM     33  C   UNL     1       7.268   3.638   7.451  1.00  0.00    -0.014 A 
BRANCH  33  34
ATOM     34  C   UNL     1       8.665   3.325   7.851  1.00  0.00     0.031 A 
ATOM     35  C   UNL     1       9.820   3.998   7.158  1.00  0.00     0.074 A 
ATOM     36  C   UNL     1       8.894   2.385   8.791  1.00  0.00     0.049 A 
ATOM     37  N   UNL     1      11.103   3.805   7.319  1.00  0.00    -0.248 NA
ATOM     38  C   UNL     1       9.491   5.002   6.131  1.00  0.00     0.031 C 
ATOM     39  C   UNL     1       7.861   1.620   9.494  1.00  0.00     0.029 A 
ATOM     40  N   UNL     1      10.070   1.899   9.307  1.00  0.00    -0.354 N 
ATOM     41  C   UNL     1      11.732   4.639   6.402  1.00  0.00     0.074 A 
ATOM     42  C   UNL     1      10.691   5.317   5.663  1.00  0.00     0.031 C 
ATOM     43  C   UNL     1       8.447   0.768  10.351  1.00  0.00     0.029 A 
ATOM     44  C   UNL     1       9.896   0.901  10.238  1.00  0.00     0.049 A 
ATOM     45  H   UNL     1      10.956   2.233   9.035  1.00  0.00     0.167 HD
ATOM     46  C   UNL     1      13.058   4.834   6.207  1.00  0.00     0.037 A 
ATOM     47  C   UNL     1      10.802   0.166  10.914  1.00  0.00     0.037 A 
ATOM     48  C   UNL     1      14.090   4.195   6.981  1.00  0.00     0.049 A 
ATOM     49  C   UNL     1      12.269   0.428  10.698  1.00  0.00     0.074 A 
ATOM     50  C   UNL     1      15.458   4.403   6.924  1.00  0.00     0.029 A 
ATOM     51  N   UNL     1      13.873   3.227   7.948  1.00  0.00    -0.354 N 
ATOM     52  N   UNL     1      12.842   1.291   9.892  1.00  0.00    -0.248 NA
ATOM     53  C   UNL     1      13.214  -0.374  11.489  1.00  0.00     0.031 C 
ATOM     54  C   UNL     1      16.072   3.527   7.824  1.00  0.00     0.029 A 
ATOM     55  C   UNL     1      15.083   2.809   8.477  1.00  0.00     0.049 A 
ATOM     56  H   UNL     1      12.990   2.886   8.220  1.00  0.00     0.167 HD
ATOM     57  C   UNL     1      14.210   1.155  10.102  1.00  0.00     0.074 A 
ATOM     58  C   UNL     1      14.379   0.139  11.119  1.00  0.00     0.031 C 
ATOM     59  C   UNL     1      15.235   1.810   9.504  1.00  0.00     0.037 A 
BRANCH  46  60
ATOM     60  C   UNL     1      13.488   5.784   5.124  1.00  0.00     0.058 A 
ATOM     61  C   UNL     1      13.357   7.174   5.267  1.00  0.00     0.135 A 
ATOM     62  C   UNL     1      14.132   5.301   3.973  1.00  0.00     0.135 A 
ATOM     63  F   UNL     1      12.735   7.687   6.341  1.00  0.00    -0.206 F 
ATOM     64  C   UNL     1      13.847   8.052   4.307  1.00  0.00     0.059 A 
ATOM     65  C   UNL     1      14.652   6.162   3.010  1.00  0.00     0.059 A 
ATOM     66  F   UNL     1      14.280   3.980   3.785  1.00  0.00    -0.206 F 
ATOM     67  C   UNL     1      14.502   7.537   3.186  1.00  0.00     0.060 A 
BRANCH  67  68
ATOM     68  S   UNL     1      15.184   8.694   1.979  1.00  0.00     0.124 S 
ATOM     69  O   UNL     1      13.973   9.190   1.334  1.00  0.00    -0.237 OA
ATOM     70  O   UNL     1      15.887   9.650   2.828  1.00  0.00    -0.237 OA
ATOM     71  O   UNL     1      16.038   7.853   1.146  1.00  0.00    -0.744 OA
ENDBRANCH  67  68
ENDBRANCH  46  60
BRANCH  47  72
ATOM     72  C   UNL     1      10.357  -0.895  11.859  1.00  0.00     0.058 A 
ATOM     73  C   UNL     1      10.557  -0.766  13.242  1.00  0.00     0.135 A 
ATOM     74  C   UNL     1       9.758  -2.076  11.394  1.00  0.00     0.135 A 
ATOM     75  F   UNL     1      11.129   0.343  13.736  1.00  0.00    -0.206 F 
ATOM     76  C   UNL     1      10.216  -1.784  14.127  1.00  0.00     0.059 A 
ATOM     77  C   UNL     1       9.382  -3.096  12.262  1.00  0.00     0.059 A 
ATOM     78  F   UNL     1       9.525  -2.242  10.083  1.00  0.00    -0.206 F 
ATOM     79  C   UNL     1       9.635  -2.950  13.625  1.00  0.00     0.060 A 
BRANCH  79  80
ATOM     80  S   UNL     1       9.194  -4.268  14.778  1.00  0.00     0.124 S 
ATOM     81  O   UNL     1      10.499  -4.845  15.075  1.00  0.00    -0.237 OA
ATOM     82  O   UNL     1       8.560  -3.528  15.865  1.00  0.00    -0.237 OA
ATOM     83  O   UNL     1       8.293  -5.108  13.994  1.00  0.00    -0.744 OA
ENDBRANCH  79  80
ENDBRANCH  47  72
BRANCH  59  84
ATOM     84  C   UNL     1      16.629   1.486   9.962  1.00  0.00     0.058 A 
ATOM     85  C   UNL     1      17.254   0.275   9.625  1.00  0.00     0.135 A 
ATOM     86  C   UNL     1      17.368   2.422  10.704  1.00  0.00     0.135 A 
ATOM     87  F   UNL     1      16.589  -0.656   8.922  1.00  0.00    -0.206 F 
ATOM     88  C   UNL     1      18.555  -0.006  10.027  1.00  0.00     0.059 A 
ATOM     89  C   UNL     1      18.680   2.173  11.092  1.00  0.00     0.059 A 
ATOM     90  F   UNL     1      16.820   3.600  11.042  1.00  0.00    -0.206 F 
ATOM     91  C   UNL     1      19.261   0.950  10.760  1.00  0.00     0.060 A 
BRANCH  91  92
ATOM     92  S   UNL     1      20.960   0.587  11.248  1.00  0.00     0.124 S 
ATOM     93  O   UNL     1      20.756  -0.362  12.337  1.00  0.00    -0.237 OA
ATOM     94  O   UNL     1      21.527   0.034  10.022  1.00  0.00    -0.237 OA
ATOM     95  O   UNL     1      21.486   1.891  11.641  1.00  0.00    -0.744 OA
ENDBRANCH  91  92
ENDBRANCH  59  84
ENDBRANCH  33  34
ENDBRANCH  25  28
ENDBRANCH  23  24
ENDBRANCH  22  23
ENDBRANCH   1  22
TORSDOF 18
