REMARK SMILES O=C(NCCCCCCNC(=O)c1ccccc1/C=C1/SC(=S)N(C2CCCC2)C1=O)c1ccc(-c2c3nc(c(-c4c(F)cc(S(=O)(=O)[O-])cc4F)c4ccc([nH]4)c(-c4c(F)cc(S(=O)(=O)[O-])cc4F)c4nc(c(-c5c(F)cc(S(=O)(=O)[O-])cc5F)c5ccc2[nH]5)C=C4)C=C3)cc1
REMARK SMILES IDX 6 1 5 2 4 3 3 4 1 5 2 6 32 8 33 9 97 10 34 11 96 12 35 13
REMARK SMILES IDX 36 14 37 15 90 16 38 17 95 18 89 19 91 20 39 21 94 22 88 23
REMARK SMILES IDX 87 24 40 26 74 27 53 28 73 29 54 30 57 31 72 32 92 33 55 34
REMARK SMILES IDX 56 35 71 37 93 38 58 39 41 40 42 41 51 42 43 43 44 44 50 45
REMARK SMILES IDX 52 46 45 47 46 48 47 49 48 50 49 51 75 52 76 53 85 54 77 55
REMARK SMILES IDX 78 56 84 57 86 58 79 59 80 60 81 61 82 62 83 63 59 64 60 65
REMARK SMILES IDX 69 66 61 67 62 68 68 69 70 70 63 71 64 72 65 73 66 74 67 75
REMARK SMILES IDX 7 76 8 77 9 78 10 79 11 80 12 82 13 83 14 84 18 85 15 86
REMARK SMILES IDX 17 87 16 88 19 89 20 90 21 91 30 92 22 93 24 94 31 95 23 96
REMARK SMILES IDX 25 97 26 98 29 99 27 100 28 101
REMARK H PARENT 3 7 91 25 57 36 10 81
REMARK Flexibility Score: inf
ROOT
ATOM      1  C   UNL     1       4.229  -2.015   3.177  1.00  0.00     0.002 C 
ENDROOT
BRANCH   1   2
ATOM      2  C   UNL     1       4.718  -0.809   2.372  1.00  0.00     0.021 C 
BRANCH   2   3
ATOM      3  C   UNL     1       4.422  -0.866   0.877  1.00  0.00     0.116 C 
BRANCH   3   4
ATOM      4  N   UNL     1       3.000  -0.945   0.596  1.00  0.00    -0.352 N 
ATOM      5  O   UNL     1       1.002  -0.247  -0.176  1.00  0.00    -0.269 OA
ATOM      6  C   UNL     1       2.225  -0.129  -0.188  1.00  0.00     0.251 C 
ATOM      7  H   UNL     1       2.524  -1.689   1.030  1.00  0.00     0.163 HD
BRANCH   6   8
ATOM      8  C   UNL     1       2.863   0.905  -1.030  1.00  0.00     0.039 A 
ATOM      9  C   UNL     1       3.974   0.600  -1.824  1.00  0.00     0.014 A 
ATOM     10  C   UNL     1       2.328   2.195  -1.032  1.00  0.00     0.014 A 
ATOM     11  C   UNL     1       4.616   1.611  -2.535  1.00  0.00     0.010 A 
ATOM     12  C   UNL     1       2.932   3.190  -1.801  1.00  0.00     0.010 A 
ATOM     13  C   UNL     1       4.094   2.912  -2.540  1.00  0.00    -0.014 A 
BRANCH  13  14
ATOM     14  C   UNL     1       4.725   3.975  -3.361  1.00  0.00     0.031 A 
ATOM     15  C   UNL     1       5.335   5.183  -2.711  1.00  0.00     0.074 A 
ATOM     16  C   UNL     1       4.696   3.868  -4.703  1.00  0.00     0.049 A 
ATOM     17  N   UNL     1       5.824   6.261  -3.267  1.00  0.00    -0.248 NA
ATOM     18  C   UNL     1       5.391   5.184  -1.241  1.00  0.00     0.031 C 
ATOM     19  C   UNL     1       4.129   2.740  -5.445  1.00  0.00     0.029 A 
ATOM     20  N   UNL     1       5.131   4.725  -5.682  1.00  0.00    -0.354 N 
ATOM     21  C   UNL     1       6.222   7.083  -2.219  1.00  0.00     0.074 A 
ATOM     22  C   UNL     1       5.896   6.385  -0.993  1.00  0.00     0.031 C 
ATOM     23  C   UNL     1       4.248   2.974  -6.759  1.00  0.00     0.029 A 
ATOM     24  C   UNL     1       4.839   4.294  -6.954  1.00  0.00     0.049 A 
ATOM     25  H   UNL     1       5.607   5.566  -5.492  1.00  0.00     0.167 HD
ATOM     26  C   UNL     1       6.806   8.305  -2.279  1.00  0.00     0.037 A 
ATOM     27  C   UNL     1       4.988   4.907  -8.144  1.00  0.00     0.037 A 
ATOM     28  C   UNL     1       7.118   8.986  -3.510  1.00  0.00     0.049 A 
ATOM     29  C   UNL     1       5.598   6.277  -8.190  1.00  0.00     0.074 A 
ATOM     30  C   UNL     1       7.740  10.210  -3.682  1.00  0.00     0.029 A 
ATOM     31  N   UNL     1       6.815   8.511  -4.779  1.00  0.00    -0.354 N 
ATOM     32  N   UNL     1       6.004   7.028  -7.193  1.00  0.00    -0.248 NA
ATOM     33  C   UNL     1       5.775   6.886  -9.514  1.00  0.00     0.031 C 
ATOM     34  C   UNL     1       7.761  10.501  -5.050  1.00  0.00     0.029 A 
ATOM     35  C   UNL     1       7.214   9.429  -5.737  1.00  0.00     0.049 A 
ATOM     36  H   UNL     1       6.381   7.648  -4.970  1.00  0.00     0.167 HD
ATOM     37  C   UNL     1       6.514   8.184  -7.771  1.00  0.00     0.074 A 
ATOM     38  C   UNL     1       6.360   8.036  -9.204  1.00  0.00     0.031 C 
ATOM     39  C   UNL     1       7.068   9.263  -7.165  1.00  0.00     0.037 A 
BRANCH  26  40
ATOM     40  C   UNL     1       7.102   8.998  -0.975  1.00  0.00     0.058 A 
ATOM     41  C   UNL     1       8.085   8.529  -0.087  1.00  0.00     0.135 A 
ATOM     42  C   UNL     1       6.390  10.152  -0.606  1.00  0.00     0.135 A 
ATOM     43  F   UNL     1       8.792   7.427  -0.382  1.00  0.00    -0.206 F 
ATOM     44  C   UNL     1       8.311   9.145   1.140  1.00  0.00     0.059 A 
ATOM     45  C   UNL     1       6.622  10.803   0.602  1.00  0.00     0.059 A 
ATOM     46  F   UNL     1       5.445  10.652  -1.418  1.00  0.00    -0.206 F 
ATOM     47  C   UNL     1       7.567  10.275   1.480  1.00  0.00     0.060 A 
BRANCH  47  48
ATOM     48  S   UNL     1       7.836  11.031   3.098  1.00  0.00     0.124 S 
ATOM     49  O   UNL     1       7.203  10.056   3.981  1.00  0.00    -0.237 OA
ATOM     50  O   UNL     1       9.292  11.100   3.173  1.00  0.00    -0.237 OA
ATOM     51  O   UNL     1       7.154  12.317   2.991  1.00  0.00    -0.744 OA
ENDBRANCH  47  48
ENDBRANCH  26  40
BRANCH  27  52
ATOM     52  C   UNL     1       4.535   4.207  -9.374  1.00  0.00     0.058 A 
ATOM     53  C   UNL     1       5.458   3.663 -10.277  1.00  0.00     0.135 A 
ATOM     54  C   UNL     1       3.169   3.990  -9.621  1.00  0.00     0.135 A 
ATOM     55  F   UNL     1       6.773   3.848 -10.086  1.00  0.00    -0.206 F 
ATOM     56  C   UNL     1       5.045   2.919 -11.377  1.00  0.00     0.059 A 
ATOM     57  C   UNL     1       2.733   3.228 -10.698  1.00  0.00     0.059 A 
ATOM     58  F   UNL     1       2.248   4.475  -8.774  1.00  0.00    -0.206 F 
ATOM     59  C   UNL     1       3.680   2.695 -11.571  1.00  0.00     0.060 A 
BRANCH  59  60
ATOM     60  S   UNL     1       3.165   1.641 -12.945  1.00  0.00     0.124 S 
ATOM     61  O   UNL     1       3.441   2.498 -14.092  1.00  0.00    -0.237 OA
ATOM     62  O   UNL     1       4.040   0.484 -12.786  1.00  0.00    -0.237 OA
ATOM     63  O   UNL     1       1.753   1.392 -12.667  1.00  0.00    -0.744 OA
ENDBRANCH  59  60
ENDBRANCH  27  52
BRANCH  39  64
ATOM     64  C   UNL     1       7.609  10.359  -8.041  1.00  0.00     0.058 A 
ATOM     65  C   UNL     1       6.768  11.265  -8.704  1.00  0.00     0.135 A 
ATOM     66  C   UNL     1       8.996  10.565  -8.129  1.00  0.00     0.135 A 
ATOM     67  F   UNL     1       5.436  11.106  -8.663  1.00  0.00    -0.206 F 
ATOM     68  C   UNL     1       7.283  12.341  -9.422  1.00  0.00     0.059 A 
ATOM     69  C   UNL     1       9.532  11.648  -8.818  1.00  0.00     0.059 A 
ATOM     70  F   UNL     1       9.843   9.729  -7.508  1.00  0.00    -0.206 F 
ATOM     71  C   UNL     1       8.667  12.531  -9.461  1.00  0.00     0.060 A 
BRANCH  71  72
ATOM     72  S   UNL     1       9.318  13.978 -10.322  1.00  0.00     0.124 S 
ATOM     73  O   UNL     1       9.096  13.617 -11.718  1.00  0.00    -0.237 OA
ATOM     74  O   UNL     1       8.478  15.053  -9.803  1.00  0.00    -0.237 OA
ATOM     75  O   UNL     1      10.715  14.025  -9.901  1.00  0.00    -0.744 OA
ENDBRANCH  71  72
ENDBRANCH  39  64
ENDBRANCH  13  14
ENDBRANCH   6   8
ENDBRANCH   3   4
ENDBRANCH   2   3
ENDBRANCH   1   2
BRANCH   1  76
ATOM     76  C   UNL     1       4.669  -3.384   2.650  1.00  0.00     0.002 C 
BRANCH  76  77
ATOM     77  C   UNL     1       6.177  -3.569   2.443  1.00  0.00     0.021 C 
BRANCH  77  78
ATOM     78  C   UNL     1       7.036  -3.284   3.671  1.00  0.00     0.116 C 
BRANCH  78  79
ATOM     79  N   UNL     1       6.736  -4.183   4.769  1.00  0.00    -0.352 N 
ATOM     80  C   UNL     1       7.594  -4.827   5.622  1.00  0.00     0.251 C 
ATOM     81  H   UNL     1       5.779  -4.355   4.923  1.00  0.00     0.163 HD
ATOM     82  O   UNL     1       7.145  -5.654   6.412  1.00  0.00    -0.269 OA
BRANCH  80  83
ATOM     83  C   UNL     1       9.052  -4.557   5.578  1.00  0.00     0.047 A 
ATOM     84  C   UNL     1       9.880  -5.673   5.389  1.00  0.00     0.014 A 
ATOM     85  C   UNL     1       9.616  -3.276   5.765  1.00  0.00    -0.012 A 
ATOM     86  C   UNL     1      11.264  -5.517   5.326  1.00  0.00     0.001 A 
ATOM     87  C   UNL     1      11.008  -3.135   5.675  1.00  0.00     0.009 A 
ATOM     88  C   UNL     1      11.825  -4.248   5.457  1.00  0.00     0.001 A 
BRANCH  85  89
ATOM     89  C   UNL     1       8.824  -2.062   6.018  1.00  0.00     0.030 C 
ATOM     90  C   UNL     1       7.978  -1.885   7.041  1.00  0.00     0.081 C 
ATOM     91  S   UNL     1       6.864  -0.582   7.123  1.00  0.00    -0.054 SA
ATOM     92  C   UNL     1       7.780  -2.783   8.207  1.00  0.00     0.266 C 
ATOM     93  C   UNL     1       5.947  -1.336   8.431  1.00  0.00     0.148 C 
ATOM     94  N   UNL     1       6.584  -2.489   8.852  1.00  0.00    -0.290 N 
ATOM     95  O   UNL     1       8.613  -3.601   8.570  1.00  0.00    -0.268 OA
ATOM     96  S   UNL     1       4.537  -0.626   8.975  1.00  0.00    -0.052 S 
BRANCH  94  97
ATOM     97  C   UNL     1       6.211  -3.365   9.969  1.00  0.00     0.092 C 
ATOM     98  C   UNL     1       6.284  -2.711  11.345  1.00  0.00     0.025 C 
ATOM     99  C   UNL     1       4.826  -4.012   9.921  1.00  0.00     0.025 C 
ATOM    100  C   UNL     1       5.586  -3.721  12.243  1.00  0.00     0.002 C 
ATOM    101  C   UNL     1       4.520  -4.388  11.373  1.00  0.00     0.002 C 
ENDBRANCH  94  97
ENDBRANCH  85  89
ENDBRANCH  80  83
ENDBRANCH  78  79
ENDBRANCH  77  78
ENDBRANCH  76  77
ENDBRANCH   1  76
TORSDOF 18
