REMARK SMILES O=C(NCCCCCCNC(=O)[C@H]1C[C@@H](O)CN1C(=O)C[C@@H]1CSCC[NH2+]1)c1ccc(-c2c3nc(c(-c4c(F)cc(S(=O)(=O)[O-])cc4F)c4ccc([nH]4)c(-c4c(F)cc(S(=O)(=O)[O-])cc4F)c4nc(c(-c5c(F)cc(S(=O)(=O)[O-])cc5F)c5ccc2[nH]5)C=C4)C=C3)cc1
REMARK SMILES IDX 6 1 5 2 4 3 3 4 1 5 2 6 28 8 29 9 93 10 30 11 92 12 31 13
REMARK SMILES IDX 32 14 33 15 86 16 34 17 91 18 85 19 87 20 35 21 90 22 84 23
REMARK SMILES IDX 83 24 36 26 70 27 49 28 69 29 50 30 53 31 68 32 88 33 51 34
REMARK SMILES IDX 52 35 67 37 89 38 54 39 37 40 38 41 47 42 39 43 40 44 46 45
REMARK SMILES IDX 48 46 41 47 42 48 43 49 44 50 45 51 71 52 72 53 81 54 73 55
REMARK SMILES IDX 74 56 80 57 82 58 75 59 76 60 77 61 78 62 79 63 55 64 56 65
REMARK SMILES IDX 65 66 57 67 58 68 64 69 66 70 59 71 60 72 61 73 62 74 63 75
REMARK SMILES IDX 7 76 8 77 9 78 10 79 11 80 12 82 13 83 14 84 18 85 15 86
REMARK SMILES IDX 17 87 19 88 20 89 21 90 22 91 23 92 27 93 24 94 26 95 25 98
REMARK SMILES IDX 16 99
REMARK H PARENT 3 7 87 25 53 36 10 81 27 96 27 97 16 100
REMARK Flexibility Score: inf
ROOT
ATOM      1  C   UNL     1       4.041  -1.077   3.490  1.00  0.00     0.002 C 
ENDROOT
BRANCH   1   2
ATOM      2  C   UNL     1       4.537  -0.060   2.459  1.00  0.00     0.021 C 
BRANCH   2   3
ATOM      3  C   UNL     1       4.458  -0.559   1.021  1.00  0.00     0.116 C 
BRANCH   3   4
ATOM      4  N   UNL     1       3.078  -0.794   0.628  1.00  0.00    -0.352 N 
ATOM      5  O   UNL     1       1.098  -0.222  -0.283  1.00  0.00    -0.269 OA
ATOM      6  C   UNL     1       2.324  -0.113  -0.290  1.00  0.00     0.251 C 
ATOM      7  H   UNL     1       2.626  -1.542   1.081  1.00  0.00     0.163 HD
BRANCH   6   8
ATOM      8  C   UNL     1       2.992   0.744  -1.288  1.00  0.00     0.039 A 
ATOM      9  C   UNL     1       4.124   0.279  -1.968  1.00  0.00     0.014 A 
ATOM     10  C   UNL     1       2.461   2.002  -1.574  1.00  0.00     0.014 A 
ATOM     11  C   UNL     1       4.780   1.109  -2.869  1.00  0.00     0.010 A 
ATOM     12  C   UNL     1       3.081   2.808  -2.529  1.00  0.00     0.010 A 
ATOM     13  C   UNL     1       4.250   2.371  -3.175  1.00  0.00    -0.014 A 
BRANCH  13  14
ATOM     14  C   UNL     1       4.875   3.203  -4.230  1.00  0.00     0.031 A 
ATOM     15  C   UNL     1       5.505   4.521  -3.893  1.00  0.00     0.074 A 
ATOM     16  C   UNL     1       4.822   2.776  -5.505  1.00  0.00     0.049 A 
ATOM     17  N   UNL     1       6.005   5.424  -4.696  1.00  0.00    -0.248 NA
ATOM     18  C   UNL     1       5.572   4.877  -2.467  1.00  0.00     0.031 C 
ATOM     19  C   UNL     1       4.223   1.512  -5.943  1.00  0.00     0.029 A 
ATOM     20  N   UNL     1       5.255   3.360  -6.667  1.00  0.00    -0.354 N 
ATOM     21  C   UNL     1       6.422   6.468  -3.880  1.00  0.00     0.074 A 
ATOM     22  C   UNL     1       6.099   6.093  -2.519  1.00  0.00     0.031 C 
ATOM     23  C   UNL     1       4.324   1.418  -7.276  1.00  0.00     0.029 A 
ATOM     24  C   UNL     1       4.937   2.637  -7.792  1.00  0.00     0.049 A 
ATOM     25  H   UNL     1       5.747   4.212  -6.693  1.00  0.00     0.167 HD
ATOM     26  C   UNL     1       7.019   7.631  -4.239  1.00  0.00     0.037 A 
ATOM     27  C   UNL     1       5.080   2.938  -9.096  1.00  0.00     0.037 A 
ATOM     28  C   UNL     1       7.331   7.984  -5.601  1.00  0.00     0.049 A 
ATOM     29  C   UNL     1       5.718   4.241  -9.476  1.00  0.00     0.074 A 
ATOM     30  C   UNL     1       7.973   9.116  -6.070  1.00  0.00     0.029 A 
ATOM     31  N   UNL     1       7.008   7.218  -6.713  1.00  0.00    -0.354 N 
ATOM     32  N   UNL     1       6.150   5.200  -8.693  1.00  0.00    -0.248 NA
ATOM     33  C   UNL     1       5.892   4.506 -10.909  1.00  0.00     0.031 C 
ATOM     34  C   UNL     1       7.993   9.058  -7.468  1.00  0.00     0.029 A 
ATOM     35  C   UNL     1       7.413   7.864  -7.869  1.00  0.00     0.049 A 
ATOM     36  H   UNL     1       6.556   6.343  -6.684  1.00  0.00     0.167 HD
ATOM     37  C   UNL     1       6.669   6.175  -9.535  1.00  0.00     0.074 A 
ATOM     38  C   UNL     1       6.497   5.688 -10.890  1.00  0.00     0.031 C 
ATOM     39  C   UNL     1       7.241   7.361  -9.212  1.00  0.00     0.037 A 
BRANCH  26  40
ATOM     40  C   UNL     1       7.331   8.616  -3.146  1.00  0.00     0.058 A 
ATOM     41  C   UNL     1       8.330   8.375  -2.189  1.00  0.00     0.135 A 
ATOM     42  C   UNL     1       6.614   9.820  -3.051  1.00  0.00     0.135 A 
ATOM     43  F   UNL     1       9.041   7.237  -2.225  1.00  0.00    -0.206 F 
ATOM     44  C   UNL     1       8.571   9.267  -1.148  1.00  0.00     0.059 A 
ATOM     45  C   UNL     1       6.857  10.740  -2.034  1.00  0.00     0.059 A 
ATOM     46  F   UNL     1       5.652  10.107  -3.942  1.00  0.00    -0.206 F 
ATOM     47  C   UNL     1       7.820  10.441  -1.072  1.00  0.00     0.060 A 
BRANCH  47  48
ATOM     48  S   UNL     1       8.106  11.562   0.314  1.00  0.00     0.124 S 
ATOM     49  O   UNL     1       7.463  10.839   1.407  1.00  0.00    -0.237 OA
ATOM     50  O   UNL     1       9.562  11.629   0.370  1.00  0.00    -0.237 OA
ATOM     51  O   UNL     1       7.441  12.793  -0.102  1.00  0.00    -0.744 OA
ENDBRANCH  47  48
ENDBRANCH  26  40
BRANCH  27  52
ATOM     52  C   UNL     1       4.588   1.973 -10.112  1.00  0.00     0.058 A 
ATOM     53  C   UNL     1       5.479   1.181 -10.849  1.00  0.00     0.135 A 
ATOM     54  C   UNL     1       3.212   1.752 -10.288  1.00  0.00     0.135 A 
ATOM     55  F   UNL     1       6.802   1.358 -10.716  1.00  0.00    -0.206 F 
ATOM     56  C   UNL     1       5.024   0.193 -11.716  1.00  0.00     0.059 A 
ATOM     57  C   UNL     1       2.734   0.754 -11.130  1.00  0.00     0.059 A 
ATOM     58  F   UNL     1       2.321   2.472  -9.588  1.00  0.00    -0.206 F 
ATOM     59  C   UNL     1       3.649  -0.022 -11.839  1.00  0.00     0.060 A 
BRANCH  59  60
ATOM     60  S   UNL     1       3.076  -1.379 -12.884  1.00  0.00     0.124 S 
ATOM     61  O   UNL     1       3.329  -0.849 -14.219  1.00  0.00    -0.237 OA
ATOM     62  O   UNL     1       3.938  -2.478 -12.460  1.00  0.00    -0.237 OA
ATOM     63  O   UNL     1       1.670  -1.518 -12.515  1.00  0.00    -0.744 OA
ENDBRANCH  59  60
ENDBRANCH  27  52
BRANCH  39  64
ATOM     64  C   UNL     1       7.766   8.211 -10.334  1.00  0.00     0.058 A 
ATOM     65  C   UNL     1       6.910   8.958 -11.156  1.00  0.00     0.135 A 
ATOM     66  C   UNL     1       9.150   8.358 -10.518  1.00  0.00     0.135 A 
ATOM     67  F   UNL     1       5.579   8.843 -11.029  1.00  0.00    -0.206 F 
ATOM     68  C   UNL     1       7.409   9.829 -12.119  1.00  0.00     0.059 A 
ATOM     69  C   UNL     1       9.672   9.240 -11.458  1.00  0.00     0.059 A 
ATOM     70  F   UNL     1      10.011   7.667  -9.753  1.00  0.00    -0.206 F 
ATOM     71  C   UNL     1       8.792   9.972 -12.254  1.00  0.00     0.060 A 
BRANCH  71  72
ATOM     72  S   UNL     1       9.427  11.171 -13.445  1.00  0.00     0.124 S 
ATOM     73  O   UNL     1       9.168  10.495 -14.712  1.00  0.00    -0.237 OA
ATOM     74  O   UNL     1       8.605  12.346 -13.174  1.00  0.00    -0.237 OA
ATOM     75  O   UNL     1      10.835  11.302 -13.079  1.00  0.00    -0.744 OA
ENDBRANCH  71  72
ENDBRANCH  39  64
ENDBRANCH  13  14
ENDBRANCH   6   8
ENDBRANCH   3   4
ENDBRANCH   2   3
ENDBRANCH   1   2
BRANCH   1  76
ATOM     76  C   UNL     1       4.831  -2.390   3.513  1.00  0.00     0.002 C 
BRANCH  76  77
ATOM     77  C   UNL     1       6.346  -2.220   3.699  1.00  0.00     0.021 C 
BRANCH  77  78
ATOM     78  C   UNL     1       6.716  -1.459   4.973  1.00  0.00     0.116 C 
BRANCH  78  79
ATOM     79  N   UNL     1       6.421  -2.268   6.131  1.00  0.00    -0.354 N 
ATOM     80  C   UNL     1       7.247  -3.099   6.814  1.00  0.00     0.242 C 
ATOM     81  H   UNL     1       5.499  -2.208   6.470  1.00  0.00     0.163 HD
ATOM     82  O   UNL     1       6.708  -3.893   7.595  1.00  0.00    -0.273 OA
BRANCH  80  83
ATOM     83  C   UNL     1       8.790  -3.058   6.632  1.00  0.00     0.177 C 
ATOM     84  C   UNL     1       9.437  -3.977   7.688  1.00  0.00     0.069 C 
ATOM     85  N   UNL     1       9.262  -3.633   5.363  1.00  0.00    -0.328 N 
ATOM     86  C   UNL     1       9.422  -5.353   7.019  1.00  0.00     0.136 C 
ATOM     87  C   UNL     1       9.681  -5.014   5.556  1.00  0.00     0.152 C 
BRANCH  85  88
ATOM     88  C   UNL     1       9.733  -2.861   4.312  1.00  0.00     0.229 C 
ATOM     89  O   UNL     1       9.937  -1.653   4.428  1.00  0.00    -0.275 OA
BRANCH  88  90
ATOM     90  C   UNL     1       9.938  -3.552   2.969  1.00  0.00     0.166 C 
BRANCH  90  91
ATOM     91  C   UNL     1      11.360  -3.388   2.391  1.00  0.00     0.201 C 
ATOM     92  C   UNL     1      11.448  -3.910   0.936  1.00  0.00     0.135 C 
ATOM     93  N   UNL     1      12.436  -3.949   3.234  1.00  0.00    -0.342 N 
ATOM     94  S   UNL     1      11.332  -5.729   0.796  1.00  0.00    -0.150 SA
ATOM     95  C   UNL     1      12.441  -5.412   3.311  1.00  0.00     0.271 C 
ATOM     96  H   UNL     1      12.327  -3.581   4.179  1.00  0.00     0.346 HD
ATOM     97  H   UNL     1      13.319  -3.677   2.801  1.00  0.00     0.346 HD
ATOM     98  C   UNL     1      12.649  -6.136   1.982  1.00  0.00     0.131 C 
ENDBRANCH  90  91
ENDBRANCH  88  90
ENDBRANCH  85  88
BRANCH  86  99
ATOM     99  O   UNL     1       8.203  -6.066   7.168  1.00  0.00    -0.391 OA
ATOM    100  H   UNL     1       7.476  -5.546   6.790  1.00  0.00     0.211 HD
ENDBRANCH  86  99
ENDBRANCH  80  83
ENDBRANCH  78  79
ENDBRANCH  77  78
ENDBRANCH  76  77
ENDBRANCH   1  76
TORSDOF 20
