REMARK SMILES CC(C)[C@H](C)CNC(=O)N1CC(n2cc(C(=O)NCCCCCCNC(=O)c3ccc(-c4c5nc(c(-c6c(F)cc(S(=O)(=O)[O-])cc6F)c6ccc([nH]6)c(-c6c(F)cc(S(=O)(=O)[O-])cc6F)c6nc(c(-c7c(F)cc(S(=O)(=O)[O-])cc7F)c7ccc4[nH]7)C=C6)C=C5)cc3)nn2)C1
REMARK SMILES IDX 21 1 20 2 19 3 18 4 16 5 17 6 15 8 13 9 14 10 95 11 94 12
REMARK SMILES IDX 12 13 7 14 8 15 9 17 10 18 11 19 96 20 6 21 4 22 5 23 2 24
REMARK SMILES IDX 1 25 3 26 22 27 23 28 24 29 25 30 26 31 27 33 28 34 29 35
REMARK SMILES IDX 93 36 30 37 92 38 31 39 32 40 33 41 86 42 34 43 91 44 85 45
REMARK SMILES IDX 87 46 35 47 90 48 84 49 83 50 36 52 70 53 49 54 69 55 50 56
REMARK SMILES IDX 53 57 68 58 88 59 51 60 52 61 67 63 89 64 54 65 37 66 38 67
REMARK SMILES IDX 47 68 39 69 40 70 46 71 48 72 41 73 42 74 43 75 44 76 45 77
REMARK SMILES IDX 71 78 72 79 81 80 73 81 74 82 80 83 82 84 75 85 76 86 77 87
REMARK SMILES IDX 78 88 79 89 55 90 56 91 65 92 57 93 58 94 64 95 66 96 59 97
REMARK SMILES IDX 60 98 61 99 62 100 63 101
REMARK H PARENT 18 7 7 16 25 32 87 51 53 62
REMARK Flexibility Score: inf
ROOT
ATOM      1  C   UNL     1     -10.319  -3.880  -7.175  1.00  0.00     0.002 C 
ENDROOT
BRANCH   1   2
ATOM      2  C   UNL     1      -9.264  -4.263  -6.128  1.00  0.00     0.021 C 
BRANCH   2   3
ATOM      3  C   UNL     1      -8.938  -3.141  -5.143  1.00  0.00     0.116 C 
BRANCH   3   4
ATOM      4  N   UNL     1      -9.982  -3.003  -4.149  1.00  0.00    -0.351 N 
ATOM      5  C   UNL     1      -9.963  -3.101  -2.778  1.00  0.00     0.273 C 
ATOM      6  O   UNL     1     -10.999  -2.786  -2.189  1.00  0.00    -0.267 OA
ATOM      7  H   UNL     1     -10.870  -2.800  -4.525  1.00  0.00     0.163 HD
BRANCH   5   8
ATOM      8  C   UNL     1      -8.758  -3.498  -2.058  1.00  0.00     0.170 A 
ATOM      9  N   UNL     1      -6.820  -4.210  -1.379  1.00  0.00    -0.245 N 
ATOM     10  C   UNL     1      -7.691  -4.293  -2.431  1.00  0.00     0.145 A 
ATOM     11  N   UNL     1      -7.336  -3.481  -0.380  1.00  0.00    -0.066 NA
ATOM     12  N   UNL     1      -8.536  -3.071  -0.765  1.00  0.00    -0.125 NA
BRANCH   9  13
ATOM     13  C   UNL     1      -5.476  -4.699  -1.429  1.00  0.00     0.148 C 
ATOM     14  N   UNL     1      -1.465  -3.482  -1.569  1.00  0.00    -0.338 N 
ATOM     15  C   UNL     1      -2.304  -4.271  -0.850  1.00  0.00     0.317 C 
ATOM     16  H   UNL     1      -0.601  -3.891  -1.804  1.00  0.00     0.165 HD
ATOM     17  O   UNL     1      -1.825  -5.206  -0.211  1.00  0.00    -0.249 OA
ATOM     18  N   UNL     1      -3.632  -3.994  -0.852  1.00  0.00    -0.320 N 
ATOM     19  C   UNL     1      -4.693  -4.671  -0.109  1.00  0.00     0.150 C 
ATOM     20  C   UNL     1      -4.524  -3.588  -1.924  1.00  0.00     0.150 C 
BRANCH  14  21
ATOM     21  C   UNL     1      -1.658  -2.123  -2.043  1.00  0.00     0.121 C 
BRANCH  21  22
ATOM     22  C   UNL     1      -1.128  -1.073  -1.033  1.00  0.00     0.008 C 
ATOM     23  C   UNL     1       0.405  -1.200  -0.956  1.00  0.00     0.010 C 
BRANCH  22  24
ATOM     24  C   UNL     1      -1.592   0.374  -1.389  1.00  0.00    -0.013 C 
ATOM     25  C   UNL     1      -3.124   0.497  -1.438  1.00  0.00     0.008 C 
ATOM     26  C   UNL     1      -1.084   1.421  -0.385  1.00  0.00     0.008 C 
ENDBRANCH  22  24
ENDBRANCH  21  22
ENDBRANCH  14  21
ENDBRANCH   9  13
ENDBRANCH   5   8
ENDBRANCH   3   4
ENDBRANCH   2   3
ENDBRANCH   1   2
BRANCH   1  27
ATOM     27  C   UNL     1     -10.021  -2.608  -7.990  1.00  0.00     0.002 C 
BRANCH  27  28
ATOM     28  C   UNL     1      -8.634  -2.530  -8.649  1.00  0.00     0.021 C 
BRANCH  28  29
ATOM     29  C   UNL     1      -8.446  -3.538  -9.769  1.00  0.00     0.116 C 
BRANCH  29  30
ATOM     30  N   UNL     1      -9.309  -3.253 -10.920  1.00  0.00    -0.352 N 
ATOM     31  C   UNL     1      -9.402  -3.931 -12.126  1.00  0.00     0.251 C 
ATOM     32  H   UNL     1      -9.903  -2.474 -10.823  1.00  0.00     0.163 HD
ATOM     33  O   UNL     1      -9.875  -3.395 -13.111  1.00  0.00    -0.269 OA
BRANCH  31  34
ATOM     34  C   UNL     1      -8.938  -5.330 -12.171  1.00  0.00     0.039 A 
ATOM     35  C   UNL     1      -8.309  -5.891 -13.288  1.00  0.00     0.014 A 
ATOM     36  C   UNL     1      -9.145  -6.083 -11.024  1.00  0.00     0.014 A 
ATOM     37  C   UNL     1      -7.863  -7.211 -13.208  1.00  0.00     0.010 A 
ATOM     38  C   UNL     1      -8.482  -7.258 -10.858  1.00  0.00     0.010 A 
ATOM     39  C   UNL     1      -7.964  -7.881 -11.982  1.00  0.00    -0.014 A 
BRANCH  39  40
ATOM     40  C   UNL     1      -7.502  -9.241 -11.762  1.00  0.00     0.031 A 
ATOM     41  C   UNL     1      -6.024  -9.375 -11.789  1.00  0.00     0.074 A 
ATOM     42  C   UNL     1      -8.335 -10.164 -11.227  1.00  0.00     0.049 A 
ATOM     43  N   UNL     1      -5.291  -9.937 -12.692  1.00  0.00    -0.248 NA
ATOM     44  C   UNL     1      -5.247  -8.604 -10.799  1.00  0.00     0.031 C 
ATOM     45  C   UNL     1      -9.734  -9.992 -10.799  1.00  0.00     0.029 A 
ATOM     46  N   UNL     1      -8.067 -11.434 -10.825  1.00  0.00    -0.354 N 
ATOM     47  C   UNL     1      -3.983  -9.828 -12.225  1.00  0.00     0.074 A 
ATOM     48  C   UNL     1      -4.004  -8.774 -11.251  1.00  0.00     0.031 C 
ATOM     49  C   UNL     1     -10.102 -11.023 -10.005  1.00  0.00     0.029 A 
ATOM     50  C   UNL     1      -9.037 -12.006 -10.000  1.00  0.00     0.049 A 
ATOM     51  H   UNL     1      -7.251 -11.913 -11.095  1.00  0.00     0.167 HD
ATOM     52  C   UNL     1      -3.071 -10.818 -12.444  1.00  0.00     0.037 A 
ATOM     53  C   UNL     1      -8.928 -13.190  -9.339  1.00  0.00     0.037 A 
ATOM     54  C   UNL     1      -3.569 -11.746 -13.434  1.00  0.00     0.049 A 
ATOM     55  C   UNL     1      -7.822 -13.937 -10.001  1.00  0.00     0.074 A 
ATOM     56  C   UNL     1      -3.961 -11.647 -14.754  1.00  0.00     0.029 A 
ATOM     57  N   UNL     1      -4.108 -12.922 -12.966  1.00  0.00    -0.354 N 
ATOM     58  N   UNL     1      -7.869 -14.348 -11.241  1.00  0.00    -0.248 NA
ATOM     59  C   UNL     1      -6.486 -13.778  -9.449  1.00  0.00     0.031 C 
ATOM     60  C   UNL     1      -5.090 -12.510 -14.869  1.00  0.00     0.029 A 
ATOM     61  C   UNL     1      -5.276 -13.155 -13.644  1.00  0.00     0.049 A 
ATOM     62  H   UNL     1      -3.722 -13.497 -12.266  1.00  0.00     0.167 HD
ATOM     63  C   UNL     1      -6.601 -14.100 -11.750  1.00  0.00     0.074 A 
ATOM     64  C   UNL     1      -5.774 -13.811 -10.579  1.00  0.00     0.031 C 
ATOM     65  C   UNL     1      -6.411 -13.857 -13.082  1.00  0.00     0.037 A 
BRANCH  52  66
ATOM     66  C   UNL     1      -1.945 -11.202 -11.498  1.00  0.00     0.058 A 
ATOM     67  C   UNL     1      -1.056 -12.226 -11.895  1.00  0.00     0.135 A 
ATOM     68  C   UNL     1      -1.855 -10.827 -10.139  1.00  0.00     0.135 A 
ATOM     69  F   UNL     1      -1.026 -12.652 -13.168  1.00  0.00    -0.206 F 
ATOM     70  C   UNL     1      -0.234 -12.900 -10.992  1.00  0.00     0.059 A 
ATOM     71  C   UNL     1      -1.004 -11.451  -9.233  1.00  0.00     0.059 A 
ATOM     72  F   UNL     1      -2.643  -9.902  -9.583  1.00  0.00    -0.206 F 
ATOM     73  C   UNL     1      -0.233 -12.518  -9.657  1.00  0.00     0.060 A 
BRANCH  73  74
ATOM     74  S   UNL     1       0.739 -13.454  -8.467  1.00  0.00     0.124 S 
ATOM     75  O   UNL     1       0.024 -14.724  -8.447  1.00  0.00    -0.237 OA
ATOM     76  O   UNL     1       2.054 -13.466  -9.098  1.00  0.00    -0.237 OA
ATOM     77  O   UNL     1       0.640 -12.652  -7.251  1.00  0.00    -0.744 OA
ENDBRANCH  73  74
ENDBRANCH  52  66
BRANCH  53  78
ATOM     78  C   UNL     1      -9.433 -13.549  -7.984  1.00  0.00     0.058 A 
ATOM     79  C   UNL     1      -9.466 -14.885  -7.541  1.00  0.00     0.135 A 
ATOM     80  C   UNL     1      -9.615 -12.567  -6.989  1.00  0.00     0.135 A 
ATOM     81  F   UNL     1      -9.282 -15.887  -8.415  1.00  0.00    -0.206 F 
ATOM     82  C   UNL     1      -9.617 -15.226  -6.189  1.00  0.00     0.059 A 
ATOM     83  C   UNL     1      -9.774 -12.881  -5.638  1.00  0.00     0.059 A 
ATOM     84  F   UNL     1      -9.548 -11.261  -7.290  1.00  0.00    -0.206 F 
ATOM     85  C   UNL     1      -9.749 -14.213  -5.240  1.00  0.00     0.060 A 
BRANCH  85  86
ATOM     86  S   UNL     1      -9.762 -14.632  -3.478  1.00  0.00     0.124 S 
ATOM     87  O   UNL     1     -11.057 -15.289  -3.333  1.00  0.00    -0.237 OA
ATOM     88  O   UNL     1      -8.592 -15.493  -3.355  1.00  0.00    -0.237 OA
ATOM     89  O   UNL     1      -9.646 -13.331  -2.822  1.00  0.00    -0.744 OA
ENDBRANCH  85  86
ENDBRANCH  53  78
BRANCH  65  90
ATOM     90  C   UNL     1      -7.544 -14.153 -14.034  1.00  0.00     0.058 A 
ATOM     91  C   UNL     1      -8.759 -13.444 -14.082  1.00  0.00     0.135 A 
ATOM     92  C   UNL     1      -7.301 -15.073 -15.063  1.00  0.00     0.135 A 
ATOM     93  F   UNL     1      -9.032 -12.482 -13.191  1.00  0.00    -0.206 F 
ATOM     94  C   UNL     1      -9.697 -13.657 -15.097  1.00  0.00     0.059 A 
ATOM     95  C   UNL     1      -8.206 -15.280 -16.099  1.00  0.00     0.059 A 
ATOM     96  F   UNL     1      -6.135 -15.738 -15.105  1.00  0.00    -0.206 F 
ATOM     97  C   UNL     1      -9.406 -14.574 -16.107  1.00  0.00     0.060 A 
BRANCH  97  98
ATOM     98  S   UNL     1     -10.571 -14.787 -17.472  1.00  0.00     0.124 S 
ATOM     99  O   UNL     1     -11.682 -15.474 -16.822  1.00  0.00    -0.237 OA
ATOM    100  O   UNL     1     -10.830 -13.410 -17.885  1.00  0.00    -0.237 OA
ATOM    101  O   UNL     1      -9.822 -15.586 -18.438  1.00  0.00    -0.744 OA
ENDBRANCH  97  98
ENDBRANCH  65  90
ENDBRANCH  39  40
ENDBRANCH  31  34
ENDBRANCH  29  30
ENDBRANCH  28  29
ENDBRANCH  27  28
ENDBRANCH   1  27
TORSDOF 20
