REMARK SMILES C[NH+]1CCC(NC(=O)N[C@H]2C=C[C@H](C(=O)NCCCCCCNC(=O)c3ccc(-c4c5nc(c(-c6c(F)cc(S(=O)(=O)[O-])cc6F)c6ccc([nH]6)c(-c6c(F)cc(S(=O)(=O)[O-])cc6F)c6nc(c(-c7c(F)cc(S(=O)(=O)[O-])cc7F)c7ccc4[nH]7)C=C6)C=C5)cc3)C2)CC1
REMARK SMILES IDX 20 1 19 2 18 3 17 4 16 5 14 6 15 7 13 9 10 10 11 11 92 12
REMARK SMILES IDX 12 13 9 14 6 15 7 16 8 18 5 20 1 21 2 22 3 23 94 24 4 26
REMARK SMILES IDX 93 27 21 28 22 29 23 30 24 31 25 33 26 34 27 35 91 36 28 37
REMARK SMILES IDX 90 38 29 39 30 40 31 41 84 42 32 43 89 44 83 45 85 46 33 47
REMARK SMILES IDX 88 48 82 49 81 50 34 52 68 53 47 54 67 55 48 56 51 57 66 58
REMARK SMILES IDX 86 59 49 60 50 61 65 63 87 64 52 65 35 66 36 67 45 68 37 69
REMARK SMILES IDX 38 70 44 71 46 72 39 73 40 74 41 75 42 76 43 77 69 78 70 79
REMARK SMILES IDX 79 80 71 81 72 82 78 83 80 84 73 85 74 86 75 87 76 88 77 89
REMARK SMILES IDX 53 90 54 91 63 92 55 93 56 94 62 95 64 96 57 97 58 98 59 99
REMARK SMILES IDX 60 100 61 101
REMARK H PARENT 16 8 6 17 9 19 2 25 23 32 85 51 51 62
REMARK Flexibility Score: inf
ROOT
ATOM      1  C   UNL     1      -5.348   1.985  -0.692  1.00  0.00     0.002 C 
ENDROOT
BRANCH   1   2
ATOM      2  C   UNL     1      -4.316   3.002  -1.204  1.00  0.00     0.002 C 
BRANCH   2   3
ATOM      3  C   UNL     1      -2.852   2.583  -1.022  1.00  0.00     0.021 C 
BRANCH   3   4
ATOM      4  C   UNL     1      -2.460   1.352  -1.847  1.00  0.00     0.116 C 
BRANCH   4   5
ATOM      5  N   UNL     1      -1.841   1.675  -3.124  1.00  0.00    -0.356 N 
ATOM      6  C   UNL     1      -0.630   1.270  -3.630  1.00  0.00     0.227 C 
ATOM      7  O   UNL     1      -0.404   1.442  -4.828  1.00  0.00    -0.274 OA
ATOM      8  H   UNL     1      -2.366   2.268  -3.708  1.00  0.00     0.163 HD
BRANCH   6   9
ATOM      9  C   UNL     1       0.397   0.639  -2.688  1.00  0.00     0.103 C 
ATOM     10  C   UNL     1       2.786   0.140  -2.979  1.00  0.00     0.107 C 
ATOM     11  C   UNL     1       1.963  -1.097  -3.019  1.00  0.00    -0.006 C 
ATOM     12  C   UNL     1       1.794   1.289  -2.781  1.00  0.00     0.047 C 
ATOM     13  C   UNL     1       0.655  -0.821  -2.942  1.00  0.00    -0.016 C 
BRANCH  10  14
ATOM     14  N   UNL     1       3.935   0.051  -2.090  1.00  0.00    -0.332 N 
ATOM     15  N   UNL     1       3.459  -0.051   0.243  1.00  0.00    -0.335 N 
ATOM     16  C   UNL     1       4.282  -0.007  -0.804  1.00  0.00     0.315 C 
ATOM     17  H   UNL     1       3.928  -0.008   1.108  1.00  0.00     0.165 HD
ATOM     18  O   UNL     1       5.495  -0.014  -0.565  1.00  0.00    -0.249 OA
ATOM     19  H   UNL     1       4.753   0.022  -2.636  1.00  0.00     0.165 HD
BRANCH  15  20
ATOM     20  C   UNL     1       2.026  -0.147   0.375  1.00  0.00     0.095 C 
ATOM     21  C   UNL     1      -2.041  -0.577   1.436  1.00  0.00     0.332 C 
ATOM     22  N   UNL     1      -0.586  -0.515   1.587  1.00  0.00    -0.337 N 
ATOM     23  C   UNL     1      -0.075   0.833   1.319  1.00  0.00     0.264 C 
ATOM     24  C   UNL     1       0.043  -1.576   0.789  1.00  0.00     0.264 C 
ATOM     25  H   UNL     1      -0.331  -0.696   2.557  1.00  0.00     0.347 HD
ATOM     26  C   UNL     1       1.453   0.916   1.307  1.00  0.00     0.086 C 
ATOM     27  C   UNL     1       1.569  -1.522   0.844  1.00  0.00     0.086 C 
ENDBRANCH  15  20
ENDBRANCH  10  14
ENDBRANCH   6   9
ENDBRANCH   4   5
ENDBRANCH   3   4
ENDBRANCH   2   3
ENDBRANCH   1   2
BRANCH   1  28
ATOM     28  C   UNL     1      -5.406   1.798   0.828  1.00  0.00     0.021 C 
BRANCH  28  29
ATOM     29  C   UNL     1      -5.787   3.039   1.631  1.00  0.00     0.116 C 
BRANCH  29  30
ATOM     30  N   UNL     1      -7.060   3.605   1.209  1.00  0.00    -0.352 N 
ATOM     31  C   UNL     1      -8.205   3.841   1.925  1.00  0.00     0.251 C 
ATOM     32  H   UNL     1      -7.106   3.857   0.258  1.00  0.00     0.163 HD
ATOM     33  O   UNL     1      -9.241   4.140   1.327  1.00  0.00    -0.269 OA
BRANCH  31  34
ATOM     34  C   UNL     1      -8.211   3.728   3.399  1.00  0.00     0.039 A 
ATOM     35  C   UNL     1      -9.305   3.126   4.027  1.00  0.00     0.014 A 
ATOM     36  C   UNL     1      -7.160   4.237   4.166  1.00  0.00     0.014 A 
ATOM     37  C   UNL     1      -9.312   2.975   5.416  1.00  0.00     0.010 A 
ATOM     38  C   UNL     1      -7.132   4.018   5.541  1.00  0.00     0.010 A 
ATOM     39  C   UNL     1      -8.208   3.386   6.182  1.00  0.00    -0.014 A 
BRANCH  39  40
ATOM     40  C   UNL     1      -8.158   3.151   7.649  1.00  0.00     0.031 A 
ATOM     41  C   UNL     1      -8.096   4.313   8.604  1.00  0.00     0.074 A 
ATOM     42  C   UNL     1      -8.105   1.888   8.117  1.00  0.00     0.049 A 
ATOM     43  N   UNL     1      -7.984   4.305   9.907  1.00  0.00    -0.248 NA
ATOM     44  C   UNL     1      -8.141   5.661   8.015  1.00  0.00     0.031 C 
ATOM     45  C   UNL     1      -8.111   0.679   7.288  1.00  0.00     0.029 A 
ATOM     46  N   UNL     1      -8.025   1.407   9.400  1.00  0.00    -0.354 N 
ATOM     47  C   UNL     1      -7.936   5.640  10.293  1.00  0.00     0.074 A 
ATOM     48  C   UNL     1      -7.973   6.430   9.082  1.00  0.00     0.031 C 
ATOM     49  C   UNL     1      -8.064  -0.401   8.084  1.00  0.00     0.029 A 
ATOM     50  C   UNL     1      -7.979   0.034   9.474  1.00  0.00     0.049 A 
ATOM     51  H   UNL     1      -8.004   1.990  10.193  1.00  0.00     0.167 HD
ATOM     52  C   UNL     1      -7.889   6.160  11.544  1.00  0.00     0.037 A 
ATOM     53  C   UNL     1      -7.870  -0.783  10.540  1.00  0.00     0.037 A 
ATOM     54  C   UNL     1      -7.868   5.365  12.745  1.00  0.00     0.049 A 
ATOM     55  C   UNL     1      -7.800  -0.181  11.918  1.00  0.00     0.074 A 
ATOM     56  C   UNL     1      -7.875   5.795  14.061  1.00  0.00     0.029 A 
ATOM     57  N   UNL     1      -7.830   3.978  12.780  1.00  0.00    -0.354 N 
ATOM     58  N   UNL     1      -7.823   1.083  12.267  1.00  0.00    -0.248 NA
ATOM     59  C   UNL     1      -7.696  -1.116  13.047  1.00  0.00     0.031 C 
ATOM     60  C   UNL     1      -7.787   4.671  14.889  1.00  0.00     0.029 A 
ATOM     61  C   UNL     1      -7.786   3.537  14.092  1.00  0.00     0.049 A 
ATOM     62  H   UNL     1      -7.835   3.393  11.988  1.00  0.00     0.167 HD
ATOM     63  C   UNL     1      -7.762   1.095  13.657  1.00  0.00     0.074 A 
ATOM     64  C   UNL     1      -7.718  -0.289  14.083  1.00  0.00     0.031 C 
ATOM     65  C   UNL     1      -7.745   2.155  14.502  1.00  0.00     0.037 A 
BRANCH  52  66
ATOM     66  C   UNL     1      -7.859   7.659  11.678  1.00  0.00     0.058 A 
ATOM     67  C   UNL     1      -8.973   8.452  11.354  1.00  0.00     0.135 A 
ATOM     68  C   UNL     1      -6.719   8.310  12.176  1.00  0.00     0.135 A 
ATOM     69  F   UNL     1     -10.086   7.886  10.861  1.00  0.00    -0.206 F 
ATOM     70  C   UNL     1      -8.946   9.836  11.489  1.00  0.00     0.059 A 
ATOM     71  C   UNL     1      -6.681   9.691  12.349  1.00  0.00     0.059 A 
ATOM     72  F   UNL     1      -5.625   7.604  12.503  1.00  0.00    -0.206 F 
ATOM     73  C   UNL     1      -7.795  10.447  11.988  1.00  0.00     0.060 A 
BRANCH  73  74
ATOM     74  S   UNL     1      -7.781  12.244  12.161  1.00  0.00     0.124 S 
ATOM     75  O   UNL     1      -7.723  12.670  10.766  1.00  0.00    -0.237 OA
ATOM     76  O   UNL     1      -9.042  12.500  12.850  1.00  0.00    -0.237 OA
ATOM     77  O   UNL     1      -6.577  12.502  12.946  1.00  0.00    -0.744 OA
ENDBRANCH  73  74
ENDBRANCH  52  66
BRANCH  53  78
ATOM     78  C   UNL     1      -7.837  -2.258  10.347  1.00  0.00     0.058 A 
ATOM     79  C   UNL     1      -8.906  -3.065  10.762  1.00  0.00     0.135 A 
ATOM     80  C   UNL     1      -6.744  -2.890   9.733  1.00  0.00     0.135 A 
ATOM     81  F   UNL     1      -9.972  -2.511  11.360  1.00  0.00    -0.206 F 
ATOM     82  C   UNL     1      -8.888  -4.446  10.593  1.00  0.00     0.059 A 
ATOM     83  C   UNL     1      -6.714  -4.265   9.526  1.00  0.00     0.059 A 
ATOM     84  F   UNL     1      -5.702  -2.162   9.301  1.00  0.00    -0.206 F 
ATOM     85  C   UNL     1      -7.787  -5.037   9.969  1.00  0.00     0.060 A 
BRANCH  85  86
ATOM     86  S   UNL     1      -7.795  -6.824   9.711  1.00  0.00     0.124 S 
ATOM     87  O   UNL     1      -7.603  -7.318  11.069  1.00  0.00    -0.237 OA
ATOM     88  O   UNL     1      -9.117  -7.042   9.132  1.00  0.00    -0.237 OA
ATOM     89  O   UNL     1      -6.677  -7.035   8.796  1.00  0.00    -0.744 OA
ENDBRANCH  85  86
ENDBRANCH  53  78
BRANCH  65  90
ATOM     90  C   UNL     1      -7.708   1.864  15.978  1.00  0.00     0.058 A 
ATOM     91  C   UNL     1      -6.558   1.357  16.604  1.00  0.00     0.135 A 
ATOM     92  C   UNL     1      -8.822   2.145  16.786  1.00  0.00     0.135 A 
ATOM     93  F   UNL     1      -5.467   1.064  15.878  1.00  0.00    -0.206 F 
ATOM     94  C   UNL     1      -6.522   1.117  17.974  1.00  0.00     0.059 A 
ATOM     95  C   UNL     1      -8.798   1.943  18.162  1.00  0.00     0.059 A 
ATOM     96  F   UNL     1      -9.945   2.640  16.241  1.00  0.00    -0.206 F 
ATOM     97  C   UNL     1      -7.646   1.417  18.745  1.00  0.00     0.060 A 
BRANCH  97  98
ATOM     98  S   UNL     1      -7.572   1.134  20.527  1.00  0.00     0.124 S 
ATOM     99  O   UNL     1      -7.619  -0.323  20.595  1.00  0.00    -0.237 OA
ATOM    100  O   UNL     1      -6.296   1.745  20.886  1.00  0.00    -0.237 OA
ATOM    101  O   UNL     1      -8.755   1.825  21.031  1.00  0.00    -0.744 OA
ENDBRANCH  97  98
ENDBRANCH  65  90
ENDBRANCH  39  40
ENDBRANCH  31  34
ENDBRANCH  29  30
ENDBRANCH  28  29
ENDBRANCH   1  28
TORSDOF 18
