REMARK SMILES COc1cccc(N2C(=O)C[C@@H](SC[C@@H](NC(C)=O)C(=O)NCCCCCCNC(=O)c3ccc(-c4c5nc(c(-c6c(F)cc(S(=O)(=O)[O-])cc6F)c6ccc([nH]6)c(-c6c(F)cc(S(=O)(=O)[O-])cc6F)c6nc(c(-c7c(F)cc(S(=O)(=O)[O-])cc7F)c7ccc4[nH]7)C=C6)C=C5)cc3)C2=O)c1
REMARK SMILES IDX 24 1 23 2 22 3 20 4 21 5 15 7 14 8 13 9 12 10 8 11 9 12
REMARK SMILES IDX 98 13 10 14 11 15 99 16 7 17 3 18 4 19 100 20 5 21 6 22 2 23
REMARK SMILES IDX 1 24 16 25 17 26 18 28 19 29 25 30 26 31 27 32 28 33 29 34
REMARK SMILES IDX 30 35 31 37 32 38 33 39 97 40 34 41 96 42 35 43 36 44 37 45
REMARK SMILES IDX 90 46 38 47 95 48 89 49 91 50 39 51 94 52 88 53 87 54 40 56
REMARK SMILES IDX 74 57 53 58 73 59 54 60 57 61 72 62 92 63 55 64 56 65 71 67
REMARK SMILES IDX 93 68 58 69 41 70 42 71 51 72 43 73 44 74 50 75 52 76 45 77
REMARK SMILES IDX 46 78 47 79 48 80 49 81 75 82 76 83 85 84 77 85 78 86 84 87
REMARK SMILES IDX 86 88 79 89 80 90 81 91 82 92 83 93 59 94 60 95 69 96 61 97
REMARK SMILES IDX 62 98 68 99 70 100 63 101 64 102 65 103 66 104 67 105
REMARK H PARENT 22 6 16 27 29 36 91 55 57 66
REMARK Flexibility Score: inf
ROOT
ATOM      1  C   UNL     1       2.110  -9.640   2.090  1.00  0.00     0.021 C 
ENDROOT
BRANCH   1   2
ATOM      2  C   UNL     1       2.585  -8.337   2.721  1.00  0.00     0.116 C 
BRANCH   2   3
ATOM      3  N   UNL     1       3.554  -8.611   3.764  1.00  0.00    -0.354 N 
ATOM      4  C   UNL     1       4.804  -8.095   3.956  1.00  0.00     0.243 C 
ATOM      5  O   UNL     1       5.557  -8.691   4.731  1.00  0.00    -0.273 OA
ATOM      6  H   UNL     1       3.268  -9.270   4.436  1.00  0.00     0.163 HD
BRANCH   4   7
ATOM      7  C   UNL     1       5.313  -6.927   3.082  1.00  0.00     0.181 C 
BRANCH   7   8
ATOM      8  C   UNL     1       5.715  -7.548   1.725  1.00  0.00     0.105 C 
BRANCH   8   9
ATOM      9  S   UNL     1       6.963  -6.700   0.684  1.00  0.00    -0.145 SA
BRANCH   9  10
ATOM     10  C   UNL     1       6.094  -5.285  -0.058  1.00  0.00     0.146 C 
ATOM     11  N   UNL     1       4.071  -4.157   0.293  1.00  0.00    -0.249 N 
ATOM     12  C   UNL     1       5.069  -3.311   0.736  1.00  0.00     0.235 C 
ATOM     13  C   UNL     1       4.592  -5.358  -0.157  1.00  0.00     0.247 C 
ATOM     14  O   UNL     1       4.983  -2.180   1.196  1.00  0.00    -0.274 OA
ATOM     15  C   UNL     1       6.375  -4.034   0.732  1.00  0.00     0.125 C 
ATOM     16  O   UNL     1       3.986  -6.327  -0.582  1.00  0.00    -0.273 OA
BRANCH  11  17
ATOM     17  C   UNL     1       2.672  -3.853   0.394  1.00  0.00     0.055 A 
ATOM     18  C   UNL     1       0.887  -2.234   0.818  1.00  0.00     0.120 A 
ATOM     19  C   UNL     1      -0.037  -3.261   0.953  1.00  0.00     0.046 A 
ATOM     20  C   UNL     1       2.228  -2.529   0.553  1.00  0.00     0.073 A 
ATOM     21  C   UNL     1       0.363  -4.576   0.744  1.00  0.00     0.006 A 
ATOM     22  C   UNL     1       1.700  -4.868   0.447  1.00  0.00     0.027 A 
BRANCH  18  23
ATOM     23  O   UNL     1       0.427  -0.965   1.044  1.00  0.00    -0.497 OA
ATOM     24  C   UNL     1       0.869  -0.015   0.075  1.00  0.00     0.278 C 
ENDBRANCH  18  23
ENDBRANCH  11  17
ENDBRANCH   9  10
ENDBRANCH   8   9
ENDBRANCH   7   8
BRANCH   7  25
ATOM     25  N   UNL     1       4.296  -5.867   3.025  1.00  0.00    -0.344 N 
ATOM     26  C   UNL     1       3.864  -5.242   4.180  1.00  0.00     0.217 C 
ATOM     27  H   UNL     1       3.918  -5.600   2.156  1.00  0.00     0.164 HD
ATOM     28  C   UNL     1       2.816  -4.187   3.958  1.00  0.00     0.114 C 
ATOM     29  O   UNL     1       4.261  -5.543   5.300  1.00  0.00    -0.275 OA
ENDBRANCH   7  25
ENDBRANCH   4   7
ENDBRANCH   2   3
ENDBRANCH   1   2
BRANCH   1  30
ATOM     30  C   UNL     1       1.142 -10.414   2.987  1.00  0.00     0.002 C 
BRANCH  30  31
ATOM     31  C   UNL     1      -0.148  -9.654   3.315  1.00  0.00     0.002 C 
BRANCH  31  32
ATOM     32  C   UNL     1      -0.939  -9.184   2.091  1.00  0.00     0.021 C 
BRANCH  32  33
ATOM     33  C   UNL     1      -1.312 -10.303   1.124  1.00  0.00     0.116 C 
BRANCH  33  34
ATOM     34  N   UNL     1      -2.099 -11.334   1.777  1.00  0.00    -0.352 N 
ATOM     35  C   UNL     1      -3.297 -11.882   1.401  1.00  0.00     0.251 C 
ATOM     36  H   UNL     1      -1.717 -11.690   2.612  1.00  0.00     0.163 HD
ATOM     37  O   UNL     1      -3.927 -12.575   2.194  1.00  0.00    -0.269 OA
BRANCH  35  38
ATOM     38  C   UNL     1      -3.828 -11.627   0.046  1.00  0.00     0.039 A 
ATOM     39  C   UNL     1      -5.190 -11.362  -0.101  1.00  0.00     0.014 A 
ATOM     40  C   UNL     1      -2.992 -11.669  -1.074  1.00  0.00     0.014 A 
ATOM     41  C   UNL     1      -5.707 -11.103  -1.370  1.00  0.00     0.010 A 
ATOM     42  C   UNL     1      -3.494 -11.332  -2.328  1.00  0.00     0.010 A 
ATOM     43  C   UNL     1      -4.859 -11.060  -2.491  1.00  0.00    -0.014 A 
BRANCH  43  44
ATOM     44  C   UNL     1      -5.399 -10.736  -3.835  1.00  0.00     0.031 A 
ATOM     45  C   UNL     1      -5.350 -11.755  -4.941  1.00  0.00     0.074 A 
ATOM     46  C   UNL     1      -5.907  -9.509  -4.063  1.00  0.00     0.049 A 
ATOM     47  N   UNL     1      -5.773 -11.653  -6.175  1.00  0.00    -0.248 NA
ATOM     48  C   UNL     1      -4.721 -13.050  -4.630  1.00  0.00     0.031 C 
ATOM     49  C   UNL     1      -5.957  -8.420  -3.084  1.00  0.00     0.029 A 
ATOM     50  N   UNL     1      -6.480  -8.969  -5.187  1.00  0.00    -0.354 N 
ATOM     51  C   UNL     1      -5.459 -12.861  -6.786  1.00  0.00     0.074 A 
ATOM     52  C   UNL     1      -4.755 -13.659  -5.806  1.00  0.00     0.031 C 
ATOM     53  C   UNL     1      -6.559  -7.356  -3.639  1.00  0.00     0.029 A 
ATOM     54  C   UNL     1      -6.904  -7.672  -5.022  1.00  0.00     0.049 A 
ATOM     55  H   UNL     1      -6.577  -9.464  -6.032  1.00  0.00     0.167 HD
ATOM     56  C   UNL     1      -5.755 -13.278  -8.040  1.00  0.00     0.037 A 
ATOM     57  C   UNL     1      -7.503  -6.831  -5.887  1.00  0.00     0.037 A 
ATOM     58  C   UNL     1      -6.473 -12.482  -9.003  1.00  0.00     0.049 A 
ATOM     59  C   UNL     1      -7.822  -7.317  -7.274  1.00  0.00     0.074 A 
ATOM     60  C   UNL     1      -6.873 -12.832 -10.281  1.00  0.00     0.029 A 
ATOM     61  N   UNL     1      -6.896 -11.177  -8.796  1.00  0.00    -0.354 N 
ATOM     62  N   UNL     1      -7.582  -8.490  -7.812  1.00  0.00    -0.248 NA
ATOM     63  C   UNL     1      -8.502  -6.372  -8.169  1.00  0.00     0.031 C 
ATOM     64  C   UNL     1      -7.489 -11.720 -10.866  1.00  0.00     0.029 A 
ATOM     65  C   UNL     1      -7.528 -10.697  -9.932  1.00  0.00     0.049 A 
ATOM     66  H   UNL     1      -6.765 -10.666  -7.965  1.00  0.00     0.167 HD
ATOM     67  C   UNL     1      -8.107  -8.432  -9.099  1.00  0.00     0.074 A 
ATOM     68  C   UNL     1      -8.691  -7.115  -9.250  1.00  0.00     0.031 C 
ATOM     69  C   UNL     1      -8.105  -9.383 -10.067  1.00  0.00     0.037 A 
BRANCH  56  70
ATOM     70  C   UNL     1      -5.306 -14.657  -8.445  1.00  0.00     0.058 A 
ATOM     71  C   UNL     1      -5.878 -15.814  -7.891  1.00  0.00     0.135 A 
ATOM     72  C   UNL     1      -4.320 -14.826  -9.431  1.00  0.00     0.135 A 
ATOM     73  F   UNL     1      -6.814 -15.714  -6.933  1.00  0.00    -0.206 F 
ATOM     74  C   UNL     1      -5.470 -17.087  -8.278  1.00  0.00     0.059 A 
ATOM     75  C   UNL     1      -3.918 -16.090  -9.857  1.00  0.00     0.059 A 
ATOM     76  F   UNL     1      -3.737 -13.757  -9.995  1.00  0.00    -0.206 F 
ATOM     77  C   UNL     1      -4.490 -17.214  -9.264  1.00  0.00     0.060 A 
BRANCH  77  78
ATOM     78  S   UNL     1      -3.982 -18.873  -9.763  1.00  0.00     0.124 S 
ATOM     79  O   UNL     1      -3.232 -19.312  -8.590  1.00  0.00    -0.237 OA
ATOM     80  O   UNL     1      -5.262 -19.538  -9.982  1.00  0.00    -0.237 OA
ATOM     81  O   UNL     1      -3.186 -18.639 -10.963  1.00  0.00    -0.744 OA
ENDBRANCH  77  78
ENDBRANCH  56  70
BRANCH  57  82
ATOM     82  C   UNL     1      -7.859  -5.452  -5.457  1.00  0.00     0.058 A 
ATOM     83  C   UNL     1      -9.197  -5.065  -5.296  1.00  0.00     0.135 A 
ATOM     84  C   UNL     1      -6.866  -4.496  -5.186  1.00  0.00     0.135 A 
ATOM     85  F   UNL     1     -10.183  -5.940  -5.546  1.00  0.00    -0.206 F 
ATOM     86  C   UNL     1      -9.542  -3.775  -4.904  1.00  0.00     0.059 A 
ATOM     87  C   UNL     1      -7.185  -3.209  -4.765  1.00  0.00     0.059 A 
ATOM     88  F   UNL     1      -5.569  -4.820  -5.305  1.00  0.00    -0.206 F 
ATOM     89  C   UNL     1      -8.527  -2.854  -4.638  1.00  0.00     0.060 A 
BRANCH  89  90
ATOM     90  S   UNL     1      -8.982  -1.196  -4.089  1.00  0.00     0.124 S 
ATOM     91  O   UNL     1      -9.515  -0.616  -5.316  1.00  0.00    -0.237 OA
ATOM     92  O   UNL     1      -9.956  -1.479  -3.039  1.00  0.00    -0.237 OA
ATOM     93  O   UNL     1      -7.716  -0.637  -3.624  1.00  0.00    -0.744 OA
ENDBRANCH  89  90
ENDBRANCH  57  82
BRANCH  69  94
ATOM     94  C   UNL     1      -8.786  -9.044 -11.366  1.00  0.00     0.058 A 
ATOM     95  C   UNL     1      -8.245  -8.111 -12.265  1.00  0.00     0.135 A 
ATOM     96  C   UNL     1      -9.980  -9.687 -11.730  1.00  0.00     0.135 A 
ATOM     97  F   UNL     1      -7.108  -7.464 -11.965  1.00  0.00    -0.206 F 
ATOM     98  C   UNL     1      -8.883  -7.800 -13.461  1.00  0.00     0.059 A 
ATOM     99  C   UNL     1     -10.618  -9.417 -12.937  1.00  0.00     0.059 A 
ATOM    100  F   UNL     1     -10.535 -10.598 -10.914  1.00  0.00    -0.206 F 
ATOM    101  C   UNL     1     -10.070  -8.459 -13.788  1.00  0.00     0.060 A 
BRANCH 101 102
ATOM    102  S   UNL     1     -10.880  -8.056 -15.350  1.00  0.00     0.124 S 
ATOM    103  O   UNL     1     -11.428  -6.734 -15.064  1.00  0.00    -0.237 OA
ATOM    104  O   UNL     1      -9.769  -8.091 -16.296  1.00  0.00    -0.237 OA
ATOM    105  O   UNL     1     -11.864  -9.123 -15.508  1.00  0.00    -0.744 OA
ENDBRANCH 101 102
ENDBRANCH  69  94
ENDBRANCH  43  44
ENDBRANCH  35  38
ENDBRANCH  33  34
ENDBRANCH  32  33
ENDBRANCH  31  32
ENDBRANCH  30  31
ENDBRANCH   1  30
TORSDOF 22
