REMARK SMILES CC[C@@H]1CCCN(S(=O)(=O)c2cc(C(=O)NCCCCCCNC(=O)c3ccc(-c4c5nc(c(-c6c(F)cc(S(=O)(=O)[O-])cc6F)c6ccc([nH]6)c(-c6c(F)cc(S(=O)(=O)[O-])cc6F)c6nc(c(-c7c(F)cc(S(=O)(=O)[O-])cc7F)c7ccc4[nH]7)C=C6)C=C5)cc3)ccc2F)C1
REMARK SMILES IDX 19 1 18 2 17 3 16 4 14 5 15 6 13 8 11 9 12 10 94 11 93 12
REMARK SMILES IDX 95 13 92 14 8 15 9 16 10 17 7 18 3 19 4 20 96 21 5 22 6 23
REMARK SMILES IDX 2 24 1 25 20 26 21 27 22 28 23 29 24 30 25 32 26 33 27 34
REMARK SMILES IDX 91 35 28 36 90 37 29 38 30 39 31 40 84 41 32 42 89 43 83 44
REMARK SMILES IDX 85 45 33 46 88 47 82 48 81 49 34 51 68 52 47 53 67 54 48 55
REMARK SMILES IDX 51 56 66 57 86 58 49 59 50 60 65 62 87 63 52 64 35 65 36 66
REMARK SMILES IDX 45 67 37 68 38 69 44 70 46 71 39 72 40 73 41 74 42 75 43 76
REMARK SMILES IDX 69 77 70 78 79 79 71 80 72 81 78 82 80 83 73 84 74 85 75 86
REMARK SMILES IDX 76 87 77 88 53 89 54 90 63 91 55 92 56 93 62 94 64 95 57 96
REMARK SMILES IDX 58 97 59 98 60 99 61 100
REMARK H PARENT 16 7 23 31 85 50 51 61
REMARK Flexibility Score: inf
ROOT
ATOM      1  C   UNL     1       4.656   1.960  -9.894  1.00  0.00     0.002 C 
ENDROOT
BRANCH   1   2
ATOM      2  C   UNL     1       4.125   2.626  -8.615  1.00  0.00     0.021 C 
BRANCH   2   3
ATOM      3  C   UNL     1       3.025   1.829  -7.909  1.00  0.00     0.116 C 
BRANCH   3   4
ATOM      4  N   UNL     1       3.589   0.796  -7.061  1.00  0.00    -0.352 N 
ATOM      5  C   UNL     1       3.841   0.697  -5.719  1.00  0.00     0.251 C 
ATOM      6  O   UNL     1       4.282  -0.385  -5.324  1.00  0.00    -0.269 OA
ATOM      7  H   UNL     1       3.849  -0.011  -7.561  1.00  0.00     0.163 HD
BRANCH   5   8
ATOM      8  C   UNL     1       3.618   1.783  -4.711  1.00  0.00     0.041 A 
ATOM      9  C   UNL     1       3.558   2.360  -2.330  1.00  0.00     0.119 A 
ATOM     10  C   UNL     1       3.680   1.405  -3.352  1.00  0.00     0.038 A 
ATOM     11  C   UNL     1       3.375   3.694  -2.655  1.00  0.00     0.143 A 
ATOM     12  C   UNL     1       3.286   4.083  -3.986  1.00  0.00     0.041 A 
ATOM     13  F   UNL     1       3.267   4.640  -1.714  1.00  0.00    -0.206 F 
ATOM     14  C   UNL     1       3.436   3.138  -5.008  1.00  0.00     0.017 A 
BRANCH   9  15
ATOM     15  S   UNL     1       3.841   1.902  -0.648  1.00  0.00     0.246 S 
ATOM     16  O   UNL     1       4.576   2.969   0.007  1.00  0.00    -0.207 OA
ATOM     17  O   UNL     1       4.380   0.561  -0.651  1.00  0.00    -0.207 OA
BRANCH  15  18
ATOM     18  N   UNL     1       2.281   1.812   0.087  1.00  0.00    -0.197 NA
ATOM     19  C   UNL     1       1.009   0.981   2.089  1.00  0.00     0.004 C 
ATOM     20  C   UNL     1       0.162   2.259   2.051  1.00  0.00     0.006 C 
ATOM     21  C   UNL     1       2.388   1.233   1.468  1.00  0.00     0.106 C 
ATOM     22  C   UNL     1       0.115   2.883   0.667  1.00  0.00     0.017 C 
ATOM     23  C   UNL     1       1.512   3.089   0.094  1.00  0.00     0.102 C 
BRANCH  19  24
ATOM     24  C   UNL     1       0.268  -0.266   1.552  1.00  0.00     0.001 C 
ATOM     25  C   UNL     1       0.419  -0.602   0.075  1.00  0.00     0.004 C 
ENDBRANCH  19  24
ENDBRANCH  15  18
ENDBRANCH   9  15
ENDBRANCH   5   8
ENDBRANCH   3   4
ENDBRANCH   2   3
ENDBRANCH   1   2
BRANCH   1  26
ATOM     26  C   UNL     1       3.619   1.743 -11.005  1.00  0.00     0.002 C 
BRANCH  26  27
ATOM     27  C   UNL     1       2.814   2.983 -11.405  1.00  0.00     0.021 C 
BRANCH  27  28
ATOM     28  C   UNL     1       3.646   4.125 -11.983  1.00  0.00     0.116 C 
BRANCH  28  29
ATOM     29  N   UNL     1       4.246   3.765 -13.258  1.00  0.00    -0.352 N 
ATOM     30  C   UNL     1       4.154   4.395 -14.474  1.00  0.00     0.251 C 
ATOM     31  H   UNL     1       4.800   2.951 -13.247  1.00  0.00     0.163 HD
ATOM     32  O   UNL     1       4.548   3.826 -15.487  1.00  0.00    -0.269 OA
BRANCH  30  33
ATOM     33  C   UNL     1       3.570   5.752 -14.566  1.00  0.00     0.039 A 
ATOM     34  C   UNL     1       2.669   6.033 -15.597  1.00  0.00     0.014 A 
ATOM     35  C   UNL     1       3.933   6.753 -13.659  1.00  0.00     0.014 A 
ATOM     36  C   UNL     1       2.093   7.302 -15.687  1.00  0.00     0.010 A 
ATOM     37  C   UNL     1       3.314   8.000 -13.716  1.00  0.00     0.010 A 
ATOM     38  C   UNL     1       2.390   8.288 -14.732  1.00  0.00    -0.014 A 
BRANCH  38  39
ATOM     39  C   UNL     1       1.748   9.626 -14.780  1.00  0.00     0.031 A 
ATOM     40  C   UNL     1       2.576  10.852 -15.050  1.00  0.00     0.074 A 
ATOM     41  C   UNL     1       0.430   9.741 -14.526  1.00  0.00     0.049 A 
ATOM     42  N   UNL     1       2.213  12.109 -15.050  1.00  0.00    -0.248 NA
ATOM     43  C   UNL     1       4.005  10.641 -15.334  1.00  0.00     0.031 C 
ATOM     44  C   UNL     1      -0.471   8.629 -14.217  1.00  0.00     0.029 A 
ATOM     45  N   UNL     1      -0.381  10.848 -14.477  1.00  0.00    -0.354 N 
ATOM     46  C   UNL     1       3.365  12.837 -15.321  1.00  0.00     0.074 A 
ATOM     47  C   UNL     1       4.449  11.886 -15.434  1.00  0.00     0.031 C 
ATOM     48  C   UNL     1      -1.713   9.107 -14.035  1.00  0.00     0.029 A 
ATOM     49  C   UNL     1      -1.691  10.560 -14.177  1.00  0.00     0.049 A 
ATOM     50  H   UNL     1      -0.055  11.762 -14.642  1.00  0.00     0.167 HD
ATOM     51  C   UNL     1       3.501  14.174 -15.482  1.00  0.00     0.037 A 
ATOM     52  C   UNL     1      -2.755  11.373 -14.027  1.00  0.00     0.037 A 
ATOM     53  C   UNL     1       2.412  15.113 -15.401  1.00  0.00     0.049 A 
ATOM     54  C   UNL     1      -2.579  12.855 -14.210  1.00  0.00     0.074 A 
ATOM     55  C   UNL     1       2.442  16.482 -15.599  1.00  0.00     0.029 A 
ATOM     56  N   UNL     1       1.099  14.780 -15.104  1.00  0.00    -0.354 N 
ATOM     57  N   UNL     1      -1.488  13.523 -14.500  1.00  0.00    -0.248 NA
ATOM     58  C   UNL     1      -3.774  13.694 -14.048  1.00  0.00     0.031 C 
ATOM     59  C   UNL     1       1.153  16.982 -15.389  1.00  0.00     0.029 A 
ATOM     60  C   UNL     1       0.312  15.919 -15.099  1.00  0.00     0.049 A 
ATOM     61  H   UNL     1       0.774  13.868 -14.924  1.00  0.00     0.167 HD
ATOM     62  C   UNL     1      -1.868  14.858 -14.573  1.00  0.00     0.074 A 
ATOM     63  C   UNL     1      -3.291  14.903 -14.307  1.00  0.00     0.031 C 
ATOM     64  C   UNL     1      -1.105  15.947 -14.835  1.00  0.00     0.037 A 
BRANCH  51  65
ATOM     65  C   UNL     1       4.874  14.708 -15.781  1.00  0.00     0.058 A 
ATOM     66  C   UNL     1       5.572  15.464 -14.826  1.00  0.00     0.135 A 
ATOM     67  C   UNL     1       5.476  14.520 -17.035  1.00  0.00     0.135 A 
ATOM     68  F   UNL     1       5.046  15.668 -13.608  1.00  0.00    -0.206 F 
ATOM     69  C   UNL     1       6.814  16.024 -15.108  1.00  0.00     0.059 A 
ATOM     70  C   UNL     1       6.728  15.051 -17.331  1.00  0.00     0.059 A 
ATOM     71  F   UNL     1       4.860  13.787 -17.977  1.00  0.00    -0.206 F 
ATOM     72  C   UNL     1       7.383  15.814 -16.365  1.00  0.00     0.060 A 
BRANCH  72  73
ATOM     73  S   UNL     1       9.011  16.517 -16.705  1.00  0.00     0.124 S 
ATOM     74  O   UNL     1       8.705  17.937 -16.828  1.00  0.00    -0.237 OA
ATOM     75  O   UNL     1       9.767  16.128 -15.518  1.00  0.00    -0.237 OA
ATOM     76  O   UNL     1       9.415  15.849 -17.939  1.00  0.00    -0.744 OA
ENDBRANCH  72  73
ENDBRANCH  51  65
BRANCH  52  77
ATOM     77  C   UNL     1      -4.086  10.791 -13.714  1.00  0.00     0.058 A 
ATOM     78  C   UNL     1      -4.364  10.239 -12.454  1.00  0.00     0.135 A 
ATOM     79  C   UNL     1      -5.091  10.733 -14.691  1.00  0.00     0.135 A 
ATOM     80  F   UNL     1      -3.432  10.260 -11.489  1.00  0.00    -0.206 F 
ATOM     81  C   UNL     1      -5.582   9.628 -12.182  1.00  0.00     0.059 A 
ATOM     82  C   UNL     1      -6.326  10.146 -14.435  1.00  0.00     0.059 A 
ATOM     83  F   UNL     1      -4.874  11.259 -15.906  1.00  0.00    -0.206 F 
ATOM     84  C   UNL     1      -6.554   9.578 -13.182  1.00  0.00     0.060 A 
BRANCH  84  85
ATOM     85  S   UNL     1      -8.120   8.755 -12.817  1.00  0.00     0.124 S 
ATOM     86  O   UNL     1      -7.707   7.356 -12.767  1.00  0.00    -0.237 OA
ATOM     87  O   UNL     1      -8.490   9.354 -11.539  1.00  0.00    -0.237 OA
ATOM     88  O   UNL     1      -8.966   9.122 -13.948  1.00  0.00    -0.744 OA
ENDBRANCH  84  85
ENDBRANCH  52  77
BRANCH  64  89
ATOM     89  C   UNL     1      -1.786  17.285 -14.864  1.00  0.00     0.058 A 
ATOM     90  C   UNL     1      -1.984  17.957 -16.081  1.00  0.00     0.135 A 
ATOM     91  C   UNL     1      -2.165  17.939 -13.682  1.00  0.00     0.135 A 
ATOM     92  F   UNL     1      -1.635  17.375 -17.240  1.00  0.00    -0.206 F 
ATOM     93  C   UNL     1      -2.514  19.241 -16.123  1.00  0.00     0.059 A 
ATOM     94  C   UNL     1      -2.718  19.216 -13.702  1.00  0.00     0.059 A 
ATOM     95  F   UNL     1      -2.008  17.332 -12.495  1.00  0.00    -0.206 F 
ATOM     96  C   UNL     1      -2.871  19.866 -14.927  1.00  0.00     0.060 A 
BRANCH  96  97
ATOM     97  S   UNL     1      -3.558  21.534 -14.998  1.00  0.00     0.124 S 
ATOM     98  O   UNL     1      -2.379  22.328 -15.327  1.00  0.00    -0.237 OA
ATOM     99  O   UNL     1      -4.557  21.413 -16.055  1.00  0.00    -0.237 OA
ATOM    100  O   UNL     1      -4.097  21.735 -13.656  1.00  0.00    -0.744 OA
ENDBRANCH  96  97
ENDBRANCH  64  89
ENDBRANCH  38  39
ENDBRANCH  30  33
ENDBRANCH  28  29
ENDBRANCH  27  28
ENDBRANCH  26  27
ENDBRANCH   1  26
TORSDOF 19
