REMARK SMILES CC(C)[C@H](C(=O)NCCCCCCNC(=O)c1ccc(-c2c3nc(c(-c4c(F)cc(S(=O)(=O)[O-])cc4F)c4ccc([nH]4)c(-c4c(F)cc(S(=O)(=O)[O-])cc4F)c4nc(c(-c5c(F)cc(S(=O)(=O)[O-])cc5F)c5ccc2[nH]5)C=C4)C=C3)cc1)c1ccc(Cl)cc1F
REMARK SMILES IDX 11 1 10 2 9 3 8 4 7 5 5 6 6 7 4 9 2 10 1 11 3 12 83 13 84 14
REMARK SMILES IDX 89 15 85 16 88 17 90 18 86 19 87 20 12 21 13 22 14 23 15 24
REMARK SMILES IDX 16 26 17 27 18 28 82 29 19 30 81 31 20 32 21 33 22 34 75 35
REMARK SMILES IDX 23 36 80 37 74 38 76 39 24 40 79 41 73 42 72 43 25 45 59 46
REMARK SMILES IDX 38 47 58 48 39 49 42 50 57 51 77 52 40 53 41 54 56 56 78 57
REMARK SMILES IDX 43 58 26 59 27 60 36 61 28 62 29 63 35 64 37 65 30 66 31 67
REMARK SMILES IDX 32 68 33 69 34 70 60 71 61 72 70 73 62 74 63 75 69 76 71 77
REMARK SMILES IDX 64 78 65 79 66 80 67 81 68 82 44 83 45 84 54 85 46 86 47 87
REMARK SMILES IDX 53 88 55 89 48 90 49 91 50 92 51 93 52 94
REMARK H PARENT 7 8 14 25 76 44 42 55
REMARK Flexibility Score: inf
ROOT
ATOM      1  C   UNL     1       2.963  -0.751  -2.914  1.00  0.00     0.002 C 
ENDROOT
BRANCH   1   2
ATOM      2  C   UNL     1       2.756   0.651  -2.334  1.00  0.00     0.002 C 
BRANCH   2   3
ATOM      3  C   UNL     1       1.304   1.072  -2.071  1.00  0.00     0.021 C 
BRANCH   3   4
ATOM      4  C   UNL     1       0.491   0.133  -1.183  1.00  0.00     0.116 C 
BRANCH   4   5
ATOM      5  N   UNL     1       1.074  -0.062   0.127  1.00  0.00    -0.356 N 
ATOM      6  C   UNL     1       0.550  -0.623   1.255  1.00  0.00     0.227 C 
ATOM      7  O   UNL     1       1.319  -0.714   2.218  1.00  0.00    -0.274 OA
ATOM      8  H   UNL     1       2.000   0.262   0.219  1.00  0.00     0.163 HD
BRANCH   6   9
ATOM      9  C   UNL     1      -0.946  -1.012   1.351  1.00  0.00     0.114 C 
BRANCH   9  10
ATOM     10  C   UNL     1      -1.510  -1.914   0.205  1.00  0.00    -0.000 C 
ATOM     11  C   UNL     1      -0.601  -3.054  -0.268  1.00  0.00     0.008 C 
ATOM     12  C   UNL     1      -2.923  -2.448   0.478  1.00  0.00     0.008 C 
ENDBRANCH   9  10
BRANCH   9  13
ATOM     13  C   UNL     1      -1.284  -1.468   2.775  1.00  0.00     0.001 A 
ATOM     14  C   UNL     1      -1.844  -0.553   3.687  1.00  0.00     0.009 A 
ATOM     15  C   UNL     1      -1.004  -2.759   3.240  1.00  0.00     0.128 A 
ATOM     16  C   UNL     1      -2.155  -0.944   4.993  1.00  0.00     0.021 A 
ATOM     17  C   UNL     1      -1.335  -3.164   4.530  1.00  0.00     0.060 A 
ATOM     18  F   UNL     1      -0.405  -3.651   2.445  1.00  0.00    -0.207 F 
ATOM     19  C   UNL     1      -1.913  -2.253   5.402  1.00  0.00     0.043 A 
ATOM     20  Cl  UNL     1      -2.326  -2.742   7.000  1.00  0.00    -0.084 Cl
ENDBRANCH   9  13
ENDBRANCH   6   9
ENDBRANCH   4   5
ENDBRANCH   3   4
ENDBRANCH   2   3
ENDBRANCH   1   2
BRANCH   1  21
ATOM     21  C   UNL     1       2.220  -1.054  -4.215  1.00  0.00     0.021 C 
BRANCH  21  22
ATOM     22  C   UNL     1       2.403  -0.037  -5.336  1.00  0.00     0.116 C 
BRANCH  22  23
ATOM     23  N   UNL     1       3.791   0.134  -5.733  1.00  0.00    -0.352 N 
ATOM     24  C   UNL     1       4.330   0.196  -6.995  1.00  0.00     0.251 C 
ATOM     25  H   UNL     1       4.435   0.218  -4.993  1.00  0.00     0.163 HD
ATOM     26  O   UNL     1       5.550   0.227  -7.138  1.00  0.00    -0.269 OA
BRANCH  24  27
ATOM     27  C   UNL     1       3.443   0.191  -8.180  1.00  0.00     0.039 A 
ATOM     28  C   UNL     1       3.758  -0.647  -9.252  1.00  0.00     0.014 A 
ATOM     29  C   UNL     1       2.302   0.997  -8.233  1.00  0.00     0.014 A 
ATOM     30  C   UNL     1       2.895  -0.725 -10.348  1.00  0.00     0.010 A 
ATOM     31  C   UNL     1       1.405   0.861  -9.290  1.00  0.00     0.010 A 
ATOM     32  C   UNL     1       1.692  -0.000 -10.360  1.00  0.00    -0.014 A 
BRANCH  32  33
ATOM     33  C   UNL     1       0.723  -0.136 -11.480  1.00  0.00     0.031 A 
ATOM     34  C   UNL     1       0.394   1.050 -12.346  1.00  0.00     0.074 A 
ATOM     35  C   UNL     1       0.098  -1.314 -11.681  1.00  0.00     0.049 A 
ATOM     36  N   UNL     1      -0.464   1.141 -13.330  1.00  0.00    -0.248 NA
ATOM     37  C   UNL     1       1.103   2.305 -12.053  1.00  0.00     0.031 C 
ATOM     38  C   UNL     1       0.298  -2.525 -10.880  1.00  0.00     0.029 A 
ATOM     39  N   UNL     1      -0.838  -1.687 -12.614  1.00  0.00    -0.354 N 
ATOM     40  C   UNL     1      -0.404   2.460 -13.766  1.00  0.00     0.074 A 
ATOM     41  C   UNL     1       0.531   3.147 -12.901  1.00  0.00     0.031 C 
ATOM     42  C   UNL     1      -0.471  -3.510 -11.371  1.00  0.00     0.029 A 
ATOM     43  C   UNL     1      -1.250  -2.993 -12.492  1.00  0.00     0.049 A 
ATOM     44  H   UNL     1      -1.181  -1.076 -13.305  1.00  0.00     0.167 HD
ATOM     45  C   UNL     1      -1.050   3.039 -14.806  1.00  0.00     0.037 A 
ATOM     46  C   UNL     1      -2.160  -3.695 -13.197  1.00  0.00     0.037 A 
ATOM     47  C   UNL     1      -1.966   2.344 -15.673  1.00  0.00     0.049 A 
ATOM     48  C   UNL     1      -2.878  -3.024 -14.337  1.00  0.00     0.074 A 
ATOM     49  C   UNL     1      -2.631   2.828 -16.786  1.00  0.00     0.029 A 
ATOM     50  N   UNL     1      -2.351   1.019 -15.523  1.00  0.00    -0.354 N 
ATOM     51  N   UNL     1      -2.760  -1.793 -14.776  1.00  0.00    -0.248 NA
ATOM     52  C   UNL     1      -3.848  -3.838 -15.084  1.00  0.00     0.031 C 
ATOM     53  C   UNL     1      -3.459   1.812 -17.277  1.00  0.00     0.029 A 
ATOM     54  C   UNL     1      -3.264   0.677 -16.508  1.00  0.00     0.049 A 
ATOM     55  H   UNL     1      -2.023   0.412 -14.821  1.00  0.00     0.167 HD
ATOM     56  C   UNL     1      -3.618  -1.694 -15.866  1.00  0.00     0.074 A 
ATOM     57  C   UNL     1      -4.237  -2.993 -16.028  1.00  0.00     0.031 C 
ATOM     58  C   UNL     1      -3.869  -0.624 -16.661  1.00  0.00     0.037 A 
BRANCH  45  59
ATOM     59  C   UNL     1      -0.788   4.499 -15.067  1.00  0.00     0.058 A 
ATOM     60  C   UNL     1       0.453   4.954 -15.541  1.00  0.00     0.135 A 
ATOM     61  C   UNL     1      -1.803   5.452 -14.879  1.00  0.00     0.135 A 
ATOM     62  F   UNL     1       1.465   4.090 -15.726  1.00  0.00    -0.206 F 
ATOM     63  C   UNL     1       0.690   6.302 -15.789  1.00  0.00     0.059 A 
ATOM     64  C   UNL     1      -1.599   6.802 -15.150  1.00  0.00     0.059 A 
ATOM     65  F   UNL     1      -3.010   5.075 -14.428  1.00  0.00    -0.206 F 
ATOM     66  C   UNL     1      -0.344   7.219 -15.591  1.00  0.00     0.060 A 
BRANCH  66  67
ATOM     67  S   UNL     1      -0.021   8.964 -15.923  1.00  0.00     0.124 S 
ATOM     68  O   UNL     1       0.857   9.313 -14.810  1.00  0.00    -0.237 OA
ATOM     69  O   UNL     1       0.610   8.919 -17.238  1.00  0.00    -0.237 OA
ATOM     70  O   UNL     1      -1.348   9.569 -15.887  1.00  0.00    -0.744 OA
ENDBRANCH  66  67
ENDBRANCH  45  59
BRANCH  46  71
ATOM     71  C   UNL     1      -2.433  -5.117 -12.854  1.00  0.00     0.058 A 
ATOM     72  C   UNL     1      -2.053  -6.155 -13.718  1.00  0.00     0.135 A 
ATOM     73  C   UNL     1      -3.071  -5.469 -11.654  1.00  0.00     0.135 A 
ATOM     74  F   UNL     1      -1.446  -5.871 -14.881  1.00  0.00    -0.206 F 
ATOM     75  C   UNL     1      -2.312  -7.488 -13.416  1.00  0.00     0.059 A 
ATOM     76  C   UNL     1      -3.315  -6.797 -11.316  1.00  0.00     0.059 A 
ATOM     77  F   UNL     1      -3.441  -4.516 -10.784  1.00  0.00    -0.206 F 
ATOM     78  C   UNL     1      -2.942  -7.799 -12.210  1.00  0.00     0.060 A 
BRANCH  78  79
ATOM     79  S   UNL     1      -3.233  -9.535 -11.808  1.00  0.00     0.124 S 
ATOM     80  O   UNL     1      -4.303  -9.876 -12.739  1.00  0.00    -0.237 OA
ATOM     81  O   UNL     1      -1.931 -10.135 -12.082  1.00  0.00    -0.237 OA
ATOM     82  O   UNL     1      -3.612  -9.494 -10.399  1.00  0.00    -0.744 OA
ENDBRANCH  78  79
ENDBRANCH  46  71
BRANCH  58  83
ATOM     83  C   UNL     1      -4.830  -0.818 -17.804  1.00  0.00     0.058 A 
ATOM     84  C   UNL     1      -6.208  -0.975 -17.594  1.00  0.00     0.135 A 
ATOM     85  C   UNL     1      -4.367  -0.794 -19.131  1.00  0.00     0.135 A 
ATOM     86  F   UNL     1      -6.703  -1.011 -16.347  1.00  0.00    -0.206 F 
ATOM     87  C   UNL     1      -7.093  -1.125 -18.658  1.00  0.00     0.059 A 
ATOM     88  C   UNL     1      -5.237  -0.911 -20.210  1.00  0.00     0.059 A 
ATOM     89  F   UNL     1      -3.059  -0.636 -19.389  1.00  0.00    -0.206 F 
ATOM     90  C   UNL     1      -6.597  -1.089 -19.963  1.00  0.00     0.060 A 
BRANCH  90  91
ATOM     91  S   UNL     1      -7.761  -1.250 -21.334  1.00  0.00     0.124 S 
ATOM     92  O   UNL     1      -8.113  -2.664 -21.256  1.00  0.00    -0.237 OA
ATOM     93  O   UNL     1      -8.815  -0.312 -20.960  1.00  0.00    -0.237 OA
ATOM     94  O   UNL     1      -6.970  -0.864 -22.499  1.00  0.00    -0.744 OA
ENDBRANCH  90  91
ENDBRANCH  58  83
ENDBRANCH  32  33
ENDBRANCH  24  27
ENDBRANCH  22  23
ENDBRANCH  21  22
ENDBRANCH   1  21
TORSDOF 18
