REMARK SMILES Cc1cc(NC(=O)CC(C)(C)CC(=O)NCCCCCCNC(=O)c2ccc(-c3c4nc(c(-c5c(F)cc(S(=O)(=O)[O-])cc5F)c5ccc([nH]5)c(-c5c(F)cc(S(=O)(=O)[O-])cc5F)c5nc(c(-c6c(F)cc(S(=O)(=O)[O-])cc6F)c6ccc3[nH]6)C=C5)C=C4)cc2)ncc1Br
REMARK SMILES IDX 18 1 17 2 16 3 15 4 13 5 14 6 12 8 9 9 10 10 11 11 8 12 6 13
REMARK SMILES IDX 5 14 7 16 4 17 1 18 2 19 3 20 93 21 92 22 94 23 91 24 19 25
REMARK SMILES IDX 20 26 21 27 22 28 23 29 24 31 25 32 26 33 90 34 27 35 89 36
REMARK SMILES IDX 28 37 29 38 30 39 83 40 31 41 88 42 82 43 84 44 32 45 87 46
REMARK SMILES IDX 81 47 80 48 33 50 67 51 46 52 66 53 47 54 50 55 65 56 85 57
REMARK SMILES IDX 48 58 49 59 64 61 86 62 51 63 34 64 35 65 44 66 36 67 37 68
REMARK SMILES IDX 43 69 45 70 38 71 39 72 40 73 41 74 42 75 68 76 69 77 78 78
REMARK SMILES IDX 70 79 71 80 77 81 79 82 72 83 73 84 74 85 75 86 76 87 52 88
REMARK SMILES IDX 53 89 62 90 54 91 55 92 61 93 63 94 56 95 57 96 58 97 59 98
REMARK SMILES IDX 60 99
REMARK H PARENT 15 7 5 15 22 30 84 49 50 60
REMARK Flexibility Score: inf
ROOT
ATOM      1  C   UNL     1      -1.545  11.250   1.148  1.00  0.00     0.002 C 
ENDROOT
BRANCH   1   2
ATOM      2  C   UNL     1      -1.133   9.784   1.301  1.00  0.00     0.021 C 
BRANCH   2   3
ATOM      3  C   UNL     1      -1.759   9.100   2.516  1.00  0.00     0.116 C 
BRANCH   3   4
ATOM      4  N   UNL     1      -3.093   8.650   2.181  1.00  0.00    -0.356 N 
ATOM      5  C   UNL     1      -3.564   7.390   1.994  1.00  0.00     0.220 C 
ATOM      6  O   UNL     1      -4.706   7.263   1.549  1.00  0.00    -0.275 OA
ATOM      7  H   UNL     1      -3.760   9.366   2.074  1.00  0.00     0.163 HD
BRANCH   5   8
ATOM      8  C   UNL     1      -2.735   6.185   2.402  1.00  0.00     0.107 C 
BRANCH   8   9
ATOM      9  C   UNL     1      -1.779   5.513   1.375  1.00  0.00    -0.018 C 
ATOM     10  C   UNL     1      -1.238   4.264   2.114  1.00  0.00     0.012 C 
ATOM     11  C   UNL     1      -0.545   6.377   1.055  1.00  0.00     0.012 C 
BRANCH   9  12
ATOM     12  C   UNL     1      -2.486   5.225   0.014  1.00  0.00     0.107 C 
BRANCH  12  13
ATOM     13  C   UNL     1      -3.253   3.922  -0.107  1.00  0.00     0.226 C 
ATOM     14  N   UNL     1      -2.627   2.739  -0.365  1.00  0.00    -0.311 N 
ATOM     15  H   UNL     1      -3.220   1.954  -0.406  1.00  0.00     0.171 HD
ATOM     16  O   UNL     1      -4.473   3.887   0.081  1.00  0.00    -0.275 OA
BRANCH  14  17
ATOM     17  C   UNL     1      -1.275   2.470  -0.579  1.00  0.00     0.132 A 
ATOM     18  C   UNL     1       0.936  -0.514   0.089  1.00  0.00     0.046 C 
ATOM     19  C   UNL     1       0.531   0.880  -0.291  1.00  0.00    -0.032 A 
ATOM     20  C   UNL     1      -0.845   1.171  -0.327  1.00  0.00     0.051 A 
ATOM     21  C   UNL     1       1.426   1.908  -0.590  1.00  0.00     0.039 A 
ATOM     22  C   UNL     1       0.905   3.153  -0.909  1.00  0.00     0.129 A 
ATOM     23  Br  UNL     1       3.306   1.713  -0.547  1.00  0.00    -0.049 Br
ATOM     24  N   UNL     1      -0.417   3.447  -0.906  1.00  0.00    -0.238 NA
ENDBRANCH  14  17
ENDBRANCH  12  13
ENDBRANCH   9  12
ENDBRANCH   8   9
ENDBRANCH   5   8
ENDBRANCH   3   4
ENDBRANCH   2   3
ENDBRANCH   1   2
BRANCH   1  25
ATOM     25  C   UNL     1      -1.047  12.168   2.266  1.00  0.00     0.002 C 
BRANCH  25  26
ATOM     26  C   UNL     1       0.458  12.099   2.532  1.00  0.00     0.021 C 
BRANCH  26  27
ATOM     27  C   UNL     1       1.326  12.337   1.301  1.00  0.00     0.116 C 
BRANCH  27  28
ATOM     28  N   UNL     1       1.117  13.661   0.732  1.00  0.00    -0.352 N 
ATOM     29  C   UNL     1       2.024  14.679   0.563  1.00  0.00     0.251 C 
ATOM     30  H   UNL     1       0.201  13.853   0.427  1.00  0.00     0.163 HD
ATOM     31  O   UNL     1       1.647  15.806   0.255  1.00  0.00    -0.269 OA
BRANCH  29  32
ATOM     32  C   UNL     1       3.456  14.401   0.783  1.00  0.00     0.039 A 
ATOM     33  C   UNL     1       4.042  13.271   0.207  1.00  0.00     0.014 A 
ATOM     34  C   UNL     1       4.202  15.242   1.611  1.00  0.00     0.014 A 
ATOM     35  C   UNL     1       5.320  12.892   0.594  1.00  0.00     0.010 A 
ATOM     36  C   UNL     1       5.520  14.904   1.927  1.00  0.00     0.010 A 
ATOM     37  C   UNL     1       6.074  13.701   1.460  1.00  0.00    -0.014 A 
BRANCH  37  38
ATOM     38  C   UNL     1       7.435  13.263   1.864  1.00  0.00     0.031 A 
ATOM     39  C   UNL     1       7.744  12.934   3.300  1.00  0.00     0.074 A 
ATOM     40  C   UNL     1       8.377  13.103   0.914  1.00  0.00     0.049 A 
ATOM     41  N   UNL     1       8.870  12.525   3.826  1.00  0.00    -0.248 NA
ATOM     42  C   UNL     1       6.651  13.083   4.275  1.00  0.00     0.031 C 
ATOM     43  C   UNL     1       8.187  13.375  -0.513  1.00  0.00     0.029 A 
ATOM     44  N   UNL     1       9.668  12.648   0.995  1.00  0.00    -0.354 N 
ATOM     45  C   UNL     1       8.629  12.384   5.188  1.00  0.00     0.074 A 
ATOM     46  C   UNL     1       7.257  12.780   5.415  1.00  0.00     0.031 C 
ATOM     47  C   UNL     1       9.298  13.028  -1.179  1.00  0.00     0.029 A 
ATOM     48  C   UNL     1      10.302  12.576  -0.223  1.00  0.00     0.049 A 
ATOM     49  H   UNL     1      10.100  12.398   1.844  1.00  0.00     0.167 HD
ATOM     50  C   UNL     1       9.472  11.949   6.156  1.00  0.00     0.037 A 
ATOM     51  C   UNL     1      11.557  12.202  -0.536  1.00  0.00     0.037 A 
ATOM     52  C   UNL     1      10.831  11.536   5.917  1.00  0.00     0.049 A 
ATOM     53  C   UNL     1      12.486  11.772   0.563  1.00  0.00     0.074 A 
ATOM     54  C   UNL     1      11.761  11.068   6.830  1.00  0.00     0.029 A 
ATOM     55  N   UNL     1      11.456  11.536   4.678  1.00  0.00    -0.354 N 
ATOM     56  N   UNL     1      12.241  11.651   1.845  1.00  0.00    -0.248 NA
ATOM     57  C   UNL     1      13.864  11.441   0.176  1.00  0.00     0.031 C 
ATOM     58  C   UNL     1      12.958  10.825   6.151  1.00  0.00     0.029 A 
ATOM     59  C   UNL     1      12.763  11.096   4.806  1.00  0.00     0.049 A 
ATOM     60  H   UNL     1      11.032  11.809   3.832  1.00  0.00     0.167 HD
ATOM     61  C   UNL     1      13.431  11.220   2.419  1.00  0.00     0.074 A 
ATOM     62  C   UNL     1      14.389  11.083   1.341  1.00  0.00     0.031 C 
ATOM     63  C   UNL     1      13.705  10.967   3.722  1.00  0.00     0.037 A 
BRANCH  50  64
ATOM     64  C   UNL     1       8.956  11.899   7.569  1.00  0.00     0.058 A 
ATOM     65  C   UNL     1       8.035  10.925   7.982  1.00  0.00     0.135 A 
ATOM     66  C   UNL     1       9.437  12.797   8.537  1.00  0.00     0.135 A 
ATOM     67  F   UNL     1       7.530  10.052   7.096  1.00  0.00    -0.206 F 
ATOM     68  C   UNL     1       7.595  10.851   9.300  1.00  0.00     0.059 A 
ATOM     69  C   UNL     1       9.030  12.727   9.867  1.00  0.00     0.059 A 
ATOM     70  F   UNL     1      10.319  13.749   8.196  1.00  0.00    -0.206 F 
ATOM     71  C   UNL     1       8.101  11.756  10.236  1.00  0.00     0.060 A 
BRANCH  71  72
ATOM     72  S   UNL     1       7.529  11.633  11.945  1.00  0.00     0.124 S 
ATOM     73  O   UNL     1       6.147  12.088  11.822  1.00  0.00    -0.237 OA
ATOM     74  O   UNL     1       7.705  10.213  12.230  1.00  0.00    -0.237 OA
ATOM     75  O   UNL     1       8.423  12.532  12.669  1.00  0.00    -0.744 OA
ENDBRANCH  71  72
ENDBRANCH  50  64
BRANCH  51  76
ATOM     76  C   UNL     1      11.998  12.224  -1.955  1.00  0.00     0.058 A 
ATOM     77  C   UNL     1      12.235  11.033  -2.655  1.00  0.00     0.135 A 
ATOM     78  C   UNL     1      12.147  13.434  -2.652  1.00  0.00     0.135 A 
ATOM     79  F   UNL     1      12.111   9.852  -2.030  1.00  0.00    -0.206 F 
ATOM     80  C   UNL     1      12.606  11.038  -3.995  1.00  0.00     0.059 A 
ATOM     81  C   UNL     1      12.491  13.465  -3.999  1.00  0.00     0.059 A 
ATOM     82  F   UNL     1      11.917  14.601  -2.030  1.00  0.00    -0.206 F 
ATOM     83  C   UNL     1      12.725  12.261  -4.661  1.00  0.00     0.060 A 
BRANCH  83  84
ATOM     84  S   UNL     1      13.142  12.251  -6.417  1.00  0.00     0.124 S 
ATOM     85  O   UNL     1      14.543  11.849  -6.383  1.00  0.00    -0.237 OA
ATOM     86  O   UNL     1      12.206  11.265  -6.948  1.00  0.00    -0.237 OA
ATOM     87  O   UNL     1      12.890  13.629  -6.830  1.00  0.00    -0.744 OA
ENDBRANCH  83  84
ENDBRANCH  51  76
BRANCH  63  88
ATOM     88  C   UNL     1      15.094  10.503   4.059  1.00  0.00     0.058 A 
ATOM     89  C   UNL     1      16.182  11.388   4.055  1.00  0.00     0.135 A 
ATOM     90  C   UNL     1      15.325   9.176   4.456  1.00  0.00     0.135 A 
ATOM     91  F   UNL     1      16.014  12.664   3.675  1.00  0.00    -0.206 F 
ATOM     92  C   UNL     1      17.457  10.971   4.422  1.00  0.00     0.059 A 
ATOM     93  C   UNL     1      16.587   8.743   4.852  1.00  0.00     0.059 A 
ATOM     94  F   UNL     1      14.315   8.292   4.484  1.00  0.00    -0.206 F 
ATOM     95  C   UNL     1      17.648   9.647   4.825  1.00  0.00     0.060 A 
BRANCH  95  96
ATOM     96  S   UNL     1      19.299   9.135   5.345  1.00  0.00     0.124 S 
ATOM     97  O   UNL     1      20.015   9.116   4.074  1.00  0.00    -0.237 OA
ATOM     98  O   UNL     1      19.677  10.198   6.271  1.00  0.00    -0.237 OA
ATOM     99  O   UNL     1      19.073   7.829   5.958  1.00  0.00    -0.744 OA
ENDBRANCH  95  96
ENDBRANCH  63  88
ENDBRANCH  37  38
ENDBRANCH  29  32
ENDBRANCH  27  28
ENDBRANCH  26  27
ENDBRANCH  25  26
ENDBRANCH   1  25
TORSDOF 20
