REMARK SMILES Cc1cc(Br)cc([N+](=O)[O-])c1OCCC[C@@](C)([NH3+])C(=O)NCCCCCCNC(=O)c1ccc(-c2c3nc(c(-c4c(F)cc(S(=O)(=O)[O-])cc4F)c4ccc([nH]4)c(-c4c(F)cc(S(=O)(=O)[O-])cc4F)c4nc(c(-c5c(F)cc(S(=O)(=O)[O-])cc5F)c5ccc2[nH]5)C=C4)C=C3)cc1
REMARK SMILES IDX 23 1 22 2 21 3 19 4 20 5 16 7 17 8 15 9 14 10 13 11 12 12
REMARK SMILES IDX 11 13 1 14 2 15 3 16 4 17 7 18 5 19 6 20 8 21 9 22 10 23
REMARK SMILES IDX 18 24 24 28 25 29 26 30 27 31 28 32 29 33 30 35 31 36 32 37
REMARK SMILES IDX 96 38 33 39 95 40 34 41 35 42 36 43 89 44 37 45 94 46 88 47
REMARK SMILES IDX 90 48 38 49 93 50 87 51 86 52 39 54 73 55 52 56 72 57 53 58
REMARK SMILES IDX 56 59 71 60 91 61 54 62 55 63 70 65 92 66 57 67 40 68 41 69
REMARK SMILES IDX 50 70 42 71 43 72 49 73 51 74 44 75 45 76 46 77 47 78 48 79
REMARK SMILES IDX 74 80 75 81 84 82 76 83 77 84 83 85 85 86 78 87 79 88 80 89
REMARK SMILES IDX 81 90 82 91 58 92 59 93 68 94 60 95 61 96 67 97 69 98 62 99
REMARK SMILES IDX 63 100 64 101 65 102 66 103
REMARK H PARENT 21 6 18 25 18 26 18 27 28 34 90 53 56 64
REMARK Flexibility Score: inf
ROOT
ATOM      1  C   UNL     1      -1.807  -3.781   3.491  1.00  0.00     0.021 C 
ENDROOT
BRANCH   1   2
ATOM      2  C   UNL     1      -3.092  -4.138   2.739  1.00  0.00     0.116 C 
BRANCH   2   3
ATOM      3  N   UNL     1      -3.870  -2.959   2.409  1.00  0.00    -0.351 N 
ATOM      4  C   UNL     1      -4.582  -2.593   1.313  1.00  0.00     0.280 C 
ATOM      5  O   UNL     1      -5.431  -1.718   1.531  1.00  0.00    -0.268 OA
ATOM      6  H   UNL     1      -3.884  -2.286   3.127  1.00  0.00     0.163 HD
BRANCH   4   7
ATOM      7  C   UNL     1      -4.418  -3.203  -0.114  1.00  0.00     0.171 C 
ATOM      8  C   UNL     1      -5.598  -4.170  -0.293  1.00  0.00     0.090 C 
BRANCH   7   9
ATOM      9  C   UNL     1      -4.379  -2.138  -1.270  1.00  0.00     0.082 C 
BRANCH   9  10
ATOM     10  C   UNL     1      -5.093  -0.778  -1.116  1.00  0.00     0.049 C 
BRANCH  10  11
ATOM     11  C   UNL     1      -4.342   0.347  -0.354  1.00  0.00     0.230 C 
BRANCH  11  12
ATOM     12  O   UNL     1      -3.184   0.770  -1.096  1.00  0.00    -0.487 OA
BRANCH  12  13
ATOM     13  C   UNL     1      -2.065   1.148  -0.382  1.00  0.00     0.200 A 
ATOM     14  C   UNL     1      -1.492  -1.269   0.205  1.00  0.00     0.049 C 
ATOM     15  C   UNL     1      -1.140   0.163   0.014  1.00  0.00    -0.001 A 
ATOM     16  C   UNL     1       0.212   0.490   0.213  1.00  0.00     0.023 A 
ATOM     17  C   UNL     1       0.644   1.800   0.104  1.00  0.00     0.025 A 
ATOM     18  C   UNL     1      -1.627   2.484  -0.377  1.00  0.00     0.312 A 
ATOM     19  Br  UNL     1       2.482   2.188   0.292  1.00  0.00    -0.051 Br
ATOM     20  C   UNL     1      -0.275   2.811  -0.137  1.00  0.00     0.105 A 
BRANCH  18  21
ATOM     21  N   UNL     1      -2.559   3.597  -0.552  1.00  0.00     0.066 N 
ATOM     22  O   UNL     1      -2.089   4.678  -0.942  1.00  0.00    -0.258 OA
ATOM     23  O   UNL     1      -3.740   3.433  -0.221  1.00  0.00    -0.258 OA
ENDBRANCH  18  21
ENDBRANCH  12  13
ENDBRANCH  11  12
ENDBRANCH  10  11
ENDBRANCH   9  10
ENDBRANCH   7   9
BRANCH   7  24
ATOM     24  N   UNL     1      -3.212  -4.052  -0.265  1.00  0.00    -0.345 N 
ATOM     25  H   UNL     1      -3.168  -4.415  -1.218  1.00  0.00     0.345 HD
ATOM     26  H   UNL     1      -3.258  -4.829   0.393  1.00  0.00     0.345 HD
ATOM     27  H   UNL     1      -2.378  -3.495  -0.075  1.00  0.00     0.345 HD
ENDBRANCH   7  24
ENDBRANCH   4   7
ENDBRANCH   2   3
ENDBRANCH   1   2
BRANCH   1  28
ATOM     28  C   UNL     1      -1.998  -3.002   4.800  1.00  0.00     0.002 C 
BRANCH  28  29
ATOM     29  C   UNL     1      -3.013  -3.590   5.786  1.00  0.00     0.002 C 
BRANCH  29  30
ATOM     30  C   UNL     1      -2.828  -5.072   6.115  1.00  0.00     0.021 C 
BRANCH  30  31
ATOM     31  C   UNL     1      -1.474  -5.430   6.710  1.00  0.00     0.116 C 
BRANCH  31  32
ATOM     32  N   UNL     1      -1.305  -4.895   8.050  1.00  0.00    -0.352 N 
ATOM     33  C   UNL     1      -1.003  -5.565   9.212  1.00  0.00     0.251 C 
ATOM     34  H   UNL     1      -1.423  -3.922   8.138  1.00  0.00     0.163 HD
ATOM     35  O   UNL     1      -1.092  -4.994  10.292  1.00  0.00    -0.269 OA
BRANCH  33  36
ATOM     36  C   UNL     1      -0.594  -6.987   9.149  1.00  0.00     0.039 A 
ATOM     37  C   UNL     1      -1.169  -7.897  10.040  1.00  0.00     0.014 A 
ATOM     38  C   UNL     1       0.342  -7.422   8.206  1.00  0.00     0.014 A 
ATOM     39  C   UNL     1      -0.850  -9.254   9.942  1.00  0.00     0.010 A 
ATOM     40  C   UNL     1       0.598  -8.783   8.060  1.00  0.00     0.010 A 
ATOM     41  C   UNL     1       0.009  -9.714   8.929  1.00  0.00    -0.014 A 
BRANCH  41  42
ATOM     42  C   UNL     1       0.299 -11.162   8.762  1.00  0.00     0.031 A 
ATOM     43  C   UNL     1       1.703 -11.677   8.934  1.00  0.00     0.074 A 
ATOM     44  C   UNL     1      -0.690 -12.002   8.395  1.00  0.00     0.049 A 
ATOM     45  N   UNL     1       2.163 -12.891   8.769  1.00  0.00    -0.248 NA
ATOM     46  C   UNL     1       2.730 -10.694   9.314  1.00  0.00     0.031 C 
ATOM     47  C   UNL     1      -2.081 -11.615   8.149  1.00  0.00     0.029 A 
ATOM     48  N   UNL     1      -0.676 -13.354   8.155  1.00  0.00    -0.354 N 
ATOM     49  C   UNL     1       3.530 -12.815   9.013  1.00  0.00     0.074 A 
ATOM     50  C   UNL     1       3.834 -11.427   9.281  1.00  0.00     0.031 C 
ATOM     51  C   UNL     1      -2.789 -12.706   7.816  1.00  0.00     0.029 A 
ATOM     52  C   UNL     1      -1.899 -13.863   7.785  1.00  0.00     0.049 A 
ATOM     53  H   UNL     1       0.134 -13.907   8.239  1.00  0.00     0.167 HD
ATOM     54  C   UNL     1       4.443 -13.815   9.036  1.00  0.00     0.037 A 
ATOM     55  C   UNL     1      -2.262 -15.117   7.450  1.00  0.00     0.037 A 
ATOM     56  C   UNL     1       4.128 -15.199   8.790  1.00  0.00     0.049 A 
ATOM     57  C   UNL     1      -1.229 -16.210   7.479  1.00  0.00     0.074 A 
ATOM     58  C   UNL     1       4.971 -16.296   8.847  1.00  0.00     0.029 A 
ATOM     59  N   UNL     1       2.874 -15.677   8.437  1.00  0.00    -0.354 N 
ATOM     60  N   UNL     1       0.046 -16.131   7.777  1.00  0.00    -0.248 NA
ATOM     61  C   UNL     1      -1.683 -17.564   7.133  1.00  0.00     0.031 C 
ATOM     62  C   UNL     1       4.238 -17.429   8.480  1.00  0.00     0.029 A 
ATOM     63  C   UNL     1       2.925 -17.049   8.250  1.00  0.00     0.049 A 
ATOM     64  H   UNL     1       2.067 -15.123   8.335  1.00  0.00     0.167 HD
ATOM     65  C   UNL     1       0.540 -17.428   7.682  1.00  0.00     0.074 A 
ATOM     66  C   UNL     1      -0.576 -18.273   7.311  1.00  0.00     0.031 C 
ATOM     67  C   UNL     1       1.803 -17.878   7.886  1.00  0.00     0.037 A 
BRANCH  54  68
ATOM     68  C   UNL     1       5.872 -13.451   9.339  1.00  0.00     0.058 A 
ATOM     69  C   UNL     1       6.269 -13.022  10.617  1.00  0.00     0.135 A 
ATOM     70  C   UNL     1       6.864 -13.567   8.352  1.00  0.00     0.135 A 
ATOM     71  F   UNL     1       5.361 -12.879  11.595  1.00  0.00    -0.206 F 
ATOM     72  C   UNL     1       7.591 -12.692  10.896  1.00  0.00     0.059 A 
ATOM     73  C   UNL     1       8.198 -13.272   8.618  1.00  0.00     0.059 A 
ATOM     74  F   UNL     1       6.542 -13.972   7.114  1.00  0.00    -0.206 F 
ATOM     75  C   UNL     1       8.549 -12.820   9.889  1.00  0.00     0.060 A 
BRANCH  75  76
ATOM     76  S   UNL     1      10.261 -12.393  10.270  1.00  0.00     0.124 S 
ATOM     77  O   UNL     1      10.185 -10.937  10.353  1.00  0.00    -0.237 OA
ATOM     78  O   UNL     1      10.483 -13.088  11.533  1.00  0.00    -0.237 OA
ATOM     79  O   UNL     1      11.005 -12.917   9.129  1.00  0.00    -0.744 OA
ENDBRANCH  75  76
ENDBRANCH  54  68
BRANCH  55  80
ATOM     80  C   UNL     1      -3.674 -15.407   7.080  1.00  0.00     0.058 A 
ATOM     81  C   UNL     1      -4.501 -16.163   7.923  1.00  0.00     0.135 A 
ATOM     82  C   UNL     1      -4.227 -14.924   5.883  1.00  0.00     0.135 A 
ATOM     83  F   UNL     1      -4.017 -16.653   9.074  1.00  0.00    -0.206 F 
ATOM     84  C   UNL     1      -5.822 -16.445   7.588  1.00  0.00     0.059 A 
ATOM     85  C   UNL     1      -5.553 -15.169   5.539  1.00  0.00     0.059 A 
ATOM     86  F   UNL     1      -3.483 -14.181   5.049  1.00  0.00    -0.206 F 
ATOM     87  C   UNL     1      -6.340 -15.940   6.394  1.00  0.00     0.060 A 
BRANCH  87  88
ATOM     88  S   UNL     1      -8.069 -16.270   5.992  1.00  0.00     0.124 S 
ATOM     89  O   UNL     1      -8.024 -17.685   5.641  1.00  0.00    -0.237 OA
ATOM     90  O   UNL     1      -8.742 -15.943   7.245  1.00  0.00    -0.237 OA
ATOM     91  O   UNL     1      -8.337 -15.353   4.887  1.00  0.00    -0.744 OA
ENDBRANCH  87  88
ENDBRANCH  55  80
BRANCH  67  92
ATOM     92  C   UNL     1       2.043 -19.357   7.749  1.00  0.00     0.058 A 
ATOM     93  C   UNL     1       2.041 -19.994   6.499  1.00  0.00     0.135 A 
ATOM     94  C   UNL     1       2.333 -20.136   8.882  1.00  0.00     0.135 A 
ATOM     95  F   UNL     1       1.763 -19.297   5.386  1.00  0.00    -0.206 F 
ATOM     96  C   UNL     1       2.295 -21.357   6.378  1.00  0.00     0.059 A 
ATOM     97  C   UNL     1       2.619 -21.494   8.781  1.00  0.00     0.059 A 
ATOM     98  F   UNL     1       2.359 -19.574  10.101  1.00  0.00    -0.206 F 
ATOM     99  C   UNL     1       2.586 -22.098   7.525  1.00  0.00     0.060 A 
BRANCH  99 100
ATOM    100  S   UNL     1       2.948 -23.858   7.350  1.00  0.00     0.124 S 
ATOM    101  O   UNL     1       1.625 -24.403   7.068  1.00  0.00    -0.237 OA
ATOM    102  O   UNL     1       3.891 -23.872   6.235  1.00  0.00    -0.237 OA
ATOM    103  O   UNL     1       3.514 -24.220   8.646  1.00  0.00    -0.744 OA
ENDBRANCH  99 100
ENDBRANCH  67  92
ENDBRANCH  41  42
ENDBRANCH  33  36
ENDBRANCH  31  32
ENDBRANCH  30  31
ENDBRANCH  29  30
ENDBRANCH  28  29
ENDBRANCH   1  28
TORSDOF 23
