REMARK SMILES O=C(NCCCCCCNC(=O)[C@H]1CSC2(CCCCC2)[NH2+]1)c1ccc(-c2c3nc(c(-c4c(F)cc(S(=O)(=O)[O-])cc4F)c4ccc([nH]4)c(-c4c(F)cc(S(=O)(=O)[O-])cc4F)c4nc(c(-c5c(F)cc(S(=O)(=O)[O-])cc5F)c5ccc2[nH]5)C=C4)C=C3)cc1
REMARK SMILES IDX 5 1 4 2 3 3 1 4 2 5 23 7 24 8 88 9 25 10 87 11 26 12 27 13
REMARK SMILES IDX 28 14 81 15 29 16 86 17 80 18 82 19 30 20 85 21 79 22 78 23
REMARK SMILES IDX 31 25 65 26 44 27 64 28 45 29 48 30 63 31 83 32 46 33 47 34
REMARK SMILES IDX 62 36 84 37 49 38 32 39 33 40 42 41 34 42 35 43 41 44 43 45
REMARK SMILES IDX 36 46 37 47 38 48 39 49 40 50 66 51 67 52 76 53 68 54 69 55
REMARK SMILES IDX 75 56 77 57 70 58 71 59 72 60 73 61 74 62 50 63 51 64 60 65
REMARK SMILES IDX 52 66 53 67 59 68 61 69 54 70 55 71 56 72 57 73 58 74 6 75
REMARK SMILES IDX 7 76 8 77 9 78 10 79 11 80 12 82 13 83 14 84 22 85 15 86
REMARK SMILES IDX 16 87 17 90 21 91 18 92 20 93 19 94
REMARK H PARENT 3 6 82 24 48 35 10 81 22 88 22 89
REMARK Flexibility Score: inf
ROOT
ATOM      1  C   UNL     1      14.811  -2.447  -4.598  1.00  0.00     0.021 C 
ENDROOT
BRANCH   1   2
ATOM      2  C   UNL     1      16.009  -3.087  -5.293  1.00  0.00     0.116 C 
BRANCH   2   3
ATOM      3  N   UNL     1      16.817  -2.123  -6.022  1.00  0.00    -0.352 N 
ATOM      4  O   UNL     1      18.617  -0.871  -6.527  1.00  0.00    -0.269 OA
ATOM      5  C   UNL     1      18.157  -1.835  -5.919  1.00  0.00     0.251 C 
ATOM      6  H   UNL     1      16.329  -1.595  -6.693  1.00  0.00     0.163 HD
BRANCH   5   7
ATOM      7  C   UNL     1      19.041  -2.660  -5.064  1.00  0.00     0.039 A 
ATOM      8  C   UNL     1      18.949  -4.053  -5.065  1.00  0.00     0.014 A 
ATOM      9  C   UNL     1      19.995  -2.026  -4.262  1.00  0.00     0.014 A 
ATOM     10  C   UNL     1      19.701  -4.797  -4.160  1.00  0.00     0.010 A 
ATOM     11  C   UNL     1      20.809  -2.782  -3.412  1.00  0.00     0.010 A 
ATOM     12  C   UNL     1      20.642  -4.172  -3.325  1.00  0.00    -0.014 A 
BRANCH  12  13
ATOM     13  C   UNL     1      21.455  -5.003  -2.397  1.00  0.00     0.031 A 
ATOM     14  C   UNL     1      21.314  -4.865  -0.904  1.00  0.00     0.074 A 
ATOM     15  C   UNL     1      22.294  -5.923  -2.913  1.00  0.00     0.049 A 
ATOM     16  N   UNL     1      21.898  -5.554   0.044  1.00  0.00    -0.248 NA
ATOM     17  C   UNL     1      20.411  -3.814  -0.409  1.00  0.00     0.031 C 
ATOM     18  C   UNL     1      22.532  -6.135  -4.344  1.00  0.00     0.029 A 
ATOM     19  N   UNL     1      23.081  -6.866  -2.304  1.00  0.00    -0.354 N 
ATOM     20  C   UNL     1      21.454  -5.008   1.244  1.00  0.00     0.074 A 
ATOM     21  C   UNL     1      20.568  -3.915   0.904  1.00  0.00     0.031 C 
ATOM     22  C   UNL     1      23.358  -7.179  -4.503  1.00  0.00     0.029 A 
ATOM     23  C   UNL     1      23.748  -7.679  -3.189  1.00  0.00     0.049 A 
ATOM     24  H   UNL     1      23.160  -6.953  -1.327  1.00  0.00     0.167 HD
ATOM     25  C   UNL     1      21.753  -5.388   2.510  1.00  0.00     0.037 A 
ATOM     26  C   UNL     1      24.583  -8.713  -2.970  1.00  0.00     0.037 A 
ATOM     27  C   UNL     1      22.614  -6.495   2.842  1.00  0.00     0.049 A 
ATOM     28  C   UNL     1      24.882  -9.125  -1.558  1.00  0.00     0.074 A 
ATOM     29  C   UNL     1      22.943  -6.986   4.095  1.00  0.00     0.029 A 
ATOM     30  N   UNL     1      23.284  -7.284   1.918  1.00  0.00    -0.354 N 
ATOM     31  N   UNL     1      24.424  -8.618  -0.438  1.00  0.00    -0.248 NA
ATOM     32  C   UNL     1      25.812 -10.248  -1.379  1.00  0.00     0.031 C 
ATOM     33  C   UNL     1      23.839  -8.048   3.929  1.00  0.00     0.029 A 
ATOM     34  C   UNL     1      24.037  -8.247   2.572  1.00  0.00     0.049 A 
ATOM     35  H   UNL     1      23.233  -7.175   0.941  1.00  0.00     0.167 HD
ATOM     36  C   UNL     1      24.995  -9.373   0.579  1.00  0.00     0.074 A 
ATOM     37  C   UNL     1      25.820 -10.379  -0.059  1.00  0.00     0.031 C 
ATOM     38  C   UNL     1      24.850  -9.243   1.921  1.00  0.00     0.037 A 
BRANCH  25  39
ATOM     39  C   UNL     1      21.157  -4.590   3.638  1.00  0.00     0.058 A 
ATOM     40  C   UNL     1      19.796  -4.681   3.972  1.00  0.00     0.135 A 
ATOM     41  C   UNL     1      21.966  -3.750   4.420  1.00  0.00     0.135 A 
ATOM     42  F   UNL     1      18.973  -5.458   3.250  1.00  0.00    -0.206 F 
ATOM     43  C   UNL     1      19.254  -3.947   5.022  1.00  0.00     0.059 A 
ATOM     44  C   UNL     1      21.450  -3.024   5.490  1.00  0.00     0.059 A 
ATOM     45  F   UNL     1      23.275  -3.627   4.146  1.00  0.00    -0.206 F 
ATOM     46  C   UNL     1      20.089  -3.117   5.773  1.00  0.00     0.060 A 
BRANCH  46  47
ATOM     47  S   UNL     1      19.371  -2.165   7.129  1.00  0.00     0.124 S 
ATOM     48  O   UNL     1      18.671  -1.109   6.403  1.00  0.00    -0.237 OA
ATOM     49  O   UNL     1      18.519  -3.149   7.789  1.00  0.00    -0.237 OA
ATOM     50  O   UNL     1      20.535  -1.734   7.896  1.00  0.00    -0.744 OA
ENDBRANCH  46  47
ENDBRANCH  25  39
BRANCH  26  51
ATOM     51  C   UNL     1      25.173  -9.440  -4.124  1.00  0.00     0.058 A 
ATOM     52  C   UNL     1      24.760 -10.741  -4.445  1.00  0.00     0.135 A 
ATOM     53  C   UNL     1      26.137  -8.837  -4.946  1.00  0.00     0.135 A 
ATOM     54  F   UNL     1      23.843 -11.360  -3.685  1.00  0.00    -0.206 F 
ATOM     55  C   UNL     1      25.289 -11.425  -5.534  1.00  0.00     0.059 A 
ATOM     56  C   UNL     1      26.662  -9.490  -6.056  1.00  0.00     0.059 A 
ATOM     57  F   UNL     1      26.551  -7.586  -4.691  1.00  0.00    -0.206 F 
ATOM     58  C   UNL     1      26.238 -10.788  -6.336  1.00  0.00     0.060 A 
BRANCH  58  59
ATOM     59  S   UNL     1      26.877 -11.658  -7.785  1.00  0.00     0.124 S 
ATOM     60  O   UNL     1      27.814 -12.593  -7.174  1.00  0.00    -0.237 OA
ATOM     61  O   UNL     1      25.666 -12.245  -8.351  1.00  0.00    -0.237 OA
ATOM     62  O   UNL     1      27.475 -10.588  -8.578  1.00  0.00    -0.744 OA
ENDBRANCH  58  59
ENDBRANCH  26  51
BRANCH  38  63
ATOM     63  C   UNL     1      25.577 -10.235   2.785  1.00  0.00     0.058 A 
ATOM     64  C   UNL     1      26.966 -10.171   2.970  1.00  0.00     0.135 A 
ATOM     65  C   UNL     1      24.870 -11.249   3.450  1.00  0.00     0.135 A 
ATOM     66  F   UNL     1      27.688  -9.224   2.350  1.00  0.00    -0.206 F 
ATOM     67  C   UNL     1      27.636 -11.098   3.762  1.00  0.00     0.059 A 
ATOM     68  C   UNL     1      25.516 -12.173   4.265  1.00  0.00     0.059 A 
ATOM     69  F   UNL     1      23.538 -11.347   3.312  1.00  0.00    -0.206 F 
ATOM     70  C   UNL     1      26.901 -12.099   4.402  1.00  0.00     0.060 A 
BRANCH  70  71
ATOM     71  S   UNL     1      27.775 -13.292   5.437  1.00  0.00     0.124 S 
ATOM     72  O   UNL     1      28.351 -14.183   4.434  1.00  0.00    -0.237 OA
ATOM     73  O   UNL     1      28.726 -12.450   6.157  1.00  0.00    -0.237 OA
ATOM     74  O   UNL     1      26.714 -13.869   6.256  1.00  0.00    -0.744 OA
ENDBRANCH  70  71
ENDBRANCH  38  63
ENDBRANCH  12  13
ENDBRANCH   5   7
ENDBRANCH   2   3
ENDBRANCH   1   2
BRANCH   1  75
ATOM     75  C   UNL     1      13.814  -1.734  -5.515  1.00  0.00     0.002 C 
BRANCH  75  76
ATOM     76  C   UNL     1      13.194  -2.574  -6.640  1.00  0.00     0.002 C 
BRANCH  76  77
ATOM     77  C   UNL     1      12.607  -3.925  -6.231  1.00  0.00     0.021 C 
BRANCH  77  78
ATOM     78  C   UNL     1      11.594  -3.872  -5.096  1.00  0.00     0.116 C 
BRANCH  78  79
ATOM     79  N   UNL     1      10.237  -3.596  -5.499  1.00  0.00    -0.351 N 
ATOM     80  C   UNL     1       9.072  -4.223  -5.174  1.00  0.00     0.279 C 
ATOM     81  H   UNL     1      10.137  -2.830  -6.109  1.00  0.00     0.163 HD
ATOM     82  O   UNL     1       8.036  -3.613  -5.473  1.00  0.00    -0.268 OA
BRANCH  80  83
ATOM     83  C   UNL     1       8.966  -5.617  -4.498  1.00  0.00     0.283 C 
ATOM     84  C   UNL     1       9.636  -6.750  -5.250  1.00  0.00     0.151 C 
ATOM     85  N   UNL     1       9.263  -5.634  -3.049  1.00  0.00    -0.322 N 
ATOM     86  S   UNL     1      11.053  -7.237  -4.255  1.00  0.00    -0.089 SA
ATOM     87  C   UNL     1      10.459  -6.420  -2.718  1.00  0.00     0.143 C 
ATOM     88  H   UNL     1       8.464  -6.035  -2.558  1.00  0.00     0.348 HD
ATOM     89  H   UNL     1       9.442  -4.671  -2.762  1.00  0.00     0.348 HD
ATOM     90  C   UNL     1      11.493  -5.505  -2.021  1.00  0.00     0.081 C 
ATOM     91  C   UNL     1      10.120  -7.545  -1.711  1.00  0.00     0.081 C 
ATOM     92  C   UNL     1      12.778  -6.228  -1.638  1.00  0.00     0.007 C 
ATOM     93  C   UNL     1      11.368  -8.317  -1.238  1.00  0.00     0.007 C 
ATOM     94  C   UNL     1      12.481  -7.406  -0.717  1.00  0.00     0.001 C 
ENDBRANCH  80  83
ENDBRANCH  78  79
ENDBRANCH  77  78
ENDBRANCH  76  77
ENDBRANCH  75  76
ENDBRANCH   1  75
TORSDOF 16
