REMARK SMILES Cc1cc(C)c(C#N)c(NC[C@H](CC(C)C)C(=O)NCCCCCCNC(=O)c2ccc(-c3c4nc(c(-c5c(F)cc(S(=O)(=O)[O-])cc5F)c5ccc([nH]5)c(-c5c(F)cc(S(=O)(=O)[O-])cc5F)c5nc(c(-c6c(F)cc(S(=O)(=O)[O-])cc6F)c6ccc3[nH]6)C=C5)C=C4)cc2)n1
REMARK SMILES IDX 22 1 21 2 20 3 19 4 17 5 18 6 12 8 11 9 10 10 9 12 1 13 2 14
REMARK SMILES IDX 3 15 95 16 4 17 5 18 6 19 7 20 8 21 13 22 14 23 15 24 16 25
REMARK SMILES IDX 23 26 24 27 25 28 26 29 27 30 28 32 29 33 30 34 94 35 31 36
REMARK SMILES IDX 93 37 32 38 33 39 34 40 87 41 35 42 92 43 86 44 88 45 36 46
REMARK SMILES IDX 91 47 85 48 84 49 37 51 71 52 50 53 70 54 51 55 54 56 69 57
REMARK SMILES IDX 89 58 52 59 53 60 68 62 90 63 55 64 38 65 39 66 48 67 40 68
REMARK SMILES IDX 41 69 47 70 49 71 42 72 43 73 44 74 45 75 46 76 72 77 73 78
REMARK SMILES IDX 82 79 74 80 75 81 81 82 83 83 76 84 77 85 78 86 79 87 80 88
REMARK SMILES IDX 56 89 57 90 66 91 58 92 59 93 65 94 67 95 60 96 61 97 62 98
REMARK SMILES IDX 63 99 64 100
REMARK H PARENT 19 7 10 11 26 31 88 50 54 61
REMARK Flexibility Score: inf
ROOT
ATOM      1  C   UNL     1       6.636   5.198   2.030  1.00  0.00     0.002 C 
ENDROOT
BRANCH   1   2
ATOM      2  C   UNL     1       5.291   4.591   1.649  1.00  0.00     0.021 C 
BRANCH   2   3
ATOM      3  C   UNL     1       4.647   5.183   0.392  1.00  0.00     0.116 C 
BRANCH   3   4
ATOM      4  N   UNL     1       4.725   4.275  -0.729  1.00  0.00    -0.356 N 
ATOM      5  C   UNL     1       3.772   3.621  -1.434  1.00  0.00     0.224 C 
ATOM      6  O   UNL     1       4.179   2.983  -2.416  1.00  0.00    -0.275 OA
ATOM      7  H   UNL     1       5.643   4.100  -1.039  1.00  0.00     0.163 HD
BRANCH   5   8
ATOM      8  C   UNL     1       2.274   3.612  -1.102  1.00  0.00     0.098 C 
BRANCH   8   9
ATOM      9  C   UNL     1       1.454   4.817  -1.590  1.00  0.00     0.128 C 
BRANCH   9  10
ATOM     10  N   UNL     1       1.875   6.138  -1.179  1.00  0.00    -0.368 N 
ATOM     11  H   UNL     1       2.421   6.177  -0.360  1.00  0.00     0.162 HD
BRANCH  10  12
ATOM     12  C   UNL     1       1.613   7.346  -1.779  1.00  0.00     0.144 A 
ATOM     13  C   UNL     1       1.800  10.734  -0.289  1.00  0.00     0.067 C 
ATOM     14  C   UNL     1       1.617   9.652  -1.314  1.00  0.00     0.040 A 
ATOM     15  C   UNL     1       1.283   9.974  -2.618  1.00  0.00     0.028 A 
ATOM     16  N   UNL     1       1.790   8.370  -0.904  1.00  0.00    -0.235 NA
ATOM     17  C   UNL     1       1.101   8.942  -3.538  1.00  0.00    -0.028 A 
ATOM     18  C   UNL     1       0.752   9.279  -4.965  1.00  0.00     0.046 C 
ATOM     19  C   UNL     1       1.253   7.603  -3.109  1.00  0.00     0.097 A 
BRANCH  19  20
ATOM     20  C   UNL     1       1.017   6.572  -4.072  1.00  0.00     0.103 C 
ATOM     21  N   UNL     1       0.786   5.781  -4.894  1.00  0.00    -0.192 NA
ENDBRANCH  19  20
ENDBRANCH  10  12
ENDBRANCH   9  10
ENDBRANCH   8   9
BRANCH   8  22
ATOM     22  C   UNL     1       1.782   2.803   0.122  1.00  0.00     0.018 C 
BRANCH  22  23
ATOM     23  C   UNL     1       2.162   3.202   1.548  1.00  0.00    -0.017 C 
ATOM     24  C   UNL     1       1.435   4.437   2.066  1.00  0.00     0.007 C 
ATOM     25  C   UNL     1       1.934   2.046   2.529  1.00  0.00     0.007 C 
ENDBRANCH  22  23
ENDBRANCH   8  22
ENDBRANCH   5   8
ENDBRANCH   3   4
ENDBRANCH   2   3
ENDBRANCH   1   2
BRANCH   1  26
ATOM     26  C   UNL     1       6.596   6.704   2.297  1.00  0.00     0.002 C 
BRANCH  26  27
ATOM     27  C   UNL     1       5.567   7.159   3.338  1.00  0.00     0.021 C 
BRANCH  27  28
ATOM     28  C   UNL     1       5.695   6.482   4.701  1.00  0.00     0.116 C 
BRANCH  28  29
ATOM     29  N   UNL     1       7.050   6.575   5.221  1.00  0.00    -0.352 N 
ATOM     30  C   UNL     1       7.534   7.261   6.303  1.00  0.00     0.251 C 
ATOM     31  H   UNL     1       7.725   6.066   4.716  1.00  0.00     0.163 HD
ATOM     32  O   UNL     1       8.740   7.464   6.404  1.00  0.00    -0.269 OA
BRANCH  30  33
ATOM     33  C   UNL     1       6.607   7.751   7.343  1.00  0.00     0.039 A 
ATOM     34  C   UNL     1       6.836   9.003   7.917  1.00  0.00     0.014 A 
ATOM     35  C   UNL     1       5.539   6.962   7.779  1.00  0.00     0.014 A 
ATOM     36  C   UNL     1       5.966   9.480   8.897  1.00  0.00     0.010 A 
ATOM     37  C   UNL     1       4.623   7.476   8.691  1.00  0.00     0.010 A 
ATOM     38  C   UNL     1       4.834   8.735   9.270  1.00  0.00    -0.014 A 
BRANCH  38  39
ATOM     39  C   UNL     1       3.864   9.268  10.259  1.00  0.00     0.031 A 
ATOM     40  C   UNL     1       3.637   8.562  11.567  1.00  0.00     0.074 A 
ATOM     41  C   UNL     1       3.157  10.374   9.954  1.00  0.00     0.049 A 
ATOM     42  N   UNL     1       2.844   8.889  12.555  1.00  0.00    -0.248 NA
ATOM     43  C   UNL     1       4.378   7.310  11.784  1.00  0.00     0.031 C 
ATOM     44  C   UNL     1       3.258  11.120   8.698  1.00  0.00     0.029 A 
ATOM     45  N   UNL     1       2.223  11.069  10.678  1.00  0.00    -0.354 N 
ATOM     46  C   UNL     1       2.984   7.882  13.504  1.00  0.00     0.074 A 
ATOM     47  C   UNL     1       3.885   6.900  12.943  1.00  0.00     0.031 C 
ATOM     48  C   UNL     1       2.462  12.198   8.762  1.00  0.00     0.029 A 
ATOM     49  C   UNL     1       1.757  12.194  10.039  1.00  0.00     0.049 A 
ATOM     50  H   UNL     1       1.915  10.789  11.571  1.00  0.00     0.167 HD
ATOM     51  C   UNL     1       2.429   7.796  14.739  1.00  0.00     0.037 A 
ATOM     52  C   UNL     1       0.866  13.120  10.440  1.00  0.00     0.037 A 
ATOM     53  C   UNL     1       1.528   8.781  15.282  1.00  0.00     0.049 A 
ATOM     54  C   UNL     1       0.237  12.987  11.799  1.00  0.00     0.074 A 
ATOM     55  C   UNL     1       0.952   8.821  16.539  1.00  0.00     0.029 A 
ATOM     56  N   UNL     1       1.055   9.891  14.594  1.00  0.00    -0.354 N 
ATOM     57  N   UNL     1       0.439  12.072  12.717  1.00  0.00    -0.248 NA
ATOM     58  C   UNL     1      -0.739  14.016  12.176  1.00  0.00     0.031 C 
ATOM     59  C   UNL     1       0.073   9.909  16.584  1.00  0.00     0.029 A 
ATOM     60  C   UNL     1       0.161  10.597  15.384  1.00  0.00     0.049 A 
ATOM     61  H   UNL     1       1.316  10.140  13.678  1.00  0.00     0.167 HD
ATOM     62  C   UNL     1      -0.361  12.433  13.796  1.00  0.00     0.074 A 
ATOM     63  C   UNL     1      -1.036  13.659  13.417  1.00  0.00     0.031 C 
ATOM     64  C   UNL     1      -0.518  11.810  14.992  1.00  0.00     0.037 A 
BRANCH  51  65
ATOM     65  C   UNL     1       2.762   6.578  15.565  1.00  0.00     0.058 A 
ATOM     66  C   UNL     1       4.065   6.321  16.026  1.00  0.00     0.135 A 
ATOM     67  C   UNL     1       1.763   5.646  15.893  1.00  0.00     0.135 A 
ATOM     68  F   UNL     1       5.065   7.170  15.740  1.00  0.00    -0.206 F 
ATOM     69  C   UNL     1       4.376   5.158  16.725  1.00  0.00     0.059 A 
ATOM     70  C   UNL     1       2.044   4.496  16.626  1.00  0.00     0.059 A 
ATOM     71  F   UNL     1       0.498   5.838  15.487  1.00  0.00    -0.206 F 
ATOM     72  C   UNL     1       3.359   4.248  17.014  1.00  0.00     0.060 A 
BRANCH  72  73
ATOM     73  S   UNL     1       3.786   2.724  17.881  1.00  0.00     0.124 S 
ATOM     74  O   UNL     1       4.529   2.002  16.852  1.00  0.00    -0.237 OA
ATOM     75  O   UNL     1       4.577   3.217  19.004  1.00  0.00    -0.237 OA
ATOM     76  O   UNL     1       2.489   2.156  18.233  1.00  0.00    -0.744 OA
ENDBRANCH  72  73
ENDBRANCH  51  65
BRANCH  52  77
ATOM     77  C   UNL     1       0.563  14.281   9.561  1.00  0.00     0.058 A 
ATOM     78  C   UNL     1       0.987  15.572   9.909  1.00  0.00     0.135 A 
ATOM     79  C   UNL     1      -0.116  14.123   8.343  1.00  0.00     0.135 A 
ATOM     80  F   UNL     1       1.634  15.777  11.067  1.00  0.00    -0.206 F 
ATOM     81  C   UNL     1       0.747  16.666   9.085  1.00  0.00     0.059 A 
ATOM     82  C   UNL     1      -0.343  15.196   7.488  1.00  0.00     0.059 A 
ATOM     83  F   UNL     1      -0.530  12.906   7.956  1.00  0.00    -0.206 F 
ATOM     84  C   UNL     1       0.090  16.465   7.869  1.00  0.00     0.060 A 
BRANCH  84  85
ATOM     85  S   UNL     1      -0.145  17.880   6.773  1.00  0.00     0.124 S 
ATOM     86  O   UNL     1      -1.119  18.672   7.514  1.00  0.00    -0.237 OA
ATOM     87  O   UNL     1       1.204  18.432   6.698  1.00  0.00    -0.237 OA
ATOM     88  O   UNL     1      -0.634  17.272   5.539  1.00  0.00    -0.744 OA
ENDBRANCH  84  85
ENDBRANCH  52  77
BRANCH  64  89
ATOM     89  C   UNL     1      -1.438  12.462  15.992  1.00  0.00     0.058 A 
ATOM     90  C   UNL     1      -2.826  12.537  15.791  1.00  0.00     0.135 A 
ATOM     91  C   UNL     1      -0.922  13.004  17.182  1.00  0.00     0.135 A 
ATOM     92  F   UNL     1      -3.374  12.041  14.670  1.00  0.00    -0.206 F 
ATOM     93  C   UNL     1      -3.663  13.162  16.711  1.00  0.00     0.059 A 
ATOM     94  C   UNL     1      -1.745  13.598  18.134  1.00  0.00     0.059 A 
ATOM     95  F   UNL     1       0.395  12.951  17.436  1.00  0.00    -0.206 F 
ATOM     96  C   UNL     1      -3.112  13.689  17.880  1.00  0.00     0.060 A 
BRANCH  96  97
ATOM     97  S   UNL     1      -4.211  14.489  19.068  1.00  0.00     0.124 S 
ATOM     98  O   UNL     1      -4.566  15.715  18.361  1.00  0.00    -0.237 OA
ATOM     99  O   UNL     1      -5.281  13.506  19.210  1.00  0.00    -0.237 OA
ATOM    100  O   UNL     1      -3.369  14.665  20.247  1.00  0.00    -0.744 OA
ENDBRANCH  96  97
ENDBRANCH  64  89
ENDBRANCH  38  39
ENDBRANCH  30  33
ENDBRANCH  28  29
ENDBRANCH  27  28
ENDBRANCH  26  27
ENDBRANCH   1  26
TORSDOF 22
