REMARK SMILES CCN(CCC(=O)NCCCCCCNC(=O)c1ccc(-c2c3nc(c(-c4c(F)cc(S(=O)(=O)[O-])cc4F)c4ccc([nH]4)c(-c4c(F)cc(S(=O)(=O)[O-])cc4F)c4nc(c(-c5c(F)cc(S(=O)(=O)[O-])cc5F)c5ccc2[nH]5)C=C4)C=C3)cc1)C(=O)C1(C)CCCC1
REMARK SMILES IDX 11 1 10 2 9 3 8 4 6 5 7 6 5 8 4 9 3 10 2 11 1 12 84 13 85 14
REMARK SMILES IDX 86 15 87 16 88 17 91 18 89 19 90 20 12 21 13 22 14 23 15 24
REMARK SMILES IDX 16 25 17 27 18 28 19 29 83 30 20 31 82 32 21 33 22 34 23 35
REMARK SMILES IDX 76 36 24 37 81 38 75 39 77 40 25 41 80 42 74 43 73 44 26 46
REMARK SMILES IDX 60 47 39 48 59 49 40 50 43 51 58 52 78 53 41 54 42 55 57 57
REMARK SMILES IDX 79 58 44 59 27 60 28 61 37 62 29 63 30 64 36 65 38 66 31 67
REMARK SMILES IDX 32 68 33 69 34 70 35 71 61 72 62 73 71 74 63 75 64 76 70 77
REMARK SMILES IDX 72 78 65 79 66 80 67 81 68 82 69 83 45 84 46 85 55 86 47 87
REMARK SMILES IDX 48 88 54 89 56 90 49 91 50 92 51 93 52 94 53 95
REMARK H PARENT 8 7 15 26 77 45 43 56
REMARK Flexibility Score: inf
ROOT
ATOM      1  C   UNL     1       4.740  -3.400  -1.691  1.00  0.00     0.002 C 
ENDROOT
BRANCH   1   2
ATOM      2  C   UNL     1       3.286  -3.149  -2.131  1.00  0.00     0.021 C 
BRANCH   2   3
ATOM      3  C   UNL     1       2.354  -4.368  -2.080  1.00  0.00     0.116 C 
BRANCH   3   4
ATOM      4  N   UNL     1       2.324  -5.069  -0.809  1.00  0.00    -0.356 N 
ATOM      5  C   UNL     1       1.326  -5.230   0.104  1.00  0.00     0.221 C 
ATOM      6  O   UNL     1       1.449  -6.107   0.963  1.00  0.00    -0.275 OA
ATOM      7  H   UNL     1       3.173  -5.504  -0.564  1.00  0.00     0.163 HD
BRANCH   5   8
ATOM      8  C   UNL     1       0.081  -4.375   0.054  1.00  0.00     0.121 C 
BRANCH   8   9
ATOM      9  C   UNL     1       0.041  -3.361   1.199  1.00  0.00     0.129 C 
BRANCH   9  10
ATOM     10  N   UNL     1       0.875  -2.163   0.982  1.00  0.00    -0.342 N 
BRANCH  10  11
ATOM     11  C   UNL     1       0.326  -1.177   0.052  1.00  0.00     0.116 C 
ATOM     12  C   UNL     1      -0.368  -0.006   0.726  1.00  0.00     0.027 C 
ENDBRANCH  10  11
BRANCH  10  13
ATOM     13  C   UNL     1       2.153  -2.185   1.532  1.00  0.00     0.228 C 
ATOM     14  O   UNL     1       2.585  -3.266   1.958  1.00  0.00    -0.274 OA
BRANCH  13  15
ATOM     15  C   UNL     1       2.977  -0.905   1.875  1.00  0.00     0.047 C 
ATOM     16  C   UNL     1       2.432  -0.430   3.235  1.00  0.00     0.022 C 
ATOM     17  C   UNL     1       4.483  -1.313   2.046  1.00  0.00     0.016 C 
ATOM     18  C   UNL     1       3.056   0.289   0.917  1.00  0.00     0.016 C 
ATOM     19  C   UNL     1       5.294  -0.517   1.030  1.00  0.00     0.001 C 
ATOM     20  C   UNL     1       4.273   0.038   0.064  1.00  0.00     0.001 C 
ENDBRANCH  13  15
ENDBRANCH  10  13
ENDBRANCH   9  10
ENDBRANCH   8   9
ENDBRANCH   5   8
ENDBRANCH   3   4
ENDBRANCH   2   3
ENDBRANCH   1   2
BRANCH   1  21
ATOM     21  C   UNL     1       5.867  -3.057  -2.688  1.00  0.00     0.002 C 
BRANCH  21  22
ATOM     22  C   UNL     1       5.839  -1.742  -3.479  1.00  0.00     0.021 C 
BRANCH  22  23
ATOM     23  C   UNL     1       6.314  -0.462  -2.794  1.00  0.00     0.116 C 
BRANCH  23  24
ATOM     24  N   UNL     1       7.705  -0.431  -2.377  1.00  0.00    -0.352 N 
ATOM     25  C   UNL     1       8.542   0.666  -2.318  1.00  0.00     0.251 C 
ATOM     26  H   UNL     1       8.097  -1.292  -2.105  1.00  0.00     0.163 HD
ATOM     27  O   UNL     1       9.682   0.563  -1.873  1.00  0.00    -0.269 OA
BRANCH  25  28
ATOM     28  C   UNL     1       8.080   1.962  -2.866  1.00  0.00     0.039 A 
ATOM     29  C   UNL     1       8.732   2.470  -3.993  1.00  0.00     0.014 A 
ATOM     30  C   UNL     1       6.971   2.628  -2.334  1.00  0.00     0.014 A 
ATOM     31  C   UNL     1       8.207   3.583  -4.654  1.00  0.00     0.010 A 
ATOM     32  C   UNL     1       6.428   3.723  -3.017  1.00  0.00     0.010 A 
ATOM     33  C   UNL     1       7.018   4.184  -4.205  1.00  0.00    -0.014 A 
BRANCH  33  34
ATOM     34  C   UNL     1       6.327   5.190  -5.058  1.00  0.00     0.031 A 
ATOM     35  C   UNL     1       6.242   6.636  -4.668  1.00  0.00     0.074 A 
ATOM     36  C   UNL     1       5.723   4.772  -6.189  1.00  0.00     0.049 A 
ATOM     37  N   UNL     1       5.700   7.632  -5.322  1.00  0.00    -0.248 NA
ATOM     38  C   UNL     1       6.826   7.009  -3.373  1.00  0.00     0.031 C 
ATOM     39  C   UNL     1       5.677   3.384  -6.654  1.00  0.00     0.029 A 
ATOM     40  N   UNL     1       5.025   5.466  -7.147  1.00  0.00    -0.354 N 
ATOM     41  C   UNL     1       5.881   8.755  -4.527  1.00  0.00     0.074 A 
ATOM     42  C   UNL     1       6.545   8.305  -3.319  1.00  0.00     0.031 C 
ATOM     43  C   UNL     1       4.995   3.329  -7.808  1.00  0.00     0.029 A 
ATOM     44  C   UNL     1       4.533   4.671  -8.155  1.00  0.00     0.049 A 
ATOM     45  H   UNL     1       4.889   6.441  -7.115  1.00  0.00     0.167 HD
ATOM     46  C   UNL     1       5.542  10.043  -4.785  1.00  0.00     0.037 A 
ATOM     47  C   UNL     1       3.785   4.976  -9.234  1.00  0.00     0.037 A 
ATOM     48  C   UNL     1       4.876  10.488  -5.984  1.00  0.00     0.049 A 
ATOM     49  C   UNL     1       3.402   6.404  -9.495  1.00  0.00     0.074 A 
ATOM     50  C   UNL     1       4.573  11.782  -6.370  1.00  0.00     0.029 A 
ATOM     51  N   UNL     1       4.383   9.653  -6.977  1.00  0.00    -0.354 N 
ATOM     52  N   UNL     1       3.683   7.470  -8.786  1.00  0.00    -0.248 NA
ATOM     53  C   UNL     1       2.605   6.673 -10.699  1.00  0.00     0.031 C 
ATOM     54  C   UNL     1       3.850  11.726  -7.569  1.00  0.00     0.029 A 
ATOM     55  C   UNL     1       3.738  10.400  -7.952  1.00  0.00     0.049 A 
ATOM     56  H   UNL     1       4.477   8.673  -6.988  1.00  0.00     0.167 HD
ATOM     57  C   UNL     1       3.095   8.537  -9.455  1.00  0.00     0.074 A 
ATOM     58  C   UNL     1       2.463   7.991 -10.639  1.00  0.00     0.031 C 
ATOM     59  C   UNL     1       3.082   9.850  -9.114  1.00  0.00     0.037 A 
BRANCH  46  60
ATOM     60  C   UNL     1       5.881  11.065  -3.736  1.00  0.00     0.058 A 
ATOM     61  C   UNL     1       7.208  11.453  -3.487  1.00  0.00     0.135 A 
ATOM     62  C   UNL     1       4.869  11.668  -2.972  1.00  0.00     0.135 A 
ATOM     63  F   UNL     1       8.214  10.904  -4.187  1.00  0.00    -0.206 F 
ATOM     64  C   UNL     1       7.524  12.363  -2.484  1.00  0.00     0.059 A 
ATOM     65  C   UNL     1       5.160  12.600  -1.980  1.00  0.00     0.059 A 
ATOM     66  F   UNL     1       3.583  11.342  -3.175  1.00  0.00    -0.206 F 
ATOM     67  C   UNL     1       6.493  12.922  -1.727  1.00  0.00     0.060 A 
BRANCH  67  68
ATOM     68  S   UNL     1       6.920  14.063  -0.395  1.00  0.00     0.124 S 
ATOM     69  O   UNL     1       7.409  13.143   0.627  1.00  0.00    -0.237 OA
ATOM     70  O   UNL     1       7.930  14.912  -1.018  1.00  0.00    -0.237 OA
ATOM     71  O   UNL     1       5.653  14.721  -0.093  1.00  0.00    -0.744 OA
ENDBRANCH  67  68
ENDBRANCH  46  60
BRANCH  47  72
ATOM     72  C   UNL     1       3.354   3.883 -10.144  1.00  0.00     0.058 A 
ATOM     73  C   UNL     1       3.958   3.699 -11.395  1.00  0.00     0.135 A 
ATOM     74  C   UNL     1       2.380   2.956  -9.740  1.00  0.00     0.135 A 
ATOM     75  F   UNL     1       4.886   4.566 -11.826  1.00  0.00    -0.206 F 
ATOM     76  C   UNL     1       3.623   2.623 -12.211  1.00  0.00     0.059 A 
ATOM     77  C   UNL     1       2.042   1.862 -10.530  1.00  0.00     0.059 A 
ATOM     78  F   UNL     1       1.785   3.084  -8.544  1.00  0.00    -0.206 F 
ATOM     79  C   UNL     1       2.672   1.703 -11.763  1.00  0.00     0.060 A 
BRANCH  79  80
ATOM     80  S   UNL     1       2.326   0.247 -12.775  1.00  0.00     0.124 S 
ATOM     81  O   UNL     1       1.511   0.817 -13.841  1.00  0.00    -0.237 OA
ATOM     82  O   UNL     1       3.666  -0.187 -13.156  1.00  0.00    -0.237 OA
ATOM     83  O   UNL     1       1.628  -0.643 -11.851  1.00  0.00    -0.744 OA
ENDBRANCH  79  80
ENDBRANCH  47  72
BRANCH  59  84
ATOM     84  C   UNL     1       2.335  10.793 -10.016  1.00  0.00     0.058 A 
ATOM     85  C   UNL     1       0.932  10.833 -10.026  1.00  0.00     0.135 A 
ATOM     86  C   UNL     1       3.022  11.706 -10.833  1.00  0.00     0.135 A 
ATOM     87  F   UNL     1       0.227   9.974  -9.273  1.00  0.00    -0.206 F 
ATOM     88  C   UNL     1       0.235  11.739 -10.820  1.00  0.00     0.059 A 
ATOM     89  C   UNL     1       2.345  12.636 -11.619  1.00  0.00     0.059 A 
ATOM     90  F   UNL     1       4.364  11.713 -10.859  1.00  0.00    -0.206 F 
ATOM     91  C   UNL     1       0.951  12.640 -11.610  1.00  0.00     0.060 A 
BRANCH  91  92
ATOM     92  S   UNL     1       0.035  13.845 -12.596  1.00  0.00     0.124 S 
ATOM     93  O   UNL     1      -0.482  13.010 -13.675  1.00  0.00    -0.237 OA
ATOM     94  O   UNL     1      -0.958  14.337 -11.645  1.00  0.00    -0.237 OA
ATOM     95  O   UNL     1       1.056  14.813 -12.984  1.00  0.00    -0.744 OA
ENDBRANCH  91  92
ENDBRANCH  59  84
ENDBRANCH  33  34
ENDBRANCH  25  28
ENDBRANCH  23  24
ENDBRANCH  22  23
ENDBRANCH  21  22
ENDBRANCH   1  21
TORSDOF 21
