REMARK SMILES O=C(NCCCCCCNC(=O)c1cccc(Nc2ccc([N+](=O)[O-])cc2)c1)c1ccc(-c2c3nc(c(-c4c(F)cc(S(=O)(=O)[O-])cc4F)c4ccc([nH]4)c(-c4c(F)cc(S(=O)(=O)[O-])cc4F)c4nc(c(-c5c(F)cc(S(=O)(=O)[O-])cc5F)c5ccc2[nH]5)C=C4)C=C3)cc1
REMARK SMILES IDX 6 1 5 2 4 3 3 4 1 5 2 6 29 8 30 9 94 10 31 11 93 12 32 13
REMARK SMILES IDX 33 14 34 15 87 16 35 17 92 18 86 19 88 20 36 21 91 22 85 23
REMARK SMILES IDX 84 24 37 26 71 27 50 28 70 29 51 30 54 31 69 32 89 33 52 34
REMARK SMILES IDX 53 35 68 37 90 38 55 39 38 40 39 41 48 42 40 43 41 44 47 45
REMARK SMILES IDX 49 46 42 47 43 48 44 49 45 50 46 51 72 52 73 53 82 54 74 55
REMARK SMILES IDX 75 56 81 57 83 58 76 59 77 60 78 61 79 62 80 63 56 64 57 65
REMARK SMILES IDX 66 66 58 67 59 68 65 69 67 70 60 71 61 72 62 73 63 74 64 75
REMARK SMILES IDX 7 76 8 77 9 78 10 79 11 80 12 82 13 83 14 84 28 85 15 86
REMARK SMILES IDX 17 87 16 88 18 89 19 91 20 92 27 93 21 94 26 95 22 96 23 97
REMARK SMILES IDX 24 98 25 99
REMARK H PARENT 3 7 88 25 54 36 10 81 18 90
REMARK Flexibility Score: inf
ROOT
ATOM      1  C   UNL     1       4.194   3.657  -1.592  1.00  0.00     0.002 C 
ENDROOT
BRANCH   1   2
ATOM      2  C   UNL     1       4.662   2.208  -1.722  1.00  0.00     0.021 C 
BRANCH   2   3
ATOM      3  C   UNL     1       4.419   1.337  -0.496  1.00  0.00     0.116 C 
BRANCH   3   4
ATOM      4  N   UNL     1       3.007   1.166  -0.202  1.00  0.00    -0.352 N 
ATOM      5  O   UNL     1       1.073   0.040   0.075  1.00  0.00    -0.269 OA
ATOM      6  C   UNL     1       2.298   0.005  -0.009  1.00  0.00     0.251 C 
ATOM      7  H   UNL     1       2.485   1.998  -0.132  1.00  0.00     0.163 HD
BRANCH   6   8
ATOM      8  C   UNL     1       3.013  -1.288   0.074  1.00  0.00     0.039 A 
ATOM      9  C   UNL     1       4.169  -1.417   0.849  1.00  0.00     0.014 A 
ATOM     10  C   UNL     1       2.514  -2.389  -0.628  1.00  0.00     0.014 A 
ATOM     11  C   UNL     1       4.892  -2.604   0.821  1.00  0.00     0.010 A 
ATOM     12  C   UNL     1       3.200  -3.607  -0.590  1.00  0.00     0.010 A 
ATOM     13  C   UNL     1       4.408  -3.718   0.115  1.00  0.00    -0.014 A 
BRANCH  13  14
ATOM     14  C   UNL     1       5.142  -5.006   0.195  1.00  0.00     0.031 A 
ATOM     15  C   UNL     1       5.789  -5.613  -1.019  1.00  0.00     0.074 A 
ATOM     16  C   UNL     1       5.234  -5.620   1.391  1.00  0.00     0.049 A 
ATOM     17  N   UNL     1       6.474  -6.724  -1.116  1.00  0.00    -0.248 NA
ATOM     18  C   UNL     1       5.646  -4.885  -2.290  1.00  0.00     0.031 C 
ATOM     19  C   UNL     1       4.629  -5.132   2.634  1.00  0.00     0.029 A 
ATOM     20  N   UNL     1       5.874  -6.773   1.765  1.00  0.00    -0.354 N 
ATOM     21  C   UNL     1       6.830  -6.840  -2.454  1.00  0.00     0.074 A 
ATOM     22  C   UNL     1       6.266  -5.696  -3.139  1.00  0.00     0.031 C 
ATOM     23  C   UNL     1       4.960  -5.956   3.638  1.00  0.00     0.029 A 
ATOM     24  C   UNL     1       5.748  -7.060   3.103  1.00  0.00     0.049 A 
ATOM     25  H   UNL     1       6.375  -7.340   1.136  1.00  0.00     0.167 HD
ATOM     26  C   UNL     1       7.566  -7.809  -3.052  1.00  0.00     0.037 A 
ATOM     27  C   UNL     1       6.201  -8.105   3.821  1.00  0.00     0.037 A 
ATOM     28  C   UNL     1       8.132  -8.939  -2.359  1.00  0.00     0.049 A 
ATOM     29  C   UNL     1       7.000  -9.171   3.131  1.00  0.00     0.074 A 
ATOM     30  C   UNL     1       8.921  -9.956  -2.870  1.00  0.00     0.029 A 
ATOM     31  N   UNL     1       7.968  -9.206  -1.007  1.00  0.00    -0.354 N 
ATOM     32  N   UNL     1       7.354  -9.246   1.870  1.00  0.00    -0.248 NA
ATOM     33  C   UNL     1       7.459 -10.295   3.957  1.00  0.00     0.031 C 
ATOM     34  C   UNL     1       9.198 -10.858  -1.837  1.00  0.00     0.029 A 
ATOM     35  C   UNL     1       8.622 -10.380  -0.671  1.00  0.00     0.049 A 
ATOM     36  H   UNL     1       7.460  -8.643  -0.378  1.00  0.00     0.167 HD
ATOM     37  C   UNL     1       8.090 -10.419   1.753  1.00  0.00     0.074 A 
ATOM     38  C   UNL     1       8.144 -11.011   3.075  1.00  0.00     0.031 C 
ATOM     39  C   UNL     1       8.666 -10.957   0.650  1.00  0.00     0.037 A 
BRANCH  26  40
ATOM     40  C   UNL     1       7.792  -7.703  -4.536  1.00  0.00     0.058 A 
ATOM     41  C   UNL     1       8.665  -6.749  -5.083  1.00  0.00     0.135 A 
ATOM     42  C   UNL     1       7.166  -8.598  -5.420  1.00  0.00     0.135 A 
ATOM     43  F   UNL     1       9.280  -5.860  -4.287  1.00  0.00    -0.206 F 
ATOM     44  C   UNL     1       8.890  -6.670  -6.455  1.00  0.00     0.059 A 
ATOM     45  C   UNL     1       7.394  -8.553  -6.793  1.00  0.00     0.059 A 
ATOM     46  F   UNL     1       6.323  -9.532  -4.950  1.00  0.00    -0.206 F 
ATOM     47  C   UNL     1       8.248  -7.575  -7.302  1.00  0.00     0.060 A 
BRANCH  47  48
ATOM     48  S   UNL     1       8.550  -7.458  -9.078  1.00  0.00     0.124 S 
ATOM     49  O   UNL     1       7.787  -6.262  -9.424  1.00  0.00    -0.237 OA
ATOM     50  O   UNL     1      10.001  -7.322  -9.141  1.00  0.00    -0.237 OA
ATOM     51  O   UNL     1       8.017  -8.714  -9.598  1.00  0.00    -0.744 OA
ENDBRANCH  47  48
ENDBRANCH  26  40
BRANCH  27  52
ATOM     52  C   UNL     1       5.899  -8.183   5.274  1.00  0.00     0.058 A 
ATOM     53  C   UNL     1       6.904  -7.991   6.232  1.00  0.00     0.135 A 
ATOM     54  C   UNL     1       4.591  -8.412   5.730  1.00  0.00     0.135 A 
ATOM     55  F   UNL     1       8.169  -7.773   5.844  1.00  0.00    -0.206 F 
ATOM     56  C   UNL     1       6.625  -8.032   7.595  1.00  0.00     0.059 A 
ATOM     57  C   UNL     1       4.284  -8.430   7.086  1.00  0.00     0.059 A 
ATOM     58  F   UNL     1       3.592  -8.582   4.850  1.00  0.00    -0.206 F 
ATOM     59  C   UNL     1       5.310  -8.248   8.011  1.00  0.00     0.060 A 
BRANCH  59  60
ATOM     60  S   UNL     1       4.947  -8.239   9.780  1.00  0.00     0.124 S 
ATOM     61  O   UNL     1       5.462  -9.539  10.191  1.00  0.00    -0.237 OA
ATOM     62  O   UNL     1       5.700  -7.077  10.243  1.00  0.00    -0.237 OA
ATOM     63  O   UNL     1       3.495  -8.090   9.821  1.00  0.00    -0.744 OA
ENDBRANCH  59  60
ENDBRANCH  27  52
BRANCH  39  64
ATOM     64  C   UNL     1       9.425 -12.240   0.833  1.00  0.00     0.058 A 
ATOM     65  C   UNL     1       8.766 -13.463   1.032  1.00  0.00     0.135 A 
ATOM     66  C   UNL     1      10.828 -12.251   0.771  1.00  0.00     0.135 A 
ATOM     67  F   UNL     1       7.426 -13.504   1.107  1.00  0.00    -0.206 F 
ATOM     68  C   UNL     1       9.472 -14.651   1.187  1.00  0.00     0.059 A 
ATOM     69  C   UNL     1      11.553 -13.431   0.899  1.00  0.00     0.059 A 
ATOM     70  F   UNL     1      11.505 -11.109   0.575  1.00  0.00    -0.206 F 
ATOM     71  C   UNL     1      10.867 -14.624   1.119  1.00  0.00     0.060 A 
BRANCH  71  72
ATOM     72  S   UNL     1      11.773 -16.176   1.293  1.00  0.00     0.124 S 
ATOM     73  O   UNL     1      11.683 -16.409   2.731  1.00  0.00    -0.237 OA
ATOM     74  O   UNL     1      11.000 -17.087   0.454  1.00  0.00    -0.237 OA
ATOM     75  O   UNL     1      13.104 -15.849   0.791  1.00  0.00    -0.744 OA
ENDBRANCH  71  72
ENDBRANCH  39  64
ENDBRANCH  13  14
ENDBRANCH   6   8
ENDBRANCH   3   4
ENDBRANCH   2   3
ENDBRANCH   1   2
BRANCH   1  76
ATOM     76  C   UNL     1       4.747   4.425  -0.388  1.00  0.00     0.002 C 
BRANCH  76  77
ATOM     77  C   UNL     1       6.272   4.424  -0.242  1.00  0.00     0.021 C 
BRANCH  77  78
ATOM     78  C   UNL     1       7.045   4.910  -1.466  1.00  0.00     0.116 C 
BRANCH  78  79
ATOM     79  N   UNL     1       6.713   6.283  -1.807  1.00  0.00    -0.352 N 
ATOM     80  C   UNL     1       7.541   7.365  -1.947  1.00  0.00     0.251 C 
ATOM     81  H   UNL     1       5.756   6.461  -1.958  1.00  0.00     0.163 HD
ATOM     82  O   UNL     1       7.074   8.495  -2.058  1.00  0.00    -0.269 OA
BRANCH  80  83
ATOM     83  C   UNL     1       9.005   7.176  -1.961  1.00  0.00     0.041 A 
ATOM     84  C   UNL     1       9.789   7.972  -1.126  1.00  0.00     0.014 A 
ATOM     85  C   UNL     1       9.601   6.256  -2.834  1.00  0.00     0.039 A 
ATOM     86  C   UNL     1      11.170   7.815  -1.134  1.00  0.00     0.003 A 
ATOM     87  C   UNL     1      10.990   6.090  -2.856  1.00  0.00     0.039 A 
ATOM     88  C   UNL     1      11.761   6.875  -1.986  1.00  0.00     0.026 A 
BRANCH  87  89
ATOM     89  N   UNL     1      11.549   5.135  -3.725  1.00  0.00    -0.356 N 
ATOM     90  H   UNL     1      10.917   4.745  -4.372  1.00  0.00     0.167 HD
BRANCH  89  91
ATOM     91  C   UNL     1      12.864   4.650  -3.819  1.00  0.00     0.039 A 
ATOM     92  C   UNL     1      13.482   4.608  -5.076  1.00  0.00     0.033 A 
ATOM     93  C   UNL     1      13.614   4.304  -2.687  1.00  0.00     0.033 A 
ATOM     94  C   UNL     1      14.832   4.268  -5.203  1.00  0.00     0.088 A 
ATOM     95  C   UNL     1      14.963   3.951  -2.798  1.00  0.00     0.088 A 
ATOM     96  C   UNL     1      15.572   3.955  -4.057  1.00  0.00     0.269 A 
BRANCH  96  97
ATOM     97  N   UNL     1      17.007   3.670  -4.174  1.00  0.00     0.062 N 
ATOM     98  O   UNL     1      17.516   3.726  -5.303  1.00  0.00    -0.258 OA
ATOM     99  O   UNL     1      17.633   3.418  -3.134  1.00  0.00    -0.258 OA
ENDBRANCH  96  97
ENDBRANCH  89  91
ENDBRANCH  87  89
ENDBRANCH  80  83
ENDBRANCH  78  79
ENDBRANCH  77  78
ENDBRANCH  76  77
ENDBRANCH   1  76
TORSDOF 19
