REMARK SMILES Cc1cc(Nc2ccc(C(=O)NCCCCCCNC(=O)c3ccc(-c4c5nc(c(-c6c(F)cc(S(=O)(=O)[O-])cc6F)c6ccc([nH]6)c(-c6c(F)cc(S(=O)(=O)[O-])cc6F)c6nc(c(-c7c(F)cc(S(=O)(=O)[O-])cc7F)c7ccc4[nH]7)C=C6)C=C5)cc3)cc2)nc(C(C)C)n1
REMARK SMILES IDX 15 1 14 2 13 3 12 4 10 5 11 6 9 8 6 9 7 10 89 11 8 12 88 13
REMARK SMILES IDX 5 14 4 16 1 17 2 18 3 19 95 20 91 21 90 22 92 23 93 24 94 25
REMARK SMILES IDX 16 26 17 27 18 28 19 29 20 30 21 32 22 33 23 34 87 35 24 36
REMARK SMILES IDX 86 37 25 38 26 39 27 40 80 41 28 42 85 43 79 44 81 45 29 46
REMARK SMILES IDX 84 47 78 48 77 49 30 51 64 52 43 53 63 54 44 55 47 56 62 57
REMARK SMILES IDX 82 58 45 59 46 60 61 62 83 63 48 64 31 65 32 66 41 67 33 68
REMARK SMILES IDX 34 69 40 70 42 71 35 72 36 73 37 74 38 75 39 76 65 77 66 78
REMARK SMILES IDX 75 79 67 80 68 81 74 82 76 83 69 84 70 85 71 86 72 87 73 88
REMARK SMILES IDX 49 89 50 90 59 91 51 92 52 93 58 94 60 95 53 96 54 97 55 98
REMARK SMILES IDX 56 99 57 100
REMARK H PARENT 12 7 5 15 19 31 81 50 47 61
REMARK Flexibility Score: inf
ROOT
ATOM      1  C   UNL     1       9.577  -0.891   3.731  1.00  0.00     0.002 C 
ENDROOT
BRANCH   1   2
ATOM      2  C   UNL     1       8.094  -1.003   3.351  1.00  0.00     0.021 C 
BRANCH   2   3
ATOM      3  C   UNL     1       7.793  -0.498   1.938  1.00  0.00     0.116 C 
BRANCH   3   4
ATOM      4  N   UNL     1       8.203  -1.492   0.962  1.00  0.00    -0.352 N 
ATOM      5  C   UNL     1       7.497  -2.380   0.192  1.00  0.00     0.251 C 
ATOM      6  O   UNL     1       8.132  -3.127  -0.554  1.00  0.00    -0.269 OA
ATOM      7  H   UNL     1       9.177  -1.538   0.827  1.00  0.00     0.163 HD
BRANCH   5   8
ATOM      8  C   UNL     1       6.010  -2.427   0.164  1.00  0.00     0.039 A 
ATOM      9  C   UNL     1       3.210  -2.357  -0.140  1.00  0.00     0.040 A 
ATOM     10  C   UNL     1       4.020  -2.772  -1.197  1.00  0.00     0.027 A 
ATOM     11  C   UNL     1       3.801  -2.101   1.102  1.00  0.00     0.027 A 
ATOM     12  C   UNL     1       5.410  -2.784  -1.053  1.00  0.00     0.016 A 
ATOM     13  C   UNL     1       5.189  -2.159   1.261  1.00  0.00     0.016 A 
BRANCH   9  14
ATOM     14  N   UNL     1       1.815  -2.313  -0.298  1.00  0.00    -0.340 N 
ATOM     15  H   UNL     1       1.354  -3.152  -0.529  1.00  0.00     0.168 HD
BRANCH  14  16
ATOM     16  C   UNL     1       1.028  -1.153  -0.149  1.00  0.00     0.134 A 
ATOM     17  C   UNL     1      -2.578  -0.133  -0.001  1.00  0.00     0.067 C 
ATOM     18  C   UNL     1      -1.081  -0.107  -0.044  1.00  0.00     0.043 A 
ATOM     19  C   UNL     1      -0.348  -1.272  -0.145  1.00  0.00     0.070 A 
ATOM     20  N   UNL     1      -0.501   1.106   0.002  1.00  0.00    -0.238 NA
ATOM     21  C   UNL     1       0.843   1.141  -0.036  1.00  0.00     0.133 A 
ATOM     22  N   UNL     1       1.626   0.051  -0.106  1.00  0.00    -0.216 NA
BRANCH  21  23
ATOM     23  C   UNL     1       1.530   2.488  -0.056  1.00  0.00     0.051 C 
ATOM     24  C   UNL     1       1.177   3.254  -1.331  1.00  0.00     0.016 C 
ATOM     25  C   UNL     1       1.187   3.305   1.189  1.00  0.00     0.016 C 
ENDBRANCH  21  23
ENDBRANCH  14  16
ENDBRANCH   9  14
ENDBRANCH   5   8
ENDBRANCH   3   4
ENDBRANCH   2   3
ENDBRANCH   1   2
BRANCH   1  26
ATOM     26  C   UNL     1      10.109   0.544   3.832  1.00  0.00     0.002 C 
BRANCH  26  27
ATOM     27  C   UNL     1       9.352   1.449   4.809  1.00  0.00     0.021 C 
BRANCH  27  28
ATOM     28  C   UNL     1       9.358   0.965   6.257  1.00  0.00     0.116 C 
BRANCH  28  29
ATOM     29  N   UNL     1      10.700   0.957   6.817  1.00  0.00    -0.352 N 
ATOM     30  C   UNL     1      11.171   1.554   7.959  1.00  0.00     0.251 C 
ATOM     31  H   UNL     1      11.368   0.449   6.301  1.00  0.00     0.163 HD
ATOM     32  O   UNL     1      12.380   1.627   8.155  1.00  0.00    -0.269 OA
BRANCH  30  33
ATOM     33  C   UNL     1      10.224   2.116   8.947  1.00  0.00     0.039 A 
ATOM     34  C   UNL     1      10.508   3.357   9.524  1.00  0.00     0.014 A 
ATOM     35  C   UNL     1       9.076   1.413   9.325  1.00  0.00     0.014 A 
ATOM     36  C   UNL     1       9.618   3.912  10.446  1.00  0.00     0.010 A 
ATOM     37  C   UNL     1       8.156   1.998  10.192  1.00  0.00     0.010 A 
ATOM     38  C   UNL     1       8.422   3.249  10.768  1.00  0.00    -0.014 A 
BRANCH  38  39
ATOM     39  C   UNL     1       7.443   3.855  11.706  1.00  0.00     0.031 A 
ATOM     40  C   UNL     1       7.153   3.206  13.032  1.00  0.00     0.074 A 
ATOM     41  C   UNL     1       6.777   4.968  11.339  1.00  0.00     0.049 A 
ATOM     42  N   UNL     1       6.330   3.586  13.975  1.00  0.00    -0.248 NA
ATOM     43  C   UNL     1       7.863   1.952  13.325  1.00  0.00     0.031 C 
ATOM     44  C   UNL     1       6.933   5.661  10.059  1.00  0.00     0.029 A 
ATOM     45  N   UNL     1       5.839   5.712  12.008  1.00  0.00    -0.354 N 
ATOM     46  C   UNL     1       6.409   2.612  14.964  1.00  0.00     0.074 A 
ATOM     47  C   UNL     1       7.323   1.598  14.482  1.00  0.00     0.031 C 
ATOM     48  C   UNL     1       6.150   6.751  10.052  1.00  0.00     0.029 A 
ATOM     49  C   UNL     1       5.414   6.817  11.310  1.00  0.00     0.049 A 
ATOM     50  H   UNL     1       5.503   5.477  12.903  1.00  0.00     0.167 HD
ATOM     51  C   UNL     1       5.793   2.575  16.171  1.00  0.00     0.037 A 
ATOM     52  C   UNL     1       4.537   7.781  11.651  1.00  0.00     0.037 A 
ATOM     53  C   UNL     1       4.903   3.599  16.653  1.00  0.00     0.049 A 
ATOM     54  C   UNL     1       3.872   7.725  12.998  1.00  0.00     0.074 A 
ATOM     55  C   UNL     1       4.289   3.697  17.889  1.00  0.00     0.029 A 
ATOM     56  N   UNL     1       4.493   4.702  15.917  1.00  0.00    -0.354 N 
ATOM     57  N   UNL     1       4.016   6.837  13.953  1.00  0.00    -0.248 NA
ATOM     58  C   UNL     1       2.929   8.805  13.315  1.00  0.00     0.031 C 
ATOM     59  C   UNL     1       3.473   4.835  17.885  1.00  0.00     0.029 A 
ATOM     60  C   UNL     1       3.613   5.471  16.662  1.00  0.00     0.049 A 
ATOM     61  H   UNL     1       4.785   4.908  14.999  1.00  0.00     0.167 HD
ATOM     62  C   UNL     1       3.200   7.264  14.994  1.00  0.00     0.074 A 
ATOM     63  C   UNL     1       2.575   8.496  14.555  1.00  0.00     0.031 C 
ATOM     64  C   UNL     1       2.991   6.690  16.206  1.00  0.00     0.037 A 
BRANCH  51  65
ATOM     65  C   UNL     1       6.059   1.377  17.043  1.00  0.00     0.058 A 
ATOM     66  C   UNL     1       7.313   1.156  17.636  1.00  0.00     0.135 A 
ATOM     67  C   UNL     1       5.048   0.432  17.284  1.00  0.00     0.135 A 
ATOM     68  F   UNL     1       8.320   2.020  17.431  1.00  0.00    -0.206 F 
ATOM     69  C   UNL     1       7.572   0.016  18.391  1.00  0.00     0.059 A 
ATOM     70  C   UNL     1       5.276  -0.701  18.061  1.00  0.00     0.059 A 
ATOM     71  F   UNL     1       3.829   0.595  16.747  1.00  0.00    -0.206 F 
ATOM     72  C   UNL     1       6.548  -0.912  18.589  1.00  0.00     0.060 A 
BRANCH  72  73
ATOM     73  S   UNL     1       6.906  -2.406  19.537  1.00  0.00     0.124 S 
ATOM     74  O   UNL     1       7.667  -3.189  18.568  1.00  0.00    -0.237 OA
ATOM     75  O   UNL     1       7.668  -1.887  20.669  1.00  0.00    -0.237 OA
ATOM     76  O   UNL     1       5.582  -2.926  19.863  1.00  0.00    -0.744 OA
ENDBRANCH  72  73
ENDBRANCH  51  65
BRANCH  52  77
ATOM     77  C   UNL     1       4.287   8.911  10.719  1.00  0.00     0.058 A 
ATOM     78  C   UNL     1       4.799  10.187  10.993  1.00  0.00     0.135 A 
ATOM     79  C   UNL     1       3.573   8.733   9.524  1.00  0.00     0.135 A 
ATOM     80  F   UNL     1       5.483  10.406  12.127  1.00  0.00    -0.206 F 
ATOM     81  C   UNL     1       4.611  11.251  10.118  1.00  0.00     0.059 A 
ATOM     82  C   UNL     1       3.390   9.777   8.622  1.00  0.00     0.059 A 
ATOM     83  F   UNL     1       3.076   7.527   9.210  1.00  0.00    -0.206 F 
ATOM     84  C   UNL     1       3.910  11.034   8.930  1.00  0.00     0.060 A 
BRANCH  84  85
ATOM     85  S   UNL     1       3.738  12.404   7.766  1.00  0.00     0.124 S 
ATOM     86  O   UNL     1       2.753  13.241   8.440  1.00  0.00    -0.237 OA
ATOM     87  O   UNL     1       5.097  12.933   7.713  1.00  0.00    -0.237 OA
ATOM     88  O   UNL     1       3.281  11.749   6.544  1.00  0.00    -0.744 OA
ENDBRANCH  84  85
ENDBRANCH  52  77
BRANCH  64  89
ATOM     89  C   UNL     1       2.060   7.403  17.148  1.00  0.00     0.058 A 
ATOM     90  C   UNL     1       0.673   7.426  16.936  1.00  0.00     0.135 A 
ATOM     91  C   UNL     1       2.561   8.056  18.286  1.00  0.00     0.135 A 
ATOM     92  F   UNL     1       0.143   6.824  15.860  1.00  0.00    -0.206 F 
ATOM     93  C   UNL     1      -0.183   8.100  17.802  1.00  0.00     0.059 A 
ATOM     94  C   UNL     1       1.721   8.712  19.180  1.00  0.00     0.059 A 
ATOM     95  F   UNL     1       3.879   8.055  18.541  1.00  0.00    -0.206 F 
ATOM     96  C   UNL     1       0.352   8.743  18.920  1.00  0.00     0.060 A 
BRANCH  96  97
ATOM     97  S   UNL     1      -0.768   9.607  20.043  1.00  0.00     0.124 S 
ATOM     98  O   UNL     1      -1.061  10.820  19.288  1.00  0.00    -0.237 OA
ATOM     99  O   UNL     1      -1.872   8.661  20.175  1.00  0.00    -0.237 OA
ATOM    100  O   UNL     1       0.037   9.793  21.247  1.00  0.00    -0.744 OA
ENDBRANCH  96  97
ENDBRANCH  64  89
ENDBRANCH  38  39
ENDBRANCH  30  33
ENDBRANCH  28  29
ENDBRANCH  27  28
ENDBRANCH  26  27
ENDBRANCH   1  26
TORSDOF 19
