REMARK SMILES CCc1ccc(C(=O)NCCCCCCNC(=O)c2ccc(-c3c4nc(c(-c5c(F)cc(S(=O)(=O)[O-])cc5F)c5ccc([nH]5)c(-c5c(F)cc(S(=O)(=O)[O-])cc5F)c5nc(c(-c6c(F)cc(S(=O)(=O)[O-])cc6F)c6ccc3[nH]6)C=C5)C=C4)cc2)cc1S(=O)(=O)Nc1ccc(F)c(F)c1F
REMARK SMILES IDX 12 1 11 2 10 3 9 4 7 5 8 6 6 8 3 9 4 10 86 11 5 12 85 13
REMARK SMILES IDX 2 14 1 15 87 16 88 17 89 18 90 19 91 21 92 22 98 23 93 24
REMARK SMILES IDX 96 25 99 26 94 27 97 28 95 29 13 30 14 31 15 32 16 33 17 34
REMARK SMILES IDX 18 36 19 37 20 38 84 39 21 40 83 41 22 42 23 43 24 44 77 45
REMARK SMILES IDX 25 46 82 47 76 48 78 49 26 50 81 51 75 52 74 53 27 55 61 56
REMARK SMILES IDX 40 57 60 58 41 59 44 60 59 61 79 62 42 63 43 64 58 66 80 67
REMARK SMILES IDX 45 68 28 69 29 70 38 71 30 72 31 73 37 74 39 75 32 76 33 77
REMARK SMILES IDX 34 78 35 79 36 80 62 81 63 82 72 83 64 84 65 85 71 86 73 87
REMARK SMILES IDX 66 88 67 89 68 90 69 91 70 92 46 93 47 94 56 95 48 96 49 97
REMARK SMILES IDX 55 98 57 99 50 100 51 101 52 102 53 103 54 104
REMARK H PARENT 9 7 90 20 16 35 78 54 44 65
REMARK Flexibility Score: inf
ROOT
ATOM      1  C   UNL     1       0.139   9.813   0.709  1.00  0.00     0.002 C 
ENDROOT
BRANCH   1   2
ATOM      2  C   UNL     1      -0.119   8.313   0.926  1.00  0.00     0.021 C 
BRANCH   2   3
ATOM      3  C   UNL     1      -0.020   7.506  -0.368  1.00  0.00     0.116 C 
BRANCH   3   4
ATOM      4  N   UNL     1       1.373   7.452  -0.777  1.00  0.00    -0.352 N 
ATOM      5  C   UNL     1       2.328   6.479  -0.676  1.00  0.00     0.251 C 
ATOM      6  O   UNL     1       3.490   6.770  -0.960  1.00  0.00    -0.269 OA
ATOM      7  H   UNL     1       1.691   8.277  -1.210  1.00  0.00     0.163 HD
BRANCH   5   8
ATOM      8  C   UNL     1       1.985   5.065  -0.395  1.00  0.00     0.041 A 
ATOM      9  C   UNL     1       1.174   2.347  -0.377  1.00  0.00    -0.028 A 
ATOM     10  C   UNL     1       2.288   2.785  -1.121  1.00  0.00     0.006 A 
ATOM     11  C   UNL     1       0.569   3.279   0.499  1.00  0.00     0.091 A 
ATOM     12  C   UNL     1       2.674   4.120  -1.147  1.00  0.00     0.014 A 
ATOM     13  C   UNL     1       1.010   4.627   0.497  1.00  0.00     0.036 A 
BRANCH   9  14
ATOM     14  C   UNL     1       0.725   0.923  -0.576  1.00  0.00     0.033 C 
ATOM     15  C   UNL     1       1.222   0.159  -1.802  1.00  0.00     0.009 C 
ENDBRANCH   9  14
BRANCH  11  16
ATOM     16  S   UNL     1      -0.844   3.046   1.591  1.00  0.00     0.262 S 
ATOM     17  O   UNL     1      -0.435   3.399   2.926  1.00  0.00    -0.201 OA
ATOM     18  O   UNL     1      -1.914   3.792   0.945  1.00  0.00    -0.201 OA
BRANCH  16  19
ATOM     19  N   UNL     1      -1.401   1.480   1.571  1.00  0.00    -0.277 N 
ATOM     20  H   UNL     1      -2.296   1.348   1.183  1.00  0.00     0.180 HD
BRANCH  19  21
ATOM     21  C   UNL     1      -0.749   0.305   2.043  1.00  0.00     0.088 A 
ATOM     22  C   UNL     1      -1.266  -0.897   1.525  1.00  0.00     0.033 A 
ATOM     23  C   UNL     1       0.435   0.264   2.790  1.00  0.00     0.185 A 
ATOM     24  C   UNL     1      -0.556  -2.092   1.656  1.00  0.00     0.045 A 
ATOM     25  C   UNL     1       1.128  -0.935   2.938  1.00  0.00     0.196 A 
ATOM     26  F   UNL     1       0.997   1.375   3.277  1.00  0.00    -0.201 F 
ATOM     27  C   UNL     1       0.648  -2.097   2.349  1.00  0.00     0.162 A 
ATOM     28  F   UNL     1       2.306  -0.951   3.578  1.00  0.00    -0.200 F 
ATOM     29  F   UNL     1       1.366  -3.227   2.403  1.00  0.00    -0.204 F 
ENDBRANCH  19  21
ENDBRANCH  16  19
ENDBRANCH  11  16
ENDBRANCH   5   8
ENDBRANCH   3   4
ENDBRANCH   2   3
ENDBRANCH   1   2
BRANCH   1  30
ATOM     30  C   UNL     1      -0.885  10.508  -0.196  1.00  0.00     0.002 C 
BRANCH  30  31
ATOM     31  C   UNL     1      -2.337  10.368   0.264  1.00  0.00     0.021 C 
BRANCH  31  32
ATOM     32  C   UNL     1      -2.602  10.921   1.660  1.00  0.00     0.116 C 
BRANCH  32  33
ATOM     33  N   UNL     1      -2.388  12.358   1.713  1.00  0.00    -0.352 N 
ATOM     34  C   UNL     1      -3.230  13.333   2.184  1.00  0.00     0.251 C 
ATOM     35  H   UNL     1      -1.523  12.674   1.365  1.00  0.00     0.163 HD
ATOM     36  O   UNL     1      -3.000  14.515   1.945  1.00  0.00    -0.269 OA
BRANCH  34  37
ATOM     37  C   UNL     1      -4.418  12.948   2.972  1.00  0.00     0.039 A 
ATOM     38  C   UNL     1      -5.646  13.551   2.688  1.00  0.00     0.014 A 
ATOM     39  C   UNL     1      -4.315  12.001   3.996  1.00  0.00     0.014 A 
ATOM     40  C   UNL     1      -6.780  13.175   3.409  1.00  0.00     0.010 A 
ATOM     41  C   UNL     1      -5.458  11.581   4.668  1.00  0.00     0.010 A 
ATOM     42  C   UNL     1      -6.698  12.175   4.391  1.00  0.00    -0.014 A 
BRANCH  42  43
ATOM     43  C   UNL     1      -7.897  11.750   5.154  1.00  0.00     0.031 A 
ATOM     44  C   UNL     1      -7.973  12.001   6.635  1.00  0.00     0.074 A 
ATOM     45  C   UNL     1      -8.883  11.082   4.527  1.00  0.00     0.049 A 
ATOM     46  N   UNL     1      -8.908  11.660   7.484  1.00  0.00    -0.248 NA
ATOM     47  C   UNL     1      -6.832  12.699   7.248  1.00  0.00     0.031 C 
ATOM     48  C   UNL     1      -8.892  10.726   3.107  1.00  0.00     0.029 A 
ATOM     49  N   UNL     1     -10.062  10.570   5.006  1.00  0.00    -0.354 N 
ATOM     50  C   UNL     1      -8.460  12.081   8.730  1.00  0.00     0.074 A 
ATOM     51  C   UNL     1      -7.148  12.658   8.533  1.00  0.00     0.031 C 
ATOM     52  C   UNL     1     -10.028  10.067   2.826  1.00  0.00     0.029 A 
ATOM     53  C   UNL     1     -10.813   9.929   4.050  1.00  0.00     0.049 A 
ATOM     54  H   UNL     1     -10.344  10.653   5.946  1.00  0.00     0.167 HD
ATOM     55  C   UNL     1      -9.093  12.012   9.926  1.00  0.00     0.037 A 
ATOM     56  C   UNL     1     -11.999   9.299   4.148  1.00  0.00     0.037 A 
ATOM     57  C   UNL     1     -10.411  11.462  10.106  1.00  0.00     0.049 A 
ATOM     58  C   UNL     1     -12.703   9.266   5.476  1.00  0.00     0.074 A 
ATOM     59  C   UNL     1     -11.174  11.414  11.259  1.00  0.00     0.029 A 
ATOM     60  N   UNL     1     -11.160  10.861   9.105  1.00  0.00    -0.354 N 
ATOM     61  N   UNL     1     -12.301   9.739   6.632  1.00  0.00    -0.248 NA
ATOM     62  C   UNL     1     -14.025   8.627   5.512  1.00  0.00     0.031 C 
ATOM     63  C   UNL     1     -12.370  10.748  10.963  1.00  0.00     0.029 A 
ATOM     64  C   UNL     1     -12.370  10.421   9.617  1.00  0.00     0.049 A 
ATOM     65  H   UNL     1     -10.874  10.761   8.168  1.00  0.00     0.167 HD
ATOM     66  C   UNL     1     -13.328   9.473   7.530  1.00  0.00     0.074 A 
ATOM     67  C   UNL     1     -14.374   8.807   6.779  1.00  0.00     0.031 C 
ATOM     68  C   UNL     1     -13.399   9.756   8.855  1.00  0.00     0.037 A 
BRANCH  55  69
ATOM     69  C   UNL     1      -8.357  12.543  11.127  1.00  0.00     0.058 A 
ATOM     70  C   UNL     1      -8.114  13.915  11.297  1.00  0.00     0.135 A 
ATOM     71  C   UNL     1      -7.884  11.667  12.117  1.00  0.00     0.135 A 
ATOM     72  F   UNL     1      -8.533  14.796  10.375  1.00  0.00    -0.206 F 
ATOM     73  C   UNL     1      -7.386  14.397  12.381  1.00  0.00     0.059 A 
ATOM     74  C   UNL     1      -7.178  12.130  13.225  1.00  0.00     0.059 A 
ATOM     75  F   UNL     1      -8.091  10.346  12.008  1.00  0.00    -0.206 F 
ATOM     76  C   UNL     1      -6.914  13.495  13.335  1.00  0.00     0.060 A 
BRANCH  76  77
ATOM     77  S   UNL     1      -5.945  14.128  14.720  1.00  0.00     0.124 S 
ATOM     78  O   UNL     1      -4.658  14.384  14.081  1.00  0.00    -0.237 OA
ATOM     79  O   UNL     1      -6.701  15.312  15.118  1.00  0.00    -0.237 OA
ATOM     80  O   UNL     1      -5.963  13.027  15.678  1.00  0.00    -0.744 OA
ENDBRANCH  76  77
ENDBRANCH  55  69
BRANCH  56  81
ATOM     81  C   UNL     1     -12.601   8.685   2.937  1.00  0.00     0.058 A 
ATOM     82  C   UNL     1     -13.689   9.288   2.288  1.00  0.00     0.135 A 
ATOM     83  C   UNL     1     -12.064   7.520   2.369  1.00  0.00     0.135 A 
ATOM     84  F   UNL     1     -14.240  10.400   2.797  1.00  0.00    -0.206 F 
ATOM     85  C   UNL     1     -14.223   8.759   1.118  1.00  0.00     0.059 A 
ATOM     86  C   UNL     1     -12.567   6.983   1.188  1.00  0.00     0.059 A 
ATOM     87  F   UNL     1     -11.011   6.916   2.943  1.00  0.00    -0.206 F 
ATOM     88  C   UNL     1     -13.649   7.610   0.570  1.00  0.00     0.060 A 
BRANCH  88  89
ATOM     89  S   UNL     1     -14.292   6.982  -0.997  1.00  0.00     0.124 S 
ATOM     90  O   UNL     1     -15.553   6.382  -0.578  1.00  0.00    -0.237 OA
ATOM     91  O   UNL     1     -14.397   8.199  -1.796  1.00  0.00    -0.237 OA
ATOM     92  O   UNL     1     -13.260   6.045  -1.431  1.00  0.00    -0.744 OA
ENDBRANCH  88  89
ENDBRANCH  56  81
BRANCH  68  93
ATOM     93  C   UNL     1     -14.659   9.367   9.576  1.00  0.00     0.058 A 
ATOM     94  C   UNL     1     -14.941   8.030   9.894  1.00  0.00     0.135 A 
ATOM     95  C   UNL     1     -15.569  10.349   9.997  1.00  0.00     0.135 A 
ATOM     96  F   UNL     1     -14.106   7.052   9.508  1.00  0.00    -0.206 F 
ATOM     97  C   UNL     1     -16.095   7.677  10.586  1.00  0.00     0.059 A 
ATOM     98  C   UNL     1     -16.716  10.022  10.712  1.00  0.00     0.059 A 
ATOM     99  F   UNL     1     -15.340  11.644   9.727  1.00  0.00    -0.206 F 
ATOM    100  C   UNL     1     -16.977   8.681  10.992  1.00  0.00     0.060 A 
BRANCH 100 101
ATOM    101  S   UNL     1     -18.456   8.215  11.917  1.00  0.00     0.124 S 
ATOM    102  O   UNL     1     -19.302   7.670  10.861  1.00  0.00    -0.237 OA
ATOM    103  O   UNL     1     -17.934   7.245  12.875  1.00  0.00    -0.237 OA
ATOM    104  O   UNL     1     -18.905   9.477  12.495  1.00  0.00    -0.744 OA
ENDBRANCH 100 101
ENDBRANCH  68  93
ENDBRANCH  42  43
ENDBRANCH  34  37
ENDBRANCH  32  33
ENDBRANCH  31  32
ENDBRANCH  30  31
ENDBRANCH   1  30
TORSDOF 20
