REMARK SMILES O=C(NCCCCCCNC(=O)c1ccc(-c2c3nc(c(-c4c(F)cc(S(=O)(=O)[O-])cc4F)c4ccc([nH]4)c(-c4c(F)cc(S(=O)(=O)[O-])cc4F)c4nc(c(-c5c(F)cc(S(=O)(=O)[O-])cc5F)c5ccc2[nH]5)C=C4)C=C3)cc1)C1=Cc2cc(C(F)(F)F)ccc2O[C@@H]1C(F)(F)F
REMARK SMILES IDX 7 1 6 2 5 3 4 4 3 5 1 6 2 7 79 9 80 10 92 11 81 12 91 13
REMARK SMILES IDX 82 14 90 15 83 16 89 17 88 18 93 19 94 20 95 21 96 22 84 23
REMARK SMILES IDX 85 24 86 25 87 26 8 27 9 28 10 29 11 30 12 32 13 33 14 34
REMARK SMILES IDX 78 35 15 36 77 37 16 38 17 39 18 40 71 41 19 42 76 43 70 44
REMARK SMILES IDX 72 45 20 46 75 47 69 48 68 49 21 51 55 52 34 53 54 54 35 55
REMARK SMILES IDX 38 56 53 57 73 58 36 59 37 60 52 62 74 63 39 64 22 65 23 66
REMARK SMILES IDX 32 67 24 68 25 69 31 70 33 71 26 72 27 73 28 74 29 75 30 76
REMARK SMILES IDX 56 77 57 78 66 79 58 80 59 81 65 82 67 83 60 84 61 85 62 86
REMARK SMILES IDX 63 87 64 88 40 89 41 90 50 91 42 92 43 93 49 94 51 95 44 96
REMARK SMILES IDX 45 97 46 98 47 99 48 100
REMARK H PARENT 3 8 10 31 72 50 38 61
REMARK Flexibility Score: inf
ROOT
ATOM      1  C   UNL     1       4.456  -4.331  -1.696  1.00  0.00     0.002 C 
ENDROOT
BRANCH   1   2
ATOM      2  C   UNL     1       3.809  -4.384  -0.306  1.00  0.00     0.002 C 
BRANCH   2   3
ATOM      3  C   UNL     1       4.137  -3.238   0.649  1.00  0.00     0.021 C 
BRANCH   3   4
ATOM      4  C   UNL     1       3.839  -1.834   0.131  1.00  0.00     0.116 C 
BRANCH   4   5
ATOM      5  N   UNL     1       2.583  -1.259   0.587  1.00  0.00    -0.352 N 
ATOM      6  O   UNL     1       1.057   0.355   0.949  1.00  0.00    -0.270 OA
ATOM      7  C   UNL     1       2.233   0.056   0.749  1.00  0.00     0.251 C 
ATOM      8  H   UNL     1       1.881  -1.911   0.813  1.00  0.00     0.163 HD
BRANCH   7   9
ATOM      9  C   UNL     1       3.229   1.155   0.604  1.00  0.00     0.067 C 
ATOM     10  C   UNL     1       4.380   1.116   1.297  1.00  0.00     0.025 C 
ATOM     11  C   UNL     1       3.162   1.882  -0.715  1.00  0.00     0.314 C 
ATOM     12  C   UNL     1       5.556   0.969   0.414  1.00  0.00     0.018 A 
ATOM     13  O   UNL     1       4.282   1.565  -1.585  1.00  0.00    -0.475 OA
ATOM     14  C   UNL     1       6.692   0.351   0.953  1.00  0.00     0.025 A 
ATOM     15  C   UNL     1       5.420   1.101  -0.976  1.00  0.00     0.128 A 
ATOM     16  C   UNL     1       7.643  -0.234   0.104  1.00  0.00     0.056 A 
ATOM     17  C   UNL     1       6.413   0.611  -1.820  1.00  0.00     0.048 A 
ATOM     18  C   UNL     1       7.509  -0.072  -1.285  1.00  0.00     0.017 A 
BRANCH  11  19
ATOM     19  C   UNL     1       3.039   3.401  -0.517  1.00  0.00     0.429 C 
ATOM     20  F   UNL     1       2.801   4.033  -1.692  1.00  0.00    -0.167 F 
ATOM     21  F   UNL     1       2.015   3.720   0.312  1.00  0.00    -0.167 F 
ATOM     22  F   UNL     1       4.161   3.946   0.012  1.00  0.00    -0.167 F 
ENDBRANCH  11  19
BRANCH  16  23
ATOM     23  C   UNL     1       8.741  -1.098   0.680  1.00  0.00     0.416 C 
ATOM     24  F   UNL     1       9.879  -0.408   0.937  1.00  0.00    -0.166 F 
ATOM     25  F   UNL     1       8.373  -1.683   1.857  1.00  0.00    -0.166 F 
ATOM     26  F   UNL     1       9.079  -2.131  -0.141  1.00  0.00    -0.166 F 
ENDBRANCH  16  23
ENDBRANCH   7   9
ENDBRANCH   4   5
ENDBRANCH   3   4
ENDBRANCH   2   3
ENDBRANCH   1   2
BRANCH   1  27
ATOM     27  C   UNL     1       5.967  -4.079  -1.759  1.00  0.00     0.021 C 
BRANCH  27  28
ATOM     28  C   UNL     1       6.855  -5.035  -0.964  1.00  0.00     0.116 C 
BRANCH  28  29
ATOM     29  N   UNL     1       6.667  -6.426  -1.336  1.00  0.00    -0.352 N 
ATOM     30  C   UNL     1       7.586  -7.395  -1.653  1.00  0.00     0.251 C 
ATOM     31  H   UNL     1       5.728  -6.722  -1.366  1.00  0.00     0.163 HD
ATOM     32  O   UNL     1       7.188  -8.481  -2.067  1.00  0.00    -0.269 OA
BRANCH  30  33
ATOM     33  C   UNL     1       9.043  -7.147  -1.527  1.00  0.00     0.039 A 
ATOM     34  C   UNL     1       9.890  -7.643  -2.525  1.00  0.00     0.014 A 
ATOM     35  C   UNL     1       9.589  -6.487  -0.423  1.00  0.00     0.014 A 
ATOM     36  C   UNL     1      11.270  -7.434  -2.442  1.00  0.00     0.010 A 
ATOM     37  C   UNL     1      10.960  -6.227  -0.370  1.00  0.00     0.010 A 
ATOM     38  C   UNL     1      11.816  -6.703  -1.376  1.00  0.00    -0.014 A 
BRANCH  38  39
ATOM     39  C   UNL     1      13.277  -6.431  -1.301  1.00  0.00     0.031 A 
ATOM     40  C   UNL     1      14.109  -7.029  -0.199  1.00  0.00     0.074 A 
ATOM     41  C   UNL     1      13.847  -5.603  -2.200  1.00  0.00     0.049 A 
ATOM     42  N   UNL     1      15.384  -6.873   0.052  1.00  0.00    -0.248 NA
ATOM     43  C   UNL     1      13.413  -7.902   0.759  1.00  0.00     0.031 C 
ATOM     44  C   UNL     1      13.143  -4.932  -3.295  1.00  0.00     0.029 A 
ATOM     45  N   UNL     1      15.146  -5.180  -2.332  1.00  0.00    -0.354 N 
ATOM     46  C   UNL     1      15.639  -7.608   1.204  1.00  0.00     0.074 A 
ATOM     47  C   UNL     1      14.377  -8.179   1.625  1.00  0.00     0.031 C 
ATOM     48  C   UNL     1      14.022  -4.201  -4.000  1.00  0.00     0.029 A 
ATOM     49  C   UNL     1      15.342  -4.322  -3.389  1.00  0.00     0.049 A 
ATOM     50  H   UNL     1      15.869  -5.464  -1.728  1.00  0.00     0.167 HD
ATOM     51  C   UNL     1      16.818  -7.802   1.843  1.00  0.00     0.037 A 
ATOM     52  C   UNL     1      16.458  -3.698  -3.816  1.00  0.00     0.037 A 
ATOM     53  C   UNL     1      18.076  -7.255   1.404  1.00  0.00     0.049 A 
ATOM     54  C   UNL     1      17.755  -3.928  -3.088  1.00  0.00     0.074 A 
ATOM     55  C   UNL     1      19.336  -7.456   1.941  1.00  0.00     0.029 A 
ATOM     56  N   UNL     1      18.235  -6.394   0.328  1.00  0.00    -0.354 N 
ATOM     57  N   UNL     1      17.990  -4.682  -2.041  1.00  0.00    -0.248 NA
ATOM     58  C   UNL     1      18.939  -3.225  -3.602  1.00  0.00     0.031 C 
ATOM     59  C   UNL     1      20.250  -6.682   1.217  1.00  0.00     0.029 A 
ATOM     60  C   UNL     1      19.566  -6.035   0.200  1.00  0.00     0.049 A 
ATOM     61  H   UNL     1      17.507  -6.085  -0.259  1.00  0.00     0.167 HD
ATOM     62  C   UNL     1      19.352  -4.567  -1.788  1.00  0.00     0.074 A 
ATOM     63  C   UNL     1      19.890  -3.676  -2.796  1.00  0.00     0.031 C 
ATOM     64  C   UNL     1      20.091  -5.150  -0.811  1.00  0.00     0.037 A 
BRANCH  51  65
ATOM     65  C   UNL     1      16.803  -8.638   3.095  1.00  0.00     0.058 A 
ATOM     66  C   UNL     1      16.591 -10.025   3.056  1.00  0.00     0.135 A 
ATOM     67  C   UNL     1      17.033  -8.047   4.348  1.00  0.00     0.135 A 
ATOM     68  F   UNL     1      16.356 -10.641   1.887  1.00  0.00    -0.206 F 
ATOM     69  C   UNL     1      16.571 -10.791   4.218  1.00  0.00     0.059 A 
ATOM     70  C   UNL     1      17.044  -8.798   5.521  1.00  0.00     0.059 A 
ATOM     71  F   UNL     1      17.244  -6.725   4.444  1.00  0.00    -0.206 F 
ATOM     72  C   UNL     1      16.794 -10.168   5.446  1.00  0.00     0.060 A 
BRANCH  72  73
ATOM     73  S   UNL     1      16.755 -11.173   6.945  1.00  0.00     0.124 S 
ATOM     74  O   UNL     1      15.322 -11.410   7.098  1.00  0.00    -0.237 OA
ATOM     75  O   UNL     1      17.552 -12.334   6.566  1.00  0.00    -0.237 OA
ATOM     76  O   UNL     1      17.358 -10.305   7.953  1.00  0.00    -0.744 OA
ENDBRANCH  72  73
ENDBRANCH  51  65
BRANCH  52  77
ATOM     77  C   UNL     1      16.403  -2.821  -5.015  1.00  0.00     0.058 A 
ATOM     78  C   UNL     1      16.988  -3.223  -6.225  1.00  0.00     0.135 A 
ATOM     79  C   UNL     1      15.750  -1.579  -4.984  1.00  0.00     0.135 A 
ATOM     80  F   UNL     1      17.630  -4.398  -6.301  1.00  0.00    -0.206 F 
ATOM     81  C   UNL     1      16.936  -2.422  -7.361  1.00  0.00     0.059 A 
ATOM     82  C   UNL     1      15.664  -0.771  -6.114  1.00  0.00     0.059 A 
ATOM     83  F   UNL     1      15.161  -1.156  -3.855  1.00  0.00    -0.206 F 
ATOM     84  C   UNL     1      16.267  -1.198  -7.296  1.00  0.00     0.060 A 
BRANCH  84  85
ATOM     85  S   UNL     1      16.152  -0.194  -8.793  1.00  0.00     0.124 S 
ATOM     86  O   UNL     1      17.509   0.327  -8.903  1.00  0.00    -0.237 OA
ATOM     87  O   UNL     1      15.762  -1.181  -9.795  1.00  0.00    -0.237 OA
ATOM     88  O   UNL     1      15.123   0.787  -8.459  1.00  0.00    -0.744 OA
ENDBRANCH  84  85
ENDBRANCH  52  77
BRANCH  64  89
ATOM     89  C   UNL     1      21.568  -4.871  -0.800  1.00  0.00     0.058 A 
ATOM     90  C   UNL     1      22.082  -3.631  -0.391  1.00  0.00     0.135 A 
ATOM     91  C   UNL     1      22.483  -5.874  -1.158  1.00  0.00     0.135 A 
ATOM     92  F   UNL     1      21.251  -2.635  -0.046  1.00  0.00    -0.206 F 
ATOM     93  C   UNL     1      23.452  -3.388  -0.355  1.00  0.00     0.059 A 
ATOM     94  C   UNL     1      23.857  -5.662  -1.105  1.00  0.00     0.059 A 
ATOM     95  F   UNL     1      22.044  -7.082  -1.548  1.00  0.00    -0.206 F 
ATOM     96  C   UNL     1      24.332  -4.412  -0.714  1.00  0.00     0.060 A 
BRANCH  96  97
ATOM     97  S   UNL     1      26.108  -4.097  -0.630  1.00  0.00     0.124 S 
ATOM     98  O   UNL     1      26.315  -3.265  -1.811  1.00  0.00    -0.237 OA
ATOM     99  O   UNL     1      26.247  -3.418   0.655  1.00  0.00    -0.237 OA
ATOM    100  O   UNL     1      26.693  -5.433  -0.692  1.00  0.00    -0.744 OA
ENDBRANCH  96  97
ENDBRANCH  64  89
ENDBRANCH  38  39
ENDBRANCH  30  33
ENDBRANCH  28  29
ENDBRANCH  27  28
ENDBRANCH   1  27
TORSDOF 18
