REMARK SMILES O=C(NCCCCCCNC(=O)c1ccccc1OCC[S@@](=O)c1cccc(F)c1)c1ccc(-c2c3nc(c(-c4c(F)cc(S(=O)(=O)[O-])cc4F)c4ccc([nH]4)c(-c4c(F)cc(S(=O)(=O)[O-])cc4F)c4nc(c(-c5c(F)cc(S(=O)(=O)[O-])cc5F)c5ccc2[nH]5)C=C4)C=C3)cc1
REMARK SMILES IDX 7 1 6 2 5 3 4 4 3 5 1 6 2 7 31 9 32 10 96 11 33 12 95 13
REMARK SMILES IDX 34 14 35 15 36 16 89 17 37 18 94 19 88 20 90 21 38 22 93 23
REMARK SMILES IDX 87 24 86 25 39 27 73 28 52 29 72 30 53 31 56 32 71 33 91 34
REMARK SMILES IDX 54 35 55 36 70 38 92 39 57 40 40 41 41 42 50 43 42 44 43 45
REMARK SMILES IDX 49 46 51 47 44 48 45 49 46 50 47 51 48 52 74 53 75 54 84 55
REMARK SMILES IDX 76 56 77 57 83 58 85 59 78 60 79 61 80 62 81 63 82 64 58 65
REMARK SMILES IDX 59 66 68 67 60 68 61 69 67 70 69 71 62 72 63 73 64 74 65 75
REMARK SMILES IDX 66 76 8 77 9 78 10 79 11 80 12 82 13 83 14 84 18 85 15 86
REMARK SMILES IDX 17 87 16 88 19 89 20 90 21 91 22 92 23 93 24 94 25 95 30 96
REMARK SMILES IDX 26 97 28 98 27 99 29 100
REMARK H PARENT 3 8 90 26 56 37 10 81
REMARK Flexibility Score: inf
ROOT
ATOM      1  C   UNL     1       6.158  -1.410   3.051  1.00  0.00     0.002 C 
ENDROOT
BRANCH   1   2
ATOM      2  C   UNL     1       4.962  -0.503   3.377  1.00  0.00     0.002 C 
BRANCH   2   3
ATOM      3  C   UNL     1       4.720   0.617   2.362  1.00  0.00     0.021 C 
BRANCH   3   4
ATOM      4  C   UNL     1       4.415   0.141   0.945  1.00  0.00     0.116 C 
BRANCH   4   5
ATOM      5  N   UNL     1       3.044  -0.318   0.777  1.00  0.00    -0.352 N 
ATOM      6  O   UNL     1       1.049  -0.410  -0.310  1.00  0.00    -0.269 OA
ATOM      7  C   UNL     1       2.237  -0.099  -0.317  1.00  0.00     0.251 C 
ATOM      8  H   UNL     1       2.656  -0.837   1.518  1.00  0.00     0.163 HD
BRANCH   7   9
ATOM      9  C   UNL     1       2.838   0.555  -1.496  1.00  0.00     0.039 A 
ATOM     10  C   UNL     1       3.979   0.000  -2.086  1.00  0.00     0.014 A 
ATOM     11  C   UNL     1       2.318   1.769  -1.948  1.00  0.00     0.014 A 
ATOM     12  C   UNL     1       4.662   0.714  -3.064  1.00  0.00     0.010 A 
ATOM     13  C   UNL     1       2.972   2.454  -2.974  1.00  0.00     0.010 A 
ATOM     14  C   UNL     1       4.158   1.940  -3.525  1.00  0.00    -0.014 A 
BRANCH  14  15
ATOM     15  C   UNL     1       4.828   2.640  -4.647  1.00  0.00     0.031 A 
ATOM     16  C   UNL     1       5.482   3.977  -4.451  1.00  0.00     0.074 A 
ATOM     17  C   UNL     1       4.801   2.064  -5.864  1.00  0.00     0.049 A 
ATOM     18  N   UNL     1       6.024   4.766  -5.342  1.00  0.00    -0.248 NA
ATOM     19  C   UNL     1       5.525   4.501  -3.078  1.00  0.00     0.031 C 
ATOM     20  C   UNL     1       4.181   0.771  -6.164  1.00  0.00     0.029 A 
ATOM     21  N   UNL     1       5.285   2.491  -7.072  1.00  0.00    -0.354 N 
ATOM     22  C   UNL     1       6.446   5.893  -4.648  1.00  0.00     0.074 A 
ATOM     23  C   UNL     1       6.089   5.688  -3.259  1.00  0.00     0.031 C 
ATOM     24  C   UNL     1       4.323   0.509  -7.470  1.00  0.00     0.029 A 
ATOM     25  C   UNL     1       4.986   1.640  -8.108  1.00  0.00     0.049 A 
ATOM     26  H   UNL     1       5.796   3.325  -7.186  1.00  0.00     0.167 HD
ATOM     27  C   UNL     1       7.070   6.996  -5.131  1.00  0.00     0.037 A 
ATOM     28  C   UNL     1       5.182   1.770  -9.433  1.00  0.00     0.037 A 
ATOM     29  C   UNL     1       7.424   7.177  -6.517  1.00  0.00     0.049 A 
ATOM     30  C   UNL     1       5.862   3.001  -9.949  1.00  0.00     0.074 A 
ATOM     31  C   UNL     1       8.098   8.233  -7.104  1.00  0.00     0.029 A 
ATOM     32  N   UNL     1       7.119   6.283  -7.535  1.00  0.00    -0.354 N 
ATOM     33  N   UNL     1       6.291   4.042  -9.276  1.00  0.00    -0.248 NA
ATOM     34  C   UNL     1       6.087   3.082 -11.397  1.00  0.00     0.031 C 
ATOM     35  C   UNL     1       8.165   7.998  -8.482  1.00  0.00     0.029 A 
ATOM     36  C   UNL     1       7.570   6.774  -8.750  1.00  0.00     0.049 A 
ATOM     37  H   UNL     1       6.651   5.426  -7.412  1.00  0.00     0.167 HD
ATOM     38  C   UNL     1       6.847   4.899 -10.215  1.00  0.00     0.074 A 
ATOM     39  C   UNL     1       6.708   4.250 -11.504  1.00  0.00     0.031 C 
ATOM     40  C   UNL     1       7.423   6.111 -10.024  1.00  0.00     0.037 A 
BRANCH  27  41
ATOM     41  C   UNL     1       7.374   8.104  -4.160  1.00  0.00     0.058 A 
ATOM     42  C   UNL     1       8.378   7.985  -3.186  1.00  0.00     0.135 A 
ATOM     43  C   UNL     1       6.651   9.308  -4.207  1.00  0.00     0.135 A 
ATOM     44  F   UNL     1       9.095   6.854  -3.088  1.00  0.00    -0.206 F 
ATOM     45  C   UNL     1       8.623   9.000  -2.264  1.00  0.00     0.059 A 
ATOM     46  C   UNL     1       6.894  10.345  -3.311  1.00  0.00     0.059 A 
ATOM     47  F   UNL     1       5.684   9.479  -5.122  1.00  0.00    -0.206 F 
ATOM     48  C   UNL     1       7.867  10.172  -2.328  1.00  0.00     0.060 A 
BRANCH  48  49
ATOM     49  S   UNL     1       8.160  11.461  -1.097  1.00  0.00     0.124 S 
ATOM     50  O   UNL     1       7.495  10.898   0.074  1.00  0.00    -0.237 OA
ATOM     51  O   UNL     1       9.617  11.511  -1.033  1.00  0.00    -0.237 OA
ATOM     52  O   UNL     1       7.520  12.637  -1.678  1.00  0.00    -0.744 OA
ENDBRANCH  48  49
ENDBRANCH  27  41
BRANCH  28  53
ATOM     53  C   UNL     1       4.698   0.695 -10.334  1.00  0.00     0.058 A 
ATOM     54  C   UNL     1       5.587  -0.223 -10.908  1.00  0.00     0.135 A 
ATOM     55  C   UNL     1       3.322   0.495 -10.539  1.00  0.00     0.135 A 
ATOM     56  F   UNL     1       6.910  -0.070 -10.740  1.00  0.00    -0.206 F 
ATOM     57  C   UNL     1       5.131  -1.313 -11.641  1.00  0.00     0.059 A 
ATOM     58  C   UNL     1       2.841  -0.600 -11.248  1.00  0.00     0.059 A 
ATOM     59  F   UNL     1       2.433   1.335  -9.988  1.00  0.00    -0.206 F 
ATOM     60  C   UNL     1       3.755  -1.500 -11.795  1.00  0.00     0.060 A 
BRANCH  60  61
ATOM     61  S   UNL     1       3.170  -2.980 -12.649  1.00  0.00     0.124 S 
ATOM     62  O   UNL     1       3.437  -2.639 -14.041  1.00  0.00    -0.237 OA
ATOM     63  O   UNL     1       4.015  -4.022 -12.074  1.00  0.00    -0.237 OA
ATOM     64  O   UNL     1       1.761  -3.049 -12.273  1.00  0.00    -0.744 OA
ENDBRANCH  60  61
ENDBRANCH  28  53
BRANCH  40  65
ATOM     65  C   UNL     1       7.968   6.814 -11.233  1.00  0.00     0.058 A 
ATOM     66  C   UNL     1       7.126   7.476 -12.138  1.00  0.00     0.135 A 
ATOM     67  C   UNL     1       9.354   6.894 -11.440  1.00  0.00     0.135 A 
ATOM     68  F   UNL     1       5.793   7.417 -11.989  1.00  0.00    -0.206 F 
ATOM     69  C   UNL     1       7.640   8.198 -13.209  1.00  0.00     0.059 A 
ATOM     70  C   UNL     1       9.891   7.627 -12.493  1.00  0.00     0.059 A 
ATOM     71  F   UNL     1      10.200   6.279 -10.598  1.00  0.00    -0.206 F 
ATOM     72  C   UNL     1       9.025   8.275 -13.374  1.00  0.00     0.060 A 
BRANCH  72  73
ATOM     73  S   UNL     1       9.684   9.277 -14.723  1.00  0.00     0.124 S 
ATOM     74  O   UNL     1       9.432   8.419 -15.877  1.00  0.00    -0.237 OA
ATOM     75  O   UNL     1       8.871  10.486 -14.642  1.00  0.00    -0.237 OA
ATOM     76  O   UNL     1      11.088   9.449 -14.363  1.00  0.00    -0.744 OA
ENDBRANCH  72  73
ENDBRANCH  40  65
ENDBRANCH  14  15
ENDBRANCH   7   9
ENDBRANCH   4   5
ENDBRANCH   3   4
ENDBRANCH   2   3
ENDBRANCH   1   2
BRANCH   1  77
ATOM     77  C   UNL     1       7.560  -0.760   3.135  1.00  0.00     0.021 C 
BRANCH  77  78
ATOM     78  C   UNL     1       8.189  -0.589   4.539  1.00  0.00     0.116 C 
BRANCH  78  79
ATOM     79  N   UNL     1       8.521  -1.890   5.126  1.00  0.00    -0.352 N 
ATOM     80  C   UNL     1       9.241  -2.317   6.225  1.00  0.00     0.255 C 
ATOM     81  H   UNL     1       8.139  -2.639   4.615  1.00  0.00     0.163 HD
ATOM     82  O   UNL     1       9.328  -3.448   6.686  1.00  0.00    -0.269 OA
BRANCH  80  83
ATOM     83  C   UNL     1       9.755  -1.392   7.149  1.00  0.00     0.081 A 
ATOM     84  C   UNL     1      11.098  -1.487   7.510  1.00  0.00     0.018 A 
ATOM     85  C   UNL     1       8.836  -0.513   7.667  1.00  0.00     0.132 A 
ATOM     86  C   UNL     1      11.643  -0.423   8.179  1.00  0.00     0.001 A 
ATOM     87  C   UNL     1       9.414   0.633   8.193  1.00  0.00     0.047 A 
ATOM     88  C   UNL     1      10.821   0.682   8.421  1.00  0.00     0.004 A 
BRANCH  85  89
ATOM     89  O   UNL     1       7.475  -0.739   7.522  1.00  0.00    -0.492 OA
BRANCH  89  90
ATOM     90  C   UNL     1       6.965  -2.157   7.699  1.00  0.00     0.243 C 
BRANCH  90  91
ATOM     91  C   UNL     1       6.352  -2.933   6.450  1.00  0.00     0.152 C 
BRANCH  91  92
ATOM     92  S   UNL     1       6.799  -4.690   5.722  1.00  0.00     0.056 S 
ATOM     93  O   UNL     1       5.897  -4.820   4.524  1.00  0.00    -0.254 OA
BRANCH  92  94
ATOM     94  C   UNL     1       8.506  -4.984   4.941  1.00  0.00     0.042 A 
ATOM     95  C   UNL     1       9.335  -5.945   5.558  1.00  0.00     0.018 A 
ATOM     96  C   UNL     1       9.076  -4.285   3.858  1.00  0.00     0.057 A 
ATOM     97  C   UNL     1      10.723  -5.990   5.311  1.00  0.00     0.004 A 
ATOM     98  C   UNL     1      10.476  -4.240   3.714  1.00  0.00     0.124 A 
ATOM     99  C   UNL     1      11.309  -5.067   4.452  1.00  0.00     0.039 A 
ATOM    100  F   UNL     1      11.032  -3.312   2.919  1.00  0.00    -0.207 F 
ENDBRANCH  92  94
ENDBRANCH  91  92
ENDBRANCH  90  91
ENDBRANCH  89  90
ENDBRANCH  85  89
ENDBRANCH  80  83
ENDBRANCH  78  79
ENDBRANCH  77  78
ENDBRANCH   1  77
TORSDOF 21
