REMARK SMILES C[C@H](NC1=[NH+]S(=O)(=O)c2ccccc21)C(=O)NCCCCCCNC(=O)c1ccc(-c2c3nc(c(-c4c(F)cc(S(=O)(=O)[O-])cc4F)c4ccc([nH]4)c(-c4c(F)cc(S(=O)(=O)[O-])cc4F)c4nc(c(-c5c(F)cc(S(=O)(=O)[O-])cc5F)c5ccc2[nH]5)C=C4)C=C3)cc1
REMARK SMILES IDX 21 1 20 2 19 3 18 4 17 5 15 6 16 7 2 9 1 10 3 11 4 12 5 14
REMARK SMILES IDX 14 15 6 16 9 18 13 19 7 20 8 21 10 22 12 23 11 24 22 25
REMARK SMILES IDX 23 26 24 27 25 28 26 30 27 31 28 32 92 33 29 34 91 35 30 36
REMARK SMILES IDX 31 37 32 38 85 39 33 40 90 41 84 42 86 43 34 44 89 45 83 46
REMARK SMILES IDX 82 47 35 49 69 50 48 51 68 52 49 53 52 54 67 55 87 56 50 57
REMARK SMILES IDX 51 58 66 60 88 61 53 62 36 63 37 64 46 65 38 66 39 67 45 68
REMARK SMILES IDX 47 69 40 70 41 71 42 72 43 73 44 74 70 75 71 76 80 77 72 78
REMARK SMILES IDX 73 79 79 80 81 81 74 82 75 83 76 84 77 85 78 86 54 87 55 88
REMARK SMILES IDX 64 89 56 90 57 91 63 92 65 93 58 94 59 95 60 96 61 97 62 98
REMARK H PARENT 17 8 3 13 5 17 24 29 86 48 52 59
REMARK Flexibility Score: inf
ROOT
ATOM      1  C   UNL     1      -3.666  -2.049   3.301  1.00  0.00     0.002 C 
ENDROOT
BRANCH   1   2
ATOM      2  C   UNL     1      -3.266  -0.714   2.664  1.00  0.00     0.002 C 
BRANCH   2   3
ATOM      3  C   UNL     1      -1.771  -0.553   2.376  1.00  0.00     0.021 C 
BRANCH   3   4
ATOM      4  C   UNL     1      -1.199  -1.581   1.401  1.00  0.00     0.116 C 
BRANCH   4   5
ATOM      5  N   UNL     1      -1.574  -1.262   0.034  1.00  0.00    -0.352 N 
ATOM      6  C   UNL     1      -0.799  -0.911  -1.037  1.00  0.00     0.264 C 
ATOM      7  O   UNL     1      -1.372  -0.641  -2.095  1.00  0.00    -0.270 OA
ATOM      8  H   UNL     1      -2.540  -1.307  -0.151  1.00  0.00     0.163 HD
BRANCH   6   9
ATOM      9  C   UNL     1       0.743  -0.868  -0.926  1.00  0.00     0.258 C 
ATOM     10  C   UNL     1       1.269  -2.297  -0.781  1.00  0.00     0.069 C 
BRANCH   9  11
ATOM     11  N   UNL     1       1.139   0.042   0.157  1.00  0.00    -0.262 N 
ATOM     12  C   UNL     1       2.286  -0.055   0.900  1.00  0.00     0.292 C 
ATOM     13  H   UNL     1       0.529   0.785   0.366  1.00  0.00     0.306 HD
ATOM     14  N   UNL     1       3.370  -0.653   0.504  1.00  0.00    -0.162 N 
ATOM     15  C   UNL     1       2.313   0.447   2.295  1.00  0.00     0.087 A 
ATOM     16  S   UNL     1       4.482  -0.720   1.710  1.00  0.00     0.329 S 
ATOM     17  H   UNL     1       3.506  -1.019  -0.400  1.00  0.00     0.327 HD
ATOM     18  C   UNL     1       3.483   0.044   2.908  1.00  0.00     0.124 A 
ATOM     19  C   UNL     1       1.332   1.100   3.021  1.00  0.00     0.018 A 
ATOM     20  O   UNL     1       5.579   0.176   1.429  1.00  0.00    -0.179 OA
ATOM     21  O   UNL     1       4.675  -2.096   2.122  1.00  0.00    -0.179 OA
ATOM     22  C   UNL     1       3.717   0.191   4.260  1.00  0.00     0.025 A 
ATOM     23  C   UNL     1       1.542   1.281   4.394  1.00  0.00     0.001 A 
ATOM     24  C   UNL     1       2.718   0.814   5.011  1.00  0.00     0.002 A 
ENDBRANCH   9  11
ENDBRANCH   6   9
ENDBRANCH   4   5
ENDBRANCH   3   4
ENDBRANCH   2   3
ENDBRANCH   1   2
BRANCH   1  25
ATOM     25  C   UNL     1      -2.889  -2.439   4.562  1.00  0.00     0.021 C 
BRANCH  25  26
ATOM     26  C   UNL     1      -2.929  -1.415   5.693  1.00  0.00     0.116 C 
BRANCH  26  27
ATOM     27  N   UNL     1      -4.279  -1.172   6.170  1.00  0.00    -0.352 N 
ATOM     28  C   UNL     1      -4.789  -1.269   7.442  1.00  0.00     0.251 C 
ATOM     29  H   UNL     1      -4.925  -0.898   5.480  1.00  0.00     0.163 HD
ATOM     30  O   UNL     1      -6.002  -1.205   7.616  1.00  0.00    -0.269 OA
BRANCH  28  31
ATOM     31  C   UNL     1      -3.883  -1.466   8.595  1.00  0.00     0.039 A 
ATOM     32  C   UNL     1      -4.229  -2.404   9.572  1.00  0.00     0.014 A 
ATOM     33  C   UNL     1      -2.711  -0.716   8.728  1.00  0.00     0.014 A 
ATOM     34  C   UNL     1      -3.372  -2.629  10.652  1.00  0.00     0.010 A 
ATOM     35  C   UNL     1      -1.826  -0.988   9.770  1.00  0.00     0.010 A 
ATOM     36  C   UNL     1      -2.149  -1.944  10.745  1.00  0.00    -0.014 A 
BRANCH  36  37
ATOM     37  C   UNL     1      -1.198  -2.216  11.854  1.00  0.00     0.031 A 
ATOM     38  C   UNL     1      -0.878  -1.144  12.860  1.00  0.00     0.074 A 
ATOM     39  C   UNL     1      -0.577  -3.410  11.920  1.00  0.00     0.049 A 
ATOM     40  N   UNL     1      -0.038  -1.175  13.862  1.00  0.00    -0.248 NA
ATOM     41  C   UNL     1      -1.575   0.142  12.701  1.00  0.00     0.031 C 
ATOM     42  C   UNL     1      -0.770  -4.517  10.981  1.00  0.00     0.029 A 
ATOM     43  N   UNL     1       0.348  -3.891  12.812  1.00  0.00    -0.354 N 
ATOM     44  C   UNL     1      -0.091   0.087  14.442  1.00  0.00     0.074 A 
ATOM     45  C   UNL     1      -1.010   0.875  13.649  1.00  0.00     0.031 C 
ATOM     46  C   UNL     1      -0.012  -5.557  11.365  1.00  0.00     0.029 A 
ATOM     47  C   UNL     1       0.748  -5.181  12.553  1.00  0.00     0.049 A 
ATOM     48  H   UNL     1       0.693  -3.361  13.567  1.00  0.00     0.167 HD
ATOM     49  C   UNL     1       0.552   0.542  15.545  1.00  0.00     0.037 A 
ATOM     50  C   UNL     1       1.626  -5.971  13.200  1.00  0.00     0.037 A 
ATOM     51  C   UNL     1       1.442  -0.257  16.347  1.00  0.00     0.049 A 
ATOM     52  C   UNL     1       2.329  -5.443  14.420  1.00  0.00     0.074 A 
ATOM     53  C   UNL     1       2.086   0.089  17.523  1.00  0.00     0.029 A 
ATOM     54  N   UNL     1       1.818  -1.560  16.055  1.00  0.00    -0.354 N 
ATOM     55  N   UNL     1       2.217  -4.269  14.993  1.00  0.00    -0.248 NA
ATOM     56  C   UNL     1       3.276  -6.350  15.084  1.00  0.00     0.031 C 
ATOM     57  C   UNL     1       2.884  -0.991  17.918  1.00  0.00     0.029 A 
ATOM     58  C   UNL     1       2.704  -2.025  17.014  1.00  0.00     0.049 A 
ATOM     59  H   UNL     1       1.502  -2.078  15.280  1.00  0.00     0.167 HD
ATOM     60  C   UNL     1       3.056  -4.306  16.102  1.00  0.00     0.074 A 
ATOM     61  C   UNL     1       3.664  -5.621  16.122  1.00  0.00     0.031 C 
ATOM     62  C   UNL     1       3.297  -3.339  17.022  1.00  0.00     0.037 A 
BRANCH  49  63
ATOM     63  C   UNL     1       0.317   1.974  15.942  1.00  0.00     0.058 A 
ATOM     64  C   UNL     1      -0.917   2.407  16.455  1.00  0.00     0.135 A 
ATOM     65  C   UNL     1       1.341   2.927  15.812  1.00  0.00     0.135 A 
ATOM     66  F   UNL     1      -1.934   1.541  16.588  1.00  0.00    -0.206 F 
ATOM     67  C   UNL     1      -1.142   3.740  16.782  1.00  0.00     0.059 A 
ATOM     68  C   UNL     1       1.147   4.260  16.161  1.00  0.00     0.059 A 
ATOM     69  F   UNL     1       2.541   2.568  15.330  1.00  0.00    -0.206 F 
ATOM     70  C   UNL     1      -0.106   4.661  16.624  1.00  0.00     0.060 A 
BRANCH  70  71
ATOM     71  S   UNL     1      -0.421   6.394  17.022  1.00  0.00     0.124 S 
ATOM     72  O   UNL     1      -1.218   6.813  15.873  1.00  0.00    -0.237 OA
ATOM     73  O   UNL     1      -1.138   6.300  18.290  1.00  0.00    -0.237 OA
ATOM     74  O   UNL     1       0.917   6.972  17.103  1.00  0.00    -0.744 OA
ENDBRANCH  70  71
ENDBRANCH  49  63
BRANCH  50  75
ATOM     75  C   UNL     1       1.857  -7.362  12.729  1.00  0.00     0.058 A 
ATOM     76  C   UNL     1       1.369  -8.453  13.462  1.00  0.00     0.135 A 
ATOM     77  C   UNL     1       2.546  -7.629  11.536  1.00  0.00     0.135 A 
ATOM     78  F   UNL     1       0.710  -8.247  14.612  1.00  0.00    -0.206 F 
ATOM     79  C   UNL     1       1.562  -9.762  13.035  1.00  0.00     0.059 A 
ATOM     80  C   UNL     1       2.733  -8.929  11.077  1.00  0.00     0.059 A 
ATOM     81  F   UNL     1       3.018  -6.617  10.792  1.00  0.00    -0.206 F 
ATOM     82  C   UNL     1       2.243  -9.990  11.838  1.00  0.00     0.060 A 
BRANCH  82  83
ATOM     83  S   UNL     1       2.436 -11.691  11.264  1.00  0.00     0.124 S 
ATOM     84  O   UNL     1       3.458 -12.194  12.174  1.00  0.00    -0.237 OA
ATOM     85  O   UNL     1       1.093 -12.232  11.450  1.00  0.00    -0.237 OA
ATOM     86  O   UNL     1       2.850 -11.530   9.873  1.00  0.00    -0.744 OA
ENDBRANCH  82  83
ENDBRANCH  50  75
BRANCH  62  87
ATOM     87  C   UNL     1       4.234  -3.678  18.148  1.00  0.00     0.058 A 
ATOM     88  C   UNL     1       5.620  -3.779  17.951  1.00  0.00     0.135 A 
ATOM     89  C   UNL     1       3.741  -3.862  19.451  1.00  0.00     0.135 A 
ATOM     90  F   UNL     1       6.141  -3.620  16.724  1.00  0.00    -0.206 F 
ATOM     91  C   UNL     1       6.483  -4.075  19.001  1.00  0.00     0.059 A 
ATOM     92  C   UNL     1       4.589  -4.133  20.520  1.00  0.00     0.059 A 
ATOM     93  F   UNL     1       2.425  -3.767  19.695  1.00  0.00    -0.206 F 
ATOM     94  C   UNL     1       5.958  -4.250  20.283  1.00  0.00     0.060 A 
BRANCH  94  95
ATOM     95  S   UNL     1       7.090  -4.601  21.644  1.00  0.00     0.124 S 
ATOM     96  O   UNL     1       7.412  -6.004  21.404  1.00  0.00    -0.237 OA
ATOM     97  O   UNL     1       8.173  -3.653  21.404  1.00  0.00    -0.237 OA
ATOM     98  O   UNL     1       6.285  -4.335  22.832  1.00  0.00    -0.744 OA
ENDBRANCH  94  95
ENDBRANCH  62  87
ENDBRANCH  36  37
ENDBRANCH  28  31
ENDBRANCH  26  27
ENDBRANCH  25  26
ENDBRANCH   1  25
TORSDOF 17
